MODEL 1
REMARK VINA RESULT:       0.9      0.000      0.000
REMARK  3 active torsions:
REMARK  status: ('A' for Active; 'I' for Inactive)
REMARK    1  A    between atoms: C2_2  and  C10_10 
REMARK    2  A    between atoms: C3_3  and  C8_8 
REMARK    3  A    between atoms: C8_8  and  C10_10 
ROOT
HETATM    1  C4  UNL     1     -31.173   8.773   0.759  1.00 20.00     0.001 C 
HETATM    2  C5  UNL     1     -32.551   9.410   0.690  1.00 20.00     0.001 C 
HETATM    3  C6  UNL     1     -31.219   8.002   2.069  1.00 20.00     0.021 C 
HETATM    4  C7  UNL     1     -33.503   8.370   1.281  1.00 20.00     0.021 C 
HETATM    5  C8  UNL     1     -32.627   7.391   2.088  1.00 20.00     0.055 C 
ENDROOT
BRANCH   5   6
HETATM    6  C3  UNL     1     -32.612   6.040   1.416  1.00 20.00     0.182 C 
HETATM    7  O11 UNL     1     -33.620   5.782   0.702  1.00 20.00    -0.647 OA
HETATM    8  O12 UNL     1     -31.588   5.341   1.658  1.00 20.00    -0.647 OA
ENDBRANCH   5   6
BRANCH   5   9
HETATM    9  C10 UNL     1     -33.140   7.183   3.510  1.00 20.00     0.022 C 
HETATM   10  C9  UNL     1     -32.735   8.354   4.412  1.00 20.00     0.015 C 
BRANCH   9  11
HETATM   11  C2  UNL     1     -34.642   7.028   3.515  1.00 20.00    -0.031 C 
HETATM   12  C1  UNL     1     -35.289   6.012   4.098  1.00 20.00     0.007 C 
ENDBRANCH   9  11
ENDBRANCH   5   9
TORSDOF 3
ENDMDL
MODEL 2
REMARK VINA RESULT:       1.4      1.678      3.437
REMARK  3 active torsions:
REMARK  status: ('A' for Active; 'I' for Inactive)
REMARK    1  A    between atoms: C2_2  and  C10_10 
REMARK    2  A    between atoms: C3_3  and  C8_8 
REMARK    3  A    between atoms: C8_8  and  C10_10 
ROOT
HETATM    1  C4  UNL     1     -32.359   4.605   1.187  1.00 20.00     0.001 C 
HETATM    2  C5  UNL     1     -33.250   5.220   0.121  1.00 20.00     0.001 C 
HETATM    3  C6  UNL     1     -31.769   5.823   1.882  1.00 20.00     0.021 C 
HETATM    4  C7  UNL     1     -33.847   6.470   0.769  1.00 20.00     0.021 C 
HETATM    5  C8  UNL     1     -32.949   6.800   1.978  1.00 20.00     0.055 C 
ENDROOT
BRANCH   5   6
HETATM    6  C3  UNL     1     -33.708   6.568   3.261  1.00 20.00     0.182 C 
HETATM    7  O11 UNL     1     -33.889   5.358   3.569  1.00 20.00    -0.647 OA
HETATM    8  O12 UNL     1     -34.064   7.620   3.863  1.00 20.00    -0.647 OA
ENDBRANCH   5   6
BRANCH   5   9
HETATM    9  C10 UNL     1     -32.487   8.254   1.983  1.00 20.00     0.022 C 
HETATM   10  C9  UNL     1     -31.120   8.389   2.663  1.00 20.00     0.015 C 
BRANCH   9  11
HETATM   11  C2  UNL     1     -32.414   8.793   0.575  1.00 20.00    -0.031 C 
HETATM   12  C1  UNL     1     -32.520  10.090   0.262  1.00 20.00     0.007 C 
ENDBRANCH   9  11
ENDBRANCH   5   9
TORSDOF 3
ENDMDL
MODEL 3
REMARK VINA RESULT:       1.6      2.132      3.288
REMARK  3 active torsions:
REMARK  status: ('A' for Active; 'I' for Inactive)
REMARK    1  A    between atoms: C2_2  and  C10_10 
REMARK    2  A    between atoms: C3_3  and  C8_8 
REMARK    3  A    between atoms: C8_8  and  C10_10 
ROOT
HETATM    1  C4  UNL     1     -33.338   5.999   0.258  1.00 20.00     0.001 C 
HETATM    2  C5  UNL     1     -32.272   5.015   0.709  1.00 20.00     0.001 C 
HETATM    3  C6  UNL     1     -34.265   6.073   1.462  1.00 20.00     0.021 C 
HETATM    4  C7  UNL     1     -32.065   5.302   2.196  1.00 20.00     0.021 C 
HETATM    5  C8  UNL     1     -33.309   6.084   2.662  1.00 20.00     0.055 C 
ENDROOT
BRANCH   5   6
HETATM    6  C3  UNL     1     -32.926   7.503   3.004  1.00 20.00     0.182 C 
HETATM    7  O11 UNL     1     -32.120   8.051   2.204  1.00 20.00    -0.647 OA
HETATM    8  O12 UNL     1     -33.466   7.958   4.052  1.00 20.00    -0.647 OA
ENDBRANCH   5   6
BRANCH   5   9
HETATM    9  C10 UNL     1     -33.949   5.476   3.907  1.00 20.00     0.022 C 
HETATM   10  C9  UNL     1     -35.401   5.943   4.056  1.00 20.00     0.015 C 
BRANCH   9  11
HETATM   11  C2  UNL     1     -33.898   3.968   3.848  1.00 20.00    -0.031 C 
HETATM   12  C1  UNL     1     -33.326   3.200   4.782  1.00 20.00     0.007 C 
ENDBRANCH   9  11
ENDBRANCH   5   9
TORSDOF 3
ENDMDL
MODEL 4
REMARK VINA RESULT:       1.7      1.976      4.090
REMARK  3 active torsions:
REMARK  status: ('A' for Active; 'I' for Inactive)
REMARK    1  A    between atoms: C2_2  and  C10_10 
REMARK    2  A    between atoms: C3_3  and  C8_8 
REMARK    3  A    between atoms: C8_8  and  C10_10 
ROOT
HETATM    1  C4  UNL     1     -34.913   5.756   4.306  1.00 20.00     0.001 C 
HETATM    2  C5  UNL     1     -35.742   6.614   3.366  1.00 20.00     0.001 C 
HETATM    3  C6  UNL     1     -33.531   5.792   3.670  1.00 20.00     0.021 C 
HETATM    4  C7  UNL     1     -34.806   7.736   2.916  1.00 20.00     0.021 C 
HETATM    5  C8  UNL     1     -33.374   7.249   3.213  1.00 20.00     0.055 C 
ENDROOT
BRANCH   5   6
HETATM    6  C3  UNL     1     -32.769   8.076   4.321  1.00 20.00     0.182 C 
HETATM    7  O11 UNL     1     -33.426   8.097   5.397  1.00 20.00    -0.647 OA
HETATM    8  O12 UNL     1     -31.679   8.641   4.024  1.00 20.00    -0.647 OA
ENDBRANCH   5   6
BRANCH   5   9
HETATM    9  C10 UNL     1     -32.452   7.371   2.003  1.00 20.00     0.022 C 
HETATM   10  C9  UNL     1     -32.428   6.065   1.202  1.00 20.00     0.015 C 
BRANCH   9  11
HETATM   11  C2  UNL     1     -32.890   8.510   1.114  1.00 20.00    -0.031 C 
HETATM   12  C1  UNL     1     -32.050   9.373   0.532  1.00 20.00     0.007 C 
ENDBRANCH   9  11
ENDBRANCH   5   9
TORSDOF 3
ENDMDL
MODEL 5
REMARK VINA RESULT:       2.0      1.741      2.822
REMARK  3 active torsions:
REMARK  status: ('A' for Active; 'I' for Inactive)
REMARK    1  A    between atoms: C2_2  and  C10_10 
REMARK    2  A    between atoms: C3_3  and  C8_8 
REMARK    3  A    between atoms: C8_8  and  C10_10 
ROOT
HETATM    1  C4  UNL     1     -33.287   5.661  -0.033  1.00 20.00     0.001 C 
HETATM    2  C5  UNL     1     -32.303   4.715   0.635  1.00 20.00     0.001 C 
HETATM    3  C6  UNL     1     -34.035   6.264   1.147  1.00 20.00     0.021 C 
HETATM    4  C7  UNL     1     -31.872   5.426   1.919  1.00 20.00     0.021 C 
HETATM    5  C8  UNL     1     -32.938   6.505   2.194  1.00 20.00     0.055 C 
ENDROOT
BRANCH   5   6
HETATM    6  C3  UNL     1     -32.341   7.878   2.008  1.00 20.00     0.182 C 
HETATM    7  O11 UNL     1     -32.798   8.538   1.035  1.00 20.00    -0.647 OA
HETATM    8  O12 UNL     1     -31.457   8.189   2.855  1.00 20.00    -0.647 OA
ENDBRANCH   5   6
BRANCH   5   9
HETATM    9  C10 UNL     1     -33.484   6.439   3.617  1.00 20.00     0.022 C 
HETATM   10  C9  UNL     1     -34.255   7.717   3.965  1.00 20.00     0.015 C 
BRANCH   9  11
HETATM   11  C2  UNL     1     -34.381   5.236   3.786  1.00 20.00    -0.031 C 
HETATM   12  C1  UNL     1     -33.971   4.057   4.266  1.00 20.00     0.007 C 
ENDBRANCH   9  11
ENDBRANCH   5   9
TORSDOF 3
ENDMDL
MODEL 6
REMARK VINA RESULT:       2.1      1.762      2.538
REMARK  3 active torsions:
REMARK  status: ('A' for Active; 'I' for Inactive)
REMARK    1  A    between atoms: C2_2  and  C10_10 
REMARK    2  A    between atoms: C3_3  and  C8_8 
REMARK    3  A    between atoms: C8_8  and  C10_10 
ROOT
HETATM    1  C4  UNL     1     -32.686  10.548   0.830  1.00 20.00     0.001 C 
HETATM    2  C5  UNL     1     -32.278   9.676  -0.346  1.00 20.00     0.001 C 
HETATM    3  C6  UNL     1     -33.376   9.563   1.762  1.00 20.00     0.021 C 
HETATM    4  C7  UNL     1     -31.880   8.334   0.269  1.00 20.00     0.021 C 
HETATM    5  C8  UNL     1     -32.501   8.304   1.680  1.00 20.00     0.055 C 
ENDROOT
BRANCH   5   6
HETATM    6  C3  UNL     1     -31.412   8.364   2.723  1.00 20.00     0.182 C 
HETATM    7  O11 UNL     1     -31.764   8.824   3.843  1.00 20.00    -0.647 OA
HETATM    8  O12 UNL     1     -30.285   7.944   2.336  1.00 20.00    -0.647 OA
ENDBRANCH   5   6
BRANCH   5   9
HETATM    9  C10 UNL     1     -33.304   7.033   1.938  1.00 20.00     0.022 C 
HETATM   10  C9  UNL     1     -32.497   5.790   1.550  1.00 20.00     0.015 C 
BRANCH   9  11
HETATM   11  C2  UNL     1     -33.711   6.948   3.390  1.00 20.00    -0.031 C 
HETATM   12  C1  UNL     1     -34.916   6.543   3.808  1.00 20.00     0.007 C 
ENDBRANCH   9  11
ENDBRANCH   5   9
TORSDOF 3
ENDMDL
MODEL 7
REMARK VINA RESULT:       2.1      1.812      3.908
REMARK  3 active torsions:
REMARK  status: ('A' for Active; 'I' for Inactive)
REMARK    1  A    between atoms: C2_2  and  C10_10 
REMARK    2  A    between atoms: C3_3  and  C8_8 
REMARK    3  A    between atoms: C8_8  and  C10_10 
ROOT
HETATM    1  C4  UNL     1     -35.474   7.243   3.854  1.00 20.00     0.001 C 
HETATM    2  C5  UNL     1     -34.234   7.963   4.356  1.00 20.00     0.001 C 
HETATM    3  C6  UNL     1     -34.955   6.467   2.653  1.00 20.00     0.021 C 
HETATM    4  C7  UNL     1     -33.084   6.978   4.141  1.00 20.00     0.021 C 
HETATM    5  C8  UNL     1     -33.589   5.943   3.116  1.00 20.00     0.055 C 
ENDROOT
BRANCH   5   6
HETATM    6  C3  UNL     1     -33.750   4.598   3.781  1.00 20.00     0.182 C 
HETATM    7  O11 UNL     1     -32.754   3.830   3.691  1.00 20.00    -0.647 OA
HETATM    8  O12 UNL     1     -34.867   4.417   4.343  1.00 20.00    -0.647 OA
ENDBRANCH   5   6
BRANCH   5   9
HETATM    9  C10 UNL     1     -32.624   5.757   1.949  1.00 20.00     0.022 C 
HETATM   10  C9  UNL     1     -33.388   5.487   0.648  1.00 20.00     0.015 C 
BRANCH   9  11
HETATM   11  C2  UNL     1     -31.747   6.976   1.785  1.00 20.00    -0.031 C 
HETATM   12  C1  UNL     1     -32.109   8.075   1.114  1.00 20.00     0.007 C 
ENDBRANCH   9  11
ENDBRANCH   5   9
TORSDOF 3
ENDMDL
MODEL 8
REMARK VINA RESULT:       2.2      0.883      1.648
REMARK  3 active torsions:
REMARK  status: ('A' for Active; 'I' for Inactive)
REMARK    1  A    between atoms: C2_2  and  C10_10 
REMARK    2  A    between atoms: C3_3  and  C8_8 
REMARK    3  A    between atoms: C8_8  and  C10_10 
ROOT
HETATM    1  C4  UNL     1     -31.062   8.460   1.381  1.00 20.00     0.001 C 
HETATM    2  C5  UNL     1     -32.272   9.089   0.713  1.00 20.00     0.001 C 
HETATM    3  C6  UNL     1     -31.680   7.627   2.494  1.00 20.00     0.021 C 
HETATM    4  C7  UNL     1     -33.359   8.014   0.760  1.00 20.00     0.021 C 
HETATM    5  C8  UNL     1     -32.922   7.005   1.840  1.00 20.00     0.055 C 
ENDROOT
BRANCH   5   6
HETATM    6  C3  UNL     1     -32.563   5.687   1.199  1.00 20.00     0.182 C 
HETATM    7  O11 UNL     1     -31.439   5.218   1.526  1.00 20.00    -0.647 OA
HETATM    8  O12 UNL     1     -33.438   5.225   0.414  1.00 20.00    -0.647 OA
ENDBRANCH   5   6
BRANCH   5   9
HETATM    9  C10 UNL     1     -34.023   6.725   2.859  1.00 20.00     0.022 C 
HETATM   10  C9  UNL     1     -33.742   5.428   3.624  1.00 20.00     0.015 C 
BRANCH   9  11
HETATM   11  C2  UNL     1     -34.154   7.875   3.829  1.00 20.00    -0.031 C 
HETATM   12  C1  UNL     1     -33.647   7.873   5.067  1.00 20.00     0.007 C 
ENDBRANCH   9  11
ENDBRANCH   5   9
TORSDOF 3
ENDMDL
MODEL 9
REMARK VINA RESULT:       2.3      2.012      2.873
REMARK  3 active torsions:
REMARK  status: ('A' for Active; 'I' for Inactive)
REMARK    1  A    between atoms: C2_2  and  C10_10 
REMARK    2  A    between atoms: C3_3  and  C8_8 
REMARK    3  A    between atoms: C8_8  and  C10_10 
ROOT
HETATM    1  C4  UNL     1     -32.669   9.031   1.198  1.00 20.00     0.001 C 
HETATM    2  C5  UNL     1     -31.305   8.486   1.587  1.00 20.00     0.001 C 
HETATM    3  C6  UNL     1     -33.540   7.784   1.171  1.00 20.00     0.021 C 
HETATM    4  C7  UNL     1     -31.593   7.366   2.588  1.00 20.00     0.021 C 
HETATM    5  C8  UNL     1     -33.073   6.983   2.394  1.00 20.00     0.055 C 
ENDROOT
BRANCH   5   6
HETATM    6  C3  UNL     1     -33.872   7.385   3.609  1.00 20.00     0.182 C 
HETATM    7  O11 UNL     1     -35.082   7.029   3.601  1.00 20.00    -0.647 OA
HETATM    8  O12 UNL     1     -33.221   8.027   4.481  1.00 20.00    -0.647 OA
ENDBRANCH   5   6
BRANCH   5   9
HETATM    9  C10 UNL     1     -33.269   5.482   2.201  1.00 20.00     0.022 C 
HETATM   10  C9  UNL     1     -32.351   4.951   1.095  1.00 20.00     0.015 C 
BRANCH   9  11
HETATM   11  C2  UNL     1     -33.001   4.742   3.490  1.00 20.00    -0.031 C 
HETATM   12  C1  UNL     1     -33.833   3.841   4.024  1.00 20.00     0.007 C 
ENDBRANCH   9  11
ENDBRANCH   5   9
TORSDOF 3
ENDMDL
