MODEL 1
REMARK VINA RESULT:      -2.3      0.000      0.000
REMARK  4 active torsions:
REMARK  status: ('A' for Active; 'I' for Inactive)
REMARK    1  A    between atoms: C4_4  and  C5_5 
REMARK    2  A    between atoms: C5_5  and  C6_6 
REMARK    3  A    between atoms: C6_6  and  C7_7 
REMARK    4  A    between atoms: C7_7  and  O9_9 
ROOT
HETATM    1  C1  UNL     1     -34.115   6.826   3.864  1.00 20.00     0.066 C 
HETATM    2  C6  UNL     1     -33.466   5.588   3.383  1.00 20.00     0.121 C 
HETATM    3  N8  UNL     1     -34.623   7.798   4.244  1.00 20.00    -0.197 NA
ENDROOT
BRANCH   2   4
HETATM    4  C5  UNL     1     -33.291   5.637   1.850  1.00 20.00     0.021 C 
BRANCH   4   5
HETATM    5  C4  UNL     1     -31.941   6.229   1.424  1.00 20.00    -0.003 C 
HETATM    6  C2  UNL     1     -31.934   7.744   1.560  1.00 20.00     0.005 C 
ENDBRANCH   4   5
ENDBRANCH   2   4
BRANCH   2   7
HETATM    7  C7  UNL     1     -34.270   4.335   3.798  1.00 20.00     0.131 C 
HETATM    8  C3  UNL     1     -33.443   3.304   4.560  1.00 20.00     0.040 C 
BRANCH   7   9
HETATM    9  O9  UNL     1     -35.393   4.717   4.590  1.00 20.00    -0.395 OA
HETATM   10  H22 UNL     1     -36.169   4.662   4.013  1.00 20.00     0.210 HD
ENDBRANCH   7   9
ENDBRANCH   2   7
TORSDOF 4
ENDMDL
MODEL 2
REMARK VINA RESULT:      -2.2      2.385      3.146
REMARK  4 active torsions:
REMARK  status: ('A' for Active; 'I' for Inactive)
REMARK    1  A    between atoms: C4_4  and  C5_5 
REMARK    2  A    between atoms: C5_5  and  C6_6 
REMARK    3  A    between atoms: C6_6  and  C7_7 
REMARK    4  A    between atoms: C7_7  and  O9_9 
ROOT
HETATM    1  C1  UNL     1     -32.726   5.918   1.657  1.00 20.00     0.066 C 
HETATM    2  C6  UNL     1     -33.328   7.131   2.249  1.00 20.00     0.121 C 
HETATM    3  N8  UNL     1     -32.255   4.965   1.192  1.00 20.00    -0.197 NA
ENDROOT
BRANCH   2   4
HETATM    4  C5  UNL     1     -32.316   8.297   2.226  1.00 20.00     0.021 C 
BRANCH   4   5
HETATM    5  C4  UNL     1     -31.890   8.687   0.805  1.00 20.00    -0.003 C 
HETATM    6  C2  UNL     1     -32.513  10.010   0.383  1.00 20.00     0.005 C 
ENDBRANCH   4   5
ENDBRANCH   2   4
BRANCH   2   7
HETATM    7  C7  UNL     1     -33.820   6.869   3.691  1.00 20.00     0.131 C 
HETATM    8  C3  UNL     1     -33.671   8.074   4.615  1.00 20.00     0.040 C 
BRANCH   7   9
HETATM    9  O9  UNL     1     -35.185   6.456   3.671  1.00 20.00    -0.395 OA
HETATM   10  H22 UNL     1     -35.193   5.517   3.910  1.00 20.00     0.210 HD
ENDBRANCH   7   9
ENDBRANCH   2   7
TORSDOF 4
ENDMDL
MODEL 3
REMARK VINA RESULT:      -1.7      1.814      3.736
REMARK  4 active torsions:
REMARK  status: ('A' for Active; 'I' for Inactive)
REMARK    1  A    between atoms: C4_4  and  C5_5 
REMARK    2  A    between atoms: C5_5  and  C6_6 
REMARK    3  A    between atoms: C6_6  and  C7_7 
REMARK    4  A    between atoms: C7_7  and  O9_9 
ROOT
HETATM    1  C1  UNL     1     -34.026   6.913   3.593  1.00 20.00     0.066 C 
HETATM    2  C6  UNL     1     -33.683   5.899   2.574  1.00 20.00     0.121 C 
HETATM    3  N8  UNL     1     -34.297   7.709   4.392  1.00 20.00    -0.197 NA
ENDROOT
BRANCH   2   4
HETATM    4  C5  UNL     1     -33.022   4.673   3.239  1.00 20.00     0.021 C 
BRANCH   4   5
HETATM    5  C4  UNL     1     -33.953   3.955   4.224  1.00 20.00    -0.003 C 
HETATM    6  C2  UNL     1     -33.236   2.819   4.937  1.00 20.00     0.005 C 
ENDBRANCH   4   5
ENDBRANCH   2   4
BRANCH   2   7
HETATM    7  C7  UNL     1     -32.760   6.488   1.483  1.00 20.00     0.131 C 
HETATM    8  C3  UNL     1     -32.091   7.797   1.892  1.00 20.00     0.040 C 
BRANCH   7   9
HETATM    9  O9  UNL     1     -31.757   5.538   1.129  1.00 20.00    -0.395 OA
HETATM   10  H22 UNL     1     -31.508   5.728   0.212  1.00 20.00     0.210 HD
ENDBRANCH   7   9
ENDBRANCH   2   7
TORSDOF 4
ENDMDL
MODEL 4
REMARK VINA RESULT:      -1.4      1.923      2.645
REMARK  4 active torsions:
REMARK  status: ('A' for Active; 'I' for Inactive)
REMARK    1  A    between atoms: C4_4  and  C5_5 
REMARK    2  A    between atoms: C5_5  and  C6_6 
REMARK    3  A    between atoms: C6_6  and  C7_7 
REMARK    4  A    between atoms: C7_7  and  O9_9 
ROOT
HETATM    1  C1  UNL     1     -33.848   3.977   4.040  1.00 20.00     0.066 C 
HETATM    2  C6  UNL     1     -34.085   5.226   3.286  1.00 20.00     0.121 C 
HETATM    3  N8  UNL     1     -33.663   2.996   4.631  1.00 20.00    -0.197 NA
ENDROOT
BRANCH   2   4
HETATM    4  C5  UNL     1     -32.743   5.863   2.867  1.00 20.00     0.021 C 
BRANCH   4   5
HETATM    5  C4  UNL     1     -32.786   6.474   1.461  1.00 20.00    -0.003 C 
HETATM    6  C2  UNL     1     -31.990   7.768   1.395  1.00 20.00     0.005 C 
ENDBRANCH   4   5
ENDBRANCH   2   4
BRANCH   2   7
HETATM    7  C7  UNL     1     -34.928   6.228   4.108  1.00 20.00     0.131 C 
HETATM    8  C3  UNL     1     -34.261   7.590   4.278  1.00 20.00     0.040 C 
BRANCH   7   9
HETATM    9  O9  UNL     1     -36.207   6.401   3.501  1.00 20.00    -0.395 OA
HETATM   10  H22 UNL     1     -36.781   5.711   3.866  1.00 20.00     0.210 HD
ENDBRANCH   7   9
ENDBRANCH   2   7
TORSDOF 4
ENDMDL
MODEL 5
REMARK VINA RESULT:      -1.4      1.881      3.423
REMARK  4 active torsions:
REMARK  status: ('A' for Active; 'I' for Inactive)
REMARK    1  A    between atoms: C4_4  and  C5_5 
REMARK    2  A    between atoms: C5_5  and  C6_6 
REMARK    3  A    between atoms: C6_6  and  C7_7 
REMARK    4  A    between atoms: C7_7  and  O9_9 
ROOT
HETATM    1  C1  UNL     1     -34.047   7.341   4.038  1.00 20.00     0.066 C 
HETATM    2  C6  UNL     1     -34.225   6.154   3.175  1.00 20.00     0.121 C 
HETATM    3  N8  UNL     1     -33.909   8.273   4.715  1.00 20.00    -0.197 NA
ENDROOT
BRANCH   2   4
HETATM    4  C5  UNL     1     -34.472   4.897   4.036  1.00 20.00     0.021 C 
BRANCH   4   5
HETATM    5  C4  UNL     1     -33.482   3.765   3.734  1.00 20.00    -0.003 C 
HETATM    6  C2  UNL     1     -33.161   2.961   4.985  1.00 20.00     0.005 C 
ENDBRANCH   4   5
ENDBRANCH   2   4
BRANCH   2   7
HETATM    7  C7  UNL     1     -33.005   5.946   2.248  1.00 20.00     0.131 C 
HETATM    8  C3  UNL     1     -33.375   5.441   0.857  1.00 20.00     0.040 C 
BRANCH   7   9
HETATM    9  O9  UNL     1     -32.272   7.164   2.128  1.00 20.00    -0.395 OA
HETATM   10  H22 UNL     1     -31.862   7.325   2.991  1.00 20.00     0.210 HD
ENDBRANCH   7   9
ENDBRANCH   2   7
TORSDOF 4
ENDMDL
MODEL 6
REMARK VINA RESULT:      -1.3      3.369      5.019
REMARK  4 active torsions:
REMARK  status: ('A' for Active; 'I' for Inactive)
REMARK    1  A    between atoms: C4_4  and  C5_5 
REMARK    2  A    between atoms: C5_5  and  C6_6 
REMARK    3  A    between atoms: C6_6  and  C7_7 
REMARK    4  A    between atoms: C7_7  and  O9_9 
ROOT
HETATM    1  C1  UNL     1     -32.287   6.529   1.583  1.00 20.00     0.066 C 
HETATM    2  C6  UNL     1     -32.318   7.969   1.917  1.00 20.00     0.121 C 
HETATM    3  N8  UNL     1     -32.261   5.399   1.321  1.00 20.00    -0.197 NA
ENDROOT
BRANCH   2   4
HETATM    4  C5  UNL     1     -33.568   8.295   2.763  1.00 20.00     0.021 C 
BRANCH   4   5
HETATM    5  C4  UNL     1     -33.733   7.360   3.967  1.00 20.00    -0.003 C 
HETATM    6  C2  UNL     1     -35.026   6.564   3.877  1.00 20.00     0.005 C 
ENDBRANCH   4   5
ENDBRANCH   2   4
BRANCH   2   7
HETATM    7  C7  UNL     1     -32.283   8.843   0.642  1.00 20.00     0.131 C 
HETATM    8  C3  UNL     1     -32.700  10.290   0.884  1.00 20.00     0.040 C 
BRANCH   7   9
HETATM    9  O9  UNL     1     -30.976   8.817   0.072  1.00 20.00    -0.395 OA
HETATM   10  H22 UNL     1     -30.356   8.705   0.808  1.00 20.00     0.210 HD
ENDBRANCH   7   9
ENDBRANCH   2   7
TORSDOF 4
ENDMDL
MODEL 7
REMARK VINA RESULT:      -1.2      2.189      2.877
REMARK  4 active torsions:
REMARK  status: ('A' for Active; 'I' for Inactive)
REMARK    1  A    between atoms: C4_4  and  C5_5 
REMARK    2  A    between atoms: C5_5  and  C6_6 
REMARK    3  A    between atoms: C6_6  and  C7_7 
REMARK    4  A    between atoms: C7_7  and  O9_9 
ROOT
HETATM    1  C1  UNL     1     -33.875   6.750   3.250  1.00 20.00     0.066 C 
HETATM    2  C6  UNL     1     -32.592   6.945   2.540  1.00 20.00     0.121 C 
HETATM    3  N8  UNL     1     -34.880   6.596   3.808  1.00 20.00    -0.197 NA
ENDROOT
BRANCH   2   4
HETATM    4  C5  UNL     1     -32.368   8.444   2.242  1.00 20.00     0.021 C 
BRANCH   4   5
HETATM    5  C4  UNL     1     -31.963   8.706   0.786  1.00 20.00    -0.003 C 
HETATM    6  C2  UNL     1     -32.506  10.039   0.292  1.00 20.00     0.005 C 
ENDBRANCH   4   5
ENDBRANCH   2   4
BRANCH   2   7
HETATM    7  C7  UNL     1     -32.541   6.119   1.235  1.00 20.00     0.131 C 
HETATM    8  C3  UNL     1     -31.550   4.959   1.286  1.00 20.00     0.040 C 
BRANCH   7   9
HETATM    9  O9  UNL     1     -33.839   5.615   0.927  1.00 20.00    -0.395 OA
HETATM   10  H22 UNL     1     -34.436   6.379   0.916  1.00 20.00     0.210 HD
ENDBRANCH   7   9
ENDBRANCH   2   7
TORSDOF 4
ENDMDL
MODEL 8
REMARK VINA RESULT:      -1.2      2.265      3.611
REMARK  4 active torsions:
REMARK  status: ('A' for Active; 'I' for Inactive)
REMARK    1  A    between atoms: C4_4  and  C5_5 
REMARK    2  A    between atoms: C5_5  and  C6_6 
REMARK    3  A    between atoms: C6_6  and  C7_7 
REMARK    4  A    between atoms: C7_7  and  O9_9 
ROOT
HETATM    1  C1  UNL     1     -33.656   4.552   3.712  1.00 20.00     0.066 C 
HETATM    2  C6  UNL     1     -33.463   5.970   3.339  1.00 20.00     0.121 C 
HETATM    3  N8  UNL     1     -33.806   3.440   4.005  1.00 20.00    -0.197 NA
ENDROOT
BRANCH   2   4
HETATM    4  C5  UNL     1     -34.744   6.781   3.635  1.00 20.00     0.021 C 
BRANCH   4   5
HETATM    5  C4  UNL     1     -34.454   8.122   4.320  1.00 20.00    -0.003 C 
HETATM    6  C2  UNL     1     -33.097   8.111   5.007  1.00 20.00     0.005 C 
ENDBRANCH   4   5
ENDBRANCH   2   4
BRANCH   2   7
HETATM    7  C7  UNL     1     -33.063   6.111   1.853  1.00 20.00     0.131 C 
HETATM    8  C3  UNL     1     -32.136   7.292   1.580  1.00 20.00     0.040 C 
BRANCH   7   9
HETATM    9  O9  UNL     1     -32.441   4.910   1.400  1.00 20.00    -0.395 OA
HETATM   10  H22 UNL     1     -31.949   5.140   0.597  1.00 20.00     0.210 HD
ENDBRANCH   7   9
ENDBRANCH   2   7
TORSDOF 4
ENDMDL
MODEL 9
REMARK VINA RESULT:      -1.2      2.430      2.920
REMARK  4 active torsions:
REMARK  status: ('A' for Active; 'I' for Inactive)
REMARK    1  A    between atoms: C4_4  and  C5_5 
REMARK    2  A    between atoms: C5_5  and  C6_6 
REMARK    3  A    between atoms: C6_6  and  C7_7 
REMARK    4  A    between atoms: C7_7  and  O9_9 
ROOT
HETATM    1  C1  UNL     1     -32.461   8.044   1.884  1.00 20.00     0.066 C 
HETATM    2  C6  UNL     1     -32.919   6.986   2.810  1.00 20.00     0.121 C 
HETATM    3  N8  UNL     1     -32.099   8.873   1.159  1.00 20.00    -0.197 NA
ENDROOT
BRANCH   2   4
HETATM    4  C5  UNL     1     -33.372   5.740   2.019  1.00 20.00     0.021 C 
BRANCH   4   5
HETATM    5  C4  UNL     1     -32.511   5.479   0.777  1.00 20.00    -0.003 C 
HETATM    6  C2  UNL     1     -31.303   4.617   1.112  1.00 20.00     0.005 C 
ENDBRANCH   4   5
ENDBRANCH   2   4
BRANCH   2   7
HETATM    7  C7  UNL     1     -34.060   7.494   3.722  1.00 20.00     0.131 C 
HETATM    8  C3  UNL     1     -35.109   6.431   4.035  1.00 20.00     0.040 C 
BRANCH   7   9
HETATM    9  O9  UNL     1     -33.520   7.997   4.942  1.00 20.00    -0.395 OA
HETATM   10  H22 UNL     1     -34.045   7.607   5.658  1.00 20.00     0.210 HD
ENDBRANCH   7   9
ENDBRANCH   2   7
TORSDOF 4
ENDMDL
