MODEL 1
REMARK VINA RESULT:      -2.0      0.000      0.000
REMARK  4 active torsions:
REMARK  status: ('A' for Active; 'I' for Inactive)
REMARK    1  A    between atoms: C1_1  and  C7_7 
REMARK    2  A    between atoms: C6_6  and  C8_8 
REMARK    3  A    between atoms: C6_6  and  O10_10 
REMARK    4  A    between atoms: C7_7  and  C8_8 
ROOT
HETATM    1  C3  UNL     1     -32.354   5.571   1.160  1.00 20.00     0.018 C 
HETATM    2  C7  UNL     1     -33.198   6.538   1.993  1.00 20.00     0.056 C 
ENDROOT
BRANCH   2   3
HETATM    3  C1  UNL     1     -32.434   7.844   2.233  1.00 20.00     0.127 C 
HETATM    4  C2  UNL     1     -32.098   8.674   1.020  1.00 20.00     0.091 C 
HETATM    5  O9  UNL     1     -32.081   8.203   3.357  1.00 20.00    -0.298 OA
ENDBRANCH   2   3
BRANCH   2   6
HETATM    6  C8  UNL     1     -33.708   5.945   3.329  1.00 20.00     0.016 C 
HETATM    7  C4  UNL     1     -34.995   6.643   3.791  1.00 20.00     0.013 C 
BRANCH   6   8
HETATM    8  C6  UNL     1     -33.912   4.423   3.276  1.00 20.00     0.172 C 
BRANCH   8   9
HETATM    9  O10 UNL     1     -34.096   3.918   4.594  1.00 20.00    -0.396 OA
HETATM   10  C5  UNL     1     -33.178   2.875   4.884  1.00 20.00     0.201 C 
ENDBRANCH   8   9
ENDBRANCH   6   8
ENDBRANCH   2   6
TORSDOF 4
ENDMDL
MODEL 2
REMARK VINA RESULT:      -1.9      1.224      4.629
REMARK  4 active torsions:
REMARK  status: ('A' for Active; 'I' for Inactive)
REMARK    1  A    between atoms: C1_1  and  C7_7 
REMARK    2  A    between atoms: C6_6  and  C8_8 
REMARK    3  A    between atoms: C6_6  and  O10_10 
REMARK    4  A    between atoms: C7_7  and  C8_8 
ROOT
HETATM    1  C3  UNL     1     -34.340   7.626   4.225  1.00 20.00     0.018 C 
HETATM    2  C7  UNL     1     -34.206   6.446   3.261  1.00 20.00     0.056 C 
ENDROOT
BRANCH   2   3
HETATM    3  C1  UNL     1     -34.499   5.128   3.985  1.00 20.00     0.127 C 
HETATM    4  C2  UNL     1     -33.439   4.058   3.917  1.00 20.00     0.091 C 
HETATM    5  O9  UNL     1     -35.558   4.925   4.580  1.00 20.00    -0.298 OA
ENDBRANCH   2   3
BRANCH   2   6
HETATM    6  C8  UNL     1     -32.844   6.378   2.526  1.00 20.00     0.016 C 
HETATM    7  C4  UNL     1     -32.985   5.694   1.159  1.00 20.00     0.013 C 
BRANCH   6   8
HETATM    8  C6  UNL     1     -32.172   7.751   2.373  1.00 20.00     0.172 C 
BRANCH   8   9
HETATM    9  O10 UNL     1     -31.944   8.022   0.995  1.00 20.00    -0.396 OA
HETATM   10  C5  UNL     1     -32.274   9.364   0.667  1.00 20.00     0.201 C 
ENDBRANCH   8   9
ENDBRANCH   6   8
ENDBRANCH   2   6
TORSDOF 4
ENDMDL
MODEL 3
REMARK VINA RESULT:      -1.8      0.933      1.063
REMARK  4 active torsions:
REMARK  status: ('A' for Active; 'I' for Inactive)
REMARK    1  A    between atoms: C1_1  and  C7_7 
REMARK    2  A    between atoms: C6_6  and  C8_8 
REMARK    3  A    between atoms: C6_6  and  O10_10 
REMARK    4  A    between atoms: C7_7  and  C8_8 
ROOT
HETATM    1  C3  UNL     1     -32.628   5.606   1.282  1.00 20.00     0.018 C 
HETATM    2  C7  UNL     1     -33.214   6.846   1.961  1.00 20.00     0.056 C 
ENDROOT
BRANCH   2   3
HETATM    3  C1  UNL     1     -32.217   8.008   1.904  1.00 20.00     0.127 C 
HETATM    4  C2  UNL     1     -32.466   9.074   0.866  1.00 20.00     0.091 C 
HETATM    5  O9  UNL     1     -31.237   8.072   2.647  1.00 20.00    -0.298 OA
ENDBRANCH   2   3
BRANCH   2   6
HETATM    6  C8  UNL     1     -33.695   6.605   3.413  1.00 20.00     0.016 C 
HETATM    7  C4  UNL     1     -33.898   7.933   4.157  1.00 20.00     0.013 C 
BRANCH   6   8
HETATM    8  C6  UNL     1     -34.965   5.744   3.493  1.00 20.00     0.172 C 
BRANCH   8   9
HETATM    9  O10 UNL     1     -34.817   4.766   4.516  1.00 20.00    -0.396 OA
HETATM   10  C5  UNL     1     -33.820   3.813   4.183  1.00 20.00     0.201 C 
ENDBRANCH   8   9
ENDBRANCH   6   8
ENDBRANCH   2   6
TORSDOF 4
ENDMDL
MODEL 4
REMARK VINA RESULT:      -1.5      1.572      4.594
REMARK  4 active torsions:
REMARK  status: ('A' for Active; 'I' for Inactive)
REMARK    1  A    between atoms: C1_1  and  C7_7 
REMARK    2  A    between atoms: C6_6  and  C8_8 
REMARK    3  A    between atoms: C6_6  and  O10_10 
REMARK    4  A    between atoms: C7_7  and  C8_8 
ROOT
HETATM    1  C3  UNL     1     -33.096   5.519   1.337  1.00 20.00     0.018 C 
HETATM    2  C7  UNL     1     -33.078   6.179   2.718  1.00 20.00     0.056 C 
ENDROOT
BRANCH   2   3
HETATM    3  C1  UNL     1     -34.272   5.704   3.552  1.00 20.00     0.127 C 
HETATM    4  C2  UNL     1     -34.201   4.307   4.117  1.00 20.00     0.091 C 
HETATM    5  O9  UNL     1     -35.264   6.408   3.743  1.00 20.00    -0.298 OA
ENDBRANCH   2   3
BRANCH   2   6
HETATM    6  C8  UNL     1     -33.013   7.726   2.681  1.00 20.00     0.016 C 
HETATM    7  C4  UNL     1     -32.605   8.296   4.046  1.00 20.00     0.013 C 
BRANCH   6   8
HETATM    8  C6  UNL     1     -32.092   8.264   1.575  1.00 20.00     0.172 C 
BRANCH   8   9
HETATM    9  O10 UNL     1     -32.475   9.594   1.239  1.00 20.00    -0.396 OA
HETATM   10  C5  UNL     1     -32.479   9.793  -0.167  1.00 20.00     0.201 C 
ENDBRANCH   8   9
ENDBRANCH   6   8
ENDBRANCH   2   6
TORSDOF 4
ENDMDL
MODEL 5
REMARK VINA RESULT:      -1.2      2.038      3.052
REMARK  4 active torsions:
REMARK  status: ('A' for Active; 'I' for Inactive)
REMARK    1  A    between atoms: C1_1  and  C7_7 
REMARK    2  A    between atoms: C6_6  and  C8_8 
REMARK    3  A    between atoms: C6_6  and  O10_10 
REMARK    4  A    between atoms: C7_7  and  C8_8 
ROOT
HETATM    1  C3  UNL     1     -31.182   8.737   2.531  1.00 20.00     0.018 C 
HETATM    2  C7  UNL     1     -31.902   8.135   1.323  1.00 20.00     0.056 C 
ENDROOT
BRANCH   2   3
HETATM    3  C1  UNL     1     -32.445   9.244   0.416  1.00 20.00     0.127 C 
HETATM    4  C2  UNL     1     -32.704  10.586   1.055  1.00 20.00     0.091 C 
HETATM    5  O9  UNL     1     -32.689   9.060  -0.777  1.00 20.00    -0.298 OA
ENDBRANCH   2   3
BRANCH   2   6
HETATM    6  C8  UNL     1     -33.020   7.127   1.688  1.00 20.00     0.016 C 
HETATM    7  C4  UNL     1     -32.578   5.684   1.406  1.00 20.00     0.013 C 
BRANCH   6   8
HETATM    8  C6  UNL     1     -33.508   7.267   3.137  1.00 20.00     0.172 C 
BRANCH   8   9
HETATM    9  O10 UNL     1     -34.076   6.037   3.572  1.00 20.00    -0.396 OA
HETATM   10  C5  UNL     1     -35.416   6.209   4.009  1.00 20.00     0.201 C 
ENDBRANCH   8   9
ENDBRANCH   6   8
ENDBRANCH   2   6
TORSDOF 4
ENDMDL
MODEL 6
REMARK VINA RESULT:      -1.1      2.013      2.874
REMARK  4 active torsions:
REMARK  status: ('A' for Active; 'I' for Inactive)
REMARK    1  A    between atoms: C1_1  and  C7_7 
REMARK    2  A    between atoms: C6_6  and  C8_8 
REMARK    3  A    between atoms: C6_6  and  O10_10 
REMARK    4  A    between atoms: C7_7  and  C8_8 
ROOT
HETATM    1  C3  UNL     1     -31.220   8.707   2.814  1.00 20.00     0.018 C 
HETATM    2  C7  UNL     1     -31.903   8.210   1.538  1.00 20.00     0.056 C 
ENDROOT
BRANCH   2   3
HETATM    3  C1  UNL     1     -32.413   9.393   0.710  1.00 20.00     0.127 C 
HETATM    4  C2  UNL     1     -32.402   9.236  -0.790  1.00 20.00     0.091 C 
HETATM    5  O9  UNL     1     -32.795  10.444   1.227  1.00 20.00    -0.298 OA
ENDBRANCH   2   3
BRANCH   2   6
HETATM    6  C8  UNL     1     -33.035   7.182   1.784  1.00 20.00     0.016 C 
HETATM    7  C4  UNL     1     -32.586   5.763   1.408  1.00 20.00     0.013 C 
BRANCH   6   8
HETATM    8  C6  UNL     1     -33.576   7.212   3.221  1.00 20.00     0.172 C 
BRANCH   8   9
HETATM    9  O10 UNL     1     -34.134   5.945   3.549  1.00 20.00    -0.396 OA
HETATM   10  C5  UNL     1     -35.424   6.080   4.128  1.00 20.00     0.201 C 
ENDBRANCH   8   9
ENDBRANCH   6   8
ENDBRANCH   2   6
TORSDOF 4
ENDMDL
MODEL 7
REMARK VINA RESULT:      -1.0      1.438      2.504
REMARK  4 active torsions:
REMARK  status: ('A' for Active; 'I' for Inactive)
REMARK    1  A    between atoms: C1_1  and  C7_7 
REMARK    2  A    between atoms: C6_6  and  C8_8 
REMARK    3  A    between atoms: C6_6  and  O10_10 
REMARK    4  A    between atoms: C7_7  and  C8_8 
ROOT
HETATM    1  C3  UNL     1     -32.330   7.852   2.253  1.00 20.00     0.018 C 
HETATM    2  C7  UNL     1     -33.567   6.962   2.399  1.00 20.00     0.056 C 
ENDROOT
BRANCH   2   3
HETATM    3  C1  UNL     1     -34.247   7.211   3.749  1.00 20.00     0.127 C 
HETATM    4  C2  UNL     1     -33.530   8.113   4.722  1.00 20.00     0.091 C 
HETATM    5  O9  UNL     1     -35.319   6.686   4.054  1.00 20.00    -0.298 OA
ENDBRANCH   2   3
BRANCH   2   6
HETATM    6  C8  UNL     1     -33.291   5.453   2.192  1.00 20.00     0.016 C 
HETATM    7  C4  UNL     1     -32.281   5.224   1.059  1.00 20.00     0.013 C 
BRANCH   6   8
HETATM    8  C6  UNL     1     -32.833   4.742   3.474  1.00 20.00     0.172 C 
BRANCH   8   9
HETATM    9  O10 UNL     1     -33.819   3.797   3.877  1.00 20.00    -0.396 OA
HETATM   10  C5  UNL     1     -33.279   2.830   4.766  1.00 20.00     0.201 C 
ENDBRANCH   8   9
ENDBRANCH   6   8
ENDBRANCH   2   6
TORSDOF 4
ENDMDL
MODEL 8
REMARK VINA RESULT:      -0.7      1.357      1.873
REMARK  4 active torsions:
REMARK  status: ('A' for Active; 'I' for Inactive)
REMARK    1  A    between atoms: C1_1  and  C7_7 
REMARK    2  A    between atoms: C6_6  and  C8_8 
REMARK    3  A    between atoms: C6_6  and  O10_10 
REMARK    4  A    between atoms: C7_7  and  C8_8 
ROOT
HETATM    1  C3  UNL     1     -33.575   8.401   4.204  1.00 20.00     0.018 C 
HETATM    2  C7  UNL     1     -33.278   6.962   3.775  1.00 20.00     0.056 C 
ENDROOT
BRANCH   2   3
HETATM    3  C1  UNL     1     -32.835   6.923   2.309  1.00 20.00     0.127 C 
HETATM    4  C2  UNL     1     -32.200   8.172   1.751  1.00 20.00     0.091 C 
HETATM    5  O9  UNL     1     -33.005   5.934   1.595  1.00 20.00    -0.298 OA
ENDBRANCH   2   3
BRANCH   2   6
HETATM    6  C8  UNL     1     -34.442   5.972   4.024  1.00 20.00     0.016 C 
HETATM    7  C4  UNL     1     -35.744   6.474   3.383  1.00 20.00     0.013 C 
BRANCH   6   8
HETATM    8  C6  UNL     1     -34.129   4.543   3.556  1.00 20.00     0.172 C 
BRANCH   8   9
HETATM    9  O10 UNL     1     -34.205   3.649   4.662  1.00 20.00    -0.396 OA
HETATM   10  C5  UNL     1     -33.048   2.831   4.749  1.00 20.00     0.201 C 
ENDBRANCH   8   9
ENDBRANCH   6   8
ENDBRANCH   2   6
TORSDOF 4
ENDMDL
MODEL 9
REMARK VINA RESULT:      -0.6      1.509      4.275
REMARK  4 active torsions:
REMARK  status: ('A' for Active; 'I' for Inactive)
REMARK    1  A    between atoms: C1_1  and  C7_7 
REMARK    2  A    between atoms: C6_6  and  C8_8 
REMARK    3  A    between atoms: C6_6  and  O10_10 
REMARK    4  A    between atoms: C7_7  and  C8_8 
ROOT
HETATM    1  C3  UNL     1     -33.870   4.316   3.391  1.00 20.00     0.018 C 
HETATM    2  C7  UNL     1     -33.349   5.754   3.436  1.00 20.00     0.056 C 
ENDROOT
BRANCH   2   3
HETATM    3  C1  UNL     1     -34.455   6.708   3.898  1.00 20.00     0.127 C 
HETATM    4  C2  UNL     1     -34.029   7.917   4.693  1.00 20.00     0.091 C 
HETATM    5  O9  UNL     1     -35.646   6.501   3.662  1.00 20.00    -0.298 OA
ENDBRANCH   2   3
BRANCH   2   6
HETATM    6  C8  UNL     1     -32.721   6.243   2.107  1.00 20.00     0.016 C 
HETATM    7  C4  UNL     1     -33.228   5.417   0.917  1.00 20.00     0.013 C 
BRANCH   6   8
HETATM    8  C6  UNL     1     -32.938   7.742   1.853  1.00 20.00     0.172 C 
BRANCH   8   9
HETATM    9  O10 UNL     1     -31.826   8.273   1.140  1.00 20.00    -0.396 OA
HETATM   10  C5  UNL     1     -32.180   9.447   0.425  1.00 20.00     0.201 C 
ENDBRANCH   8   9
ENDBRANCH   6   8
ENDBRANCH   2   6
TORSDOF 4
ENDMDL
