MODEL 1
REMARK VINA RESULT:      -1.4      0.000      0.000
REMARK  3 active torsions:
REMARK  status: ('A' for Active; 'I' for Inactive)
REMARK    1  A    between atoms: C1_1  and  C7_7 
REMARK    2  A    between atoms: C7_7  and  C8_8 
REMARK    3  A    between atoms: C7_7  and  C9_9 
ROOT
HETATM    1  C7  UNL     1     -33.344   6.239   3.313  1.00 20.00     0.061 C 
ENDROOT
BRANCH   1   2
HETATM    2  C1  UNL     1     -33.929   7.509   3.945  1.00 20.00     0.128 C 
HETATM    3  C2  UNL     1     -33.185   8.087   5.123  1.00 20.00     0.091 C 
HETATM    4  O10 UNL     1     -34.966   8.030   3.536  1.00 20.00    -0.298 OA
ENDBRANCH   1   2
BRANCH   1   5
HETATM    5  C8  UNL     1     -32.935   6.491   1.833  1.00 20.00    -0.011 C 
HETATM    6  C3  UNL     1     -32.311   5.245   1.192  1.00 20.00     0.010 C 
HETATM    7  C4  UNL     1     -32.007   7.693   1.628  1.00 20.00     0.010 C 
ENDBRANCH   1   5
BRANCH   1   8
HETATM    8  C9  UNL     1     -34.323   5.049   3.534  1.00 20.00    -0.011 C 
HETATM    9  C5  UNL     1     -33.640   3.836   4.175  1.00 20.00     0.010 C 
HETATM   10  C6  UNL     1     -35.508   5.465   4.421  1.00 20.00     0.010 C 
ENDBRANCH   1   8
TORSDOF 3
ENDMDL
MODEL 2
REMARK VINA RESULT:      -1.0      1.713      3.533
REMARK  3 active torsions:
REMARK  status: ('A' for Active; 'I' for Inactive)
REMARK    1  A    between atoms: C1_1  and  C7_7 
REMARK    2  A    between atoms: C7_7  and  C8_8 
REMARK    3  A    between atoms: C7_7  and  C9_9 
ROOT
HETATM    1  C7  UNL     1     -33.415   6.979   2.197  1.00 20.00     0.061 C 
ENDROOT
BRANCH   1   2
HETATM    2  C1  UNL     1     -32.276   7.983   1.976  1.00 20.00     0.128 C 
HETATM    3  C2  UNL     1     -32.404   8.908   0.791  1.00 20.00     0.091 C 
HETATM    4  O10 UNL     1     -31.288   8.029   2.708  1.00 20.00    -0.298 OA
ENDBRANCH   1   2
BRANCH   1   5
HETATM    5  C8  UNL     1     -33.808   6.905   3.701  1.00 20.00    -0.011 C 
HETATM    6  C3  UNL     1     -35.173   6.237   3.903  1.00 20.00     0.010 C 
HETATM    7  C4  UNL     1     -33.782   8.252   4.430  1.00 20.00     0.010 C 
ENDBRANCH   1   5
BRANCH   1   8
HETATM    8  C9  UNL     1     -33.043   5.616   1.543  1.00 20.00    -0.011 C 
HETATM    9  C5  UNL     1     -33.740   5.400   0.196  1.00 20.00     0.010 C 
HETATM   10  C6  UNL     1     -31.525   5.501   1.330  1.00 20.00     0.010 C 
ENDBRANCH   1   8
TORSDOF 3
ENDMDL
MODEL 3
REMARK VINA RESULT:      -0.9      1.782      4.074
REMARK  3 active torsions:
REMARK  status: ('A' for Active; 'I' for Inactive)
REMARK    1  A    between atoms: C1_1  and  C7_7 
REMARK    2  A    between atoms: C7_7  and  C8_8 
REMARK    3  A    between atoms: C7_7  and  C9_9 
ROOT
HETATM    1  C7  UNL     1     -33.068   5.971   2.909  1.00 20.00     0.061 C 
ENDROOT
BRANCH   1   2
HETATM    2  C1  UNL     1     -32.631   5.514   1.512  1.00 20.00     0.128 C 
HETATM    3  C2  UNL     1     -33.707   5.426   0.457  1.00 20.00     0.091 C 
HETATM    4  O10 UNL     1     -31.467   5.209   1.252  1.00 20.00    -0.298 OA
ENDBRANCH   1   2
BRANCH   1   5
HETATM    5  C8  UNL     1     -34.298   5.158   3.404  1.00 20.00    -0.011 C 
HETATM    6  C3  UNL     1     -35.331   6.049   4.103  1.00 20.00     0.010 C 
HETATM    7  C4  UNL     1     -33.951   3.969   4.306  1.00 20.00     0.010 C 
ENDBRANCH   1   5
BRANCH   1   8
HETATM    8  C9  UNL     1     -33.252   7.517   2.917  1.00 20.00    -0.011 C 
HETATM    9  C5  UNL     1     -33.155   8.114   4.325  1.00 20.00     0.010 C 
HETATM   10  C6  UNL     1     -32.205   8.203   2.024  1.00 20.00     0.010 C 
ENDBRANCH   1   8
TORSDOF 3
ENDMDL
MODEL 4
REMARK VINA RESULT:      -0.9      1.453      3.953
REMARK  3 active torsions:
REMARK  status: ('A' for Active; 'I' for Inactive)
REMARK    1  A    between atoms: C1_1  and  C7_7 
REMARK    2  A    between atoms: C7_7  and  C8_8 
REMARK    3  A    between atoms: C7_7  and  C9_9 
ROOT
HETATM    1  C7  UNL     1     -33.132   5.973   2.829  1.00 20.00     0.061 C 
ENDROOT
BRANCH   1   2
HETATM    2  C1  UNL     1     -32.852   5.562   1.377  1.00 20.00     0.128 C 
HETATM    3  C2  UNL     1     -31.517   4.917   1.098  1.00 20.00     0.091 C 
HETATM    4  O10 UNL     1     -33.660   5.759   0.470  1.00 20.00    -0.298 OA
ENDBRANCH   1   2
BRANCH   1   5
HETATM    5  C8  UNL     1     -34.340   5.183   3.409  1.00 20.00    -0.011 C 
HETATM    6  C3  UNL     1     -35.333   6.103   4.129  1.00 20.00     0.010 C 
HETATM    7  C4  UNL     1     -33.954   4.022   4.332  1.00 20.00     0.010 C 
ENDBRANCH   1   5
BRANCH   1   8
HETATM    8  C9  UNL     1     -33.252   7.523   2.916  1.00 20.00    -0.011 C 
HETATM    9  C5  UNL     1     -33.114   8.043   4.351  1.00 20.00     0.010 C 
HETATM   10  C6  UNL     1     -32.188   8.210   2.045  1.00 20.00     0.010 C 
ENDBRANCH   1   8
TORSDOF 3
ENDMDL
MODEL 5
REMARK VINA RESULT:      -0.8      1.743      3.216
REMARK  3 active torsions:
REMARK  status: ('A' for Active; 'I' for Inactive)
REMARK    1  A    between atoms: C1_1  and  C7_7 
REMARK    2  A    between atoms: C7_7  and  C8_8 
REMARK    3  A    between atoms: C7_7  and  C9_9 
ROOT
HETATM    1  C7  UNL     1     -33.138   6.927   1.913  1.00 20.00     0.061 C 
ENDROOT
BRANCH   1   2
HETATM    2  C1  UNL     1     -32.806   5.635   1.155  1.00 20.00     0.128 C 
HETATM    3  C2  UNL     1     -31.456   5.016   1.423  1.00 20.00     0.091 C 
HETATM    4  O10 UNL     1     -33.584   5.126   0.349  1.00 20.00    -0.298 OA
ENDBRANCH   1   2
BRANCH   1   5
HETATM    5  C8  UNL     1     -32.004   7.978   1.746  1.00 20.00    -0.011 C 
HETATM    6  C3  UNL     1     -31.539   8.539   3.095  1.00 20.00     0.010 C 
HETATM    7  C4  UNL     1     -32.345   9.134   0.800  1.00 20.00     0.010 C 
ENDBRANCH   1   5
BRANCH   1   8
HETATM    8  C9  UNL     1     -33.511   6.586   3.385  1.00 20.00    -0.011 C 
HETATM    9  C5  UNL     1     -34.494   7.593   3.992  1.00 20.00     0.010 C 
HETATM   10  C6  UNL     1     -34.128   5.182   3.489  1.00 20.00     0.010 C 
ENDBRANCH   1   8
TORSDOF 3
ENDMDL
MODEL 6
REMARK VINA RESULT:      -0.5      1.445      2.498
REMARK  3 active torsions:
REMARK  status: ('A' for Active; 'I' for Inactive)
REMARK    1  A    between atoms: C1_1  and  C7_7 
REMARK    2  A    between atoms: C7_7  and  C8_8 
REMARK    3  A    between atoms: C7_7  and  C9_9 
ROOT
HETATM    1  C7  UNL     1     -32.589   6.548   2.411  1.00 20.00     0.061 C 
ENDROOT
BRANCH   1   2
HETATM    2  C1  UNL     1     -32.140   8.012   2.320  1.00 20.00     0.128 C 
HETATM    3  C2  UNL     1     -32.389   8.720   1.011  1.00 20.00     0.091 C 
HETATM    4  O10 UNL     1     -31.583   8.589   3.254  1.00 20.00    -0.298 OA
ENDBRANCH   1   2
BRANCH   1   5
HETATM    5  C8  UNL     1     -32.436   5.831   1.039  1.00 20.00    -0.011 C 
HETATM    6  C3  UNL     1     -33.787   5.374   0.477  1.00 20.00     0.010 C 
HETATM    7  C4  UNL     1     -31.457   4.652   1.045  1.00 20.00     0.010 C 
ENDBRANCH   1   5
BRANCH   1   8
HETATM    8  C9  UNL     1     -34.012   6.478   3.038  1.00 20.00    -0.011 C 
HETATM    9  C5  UNL     1     -34.276   5.147   3.752  1.00 20.00     0.010 C 
HETATM   10  C6  UNL     1     -34.231   7.620   4.043  1.00 20.00     0.010 C 
ENDBRANCH   1   8
TORSDOF 3
ENDMDL
MODEL 7
REMARK VINA RESULT:      -0.5      1.289      3.298
REMARK  3 active torsions:
REMARK  status: ('A' for Active; 'I' for Inactive)
REMARK    1  A    between atoms: C1_1  and  C7_7 
REMARK    2  A    between atoms: C7_7  and  C8_8 
REMARK    3  A    between atoms: C7_7  and  C9_9 
ROOT
HETATM    1  C7  UNL     1     -33.353   7.203   2.243  1.00 20.00     0.061 C 
ENDROOT
BRANCH   1   2
HETATM    2  C1  UNL     1     -33.946   7.297   3.655  1.00 20.00     0.128 C 
HETATM    3  C2  UNL     1     -35.273   6.616   3.883  1.00 20.00     0.091 C 
HETATM    4  O10 UNL     1     -33.389   7.913   4.563  1.00 20.00    -0.298 OA
ENDBRANCH   1   2
BRANCH   1   5
HETATM    5  C8  UNL     1     -32.821   5.769   1.957  1.00 20.00    -0.011 C 
HETATM    6  C3  UNL     1     -33.232   5.273   0.565  1.00 20.00     0.010 C 
HETATM    7  C4  UNL     1     -33.211   4.726   3.010  1.00 20.00     0.010 C 
ENDBRANCH   1   5
BRANCH   1   8
HETATM    8  C9  UNL     1     -32.317   8.346   2.036  1.00 20.00    -0.011 C 
HETATM    9  C5  UNL     1     -30.888   7.821   1.862  1.00 20.00     0.010 C 
HETATM   10  C6  UNL     1     -32.674   9.199   0.808  1.00 20.00     0.010 C 
ENDBRANCH   1   8
TORSDOF 3
ENDMDL
MODEL 8
REMARK VINA RESULT:      -0.5      1.868      2.818
REMARK  3 active torsions:
REMARK  status: ('A' for Active; 'I' for Inactive)
REMARK    1  A    between atoms: C1_1  and  C7_7 
REMARK    2  A    between atoms: C7_7  and  C8_8 
REMARK    3  A    between atoms: C7_7  and  C9_9 
ROOT
HETATM    1  C7  UNL     1     -32.765   6.793   2.596  1.00 20.00     0.061 C 
ENDROOT
BRANCH   1   2
HETATM    2  C1  UNL     1     -31.999   7.928   1.907  1.00 20.00     0.128 C 
HETATM    3  C2  UNL     1     -32.822   8.954   1.167  1.00 20.00     0.091 C 
HETATM    4  O10 UNL     1     -30.770   8.002   1.929  1.00 20.00    -0.298 OA
ENDBRANCH   1   2
BRANCH   1   5
HETATM    5  C8  UNL     1     -33.082   5.645   1.594  1.00 20.00    -0.011 C 
HETATM    6  C3  UNL     1     -31.814   4.904   1.153  1.00 20.00     0.010 C 
HETATM    7  C4  UNL     1     -33.877   6.082   0.360  1.00 20.00     0.010 C 
ENDBRANCH   1   5
BRANCH   1   8
HETATM    8  C9  UNL     1     -34.000   7.376   3.343  1.00 20.00    -0.011 C 
HETATM    9  C5  UNL     1     -35.007   6.295   3.749  1.00 20.00     0.010 C 
HETATM   10  C6  UNL     1     -33.572   8.141   4.606  1.00 20.00     0.010 C 
ENDBRANCH   1   8
TORSDOF 3
ENDMDL
MODEL 9
REMARK VINA RESULT:      -0.3      1.175      2.906
REMARK  3 active torsions:
REMARK  status: ('A' for Active; 'I' for Inactive)
REMARK    1  A    between atoms: C1_1  and  C7_7 
REMARK    2  A    between atoms: C7_7  and  C8_8 
REMARK    3  A    between atoms: C7_7  and  C9_9 
ROOT
HETATM    1  C7  UNL     1     -33.780   6.362   2.510  1.00 20.00     0.061 C 
ENDROOT
BRANCH   1   2
HETATM    2  C1  UNL     1     -34.558   5.669   3.636  1.00 20.00     0.128 C 
HETATM    3  C2  UNL     1     -34.027   4.339   4.111  1.00 20.00     0.091 C 
HETATM    4  O10 UNL     1     -35.579   6.152   4.125  1.00 20.00    -0.298 OA
ENDBRANCH   1   2
BRANCH   1   5
HETATM    5  C8  UNL     1     -33.160   5.319   1.536  1.00 20.00    -0.011 C 
HETATM    6  C3  UNL     1     -31.637   5.463   1.436  1.00 20.00     0.010 C 
HETATM    7  C4  UNL     1     -33.770   5.323   0.131  1.00 20.00     0.010 C 
ENDBRANCH   1   5
BRANCH   1   8
HETATM    8  C9  UNL     1     -32.769   7.376   3.122  1.00 20.00    -0.011 C 
HETATM    9  C5  UNL     1     -32.315   8.435   2.113  1.00 20.00     0.010 C 
HETATM   10  C6  UNL     1     -33.375   8.092   4.340  1.00 20.00     0.010 C 
ENDBRANCH   1   8
TORSDOF 3
ENDMDL
