MODEL 1
REMARK VINA RESULT:      -1.0      0.000      0.000
REMARK  4 active torsions:
REMARK  status: ('A' for Active; 'I' for Inactive)
REMARK    1  A    between atoms: C4_4  and  C6_6 
REMARK    2  A    between atoms: C6_6  and  C8_8 
REMARK    3  A    between atoms: C7_7  and  C8_8 
REMARK    4  A    between atoms: C8_8  and  O10_10 
ROOT
HETATM    1  C6  UNL     1     -33.354   7.346   4.065  1.00 20.00     0.038 C 
ENDROOT
BRANCH   1   2
HETATM    2  C4  UNL     1     -34.251   6.482   3.179  1.00 20.00     0.014 C 
HETATM    3  C1  UNL     1     -33.647   5.116   2.922  1.00 20.00     0.033 C 
HETATM    4  C2  UNL     1     -34.070   4.321   4.140  1.00 20.00     0.168 C 
HETATM    5  O9  UNL     1     -35.289   4.905   4.621  1.00 20.00    -0.391 OA
HETATM    6  C3  UNL     1     -35.545   6.108   3.883  1.00 20.00     0.172 C 
ENDBRANCH   1   2
BRANCH   1   7
HETATM    7  C8  UNL     1     -32.613   8.425   3.268  1.00 20.00     0.118 C 
BRANCH   7   8
HETATM    8  C7  UNL     1     -32.144   7.875   1.916  1.00 20.00     0.027 C 
HETATM    9  C5  UNL     1     -32.101   8.940   0.828  1.00 20.00     0.007 C 
ENDBRANCH   7   8
BRANCH   7  10
HETATM   10  O10 UNL     1     -31.489   8.858   4.031  1.00 20.00    -0.396 OA
HETATM   11  H26 UNL     1     -30.701   8.643   3.507  1.00 20.00     0.210 HD
ENDBRANCH   7  10
ENDBRANCH   1   7
TORSDOF 4
ENDMDL
MODEL 2
REMARK VINA RESULT:      -0.8      1.364      2.160
REMARK  4 active torsions:
REMARK  status: ('A' for Active; 'I' for Inactive)
REMARK    1  A    between atoms: C4_4  and  C6_6 
REMARK    2  A    between atoms: C6_6  and  C8_8 
REMARK    3  A    between atoms: C7_7  and  C8_8 
REMARK    4  A    between atoms: C8_8  and  O10_10 
ROOT
HETATM    1  C6  UNL     1     -33.325   7.720   2.032  1.00 20.00     0.038 C 
ENDROOT
BRANCH   1   2
HETATM    2  C4  UNL     1     -33.183   7.110   3.425  1.00 20.00     0.014 C 
HETATM    3  C1  UNL     1     -34.337   7.491   4.331  1.00 20.00     0.033 C 
HETATM    4  C2  UNL     1     -35.397   6.467   3.981  1.00 20.00     0.168 C 
HETATM    5  O9  UNL     1     -34.714   5.295   3.515  1.00 20.00    -0.391 OA
HETATM    6  C3  UNL     1     -33.317   5.596   3.393  1.00 20.00     0.172 C 
ENDBRANCH   1   2
BRANCH   1   7
HETATM    7  C8  UNL     1     -32.051   8.443   1.580  1.00 20.00     0.118 C 
BRANCH   7   8
HETATM    8  C7  UNL     1     -32.249   9.079   0.199  1.00 20.00     0.027 C 
HETATM    9  C5  UNL     1     -32.623  10.554   0.275  1.00 20.00     0.007 C 
ENDBRANCH   7   8
BRANCH   7  10
HETATM   10  O10 UNL     1     -30.987   7.495   1.528  1.00 20.00    -0.396 OA
HETATM   11  H26 UNL     1     -30.792   7.250   2.446  1.00 20.00     0.210 HD
ENDBRANCH   7  10
ENDBRANCH   1   7
TORSDOF 4
ENDMDL
MODEL 3
REMARK VINA RESULT:      -0.8      1.154      4.471
REMARK  4 active torsions:
REMARK  status: ('A' for Active; 'I' for Inactive)
REMARK    1  A    between atoms: C4_4  and  C6_6 
REMARK    2  A    between atoms: C6_6  and  C8_8 
REMARK    3  A    between atoms: C7_7  and  C8_8 
REMARK    4  A    between atoms: C8_8  and  O10_10 
ROOT
HETATM    1  C6  UNL     1     -33.604   5.389   3.014  1.00 20.00     0.038 C 
ENDROOT
BRANCH   1   2
HETATM    2  C4  UNL     1     -34.065   6.835   2.838  1.00 20.00     0.014 C 
HETATM    3  C1  UNL     1     -34.126   7.575   4.159  1.00 20.00     0.033 C 
HETATM    4  C2  UNL     1     -32.698   8.045   4.353  1.00 20.00     0.168 C 
HETATM    5  O9  UNL     1     -32.119   8.182   3.048  1.00 20.00    -0.391 OA
HETATM    6  C3  UNL     1     -33.041   7.663   2.079  1.00 20.00     0.172 C 
ENDBRANCH   1   2
BRANCH   1   7
HETATM    7  C8  UNL     1     -34.130   4.764   4.311  1.00 20.00     0.118 C 
BRANCH   7   8
HETATM    8  C7  UNL     1     -33.755   3.280   4.389  1.00 20.00     0.027 C 
HETATM    9  C5  UNL     1     -32.691   2.993   5.440  1.00 20.00     0.007 C 
ENDBRANCH   7   8
BRANCH   7  10
HETATM   10  O10 UNL     1     -35.548   4.906   4.339  1.00 20.00    -0.396 OA
HETATM   11  H26 UNL     1     -35.749   5.747   3.899  1.00 20.00     0.210 HD
ENDBRANCH   7  10
ENDBRANCH   1   7
TORSDOF 4
ENDMDL
MODEL 4
REMARK VINA RESULT:      -0.7      1.734      4.201
REMARK  4 active torsions:
REMARK  status: ('A' for Active; 'I' for Inactive)
REMARK    1  A    between atoms: C4_4  and  C6_6 
REMARK    2  A    between atoms: C6_6  and  C8_8 
REMARK    3  A    between atoms: C7_7  and  C8_8 
REMARK    4  A    between atoms: C8_8  and  O10_10 
ROOT
HETATM    1  C6  UNL     1     -33.642   6.623   3.689  1.00 20.00     0.038 C 
ENDROOT
BRANCH   1   2
HETATM    2  C4  UNL     1     -33.640   6.904   2.187  1.00 20.00     0.014 C 
HETATM    3  C1  UNL     1     -32.760   8.086   1.833  1.00 20.00     0.033 C 
HETATM    4  C2  UNL     1     -31.382   7.466   1.727  1.00 20.00     0.168 C 
HETATM    5  O9  UNL     1     -31.565   6.091   1.362  1.00 20.00    -0.391 OA
HETATM    6  C3  UNL     1     -32.967   5.787   1.407  1.00 20.00     0.172 C 
ENDBRANCH   1   2
BRANCH   1   7
HETATM    7  C8  UNL     1     -35.046   6.323   4.224  1.00 20.00     0.118 C 
BRANCH   7   8
HETATM    8  C7  UNL     1     -35.199   4.831   4.540  1.00 20.00     0.027 C 
HETATM    9  C5  UNL     1     -33.914   4.044   4.312  1.00 20.00     0.007 C 
ENDBRANCH   7   8
BRANCH   7  10
HETATM   10  O10 UNL     1     -35.998   6.709   3.236  1.00 20.00    -0.396 OA
HETATM   11  H26 UNL     1     -36.058   7.676   3.273  1.00 20.00     0.210 HD
ENDBRANCH   7  10
ENDBRANCH   1   7
TORSDOF 4
ENDMDL
MODEL 5
REMARK VINA RESULT:      -0.6      1.418      4.463
REMARK  4 active torsions:
REMARK  status: ('A' for Active; 'I' for Inactive)
REMARK    1  A    between atoms: C4_4  and  C6_6 
REMARK    2  A    between atoms: C6_6  and  C8_8 
REMARK    3  A    between atoms: C7_7  and  C8_8 
REMARK    4  A    between atoms: C8_8  and  O10_10 
ROOT
HETATM    1  C6  UNL     1     -34.177   6.324   3.216  1.00 20.00     0.038 C 
ENDROOT
BRANCH   1   2
HETATM    2  C4  UNL     1     -32.706   6.496   2.845  1.00 20.00     0.014 C 
HETATM    3  C1  UNL     1     -32.445   6.159   1.390  1.00 20.00     0.033 C 
HETATM    4  C2  UNL     1     -32.785   7.451   0.675  1.00 20.00     0.168 C 
HETATM    5  O9  UNL     1     -32.565   8.519   1.606  1.00 20.00    -0.391 OA
HETATM    6  C3  UNL     1     -32.279   7.954   2.894  1.00 20.00     0.172 C 
ENDBRANCH   1   2
BRANCH   1   7
HETATM    7  C8  UNL     1     -34.387   5.238   4.278  1.00 20.00     0.118 C 
BRANCH   7   8
HETATM    8  C7  UNL     1     -33.849   3.889   3.788  1.00 20.00     0.027 C 
HETATM    9  C5  UNL     1     -33.189   3.079   4.897  1.00 20.00     0.007 C 
ENDBRANCH   7   8
BRANCH   7  10
HETATM   10  O10 UNL     1     -35.784   5.133   4.547  1.00 20.00    -0.396 OA
HETATM   11  H26 UNL     1     -36.229   5.116   3.685  1.00 20.00     0.210 HD
ENDBRANCH   7  10
ENDBRANCH   1   7
TORSDOF 4
ENDMDL
MODEL 6
REMARK VINA RESULT:      -0.5      1.138      1.221
REMARK  4 active torsions:
REMARK  status: ('A' for Active; 'I' for Inactive)
REMARK    1  A    between atoms: C4_4  and  C6_6 
REMARK    2  A    between atoms: C6_6  and  C8_8 
REMARK    3  A    between atoms: C7_7  and  C8_8 
REMARK    4  A    between atoms: C8_8  and  O10_10 
ROOT
HETATM    1  C6  UNL     1     -32.992   7.488   3.434  1.00 20.00     0.038 C 
ENDROOT
BRANCH   1   2
HETATM    2  C4  UNL     1     -34.114   6.672   2.794  1.00 20.00     0.014 C 
HETATM    3  C1  UNL     1     -33.697   5.237   2.540  1.00 20.00     0.033 C 
HETATM    4  C2  UNL     1     -33.958   4.565   3.873  1.00 20.00     0.168 C 
HETATM    5  O9  UNL     1     -35.006   5.302   4.518  1.00 20.00    -0.391 OA
HETATM    6  C3  UNL     1     -35.283   6.479   3.746  1.00 20.00     0.172 C 
ENDBRANCH   1   2
BRANCH   1   7
HETATM    7  C8  UNL     1     -32.089   8.157   2.391  1.00 20.00     0.118 C 
BRANCH   7   8
HETATM    8  C7  UNL     1     -32.877   9.186   1.573  1.00 20.00     0.027 C 
HETATM    9  C5  UNL     1     -32.198   9.537   0.255  1.00 20.00     0.007 C 
ENDBRANCH   7   8
BRANCH   7  10
HETATM   10  O10 UNL     1     -31.570   7.147   1.529  1.00 20.00    -0.396 OA
HETATM   11  H26 UNL     1     -32.336   6.697   1.140  1.00 20.00     0.210 HD
ENDBRANCH   7  10
ENDBRANCH   1   7
TORSDOF 4
ENDMDL
MODEL 7
REMARK VINA RESULT:      -0.4      1.649      2.464
REMARK  4 active torsions:
REMARK  status: ('A' for Active; 'I' for Inactive)
REMARK    1  A    between atoms: C4_4  and  C6_6 
REMARK    2  A    between atoms: C6_6  and  C8_8 
REMARK    3  A    between atoms: C7_7  and  C8_8 
REMARK    4  A    between atoms: C8_8  and  O10_10 
ROOT
HETATM    1  C6  UNL     1     -32.978   7.433   1.573  1.00 20.00     0.038 C 
ENDROOT
BRANCH   1   2
HETATM    2  C4  UNL     1     -32.843   6.746   2.931  1.00 20.00     0.014 C 
HETATM    3  C1  UNL     1     -33.129   7.695   4.077  1.00 20.00     0.033 C 
HETATM    4  C2  UNL     1     -34.639   7.647   4.192  1.00 20.00     0.168 C 
HETATM    5  O9  UNL     1     -35.057   6.365   3.704  1.00 20.00    -0.391 OA
HETATM    6  C3  UNL     1     -33.921   5.695   3.139  1.00 20.00     0.172 C 
ENDBRANCH   1   2
BRANCH   1   7
HETATM    7  C8  UNL     1     -31.992   8.595   1.407  1.00 20.00     0.118 C 
BRANCH   7   8
HETATM    8  C7  UNL     1     -32.723   9.869   0.972  1.00 20.00     0.027 C 
HETATM    9  C5  UNL     1     -32.706  10.074  -0.538  1.00 20.00     0.007 C 
ENDBRANCH   7   8
BRANCH   7  10
HETATM   10  O10 UNL     1     -31.026   8.231   0.423  1.00 20.00    -0.396 OA
HETATM   11  H26 UNL     1     -31.174   8.815  -0.337  1.00 20.00     0.210 HD
ENDBRANCH   7  10
ENDBRANCH   1   7
TORSDOF 4
ENDMDL
MODEL 8
REMARK VINA RESULT:      -0.4      1.939      2.578
REMARK  4 active torsions:
REMARK  status: ('A' for Active; 'I' for Inactive)
REMARK    1  A    between atoms: C4_4  and  C6_6 
REMARK    2  A    between atoms: C6_6  and  C8_8 
REMARK    3  A    between atoms: C7_7  and  C8_8 
REMARK    4  A    between atoms: C8_8  and  O10_10 
ROOT
HETATM    1  C6  UNL     1     -33.412   5.538   2.075  1.00 20.00     0.038 C 
ENDROOT
BRANCH   1   2
HETATM    2  C4  UNL     1     -33.446   5.714   3.592  1.00 20.00     0.014 C 
HETATM    3  C1  UNL     1     -34.317   6.882   4.008  1.00 20.00     0.033 C 
HETATM    4  C2  UNL     1     -35.706   6.278   4.039  1.00 20.00     0.168 C 
HETATM    5  O9  UNL     1     -35.550   4.879   4.312  1.00 20.00    -0.391 OA
HETATM    6  C3  UNL     1     -34.153   4.556   4.277  1.00 20.00     0.172 C 
ENDBRANCH   1   2
BRANCH   1   7
HETATM    7  C8  UNL     1     -32.035   5.855   1.481  1.00 20.00     0.118 C 
BRANCH   7   8
HETATM    8  C7  UNL     1     -32.003   7.278   0.913  1.00 20.00     0.027 C 
HETATM    9  C5  UNL     1     -31.631   8.323   1.957  1.00 20.00     0.007 C 
ENDBRANCH   7   8
BRANCH   7  10
HETATM   10  O10 UNL     1     -31.762   4.914   0.446  1.00 20.00    -0.396 OA
HETATM   11  H26 UNL     1     -31.713   4.043   0.870  1.00 20.00     0.210 HD
ENDBRANCH   7  10
ENDBRANCH   1   7
TORSDOF 4
ENDMDL
MODEL 9
REMARK VINA RESULT:      -0.1      1.771      4.701
REMARK  4 active torsions:
REMARK  status: ('A' for Active; 'I' for Inactive)
REMARK    1  A    between atoms: C4_4  and  C6_6 
REMARK    2  A    between atoms: C6_6  and  C8_8 
REMARK    3  A    between atoms: C7_7  and  C8_8 
REMARK    4  A    between atoms: C8_8  and  O10_10 
ROOT
HETATM    1  C6  UNL     1     -33.124   7.476   1.839  1.00 20.00     0.038 C 
ENDROOT
BRANCH   1   2
HETATM    2  C4  UNL     1     -31.981   8.471   1.643  1.00 20.00     0.014 C 
HETATM    3  C1  UNL     1     -31.470   8.474   0.216  1.00 20.00     0.033 C 
HETATM    4  C2  UNL     1     -32.424   9.419  -0.485  1.00 20.00     0.168 C 
HETATM    5  O9  UNL     1     -32.911  10.337   0.503  1.00 20.00    -0.391 OA
HETATM    6  C3  UNL     1     -32.453   9.907   1.794  1.00 20.00     0.172 C 
ENDBRANCH   1   2
BRANCH   1   7
HETATM    7  C8  UNL     1     -33.269   7.035   3.300  1.00 20.00     0.118 C 
BRANCH   7   8
HETATM    8  C7  UNL     1     -34.076   5.735   3.397  1.00 20.00     0.027 C 
HETATM    9  C5  UNL     1     -35.376   5.903   4.172  1.00 20.00     0.007 C 
ENDBRANCH   7   8
BRANCH   7  10
HETATM   10  O10 UNL     1     -33.933   8.071   4.020  1.00 20.00    -0.396 OA
HETATM   11  H26 UNL     1     -33.778   8.892   3.528  1.00 20.00     0.210 HD
ENDBRANCH   7  10
ENDBRANCH   1   7
TORSDOF 4
ENDMDL
