MODEL 1
REMARK VINA RESULT:      -2.0      0.000      0.000
REMARK  4 active torsions:
REMARK  status: ('A' for Active; 'I' for Inactive)
REMARK    1  A    between atoms: C1_1  and  C8_8 
REMARK    2  A    between atoms: C1_1  and  C10_10 
REMARK    3  A    between atoms: C5_5  and  C9_9 
REMARK    4  A    between atoms: C9_9  and  C10_10 
ROOT
HETATM    1  C7  UNL     1     -32.466   5.771   1.306  1.00 20.00     0.018 C 
HETATM    2  C10 UNL     1     -32.859   7.167   1.780  1.00 20.00     0.051 C 
ENDROOT
BRANCH   2   3
HETATM    3  C1  UNL     1     -33.572   7.040   3.127  1.00 20.00     0.130 C 
HETATM    4  O11 UNL     1     -33.640   7.984   3.913  1.00 20.00    -0.298 OA
BRANCH   3   5
HETATM    5  C8  UNL     1     -34.217   5.694   3.418  1.00 20.00     0.074 C 
HETATM    6  C6  UNL     1     -35.455   5.815   4.289  1.00 20.00     0.013 C 
ENDBRANCH   3   5
ENDBRANCH   2   3
BRANCH   2   7
HETATM    7  C9  UNL     1     -31.627   8.078   1.871  1.00 20.00     0.016 C 
BRANCH   7   8
HETATM    8  C5  UNL     1     -31.681   9.171   0.823  1.00 20.00    -0.014 C 
HETATM    9  C3  UNL     1     -32.691  10.321   1.070  1.00 20.00     0.005 C 
HETATM   10  C2  UNL     1     -32.937  10.332  -0.453  1.00 20.00     0.001 C 
HETATM   11  C4  UNL     1     -32.484   8.858  -0.466  1.00 20.00     0.005 C 
ENDBRANCH   7   8
ENDBRANCH   2   7
TORSDOF 4
ENDMDL
MODEL 2
REMARK VINA RESULT:      -1.7      1.281      1.736
REMARK  4 active torsions:
REMARK  status: ('A' for Active; 'I' for Inactive)
REMARK    1  A    between atoms: C1_1  and  C8_8 
REMARK    2  A    between atoms: C1_1  and  C10_10 
REMARK    3  A    between atoms: C5_5  and  C9_9 
REMARK    4  A    between atoms: C9_9  and  C10_10 
ROOT
HETATM    1  C7  UNL     1     -32.079   5.346   1.435  1.00 20.00     0.018 C 
HETATM    2  C10 UNL     1     -32.997   6.518   1.767  1.00 20.00     0.051 C 
ENDROOT
BRANCH   2   3
HETATM    3  C1  UNL     1     -33.701   6.222   3.093  1.00 20.00     0.130 C 
HETATM    4  O11 UNL     1     -33.726   5.090   3.573  1.00 20.00    -0.298 OA
BRANCH   3   5
HETATM    5  C8  UNL     1     -34.335   7.414   3.794  1.00 20.00     0.074 C 
HETATM    6  C6  UNL     1     -33.472   7.957   4.919  1.00 20.00     0.013 C 
ENDBRANCH   3   5
ENDBRANCH   2   3
BRANCH   2   7
HETATM    7  C9  UNL     1     -32.206   7.831   1.823  1.00 20.00     0.016 C 
BRANCH   7   8
HETATM    8  C5  UNL     1     -32.727   8.824   0.805  1.00 20.00    -0.014 C 
HETATM    9  C3  UNL     1     -31.742   9.256  -0.312  1.00 20.00     0.005 C 
HETATM   10  C2  UNL     1     -32.363  10.664  -0.213  1.00 20.00     0.001 C 
HETATM   11  C4  UNL     1     -32.753  10.313   1.237  1.00 20.00     0.005 C 
ENDBRANCH   7   8
ENDBRANCH   2   7
TORSDOF 4
ENDMDL
MODEL 3
REMARK VINA RESULT:      -1.5      1.962      2.952
REMARK  4 active torsions:
REMARK  status: ('A' for Active; 'I' for Inactive)
REMARK    1  A    between atoms: C1_1  and  C8_8 
REMARK    2  A    between atoms: C1_1  and  C10_10 
REMARK    3  A    between atoms: C5_5  and  C9_9 
REMARK    4  A    between atoms: C9_9  and  C10_10 
ROOT
HETATM    1  C7  UNL     1     -35.030   7.072   3.665  1.00 20.00     0.018 C 
HETATM    2  C10 UNL     1     -33.915   6.039   3.535  1.00 20.00     0.051 C 
ENDROOT
BRANCH   2   3
HETATM    3  C1  UNL     1     -34.407   4.717   4.125  1.00 20.00     0.130 C 
HETATM    4  O11 UNL     1     -35.470   4.639   4.739  1.00 20.00    -0.298 OA
BRANCH   3   5
HETATM    5  C8  UNL     1     -33.524   3.504   3.878  1.00 20.00     0.074 C 
HETATM    6  C6  UNL     1     -32.981   2.904   5.163  1.00 20.00     0.013 C 
ENDBRANCH   3   5
ENDBRANCH   2   3
BRANCH   2   7
HETATM    7  C9  UNL     1     -33.484   5.884   2.070  1.00 20.00     0.016 C 
BRANCH   7   8
HETATM    8  C5  UNL     1     -32.291   6.764   1.758  1.00 20.00    -0.014 C 
HETATM    9  C3  UNL     1     -32.101   8.018   2.650  1.00 20.00     0.005 C 
HETATM   10  C2  UNL     1     -31.616   8.754   1.384  1.00 20.00     0.001 C 
HETATM   11  C4  UNL     1     -32.445   7.743   0.565  1.00 20.00     0.005 C 
ENDBRANCH   7   8
ENDBRANCH   2   7
TORSDOF 4
ENDMDL
MODEL 4
REMARK VINA RESULT:      -1.2      1.632      4.719
REMARK  4 active torsions:
REMARK  status: ('A' for Active; 'I' for Inactive)
REMARK    1  A    between atoms: C1_1  and  C8_8 
REMARK    2  A    between atoms: C1_1  and  C10_10 
REMARK    3  A    between atoms: C5_5  and  C9_9 
REMARK    4  A    between atoms: C9_9  and  C10_10 
ROOT
HETATM    1  C7  UNL     1     -32.487   6.004   1.075  1.00 20.00     0.018 C 
HETATM    2  C10 UNL     1     -32.058   7.184   1.942  1.00 20.00     0.051 C 
ENDROOT
BRANCH   2   3
HETATM    3  C1  UNL     1     -31.793   8.384   1.031  1.00 20.00     0.130 C 
HETATM    4  O11 UNL     1     -30.903   8.366   0.182  1.00 20.00    -0.298 OA
BRANCH   3   5
HETATM    5  C8  UNL     1     -32.714   9.580   1.216  1.00 20.00     0.074 C 
HETATM    6  C6  UNL     1     -32.738  10.493   0.003  1.00 20.00     0.013 C 
ENDBRANCH   3   5
ENDBRANCH   2   3
BRANCH   2   7
HETATM    7  C9  UNL     1     -33.123   7.497   3.002  1.00 20.00     0.016 C 
BRANCH   7   8
HETATM    8  C5  UNL     1     -34.157   6.392   3.077  1.00 20.00    -0.014 C 
HETATM    9  C3  UNL     1     -35.293   6.574   4.116  1.00 20.00     0.005 C 
HETATM   10  C2  UNL     1     -35.218   5.052   4.355  1.00 20.00     0.001 C 
HETATM   11  C4  UNL     1     -33.756   5.120   3.868  1.00 20.00     0.005 C 
ENDBRANCH   7   8
ENDBRANCH   2   7
TORSDOF 4
ENDMDL
MODEL 5
REMARK VINA RESULT:      -1.1      1.130      4.560
REMARK  4 active torsions:
REMARK  status: ('A' for Active; 'I' for Inactive)
REMARK    1  A    between atoms: C1_1  and  C8_8 
REMARK    2  A    between atoms: C1_1  and  C10_10 
REMARK    3  A    between atoms: C5_5  and  C9_9 
REMARK    4  A    between atoms: C9_9  and  C10_10 
ROOT
HETATM    1  C7  UNL     1     -33.487   6.316   0.365  1.00 20.00     0.018 C 
HETATM    2  C10 UNL     1     -32.270   6.427   1.278  1.00 20.00     0.051 C 
ENDROOT
BRANCH   2   3
HETATM    3  C1  UNL     1     -31.972   7.908   1.513  1.00 20.00     0.130 C 
HETATM    4  O11 UNL     1     -31.799   8.361   2.644  1.00 20.00    -0.298 OA
BRANCH   3   5
HETATM    5  C8  UNL     1     -31.869   8.775   0.268  1.00 20.00     0.074 C 
HETATM    6  C6  UNL     1     -32.579  10.109   0.424  1.00 20.00     0.013 C 
ENDBRANCH   3   5
ENDBRANCH   2   3
BRANCH   2   7
HETATM    7  C9  UNL     1     -32.508   5.677   2.596  1.00 20.00     0.016 C 
BRANCH   7   8
HETATM    8  C5  UNL     1     -33.986   5.593   2.915  1.00 20.00    -0.014 C 
HETATM    9  C3  UNL     1     -34.573   6.729   3.792  1.00 20.00     0.005 C 
HETATM   10  C2  UNL     1     -35.467   5.658   4.451  1.00 20.00     0.001 C 
HETATM   11  C4  UNL     1     -34.397   4.622   4.052  1.00 20.00     0.005 C 
ENDBRANCH   7   8
ENDBRANCH   2   7
TORSDOF 4
ENDMDL
MODEL 6
REMARK VINA RESULT:      -1.0      1.381      2.020
REMARK  4 active torsions:
REMARK  status: ('A' for Active; 'I' for Inactive)
REMARK    1  A    between atoms: C1_1  and  C8_8 
REMARK    2  A    between atoms: C1_1  and  C10_10 
REMARK    3  A    between atoms: C5_5  and  C9_9 
REMARK    4  A    between atoms: C9_9  and  C10_10 
ROOT
HETATM    1  C7  UNL     1     -33.896   8.246   3.585  1.00 20.00     0.018 C 
HETATM    2  C10 UNL     1     -32.727   7.370   3.144  1.00 20.00     0.051 C 
ENDROOT
BRANCH   2   3
HETATM    3  C1  UNL     1     -33.284   6.056   2.595  1.00 20.00     0.130 C 
HETATM    4  O11 UNL     1     -32.867   5.565   1.547  1.00 20.00    -0.298 OA
BRANCH   3   5
HETATM    5  C8  UNL     1     -34.355   5.380   3.437  1.00 20.00     0.074 C 
HETATM    6  C6  UNL     1     -33.878   4.078   4.055  1.00 20.00     0.013 C 
ENDBRANCH   3   5
ENDBRANCH   2   3
BRANCH   2   7
HETATM    7  C9  UNL     1     -31.861   8.099   2.108  1.00 20.00     0.016 C 
BRANCH   7   8
HETATM    8  C5  UNL     1     -32.720   8.844   1.108  1.00 20.00    -0.014 C 
HETATM    9  C3  UNL     1     -32.193   8.910  -0.349  1.00 20.00     0.005 C 
HETATM   10  C2  UNL     1     -32.764  10.341  -0.413  1.00 20.00     0.001 C 
HETATM   11  C4  UNL     1     -32.619  10.391   1.122  1.00 20.00     0.005 C 
ENDBRANCH   7   8
ENDBRANCH   2   7
TORSDOF 4
ENDMDL
MODEL 7
REMARK VINA RESULT:      -1.0      1.535      5.057
REMARK  4 active torsions:
REMARK  status: ('A' for Active; 'I' for Inactive)
REMARK    1  A    between atoms: C1_1  and  C8_8 
REMARK    2  A    between atoms: C1_1  and  C10_10 
REMARK    3  A    between atoms: C5_5  and  C9_9 
REMARK    4  A    between atoms: C9_9  and  C10_10 
ROOT
HETATM    1  C7  UNL     1     -32.267   8.378   3.793  1.00 20.00     0.018 C 
HETATM    2  C10 UNL     1     -32.974   8.089   2.472  1.00 20.00     0.051 C 
ENDROOT
BRANCH   2   3
HETATM    3  C1  UNL     1     -32.069   8.545   1.328  1.00 20.00     0.130 C 
HETATM    4  O11 UNL     1     -31.174   7.826   0.886  1.00 20.00    -0.298 OA
BRANCH   3   5
HETATM    5  C8  UNL     1     -32.363   9.921   0.749  1.00 20.00     0.074 C 
HETATM    6  C6  UNL     1     -32.725   9.870  -0.724  1.00 20.00     0.013 C 
ENDBRANCH   3   5
ENDBRANCH   2   3
BRANCH   2   7
HETATM    7  C9  UNL     1     -33.330   6.601   2.359  1.00 20.00     0.016 C 
BRANCH   7   8
HETATM    8  C5  UNL     1     -33.851   6.064   3.676  1.00 20.00    -0.014 C 
HETATM    9  C3  UNL     1     -34.126   4.540   3.745  1.00 20.00     0.005 C 
HETATM   10  C2  UNL     1     -35.344   4.874   4.631  1.00 20.00     0.001 C 
HETATM   11  C4  UNL     1     -35.364   6.261   3.956  1.00 20.00     0.005 C 
ENDBRANCH   7   8
ENDBRANCH   2   7
TORSDOF 4
ENDMDL
MODEL 8
REMARK VINA RESULT:      -1.0      1.563      4.850
REMARK  4 active torsions:
REMARK  status: ('A' for Active; 'I' for Inactive)
REMARK    1  A    between atoms: C1_1  and  C8_8 
REMARK    2  A    between atoms: C1_1  and  C10_10 
REMARK    3  A    between atoms: C5_5  and  C9_9 
REMARK    4  A    between atoms: C9_9  and  C10_10 
ROOT
HETATM    1  C7  UNL     1     -31.884   8.388   3.627  1.00 20.00     0.018 C 
HETATM    2  C10 UNL     1     -32.687   7.988   2.392  1.00 20.00     0.051 C 
ENDROOT
BRANCH   2   3
HETATM    3  C1  UNL     1     -32.066   8.665   1.170  1.00 20.00     0.130 C 
HETATM    4  O11 UNL     1     -31.164   8.132   0.524  1.00 20.00    -0.298 OA
BRANCH   3   5
HETATM    5  C8  UNL     1     -32.652  10.014   0.782  1.00 20.00     0.074 C 
HETATM    6  C6  UNL     1     -32.780  10.186  -0.721  1.00 20.00     0.013 C 
ENDBRANCH   3   5
ENDBRANCH   2   3
BRANCH   2   7
HETATM    7  C9  UNL     1     -32.728   6.462   2.239  1.00 20.00     0.016 C 
BRANCH   7   8
HETATM    8  C5  UNL     1     -34.052   5.903   2.717  1.00 20.00    -0.014 C 
HETATM    9  C3  UNL     1     -34.798   6.716   3.806  1.00 20.00     0.005 C 
HETATM   10  C2  UNL     1     -35.234   5.366   4.412  1.00 20.00     0.001 C 
HETATM   11  C4  UNL     1     -33.986   4.747   3.749  1.00 20.00     0.005 C 
ENDBRANCH   7   8
ENDBRANCH   2   7
TORSDOF 4
ENDMDL
MODEL 9
REMARK VINA RESULT:      -0.5      1.572      5.099
REMARK  4 active torsions:
REMARK  status: ('A' for Active; 'I' for Inactive)
REMARK    1  A    between atoms: C1_1  and  C8_8 
REMARK    2  A    between atoms: C1_1  and  C10_10 
REMARK    3  A    between atoms: C5_5  and  C9_9 
REMARK    4  A    between atoms: C9_9  and  C10_10 
ROOT
HETATM    1  C7  UNL     1     -33.020   5.860   0.680  1.00 20.00     0.018 C 
HETATM    2  C10 UNL     1     -32.598   6.347   2.063  1.00 20.00     0.051 C 
ENDROOT
BRANCH   2   3
HETATM    3  C1  UNL     1     -32.155   7.806   1.950  1.00 20.00     0.130 C 
HETATM    4  O11 UNL     1     -32.043   8.526   2.941  1.00 20.00    -0.298 OA
BRANCH   3   5
HETATM    5  C8  UNL     1     -31.828   8.299   0.549  1.00 20.00     0.074 C 
HETATM    6  C6  UNL     1     -32.328   9.711   0.294  1.00 20.00     0.013 C 
ENDBRANCH   3   5
ENDBRANCH   2   3
BRANCH   2   7
HETATM    7  C9  UNL     1     -33.741   6.175   3.073  1.00 20.00     0.016 C 
BRANCH   7   8
HETATM    8  C5  UNL     1     -33.994   4.711   3.364  1.00 20.00    -0.014 C 
HETATM    9  C3  UNL     1     -34.408   4.352   4.814  1.00 20.00     0.005 C 
HETATM   10  C2  UNL     1     -33.566   3.069   4.660  1.00 20.00     0.001 C 
HETATM   11  C4  UNL     1     -32.744   3.823   3.595  1.00 20.00     0.005 C 
ENDBRANCH   7   8
ENDBRANCH   2   7
TORSDOF 4
ENDMDL
