MODEL 1
REMARK VINA RESULT:      -1.5      0.000      0.000
REMARK  2 active torsions:
REMARK  status: ('A' for Active; 'I' for Inactive)
REMARK    1  A    between atoms: C4_4  and  C5_5 
REMARK    2  A    between atoms: C5_5  and  C6_6 
ROOT
HETATM    1  C1  UNL     1     -33.514   7.535   3.027  1.00 20.00     0.038 A 
HETATM    2  C2  UNL     1     -33.572   5.269   2.514  1.00 20.00     0.074 A 
HETATM    3  C3  UNL     1     -34.134   6.276   3.268  1.00 20.00     0.041 A 
HETATM    4  C4  UNL     1     -32.501   7.444   2.097  1.00 20.00    -0.015 A 
HETATM    5  S7  UNL     1     -32.302   5.844   1.520  1.00 20.00    -0.105 SA
HETATM    6 CL8  UNL     1     -35.422   6.070   4.372  1.00 20.00    -0.084 Cl
ENDROOT
BRANCH   4   7
HETATM    7  C5  UNL     1     -31.624   8.518   1.582  1.00 20.00     0.061 C 
BRANCH   7   8
HETATM    8  C6  UNL     1     -32.066   9.116   0.237  1.00 20.00     0.119 C 
HETATM    9 CL9  UNL     1     -32.794  10.729   0.445  1.00 20.00    -0.130 Cl
ENDBRANCH   7   8
ENDBRANCH   4   7
TORSDOF 2
ENDMDL
MODEL 2
REMARK VINA RESULT:      -0.9      1.607      1.808
REMARK  2 active torsions:
REMARK  status: ('A' for Active; 'I' for Inactive)
REMARK    1  A    between atoms: C4_4  and  C5_5 
REMARK    2  A    between atoms: C5_5  and  C6_6 
ROOT
HETATM    1  C1  UNL     1     -32.865   5.863   2.410  1.00 20.00     0.038 A 
HETATM    2  C2  UNL     1     -34.367   6.646   4.001  1.00 20.00     0.074 A 
HETATM    3  C3  UNL     1     -33.781   5.528   3.448  1.00 20.00     0.041 A 
HETATM    4  C4  UNL     1     -32.784   7.224   2.209  1.00 20.00    -0.015 A 
HETATM    5  S7  UNL     1     -33.812   8.091   3.270  1.00 20.00    -0.105 SA
HETATM    6 CL8  UNL     1     -34.095   3.918   3.927  1.00 20.00    -0.084 Cl
ENDROOT
BRANCH   4   7
HETATM    7  C5  UNL     1     -31.957   7.963   1.232  1.00 20.00     0.061 C 
BRANCH   7   8
HETATM    8  C6  UNL     1     -32.306   9.453   1.093  1.00 20.00     0.119 C 
HETATM    9 CL9  UNL     1     -32.738   9.871  -0.585  1.00 20.00    -0.130 Cl
ENDBRANCH   7   8
ENDBRANCH   4   7
TORSDOF 2
ENDMDL
MODEL 3
REMARK VINA RESULT:      -0.8      2.068      2.583
REMARK  2 active torsions:
REMARK  status: ('A' for Active; 'I' for Inactive)
REMARK    1  A    between atoms: C4_4  and  C5_5 
REMARK    2  A    between atoms: C5_5  and  C6_6 
ROOT
HETATM    1  C1  UNL     1     -33.000   4.667   2.948  1.00 20.00     0.038 A 
HETATM    2  C2  UNL     1     -34.730   5.022   4.458  1.00 20.00     0.074 A 
HETATM    3  C3  UNL     1     -33.748   4.150   4.045  1.00 20.00     0.041 A 
HETATM    4  C4  UNL     1     -33.438   5.916   2.565  1.00 20.00    -0.015 A 
HETATM    5  S7  UNL     1     -34.747   6.460   3.527  1.00 20.00    -0.105 SA
HETATM    6 CL8  UNL     1     -33.439   2.621   4.742  1.00 20.00    -0.084 Cl
ENDROOT
BRANCH   4   7
HETATM    7  C5  UNL     1     -32.927   6.778   1.478  1.00 20.00     0.061 C 
BRANCH   7   8
HETATM    8  C6  UNL     1     -32.117   7.995   1.952  1.00 20.00     0.119 C 
HETATM    9 CL9  UNL     1     -32.220   9.343   0.791  1.00 20.00    -0.130 Cl
ENDBRANCH   7   8
ENDBRANCH   4   7
TORSDOF 2
ENDMDL
MODEL 4
REMARK VINA RESULT:      -0.6      2.367      5.014
REMARK  2 active torsions:
REMARK  status: ('A' for Active; 'I' for Inactive)
REMARK    1  A    between atoms: C4_4  and  C5_5 
REMARK    2  A    between atoms: C5_5  and  C6_6 
ROOT
HETATM    1  C1  UNL     1     -33.097   6.168   2.352  1.00 20.00     0.038 A 
HETATM    2  C2  UNL     1     -33.204   8.337   3.182  1.00 20.00     0.074 A 
HETATM    3  C3  UNL     1     -32.699   7.527   2.189  1.00 20.00     0.041 A 
HETATM    4  C4  UNL     1     -33.892   5.991   3.463  1.00 20.00    -0.015 A 
HETATM    5  S7  UNL     1     -34.155   7.460   4.305  1.00 20.00    -0.105 SA
HETATM    6 CL8  UNL     1     -31.708   8.057   0.901  1.00 20.00    -0.084 Cl
ENDROOT
BRANCH   4   7
HETATM    7  C5  UNL     1     -34.500   4.743   3.971  1.00 20.00     0.061 C 
BRANCH   7   8
HETATM    8  C6  UNL     1     -33.623   3.491   3.810  1.00 20.00     0.119 C 
HETATM    9 CL9  UNL     1     -32.933   2.969   5.367  1.00 20.00    -0.130 Cl
ENDBRANCH   7   8
ENDBRANCH   4   7
TORSDOF 2
ENDMDL
MODEL 5
REMARK VINA RESULT:      -0.6      2.548      4.353
REMARK  2 active torsions:
REMARK  status: ('A' for Active; 'I' for Inactive)
REMARK    1  A    between atoms: C4_4  and  C5_5 
REMARK    2  A    between atoms: C5_5  and  C6_6 
ROOT
HETATM    1  C1  UNL     1     -33.127   5.787   2.260  1.00 20.00     0.038 A 
HETATM    2  C2  UNL     1     -31.563   7.170   1.239  1.00 20.00     0.074 A 
HETATM    3  C3  UNL     1     -32.090   5.899   1.289  1.00 20.00     0.041 A 
HETATM    4  C4  UNL     1     -33.354   6.978   2.915  1.00 20.00    -0.015 A 
HETATM    5  S7  UNL     1     -32.317   8.224   2.359  1.00 20.00    -0.105 SA
HETATM    6 CL8  UNL     1     -31.582   4.588   0.318  1.00 20.00    -0.084 Cl
ENDROOT
BRANCH   4   7
HETATM    7  C5  UNL     1     -34.335   7.271   3.981  1.00 20.00     0.061 C 
BRANCH   7   8
HETATM    8  C6  UNL     1     -35.521   6.295   4.046  1.00 20.00     0.119 C 
HETATM    9 CL9  UNL     1     -35.014   4.684   4.612  1.00 20.00    -0.130 Cl
ENDBRANCH   7   8
ENDBRANCH   4   7
TORSDOF 2
ENDMDL
MODEL 6
REMARK VINA RESULT:      -0.3      1.454      4.419
REMARK  2 active torsions:
REMARK  status: ('A' for Active; 'I' for Inactive)
REMARK    1  A    between atoms: C4_4  and  C5_5 
REMARK    2  A    between atoms: C5_5  and  C6_6 
ROOT
HETATM    1  C1  UNL     1     -32.751   8.307   2.427  1.00 20.00     0.038 A 
HETATM    2  C2  UNL     1     -32.017   6.582   1.053  1.00 20.00     0.074 A 
HETATM    3  C3  UNL     1     -31.963   7.936   1.300  1.00 20.00     0.041 A 
HETATM    4  C4  UNL     1     -33.377   7.222   3.001  1.00 20.00    -0.015 A 
HETATM    5  S7  UNL     1     -33.014   5.763   2.180  1.00 20.00    -0.105 SA
HETATM    6 CL8  UNL     1     -31.068   9.065   0.379  1.00 20.00    -0.084 Cl
ENDROOT
BRANCH   4   7
HETATM    7  C5  UNL     1     -34.273   7.191   4.177  1.00 20.00     0.061 C 
BRANCH   7   8
HETATM    8  C6  UNL     1     -35.426   6.180   4.078  1.00 20.00     0.119 C 
HETATM    9 CL9  UNL     1     -34.921   4.557   4.610  1.00 20.00    -0.130 Cl
ENDBRANCH   7   8
ENDBRANCH   4   7
TORSDOF 2
ENDMDL
MODEL 7
REMARK VINA RESULT:      -0.2      1.615      4.626
REMARK  2 active torsions:
REMARK  status: ('A' for Active; 'I' for Inactive)
REMARK    1  A    between atoms: C4_4  and  C5_5 
REMARK    2  A    between atoms: C5_5  and  C6_6 
ROOT
HETATM    1  C1  UNL     1     -33.388   7.671   2.789  1.00 20.00     0.038 A 
HETATM    2  C2  UNL     1     -31.965   6.899   1.121  1.00 20.00     0.074 A 
HETATM    3  C3  UNL     1     -32.529   8.012   1.705  1.00 20.00     0.041 A 
HETATM    4  C4  UNL     1     -33.448   6.309   2.993  1.00 20.00    -0.015 A 
HETATM    5  S7  UNL     1     -32.470   5.449   1.880  1.00 20.00    -0.105 SA
HETATM    6 CL8  UNL     1     -32.253   9.624   1.210  1.00 20.00    -0.084 Cl
ENDROOT
BRANCH   4   7
HETATM    7  C5  UNL     1     -34.221   5.564   4.009  1.00 20.00     0.061 C 
BRANCH   7   8
HETATM    8  C6  UNL     1     -34.212   4.037   3.829  1.00 20.00     0.119 C 
HETATM    9 CL9  UNL     1     -33.108   3.248   4.983  1.00 20.00    -0.130 Cl
ENDBRANCH   7   8
ENDBRANCH   4   7
TORSDOF 2
ENDMDL
MODEL 8
REMARK VINA RESULT:       0.6      2.859      3.453
REMARK  2 active torsions:
REMARK  status: ('A' for Active; 'I' for Inactive)
REMARK    1  A    between atoms: C4_4  and  C5_5 
REMARK    2  A    between atoms: C5_5  and  C6_6 
ROOT
HETATM    1  C1  UNL     1     -33.591   5.605   2.499  1.00 20.00     0.038 A 
HETATM    2  C2  UNL     1     -33.630   7.719   3.465  1.00 20.00     0.074 A 
HETATM    3  C3  UNL     1     -34.222   6.475   3.434  1.00 20.00     0.041 A 
HETATM    4  C4  UNL     1     -32.540   6.216   1.850  1.00 20.00    -0.015 A 
HETATM    5  S7  UNL     1     -32.318   7.833   2.369  1.00 20.00    -0.105 SA
HETATM    6 CL8  UNL     1     -35.557   6.002   4.390  1.00 20.00    -0.084 Cl
ENDROOT
BRANCH   4   7
HETATM    7  C5  UNL     1     -31.644   5.654   0.818  1.00 20.00     0.061 C 
BRANCH   7   8
HETATM    8  C6  UNL     1     -32.099   4.304   0.240  1.00 20.00     0.119 C 
HETATM    9 CL9  UNL     1     -30.759   3.453  -0.570  1.00 20.00    -0.130 Cl
ENDBRANCH   7   8
ENDBRANCH   4   7
TORSDOF 2
ENDMDL
MODEL 9
REMARK VINA RESULT:       0.6      2.214      2.419
REMARK  2 active torsions:
REMARK  status: ('A' for Active; 'I' for Inactive)
REMARK    1  A    between atoms: C4_4  and  C5_5 
REMARK    2  A    between atoms: C5_5  and  C6_6 
ROOT
HETATM    1  C1  UNL     1     -31.997   7.004   1.071  1.00 20.00     0.038 A 
HETATM    2  C2  UNL     1     -33.395   5.877   2.547  1.00 20.00     0.074 A 
HETATM    3  C3  UNL     1     -32.603   5.764   1.425  1.00 20.00     0.041 A 
HETATM    4  C4  UNL     1     -32.349   8.018   1.935  1.00 20.00    -0.015 A 
HETATM    5  S7  UNL     1     -33.406   7.473   3.168  1.00 20.00    -0.105 SA
HETATM    6 CL8  UNL     1     -32.356   4.323   0.541  1.00 20.00    -0.084 Cl
ENDROOT
BRANCH   4   7
HETATM    7  C5  UNL     1     -31.935   9.437   1.907  1.00 20.00     0.061 C 
BRANCH   7   8
HETATM    8  C6  UNL     1     -32.809  10.342   1.024  1.00 20.00     0.119 C 
HETATM    9 CL9  UNL     1     -32.704   9.880  -0.694  1.00 20.00    -0.130 Cl
ENDBRANCH   7   8
ENDBRANCH   4   7
TORSDOF 2
ENDMDL
