MODEL 1
REMARK VINA RESULT:      -2.6      0.000      0.000
REMARK  5 active torsions:
REMARK  status: ('A' for Active; 'I' for Inactive)
REMARK    1  A    between atoms: C1_1  and  C7_7 
REMARK    2  A    between atoms: C1_1  and  C10_10 
REMARK    3  A    between atoms: C4_4  and  C8_8 
REMARK    4  A    between atoms: C8_8  and  C9_9 
REMARK    5  A    between atoms: C9_9  and  C10_10 
ROOT
HETATM    1  C6  UNL     1     -33.123   5.710   1.899  1.00 20.00     0.018 C 
HETATM    2  C10 UNL     1     -33.285   7.160   2.347  1.00 20.00     0.051 C 
ENDROOT
BRANCH   2   3
HETATM    3  C1  UNL     1     -34.027   7.173   3.683  1.00 20.00     0.130 C 
HETATM    4  O11 UNL     1     -33.599   7.799   4.653  1.00 20.00    -0.298 OA
BRANCH   3   5
HETATM    5  C7  UNL     1     -35.297   6.341   3.752  1.00 20.00     0.074 C 
HETATM    6  C5  UNL     1     -35.112   5.055   4.537  1.00 20.00     0.013 C 
ENDBRANCH   3   5
ENDBRANCH   2   3
BRANCH   2   7
HETATM    7  C9  UNL     1     -31.921   7.859   2.446  1.00 20.00     0.012 C 
BRANCH   7   8
HETATM    8  C8  UNL     1     -31.548   8.601   1.159  1.00 20.00     0.005 C 
BRANCH   8   9
HETATM    9  C4  UNL     1     -32.696   9.406   0.633  1.00 20.00    -0.014 A 
HETATM   10  C2  UNL     1     -32.538  10.882   0.393  1.00 20.00     0.005 A 
HETATM   11  C3  UNL     1     -32.664   9.941  -0.773  1.00 20.00     0.005 A 
ENDBRANCH   8   9
ENDBRANCH   7   8
ENDBRANCH   2   7
TORSDOF 5
ENDMDL
MODEL 2
REMARK VINA RESULT:      -2.5      1.270      1.500
REMARK  5 active torsions:
REMARK  status: ('A' for Active; 'I' for Inactive)
REMARK    1  A    between atoms: C1_1  and  C7_7 
REMARK    2  A    between atoms: C1_1  and  C10_10 
REMARK    3  A    between atoms: C4_4  and  C8_8 
REMARK    4  A    between atoms: C8_8  and  C9_9 
REMARK    5  A    between atoms: C9_9  and  C10_10 
ROOT
HETATM    1  C6  UNL     1     -32.353   5.287   1.240  1.00 20.00     0.018 C 
HETATM    2  C10 UNL     1     -32.999   6.522   1.862  1.00 20.00     0.051 C 
ENDROOT
BRANCH   2   3
HETATM    3  C1  UNL     1     -33.775   6.087   3.105  1.00 20.00     0.130 C 
HETATM    4  O11 UNL     1     -33.774   4.918   3.491  1.00 20.00    -0.298 OA
BRANCH   3   5
HETATM    5  C7  UNL     1     -34.572   7.173   3.810  1.00 20.00     0.074 C 
HETATM    6  C5  UNL     1     -33.755   7.913   4.854  1.00 20.00     0.013 C 
ENDBRANCH   3   5
ENDBRANCH   2   3
BRANCH   2   7
HETATM    7  C9  UNL     1     -31.941   7.585   2.195  1.00 20.00     0.012 C 
BRANCH   7   8
HETATM    8  C8  UNL     1     -31.591   8.459   0.987  1.00 20.00     0.005 C 
BRANCH   8   9
HETATM    9  C4  UNL     1     -32.712   9.386   0.630  1.00 20.00    -0.014 A 
HETATM   10  C2  UNL     1     -32.456  10.860   0.479  1.00 20.00     0.005 A 
HETATM   11  C3  UNL     1     -32.764  10.022  -0.731  1.00 20.00     0.005 A 
ENDBRANCH   8   9
ENDBRANCH   7   8
ENDBRANCH   2   7
TORSDOF 5
ENDMDL
MODEL 3
REMARK VINA RESULT:      -2.5      1.692      2.610
REMARK  5 active torsions:
REMARK  status: ('A' for Active; 'I' for Inactive)
REMARK    1  A    between atoms: C1_1  and  C7_7 
REMARK    2  A    between atoms: C1_1  and  C10_10 
REMARK    3  A    between atoms: C4_4  and  C8_8 
REMARK    4  A    between atoms: C8_8  and  C9_9 
REMARK    5  A    between atoms: C9_9  and  C10_10 
ROOT
HETATM    1  C6  UNL     1     -34.643   7.338   4.017  1.00 20.00     0.018 C 
HETATM    2  C10 UNL     1     -33.780   6.169   3.549  1.00 20.00     0.051 C 
ENDROOT
BRANCH   2   3
HETATM    3  C1  UNL     1     -34.408   4.871   4.054  1.00 20.00     0.130 C 
HETATM    4  O11 UNL     1     -35.481   4.865   4.658  1.00 20.00    -0.298 OA
BRANCH   3   5
HETATM    5  C7  UNL     1     -33.615   3.600   3.799  1.00 20.00     0.074 C 
HETATM    6  C5  UNL     1     -33.084   2.975   5.077  1.00 20.00     0.013 C 
ENDBRANCH   3   5
ENDBRANCH   2   3
BRANCH   2   7
HETATM    7  C9  UNL     1     -33.635   6.174   2.020  1.00 20.00     0.012 C 
BRANCH   7   8
HETATM    8  C8  UNL     1     -32.200   6.466   1.569  1.00 20.00     0.005 C 
BRANCH   8   9
HETATM    9  C4  UNL     1     -31.850   7.913   1.741  1.00 20.00    -0.014 A 
HETATM   10  C2  UNL     1     -31.305   8.702   0.583  1.00 20.00     0.005 A 
HETATM   11  C3  UNL     1     -32.692   8.977   1.092  1.00 20.00     0.005 A 
ENDBRANCH   8   9
ENDBRANCH   7   8
ENDBRANCH   2   7
TORSDOF 5
ENDMDL
MODEL 4
REMARK VINA RESULT:      -2.3      1.384      1.879
REMARK  5 active torsions:
REMARK  status: ('A' for Active; 'I' for Inactive)
REMARK    1  A    between atoms: C1_1  and  C7_7 
REMARK    2  A    between atoms: C1_1  and  C10_10 
REMARK    3  A    between atoms: C4_4  and  C8_8 
REMARK    4  A    between atoms: C8_8  and  C9_9 
REMARK    5  A    between atoms: C9_9  and  C10_10 
ROOT
HETATM    1  C6  UNL     1     -33.878   8.023   4.084  1.00 20.00     0.018 C 
HETATM    2  C10 UNL     1     -33.345   6.697   3.548  1.00 20.00     0.051 C 
ENDROOT
BRANCH   2   3
HETATM    3  C1  UNL     1     -34.405   5.621   3.777  1.00 20.00     0.130 C 
HETATM    4  O11 UNL     1     -35.530   5.901   4.190  1.00 20.00    -0.298 OA
BRANCH   3   5
HETATM    5  C7  UNL     1     -33.976   4.190   3.501  1.00 20.00     0.074 C 
HETATM    6  C5  UNL     1     -33.526   3.461   4.755  1.00 20.00     0.013 C 
ENDBRANCH   3   5
ENDBRANCH   2   3
BRANCH   2   7
HETATM    7  C9  UNL     1     -32.968   6.818   2.064  1.00 20.00     0.012 C 
BRANCH   7   8
HETATM    8  C8  UNL     1     -32.128   8.065   1.774  1.00 20.00     0.005 C 
BRANCH   8   9
HETATM    9  C4  UNL     1     -32.765   8.932   0.732  1.00 20.00    -0.014 A 
HETATM   10  C2  UNL     1     -32.639  10.429   0.811  1.00 20.00     0.005 A 
HETATM   11  C3  UNL     1     -31.913   9.669  -0.265  1.00 20.00     0.005 A 
ENDBRANCH   8   9
ENDBRANCH   7   8
ENDBRANCH   2   7
TORSDOF 5
ENDMDL
MODEL 5
REMARK VINA RESULT:      -2.2      1.129      1.233
REMARK  5 active torsions:
REMARK  status: ('A' for Active; 'I' for Inactive)
REMARK    1  A    between atoms: C1_1  and  C7_7 
REMARK    2  A    between atoms: C1_1  and  C10_10 
REMARK    3  A    between atoms: C4_4  and  C8_8 
REMARK    4  A    between atoms: C8_8  and  C9_9 
REMARK    5  A    between atoms: C9_9  and  C10_10 
ROOT
HETATM    1  C6  UNL     1     -32.451   5.490   1.347  1.00 20.00     0.018 C 
HETATM    2  C10 UNL     1     -33.274   6.536   2.094  1.00 20.00     0.051 C 
ENDROOT
BRANCH   2   3
HETATM    3  C1  UNL     1     -34.021   5.841   3.232  1.00 20.00     0.130 C 
HETATM    4  O11 UNL     1     -34.675   6.477   4.058  1.00 20.00    -0.298 OA
BRANCH   3   5
HETATM    5  C7  UNL     1     -33.877   4.330   3.302  1.00 20.00     0.074 C 
HETATM    6  C5  UNL     1     -33.787   3.816   4.728  1.00 20.00     0.013 C 
ENDBRANCH   3   5
ENDBRANCH   2   3
BRANCH   2   7
HETATM    7  C9  UNL     1     -32.379   7.671   2.610  1.00 20.00     0.012 C 
BRANCH   7   8
HETATM    8  C8  UNL     1     -31.736   8.473   1.474  1.00 20.00     0.005 C 
BRANCH   8   9
HETATM    9  C4  UNL     1     -32.757   9.245   0.696  1.00 20.00    -0.014 A 
HETATM   10  C2  UNL     1     -32.647  10.740   0.578  1.00 20.00     0.005 A 
HETATM   11  C3  UNL     1     -32.390   9.871  -0.621  1.00 20.00     0.005 A 
ENDBRANCH   8   9
ENDBRANCH   7   8
ENDBRANCH   2   7
TORSDOF 5
ENDMDL
MODEL 6
REMARK VINA RESULT:      -1.9      2.003      5.639
REMARK  5 active torsions:
REMARK  status: ('A' for Active; 'I' for Inactive)
REMARK    1  A    between atoms: C1_1  and  C7_7 
REMARK    2  A    between atoms: C1_1  and  C10_10 
REMARK    3  A    between atoms: C4_4  and  C8_8 
REMARK    4  A    between atoms: C8_8  and  C9_9 
REMARK    5  A    between atoms: C9_9  and  C10_10 
ROOT
HETATM    1  C6  UNL     1     -33.606   7.994   4.497  1.00 20.00     0.018 C 
HETATM    2  C10 UNL     1     -34.179   7.179   3.341  1.00 20.00     0.051 C 
ENDROOT
BRANCH   2   3
HETATM    3  C1  UNL     1     -33.088   7.002   2.286  1.00 20.00     0.130 C 
HETATM    4  O11 UNL     1     -33.055   6.016   1.550  1.00 20.00    -0.298 OA
BRANCH   3   5
HETATM    5  C7  UNL     1     -32.032   8.093   2.227  1.00 20.00     0.074 C 
HETATM    6  C5  UNL     1     -32.101   8.905   0.946  1.00 20.00     0.013 C 
ENDBRANCH   3   5
ENDBRANCH   2   3
BRANCH   2   7
HETATM    7  C9  UNL     1     -34.715   5.828   3.837  1.00 20.00     0.012 C 
BRANCH   7   8
HETATM    8  C8  UNL     1     -33.718   4.686   3.617  1.00 20.00     0.005 C 
BRANCH   8   9
HETATM    9  C4  UNL     1     -33.869   3.612   4.650  1.00 20.00    -0.014 A 
HETATM   10  C2  UNL     1     -33.273   2.251   4.420  1.00 20.00     0.005 A 
HETATM   11  C3  UNL     1     -32.681   3.165   5.456  1.00 20.00     0.005 A 
ENDBRANCH   8   9
ENDBRANCH   7   8
ENDBRANCH   2   7
TORSDOF 5
ENDMDL
MODEL 7
REMARK VINA RESULT:      -1.7      1.488      1.976
REMARK  5 active torsions:
REMARK  status: ('A' for Active; 'I' for Inactive)
REMARK    1  A    between atoms: C1_1  and  C7_7 
REMARK    2  A    between atoms: C1_1  and  C10_10 
REMARK    3  A    between atoms: C4_4  and  C8_8 
REMARK    4  A    between atoms: C8_8  and  C9_9 
REMARK    5  A    between atoms: C9_9  and  C10_10 
ROOT
HETATM    1  C6  UNL     1     -34.104   7.675   4.439  1.00 20.00     0.018 C 
HETATM    2  C10 UNL     1     -33.139   7.250   3.337  1.00 20.00     0.051 C 
ENDROOT
BRANCH   2   3
HETATM    3  C1  UNL     1     -33.505   5.835   2.892  1.00 20.00     0.130 C 
HETATM    4  O11 UNL     1     -33.117   5.375   1.818  1.00 20.00    -0.298 OA
BRANCH   3   5
HETATM    5  C7  UNL     1     -34.400   5.048   3.835  1.00 20.00     0.074 C 
HETATM    6  C5  UNL     1     -33.785   3.727   4.260  1.00 20.00     0.013 C 
ENDBRANCH   3   5
ENDBRANCH   2   3
BRANCH   2   7
HETATM    7  C9  UNL     1     -33.176   8.242   2.164  1.00 20.00     0.012 C 
BRANCH   7   8
HETATM    8  C8  UNL     1     -31.887   8.217   1.336  1.00 20.00     0.005 C 
BRANCH   8   9
HETATM    9  C4  UNL     1     -31.734   9.459   0.513  1.00 20.00    -0.014 A 
HETATM   10  C2  UNL     1     -32.663   9.723  -0.640  1.00 20.00     0.005 A 
HETATM   11  C3  UNL     1     -32.755  10.559   0.607  1.00 20.00     0.005 A 
ENDBRANCH   8   9
ENDBRANCH   7   8
ENDBRANCH   2   7
TORSDOF 5
ENDMDL
MODEL 8
REMARK VINA RESULT:      -1.6      1.680      5.433
REMARK  5 active torsions:
REMARK  status: ('A' for Active; 'I' for Inactive)
REMARK    1  A    between atoms: C1_1  and  C7_7 
REMARK    2  A    between atoms: C1_1  and  C10_10 
REMARK    3  A    between atoms: C4_4  and  C8_8 
REMARK    4  A    between atoms: C8_8  and  C9_9 
REMARK    5  A    between atoms: C9_9  and  C10_10 
ROOT
HETATM    1  C6  UNL     1     -33.163   5.568   1.272  1.00 20.00     0.018 C 
HETATM    2  C10 UNL     1     -33.157   6.031   2.726  1.00 20.00     0.051 C 
ENDROOT
BRANCH   2   3
HETATM    3  C1  UNL     1     -32.717   7.494   2.766  1.00 20.00     0.130 C 
HETATM    4  O11 UNL     1     -33.109   8.263   3.645  1.00 20.00    -0.298 OA
BRANCH   3   5
HETATM    5  C7  UNL     1     -31.802   7.949   1.641  1.00 20.00     0.074 C 
HETATM    6  C5  UNL     1     -32.332   9.171   0.914  1.00 20.00     0.013 C 
ENDBRANCH   3   5
ENDBRANCH   2   3
BRANCH   2   7
HETATM    7  C9  UNL     1     -34.538   5.834   3.370  1.00 20.00     0.012 C 
BRANCH   7   8
HETATM    8  C8  UNL     1     -34.575   4.633   4.319  1.00 20.00     0.005 C 
BRANCH   8   9
HETATM    9  C4  UNL     1     -33.351   3.780   4.180  1.00 20.00    -0.014 A 
HETATM   10  C2  UNL     1     -32.691   3.198   5.399  1.00 20.00     0.005 A 
HETATM   11  C3  UNL     1     -33.426   2.301   4.443  1.00 20.00     0.005 A 
ENDBRANCH   8   9
ENDBRANCH   7   8
ENDBRANCH   2   7
TORSDOF 5
ENDMDL
MODEL 9
REMARK VINA RESULT:      -1.5      1.728      5.121
REMARK  5 active torsions:
REMARK  status: ('A' for Active; 'I' for Inactive)
REMARK    1  A    between atoms: C1_1  and  C7_7 
REMARK    2  A    between atoms: C1_1  and  C10_10 
REMARK    3  A    between atoms: C4_4  and  C8_8 
REMARK    4  A    between atoms: C8_8  and  C9_9 
REMARK    5  A    between atoms: C9_9  and  C10_10 
ROOT
HETATM    1  C6  UNL     1     -32.333   6.303   1.434  1.00 20.00     0.018 C 
HETATM    2  C10 UNL     1     -32.250   7.693   2.057  1.00 20.00     0.051 C 
ENDROOT
BRANCH   2   3
HETATM    3  C1  UNL     1     -31.873   8.692   0.963  1.00 20.00     0.130 C 
HETATM    4  O11 UNL     1     -30.946   8.476   0.184  1.00 20.00    -0.298 OA
BRANCH   3   5
HETATM    5  C7  UNL     1     -32.686   9.975   0.921  1.00 20.00     0.074 C 
HETATM    6  C5  UNL     1     -32.961  10.446  -0.496  1.00 20.00     0.013 C 
ENDBRANCH   3   5
ENDBRANCH   2   3
BRANCH   2   7
HETATM    7  C9  UNL     1     -33.574   8.068   2.739  1.00 20.00     0.012 C 
BRANCH   7   8
HETATM    8  C8  UNL     1     -33.867   7.200   3.966  1.00 20.00     0.005 C 
BRANCH   8   9
HETATM    9  C4  UNL     1     -34.762   6.048   3.628  1.00 20.00    -0.014 A 
HETATM   10  C2  UNL     1     -34.328   4.639   3.927  1.00 20.00     0.005 A 
HETATM   11  C3  UNL     1     -35.438   5.268   4.722  1.00 20.00     0.005 A 
ENDBRANCH   8   9
ENDBRANCH   7   8
ENDBRANCH   2   7
TORSDOF 5
ENDMDL
