MODEL 1
REMARK VINA RESULT:      -1.9      0.000      0.000
REMARK  4 active torsions:
REMARK  status: ('A' for Active; 'I' for Inactive)
REMARK    1  A    between atoms: C6_6  and  C9_9 
REMARK    2  A    between atoms: C7_7  and  C10_10 
REMARK    3  A    between atoms: C8_8  and  O11_11 
REMARK    4  A    between atoms: C9_9  and  C10_10 
ROOT
HETATM    1  C1  UNL     1     -34.267   7.527   4.761  1.00 20.00     0.003 C 
HETATM    2  C2  UNL     1     -33.047   7.892   3.912  1.00 20.00     0.007 C 
HETATM    3  C5  UNL     1     -35.082   6.522   3.943  1.00 20.00     0.032 C 
HETATM    4  C7  UNL     1     -33.331   7.306   2.527  1.00 20.00     0.014 C 
HETATM    5  C8  UNL     1     -34.140   6.047   2.843  1.00 20.00     0.122 C 
ENDROOT
BRANCH   4   6
HETATM    6  C10 UNL     1     -32.064   7.062   1.722  1.00 20.00     0.007 C 
BRANCH   6   7
HETATM    7  C9  UNL     1     -31.542   8.352   1.096  1.00 20.00     0.005 C 
BRANCH   7   8
HETATM    8  C6  UNL     1     -32.680   9.254   0.647  1.00 20.00    -0.014 A 
HETATM    9  C3  UNL     1     -32.484  10.744   0.579  1.00 20.00     0.005 A 
HETATM   10  C4  UNL     1     -32.618   9.944  -0.687  1.00 20.00     0.005 A 
ENDBRANCH   7   8
ENDBRANCH   6   7
ENDBRANCH   4   6
BRANCH   5  11
HETATM   11  O11 UNL     1     -33.301   5.013   3.341  1.00 20.00    -0.395 OA
HETATM   12  H29 UNL     1     -32.649   4.824   2.647  1.00 20.00     0.210 HD
ENDBRANCH   5  11
TORSDOF 4
ENDMDL
MODEL 2
REMARK VINA RESULT:      -1.2      1.377      2.036
REMARK  4 active torsions:
REMARK  status: ('A' for Active; 'I' for Inactive)
REMARK    1  A    between atoms: C6_6  and  C9_9 
REMARK    2  A    between atoms: C7_7  and  C10_10 
REMARK    3  A    between atoms: C8_8  and  O11_11 
REMARK    4  A    between atoms: C9_9  and  C10_10 
ROOT
HETATM    1  C1  UNL     1     -34.083   4.402   3.547  1.00 20.00     0.003 C 
HETATM    2  C2  UNL     1     -33.281   5.493   2.835  1.00 20.00     0.007 C 
HETATM    3  C5  UNL     1     -35.014   5.116   4.530  1.00 20.00     0.032 C 
HETATM    4  C7  UNL     1     -33.569   6.778   3.615  1.00 20.00     0.014 C 
HETATM    5  C8  UNL     1     -35.008   6.576   4.094  1.00 20.00     0.122 C 
ENDROOT
BRANCH   4   6
HETATM    6  C10 UNL     1     -33.346   8.032   2.783  1.00 20.00     0.007 C 
BRANCH   6   7
HETATM    7  C9  UNL     1     -32.362   7.779   1.644  1.00 20.00     0.005 C 
BRANCH   7   8
HETATM    8  C6  UNL     1     -31.886   9.081   1.020  1.00 20.00    -0.014 A 
HETATM    9  C3  UNL     1     -32.365   9.486  -0.347  1.00 20.00     0.005 A 
HETATM   10  C4  UNL     1     -32.835  10.238   0.866  1.00 20.00     0.005 A 
ENDBRANCH   7   8
ENDBRANCH   6   7
ENDBRANCH   4   6
BRANCH   5  11
HETATM   11  O11 UNL     1     -35.931   6.765   3.029  1.00 20.00    -0.395 OA
HETATM   12  H29 UNL     1     -36.392   5.919   2.905  1.00 20.00     0.210 HD
ENDBRANCH   5  11
TORSDOF 4
ENDMDL
MODEL 3
REMARK VINA RESULT:      -0.9      2.301      5.199
REMARK  4 active torsions:
REMARK  status: ('A' for Active; 'I' for Inactive)
REMARK    1  A    between atoms: C6_6  and  C9_9 
REMARK    2  A    between atoms: C7_7  and  C10_10 
REMARK    3  A    between atoms: C8_8  and  O11_11 
REMARK    4  A    between atoms: C9_9  and  C10_10 
ROOT
HETATM    1  C1  UNL     1     -32.064   8.065   2.020  1.00 20.00     0.003 C 
HETATM    2  C2  UNL     1     -33.236   7.826   2.974  1.00 20.00     0.007 C 
HETATM    3  C5  UNL     1     -31.724   6.708   1.398  1.00 20.00     0.032 C 
HETATM    4  C7  UNL     1     -33.360   6.305   3.086  1.00 20.00     0.014 C 
HETATM    5  C8  UNL     1     -32.925   5.820   1.702  1.00 20.00     0.122 C 
ENDROOT
BRANCH   4   6
HETATM    6  C10 UNL     1     -34.751   5.858   3.507  1.00 20.00     0.007 C 
BRANCH   6   7
HETATM    7  C9  UNL     1     -34.694   4.651   4.439  1.00 20.00     0.005 C 
BRANCH   7   8
HETATM    8  C6  UNL     1     -33.429   3.837   4.219  1.00 20.00    -0.014 A 
HETATM    9  C3  UNL     1     -32.711   3.220   5.388  1.00 20.00     0.005 A 
HETATM   10  C4  UNL     1     -33.446   2.346   4.410  1.00 20.00     0.005 A 
ENDBRANCH   7   8
ENDBRANCH   6   7
ENDBRANCH   4   6
BRANCH   5  11
HETATM   11  O11 UNL     1     -33.946   6.045   0.739  1.00 20.00    -0.395 OA
HETATM   12  H29 UNL     1     -34.632   5.376   0.896  1.00 20.00     0.210 HD
ENDBRANCH   5  11
TORSDOF 4
ENDMDL
MODEL 4
REMARK VINA RESULT:      -0.7      2.392      5.324
REMARK  4 active torsions:
REMARK  status: ('A' for Active; 'I' for Inactive)
REMARK    1  A    between atoms: C6_6  and  C9_9 
REMARK    2  A    between atoms: C7_7  and  C10_10 
REMARK    3  A    between atoms: C8_8  and  O11_11 
REMARK    4  A    between atoms: C9_9  and  C10_10 
ROOT
HETATM    1  C1  UNL     1     -31.821   7.507   1.497  1.00 20.00     0.003 C 
HETATM    2  C2  UNL     1     -32.595   6.275   1.970  1.00 20.00     0.007 C 
HETATM    3  C5  UNL     1     -32.446   8.713   2.204  1.00 20.00     0.032 C 
HETATM    4  C7  UNL     1     -33.813   6.826   2.715  1.00 20.00     0.014 C 
HETATM    5  C8  UNL     1     -33.284   8.122   3.332  1.00 20.00     0.122 C 
ENDROOT
BRANCH   4   6
HETATM    6  C10 UNL     1     -34.388   5.834   3.714  1.00 20.00     0.007 C 
BRANCH   6   7
HETATM    7  C9  UNL     1     -33.954   4.406   3.397  1.00 20.00     0.005 C 
BRANCH   7   8
HETATM    8  C6  UNL     1     -33.872   3.556   4.654  1.00 20.00    -0.014 A 
HETATM    9  C3  UNL     1     -33.287   2.171   4.597  1.00 20.00     0.005 A 
HETATM   10  C4  UNL     1     -32.540   3.275   5.293  1.00 20.00     0.005 A 
ENDBRANCH   7   8
ENDBRANCH   6   7
ENDBRANCH   4   6
BRANCH   5  11
HETATM   11  O11 UNL     1     -32.455   7.850   4.455  1.00 20.00    -0.395 OA
HETATM   12  H29 UNL     1     -32.497   6.892   4.609  1.00 20.00     0.210 HD
ENDBRANCH   5  11
TORSDOF 4
ENDMDL
MODEL 5
REMARK VINA RESULT:       0.3      1.265      4.443
REMARK  4 active torsions:
REMARK  status: ('A' for Active; 'I' for Inactive)
REMARK    1  A    between atoms: C6_6  and  C9_9 
REMARK    2  A    between atoms: C7_7  and  C10_10 
REMARK    3  A    between atoms: C8_8  and  O11_11 
REMARK    4  A    between atoms: C9_9  and  C10_10 
ROOT
HETATM    1  C1  UNL     1     -32.425   9.526   0.257  1.00 20.00     0.003 C 
HETATM    2  C2  UNL     1     -32.886   9.517   1.716  1.00 20.00     0.007 C 
HETATM    3  C5  UNL     1     -31.362   8.432   0.129  1.00 20.00     0.032 C 
HETATM    4  C7  UNL     1     -31.889   8.615   2.448  1.00 20.00     0.014 C 
HETATM    5  C8  UNL     1     -31.514   7.581   1.385  1.00 20.00     0.122 C 
ENDROOT
BRANCH   4   6
HETATM    6  C10 UNL     1     -32.460   8.030   3.731  1.00 20.00     0.007 C 
BRANCH   6   7
HETATM    7  C9  UNL     1     -33.985   8.081   3.739  1.00 20.00     0.005 C 
BRANCH   7   8
HETATM    8  C6  UNL     1     -34.581   6.855   4.410  1.00 20.00    -0.014 A 
HETATM    9  C3  UNL     1     -35.712   6.107   3.758  1.00 20.00     0.005 A 
HETATM   10  C4  UNL     1     -34.345   5.486   3.834  1.00 20.00     0.005 A 
ENDBRANCH   7   8
ENDBRANCH   6   7
ENDBRANCH   4   6
BRANCH   5  11
HETATM   11  O11 UNL     1     -32.559   6.635   1.203  1.00 20.00    -0.395 OA
HETATM   12  H29 UNL     1     -32.830   6.693   0.273  1.00 20.00     0.210 HD
ENDBRANCH   5  11
TORSDOF 4
ENDMDL
MODEL 6
REMARK VINA RESULT:       0.5      1.840      4.977
REMARK  4 active torsions:
REMARK  status: ('A' for Active; 'I' for Inactive)
REMARK    1  A    between atoms: C6_6  and  C9_9 
REMARK    2  A    between atoms: C7_7  and  C10_10 
REMARK    3  A    between atoms: C8_8  and  O11_11 
REMARK    4  A    between atoms: C9_9  and  C10_10 
ROOT
HETATM    1  C1  UNL     1     -31.760   6.999   1.040  1.00 20.00     0.003 C 
HETATM    2  C2  UNL     1     -32.708   6.313   2.025  1.00 20.00     0.007 C 
HETATM    3  C5  UNL     1     -31.858   8.502   1.315  1.00 20.00     0.032 C 
HETATM    4  C7  UNL     1     -33.528   7.444   2.649  1.00 20.00     0.014 C 
HETATM    5  C8  UNL     1     -32.542   8.614   2.672  1.00 20.00     0.122 C 
ENDROOT
BRANCH   4   6
HETATM    6  C10 UNL     1     -34.103   7.071   4.007  1.00 20.00     0.007 C 
BRANCH   6   7
HETATM    7  C9  UNL     1     -35.241   6.062   3.874  1.00 20.00     0.005 C 
BRANCH   7   8
HETATM    8  C6  UNL     1     -34.881   4.730   4.511  1.00 20.00    -0.014 A 
HETATM    9  C3  UNL     1     -34.116   3.697   3.729  1.00 20.00     0.005 A 
HETATM   10  C4  UNL     1     -33.452   4.421   4.866  1.00 20.00     0.005 A 
ENDBRANCH   7   8
ENDBRANCH   6   7
ENDBRANCH   4   6
BRANCH   5  11
HETATM   11  O11 UNL     1     -31.583   8.452   3.709  1.00 20.00    -0.395 OA
HETATM   12  H29 UNL     1     -30.838   7.960   3.327  1.00 20.00     0.210 HD
ENDBRANCH   5  11
TORSDOF 4
ENDMDL
MODEL 7
REMARK VINA RESULT:       0.5      1.797      4.531
REMARK  4 active torsions:
REMARK  status: ('A' for Active; 'I' for Inactive)
REMARK    1  A    between atoms: C6_6  and  C9_9 
REMARK    2  A    between atoms: C7_7  and  C10_10 
REMARK    3  A    between atoms: C8_8  and  O11_11 
REMARK    4  A    between atoms: C9_9  and  C10_10 
ROOT
HETATM    1  C1  UNL     1     -32.947  10.830   0.941  1.00 20.00     0.003 C 
HETATM    2  C2  UNL     1     -32.929   9.575   1.816  1.00 20.00     0.007 C 
HETATM    3  C5  UNL     1     -32.057  10.531  -0.269  1.00 20.00     0.032 C 
HETATM    4  C7  UNL     1     -31.822   8.694   1.234  1.00 20.00     0.014 C 
HETATM    5  C8  UNL     1     -31.871   9.018  -0.260  1.00 20.00     0.122 C 
ENDROOT
BRANCH   4   6
HETATM    6  C10 UNL     1     -32.004   7.222   1.571  1.00 20.00     0.007 C 
BRANCH   6   7
HETATM    7  C9  UNL     1     -33.466   6.892   1.859  1.00 20.00     0.005 C 
BRANCH   7   8
HETATM    8  C6  UNL     1     -33.673   6.498   3.313  1.00 20.00    -0.014 A 
HETATM    9  C3  UNL     1     -34.253   7.484   4.290  1.00 20.00     0.005 A 
HETATM   10  C4  UNL     1     -35.061   6.294   3.852  1.00 20.00     0.005 A 
ENDBRANCH   7   8
ENDBRANCH   6   7
ENDBRANCH   4   6
BRANCH   5  11
HETATM   11  O11 UNL     1     -32.986   8.392  -0.881  1.00 20.00    -0.395 OA
HETATM   12  H29 UNL     1     -33.614   9.097  -1.105  1.00 20.00     0.210 HD
ENDBRANCH   5  11
TORSDOF 4
ENDMDL
MODEL 8
REMARK VINA RESULT:       0.5      1.742      4.534
REMARK  4 active torsions:
REMARK  status: ('A' for Active; 'I' for Inactive)
REMARK    1  A    between atoms: C6_6  and  C9_9 
REMARK    2  A    between atoms: C7_7  and  C10_10 
REMARK    3  A    between atoms: C8_8  and  O11_11 
REMARK    4  A    between atoms: C9_9  and  C10_10 
ROOT
HETATM    1  C1  UNL     1     -31.994   9.873   0.120  1.00 20.00     0.003 C 
HETATM    2  C2  UNL     1     -31.781   8.359   0.050  1.00 20.00     0.007 C 
HETATM    3  C5  UNL     1     -32.759  10.145   1.418  1.00 20.00     0.032 C 
HETATM    4  C7  UNL     1     -32.661   7.777   1.158  1.00 20.00     0.014 C 
HETATM    5  C8  UNL     1     -32.628   8.864   2.233  1.00 20.00     0.122 C 
ENDROOT
BRANCH   4   6
HETATM    6  C10 UNL     1     -32.189   6.408   1.624  1.00 20.00     0.007 C 
BRANCH   6   7
HETATM    7  C9  UNL     1     -33.356   5.544   2.094  1.00 20.00     0.005 C 
BRANCH   7   8
HETATM    8  C6  UNL     1     -33.776   5.898   3.511  1.00 20.00    -0.014 A 
HETATM    9  C3  UNL     1     -35.119   6.522   3.771  1.00 20.00     0.005 A 
HETATM   10  C4  UNL     1     -34.852   5.107   4.202  1.00 20.00     0.005 A 
ENDBRANCH   7   8
ENDBRANCH   6   7
ENDBRANCH   4   6
BRANCH   5  11
HETATM   11  O11 UNL     1     -31.386   8.859   2.925  1.00 20.00    -0.395 OA
HETATM   12  H29 UNL     1     -31.115   9.786   3.020  1.00 20.00     0.210 HD
ENDBRANCH   5  11
TORSDOF 4
ENDMDL
MODEL 9
REMARK VINA RESULT:       0.7      2.098      4.910
REMARK  4 active torsions:
REMARK  status: ('A' for Active; 'I' for Inactive)
REMARK    1  A    between atoms: C6_6  and  C9_9 
REMARK    2  A    between atoms: C7_7  and  C10_10 
REMARK    3  A    between atoms: C8_8  and  O11_11 
REMARK    4  A    between atoms: C9_9  and  C10_10 
ROOT
HETATM    1  C1  UNL     1     -31.339   9.241  -0.712  1.00 20.00     0.003 C 
HETATM    2  C2  UNL     1     -31.143   8.519   0.622  1.00 20.00     0.007 C 
HETATM    3  C5  UNL     1     -32.726   9.889  -0.657  1.00 20.00     0.032 C 
HETATM    4  C7  UNL     1     -32.517   8.536   1.296  1.00 20.00     0.014 C 
HETATM    5  C8  UNL     1     -33.122   9.856   0.815  1.00 20.00     0.122 C 
ENDROOT
BRANCH   4   6
HETATM    6  C10 UNL     1     -32.431   8.389   2.807  1.00 20.00     0.007 C 
BRANCH   6   7
HETATM    7  C9  UNL     1     -33.818   8.348   3.444  1.00 20.00     0.005 C 
BRANCH   7   8
HETATM    8  C6  UNL     1     -34.077   7.016   4.130  1.00 20.00    -0.014 A 
HETATM    9  C3  UNL     1     -35.374   6.288   3.906  1.00 20.00     0.005 A 
HETATM   10  C4  UNL     1     -34.097   5.743   3.329  1.00 20.00     0.005 A 
ENDBRANCH   7   8
ENDBRANCH   6   7
ENDBRANCH   4   6
BRANCH   5  11
HETATM   11  O11 UNL     1     -32.540  10.961   1.495  1.00 20.00    -0.395 OA
HETATM   12  H29 UNL     1     -32.228  10.629   2.352  1.00 20.00     0.210 HD
ENDBRANCH   5  11
TORSDOF 4
ENDMDL
