MODEL 1
REMARK VINA RESULT:      -2.5      0.000      0.000
REMARK  3 active torsions:
REMARK  status: ('A' for Active; 'I' for Inactive)
REMARK    1  A    between atoms: C4_4  and  C6_6 
REMARK    2  A    between atoms: C5_5  and  O8_8 
REMARK    3  A    between atoms: C6_6  and  C7_7 
ROOT
HETATM    1  C1  UNL     1     -31.997   8.372   1.964  1.00 20.00     0.003 C 
HETATM    2  C2  UNL     1     -32.956   7.796   3.009  1.00 20.00     0.007 C 
HETATM    3  C3  UNL     1     -31.682   7.233   0.996  1.00 20.00     0.032 C 
HETATM    4  C4  UNL     1     -33.487   6.509   2.385  1.00 20.00     0.023 C 
HETATM    5  C5  UNL     1     -32.264   5.979   1.639  1.00 20.00     0.122 C 
ENDROOT
BRANCH   4   6
HETATM    6  C6  UNL     1     -34.040   5.530   3.408  1.00 20.00     0.124 C 
BRANCH   6   7
HETATM    7  C7  UNL     1     -35.231   6.101   4.127  1.00 20.00     0.388 C 
HETATM    8  F9  UNL     1     -34.888   7.136   4.924  1.00 20.00    -0.171 F 
HETATM    9  F10 UNL     1     -35.785   5.149   4.910  1.00 20.00    -0.171 F 
HETATM   10  F11 UNL     1     -36.180   6.530   3.269  1.00 20.00    -0.171 F 
ENDBRANCH   6   7
ENDBRANCH   4   6
BRANCH   5  11
HETATM   11  O8  UNL     1     -32.633   5.020   0.667  1.00 20.00    -0.395 OA
HETATM   12  H22 UNL     1     -33.020   5.504  -0.081  1.00 20.00     0.210 HD
ENDBRANCH   5  11
TORSDOF 3
ENDMDL
MODEL 2
REMARK VINA RESULT:      -2.1      3.577      4.746
REMARK  3 active torsions:
REMARK  status: ('A' for Active; 'I' for Inactive)
REMARK    1  A    between atoms: C4_4  and  C6_6 
REMARK    2  A    between atoms: C5_5  and  O8_8 
REMARK    3  A    between atoms: C6_6  and  C7_7 
ROOT
HETATM    1  C1  UNL     1     -33.169   5.120   2.070  1.00 20.00     0.003 C 
HETATM    2  C2  UNL     1     -32.338   6.222   1.410  1.00 20.00     0.007 C 
HETATM    3  C3  UNL     1     -33.906   5.778   3.236  1.00 20.00     0.032 C 
HETATM    4  C4  UNL     1     -32.936   7.526   1.928  1.00 20.00     0.023 C 
HETATM    5  C5  UNL     1     -33.298   7.169   3.368  1.00 20.00     0.122 C 
ENDROOT
BRANCH   4   6
HETATM    6  C6  UNL     1     -31.983   8.706   1.821  1.00 20.00     0.124 C 
BRANCH   6   7
HETATM    7  C7  UNL     1     -32.120   9.404   0.497  1.00 20.00     0.388 C 
HETATM    8  F9  UNL     1     -33.161   8.927  -0.218  1.00 20.00    -0.171 F 
HETATM    9  F10 UNL     1     -30.999   9.210  -0.234  1.00 20.00    -0.171 F 
HETATM   10  F11 UNL     1     -32.287  10.735   0.643  1.00 20.00    -0.171 F 
ENDBRANCH   6   7
ENDBRANCH   4   6
BRANCH   5  11
HETATM   11  O8  UNL     1     -34.226   8.092   3.907  1.00 20.00    -0.395 OA
HETATM   12  H22 UNL     1     -33.912   8.328   4.795  1.00 20.00     0.210 HD
ENDBRANCH   5  11
TORSDOF 3
ENDMDL
MODEL 3
REMARK VINA RESULT:      -1.8      2.736      4.086
REMARK  3 active torsions:
REMARK  status: ('A' for Active; 'I' for Inactive)
REMARK    1  A    between atoms: C4_4  and  C6_6 
REMARK    2  A    between atoms: C5_5  and  O8_8 
REMARK    3  A    between atoms: C6_6  and  C7_7 
ROOT
HETATM    1  C1  UNL     1     -35.505   6.387   4.325  1.00 20.00     0.003 C 
HETATM    2  C2  UNL     1     -34.646   7.114   3.288  1.00 20.00     0.007 C 
HETATM    3  C3  UNL     1     -34.962   4.962   4.410  1.00 20.00     0.032 C 
HETATM    4  C4  UNL     1     -33.402   6.244   3.133  1.00 20.00     0.023 C 
HETATM    5  C5  UNL     1     -33.973   4.833   3.256  1.00 20.00     0.122 C 
ENDROOT
BRANCH   4   6
HETATM    6  C6  UNL     1     -32.664   6.482   1.825  1.00 20.00     0.124 C 
BRANCH   6   7
HETATM    7  C7  UNL     1     -31.998   7.830   1.808  1.00 20.00     0.388 C 
HETATM    8  F9  UNL     1     -32.764   8.762   1.201  1.00 20.00    -0.171 F 
HETATM    9  F10 UNL     1     -30.834   7.751   1.126  1.00 20.00    -0.171 F 
HETATM   10  F11 UNL     1     -31.713   8.268   3.052  1.00 20.00    -0.171 F 
ENDBRANCH   6   7
ENDBRANCH   4   6
BRANCH   5  11
HETATM   11  O8  UNL     1     -32.957   3.892   3.545  1.00 20.00    -0.395 OA
HETATM   12  H22 UNL     1     -33.396   3.082   3.853  1.00 20.00     0.210 HD
ENDBRANCH   5  11
TORSDOF 3
ENDMDL
MODEL 4
REMARK VINA RESULT:      -1.7      2.725      3.429
REMARK  3 active torsions:
REMARK  status: ('A' for Active; 'I' for Inactive)
REMARK    1  A    between atoms: C4_4  and  C6_6 
REMARK    2  A    between atoms: C5_5  and  O8_8 
REMARK    3  A    between atoms: C6_6  and  C7_7 
ROOT
HETATM    1  C1  UNL     1     -32.397   6.682   1.516  1.00 20.00     0.003 C 
HETATM    2  C2  UNL     1     -32.708   5.246   1.942  1.00 20.00     0.007 C 
HETATM    3  C3  UNL     1     -33.155   7.591   2.481  1.00 20.00     0.032 C 
HETATM    4  C4  UNL     1     -33.265   5.371   3.357  1.00 20.00     0.023 C 
HETATM    5  C5  UNL     1     -34.069   6.667   3.277  1.00 20.00     0.122 C 
ENDROOT
BRANCH   4   6
HETATM    6  C6  UNL     1     -34.098   4.172   3.781  1.00 20.00     0.124 C 
BRANCH   6   7
HETATM    7  C7  UNL     1     -33.279   3.186   4.568  1.00 20.00     0.388 C 
HETATM    8  F9  UNL     1     -33.588   1.910   4.251  1.00 20.00    -0.171 F 
HETATM    9  F10 UNL     1     -33.520   3.349   5.888  1.00 20.00    -0.171 F 
HETATM   10  F11 UNL     1     -31.956   3.358   4.370  1.00 20.00    -0.171 F 
ENDBRANCH   6   7
ENDBRANCH   4   6
BRANCH   5  11
HETATM   11  O8  UNL     1     -34.336   7.185   4.567  1.00 20.00    -0.395 OA
HETATM   12  H22 UNL     1     -33.491   7.207   5.047  1.00 20.00     0.210 HD
ENDBRANCH   5  11
TORSDOF 3
ENDMDL
MODEL 5
REMARK VINA RESULT:      -1.5      1.686      2.240
REMARK  3 active torsions:
REMARK  status: ('A' for Active; 'I' for Inactive)
REMARK    1  A    between atoms: C4_4  and  C6_6 
REMARK    2  A    between atoms: C5_5  and  O8_8 
REMARK    3  A    between atoms: C6_6  and  C7_7 
ROOT
HETATM    1  C1  UNL     1     -32.169   6.038   1.025  1.00 20.00     0.003 C 
HETATM    2  C2  UNL     1     -33.388   5.954   1.946  1.00 20.00     0.007 C 
HETATM    3  C3  UNL     1     -31.404   7.294   1.438  1.00 20.00     0.032 C 
HETATM    4  C4  UNL     1     -33.066   6.891   3.106  1.00 20.00     0.023 C 
HETATM    5  C5  UNL     1     -32.321   8.028   2.410  1.00 20.00     0.122 C 
ENDROOT
BRANCH   4   6
HETATM    6  C6  UNL     1     -34.301   7.356   3.862  1.00 20.00     0.124 C 
BRANCH   6   7
HETATM    7  C7  UNL     1     -35.261   6.222   4.094  1.00 20.00     0.388 C 
HETATM    8  F9  UNL     1     -36.320   6.281   3.257  1.00 20.00    -0.171 F 
HETATM    9  F10 UNL     1     -35.736   6.283   5.358  1.00 20.00    -0.171 F 
HETATM   10  F11 UNL     1     -34.669   5.020   3.937  1.00 20.00    -0.171 F 
ENDBRANCH   6   7
ENDBRANCH   4   6
BRANCH   5  11
HETATM   11  O8  UNL     1     -31.583   8.801   3.338  1.00 20.00    -0.395 OA
HETATM   12  H22 UNL     1     -31.897   9.717   3.261  1.00 20.00     0.210 HD
ENDBRANCH   5  11
TORSDOF 3
ENDMDL
MODEL 6
REMARK VINA RESULT:      -1.4      3.114      4.307
REMARK  3 active torsions:
REMARK  status: ('A' for Active; 'I' for Inactive)
REMARK    1  A    between atoms: C4_4  and  C6_6 
REMARK    2  A    between atoms: C5_5  and  O8_8 
REMARK    3  A    between atoms: C6_6  and  C7_7 
ROOT
HETATM    1  C1  UNL     1     -33.896   7.370   3.681  1.00 20.00     0.003 C 
HETATM    2  C2  UNL     1     -33.054   8.475   3.040  1.00 20.00     0.007 C 
HETATM    3  C3  UNL     1     -33.652   6.109   2.853  1.00 20.00     0.032 C 
HETATM    4  C4  UNL     1     -32.050   7.740   2.158  1.00 20.00     0.023 C 
HETATM    5  C5  UNL     1     -32.878   6.573   1.624  1.00 20.00     0.122 C 
ENDROOT
BRANCH   4   6
HETATM    6  C6  UNL     1     -31.463   8.613   1.061  1.00 20.00     0.124 C 
BRANCH   6   7
HETATM    7  C7  UNL     1     -32.496   9.546   0.491  1.00 20.00     0.388 C 
HETATM    8  F9  UNL     1     -33.080   9.035  -0.614  1.00 20.00    -0.171 F 
HETATM    9  F10 UNL     1     -31.907  10.711   0.140  1.00 20.00    -0.171 F 
HETATM   10  F11 UNL     1     -33.466   9.830   1.384  1.00 20.00    -0.171 F 
ENDBRANCH   6   7
ENDBRANCH   4   6
BRANCH   5  11
HETATM   11  O8  UNL     1     -32.049   5.546   1.115  1.00 20.00    -0.395 OA
HETATM   12  H22 UNL     1     -31.363   5.375   1.782  1.00 20.00     0.210 HD
ENDBRANCH   5  11
TORSDOF 3
ENDMDL
MODEL 7
REMARK VINA RESULT:      -1.0      3.048      4.347
REMARK  3 active torsions:
REMARK  status: ('A' for Active; 'I' for Inactive)
REMARK    1  A    between atoms: C4_4  and  C6_6 
REMARK    2  A    between atoms: C5_5  and  O8_8 
REMARK    3  A    between atoms: C6_6  and  C7_7 
ROOT
HETATM    1  C1  UNL     1     -33.851   4.055   4.132  1.00 20.00     0.003 C 
HETATM    2  C2  UNL     1     -32.915   5.126   3.570  1.00 20.00     0.007 C 
HETATM    3  C3  UNL     1     -35.218   4.720   4.293  1.00 20.00     0.032 C 
HETATM    4  C4  UNL     1     -33.842   6.213   3.033  1.00 20.00     0.023 C 
HETATM    5  C5  UNL     1     -34.978   6.206   4.054  1.00 20.00     0.122 C 
ENDROOT
BRANCH   4   6
HETATM    6  C6  UNL     1     -33.163   7.566   2.897  1.00 20.00     0.124 C 
BRANCH   6   7
HETATM    7  C7  UNL     1     -32.177   7.575   1.761  1.00 20.00     0.388 C 
HETATM    8  F9  UNL     1     -32.161   6.396   1.102  1.00 20.00    -0.171 F 
HETATM    9  F10 UNL     1     -30.933   7.791   2.244  1.00 20.00    -0.171 F 
HETATM   10  F11 UNL     1     -32.445   8.550   0.869  1.00 20.00    -0.171 F 
ENDBRANCH   6   7
ENDBRANCH   4   6
BRANCH   5  11
HETATM   11  O8  UNL     1     -36.132   6.843   3.541  1.00 20.00    -0.395 OA
HETATM   12  H22 UNL     1     -36.105   6.748   2.574  1.00 20.00     0.210 HD
ENDBRANCH   5  11
TORSDOF 3
ENDMDL
MODEL 8
REMARK VINA RESULT:      -0.9      3.683      4.819
REMARK  3 active torsions:
REMARK  status: ('A' for Active; 'I' for Inactive)
REMARK    1  A    between atoms: C4_4  and  C6_6 
REMARK    2  A    between atoms: C5_5  and  O8_8 
REMARK    3  A    between atoms: C6_6  and  C7_7 
ROOT
HETATM    1  C1  UNL     1     -34.663   6.886   3.980  1.00 20.00     0.003 C 
HETATM    2  C2  UNL     1     -34.065   6.852   2.572  1.00 20.00     0.007 C 
HETATM    3  C3  UNL     1     -33.688   7.687   4.842  1.00 20.00     0.032 C 
HETATM    4  C4  UNL     1     -33.020   7.965   2.565  1.00 20.00     0.023 C 
HETATM    5  C5  UNL     1     -32.448   7.883   3.979  1.00 20.00     0.122 C 
ENDROOT
BRANCH   4   6
HETATM    6  C6  UNL     1     -31.970   7.793   1.479  1.00 20.00     0.124 C 
BRANCH   6   7
HETATM    7  C7  UNL     1     -31.978   8.951   0.520  1.00 20.00     0.388 C 
HETATM    8  F9  UNL     1     -32.934   8.815  -0.424  1.00 20.00    -0.171 F 
HETATM    9  F10 UNL     1     -30.786   9.023  -0.112  1.00 20.00    -0.171 F 
HETATM   10  F11 UNL     1     -32.177  10.127   1.151  1.00 20.00    -0.171 F 
ENDBRANCH   6   7
ENDBRANCH   4   6
BRANCH   5  11
HETATM   11  O8  UNL     1     -31.758   9.070   4.322  1.00 20.00    -0.395 OA
HETATM   12  H22 UNL     1     -31.052   9.191   3.666  1.00 20.00     0.210 HD
ENDBRANCH   5  11
TORSDOF 3
ENDMDL
MODEL 9
REMARK VINA RESULT:      -0.8      3.014      3.783
REMARK  3 active torsions:
REMARK  status: ('A' for Active; 'I' for Inactive)
REMARK    1  A    between atoms: C4_4  and  C6_6 
REMARK    2  A    between atoms: C5_5  and  O8_8 
REMARK    3  A    between atoms: C6_6  and  C7_7 
ROOT
HETATM    1  C1  UNL     1     -32.542   8.675   4.651  1.00 20.00     0.003 C 
HETATM    2  C2  UNL     1     -32.134   8.196   3.256  1.00 20.00     0.007 C 
HETATM    3  C3  UNL     1     -33.870   7.990   4.969  1.00 20.00     0.032 C 
HETATM    4  C4  UNL     1     -32.988   6.958   3.003  1.00 20.00     0.023 C 
HETATM    5  C5  UNL     1     -34.312   7.333   3.666  1.00 20.00     0.122 C 
ENDROOT
BRANCH   4   6
HETATM    6  C6  UNL     1     -33.129   6.618   1.528  1.00 20.00     0.124 C 
BRANCH   6   7
HETATM    7  C7  UNL     1     -32.647   5.224   1.237  1.00 20.00     0.388 C 
HETATM    8  F9  UNL     1     -33.242   4.706   0.141  1.00 20.00    -0.171 F 
HETATM    9  F10 UNL     1     -32.941   4.417   2.281  1.00 20.00    -0.171 F 
HETATM   10  F11 UNL     1     -31.312   5.180   1.050  1.00 20.00    -0.171 F 
ENDBRANCH   6   7
ENDBRANCH   4   6
BRANCH   5  11
HETATM   11  O8  UNL     1     -35.108   6.188   3.905  1.00 20.00    -0.395 OA
HETATM   12  H22 UNL     1     -35.085   6.018   4.861  1.00 20.00     0.210 HD
ENDBRANCH   5  11
TORSDOF 3
ENDMDL
