MODEL 1
REMARK VINA RESULT:      -2.4      0.000      0.000
REMARK  4 active torsions:
REMARK  status: ('A' for Active; 'I' for Inactive)
REMARK    1  A    between atoms: C1_1  and  C5_5 
REMARK    2  A    between atoms: C1_1  and  C8_8 
REMARK    3  A    between atoms: C5_5  and  C6_6 
REMARK    4  A    between atoms: C6_6  and  C7_7 
ROOT
HETATM    1  C1  UNL     1     -33.170   6.764   2.377  1.00 20.00     0.134 C 
HETATM    2  O9  UNL     1     -32.999   5.860   1.557  1.00 20.00    -0.297 OA
ENDROOT
BRANCH   1   3
HETATM    3  C5  UNL     1     -32.396   8.074   2.270  1.00 20.00     0.084 C 
BRANCH   3   4
HETATM    4  C6  UNL     1     -31.858   8.347   0.867  1.00 20.00     0.078 C 
BRANCH   4   5
HETATM    5  C7  UNL     1     -32.269   9.708   0.338  1.00 20.00     0.353 C 
HETATM    6  F10 UNL     1     -33.175  10.260   1.185  1.00 20.00    -0.214 F 
HETATM    7  F11 UNL     1     -32.893   9.569  -0.858  1.00 20.00    -0.214 F 
ENDBRANCH   4   5
ENDBRANCH   3   4
ENDBRANCH   1   3
BRANCH   1   8
HETATM    8  C8  UNL     1     -34.167   6.606   3.545  1.00 20.00     0.009 C 
HETATM    9  C2  UNL     1     -33.804   7.611   4.646  1.00 20.00     0.022 C 
HETATM   10  C3  UNL     1     -34.136   5.176   4.097  1.00 20.00     0.022 C 
HETATM   11  C4  UNL     1     -35.592   6.907   3.047  1.00 20.00     0.022 C 
ENDBRANCH   1   8
TORSDOF 4
ENDMDL
MODEL 2
REMARK VINA RESULT:      -2.3      0.050      1.310
REMARK  4 active torsions:
REMARK  status: ('A' for Active; 'I' for Inactive)
REMARK    1  A    between atoms: C1_1  and  C5_5 
REMARK    2  A    between atoms: C1_1  and  C8_8 
REMARK    3  A    between atoms: C5_5  and  C6_6 
REMARK    4  A    between atoms: C6_6  and  C7_7 
ROOT
HETATM    1  C1  UNL     1     -33.196   6.796   2.376  1.00 20.00     0.134 C 
HETATM    2  O9  UNL     1     -33.011   5.886   1.566  1.00 20.00    -0.297 OA
ENDROOT
BRANCH   1   3
HETATM    3  C5  UNL     1     -32.430   8.111   2.262  1.00 20.00     0.084 C 
BRANCH   3   4
HETATM    4  C6  UNL     1     -31.899   8.383   0.857  1.00 20.00     0.078 C 
BRANCH   4   5
HETATM    5  C7  UNL     1     -32.300   9.750   0.334  1.00 20.00     0.353 C 
HETATM    6  F10 UNL     1     -33.225  10.291   1.167  1.00 20.00    -0.214 F 
HETATM    7  F11 UNL     1     -32.896   9.623  -0.877  1.00 20.00    -0.214 F 
ENDBRANCH   4   5
ENDBRANCH   3   4
ENDBRANCH   1   3
BRANCH   1   8
HETATM    8  C8  UNL     1     -34.200   6.642   3.538  1.00 20.00     0.009 C 
HETATM    9  C2  UNL     1     -34.116   5.210   4.080  1.00 20.00     0.022 C 
HETATM   10  C3  UNL     1     -35.626   6.953   3.068  1.00 20.00     0.022 C 
HETATM   11  C4  UNL     1     -33.833   7.623   4.666  1.00 20.00     0.022 C 
ENDBRANCH   1   8
TORSDOF 4
ENDMDL
MODEL 3
REMARK VINA RESULT:      -2.3      0.059      1.308
REMARK  4 active torsions:
REMARK  status: ('A' for Active; 'I' for Inactive)
REMARK    1  A    between atoms: C1_1  and  C5_5 
REMARK    2  A    between atoms: C1_1  and  C8_8 
REMARK    3  A    between atoms: C5_5  and  C6_6 
REMARK    4  A    between atoms: C6_6  and  C7_7 
ROOT
HETATM    1  C1  UNL     1     -33.186   6.813   2.378  1.00 20.00     0.134 C 
HETATM    2  O9  UNL     1     -33.011   5.899   1.570  1.00 20.00    -0.297 OA
ENDROOT
BRANCH   1   3
HETATM    3  C5  UNL     1     -32.412   8.123   2.256  1.00 20.00     0.084 C 
BRANCH   3   4
HETATM    4  C6  UNL     1     -31.897   8.393   0.844  1.00 20.00     0.078 C 
BRANCH   4   5
HETATM    5  C7  UNL     1     -32.303   9.759   0.323  1.00 20.00     0.353 C 
HETATM    6  F10 UNL     1     -33.224  10.299   1.162  1.00 20.00    -0.214 F 
HETATM    7  F11 UNL     1     -32.907   9.631  -0.884  1.00 20.00    -0.214 F 
ENDBRANCH   4   5
ENDBRANCH   3   4
ENDBRANCH   1   3
BRANCH   1   8
HETATM    8  C8  UNL     1     -34.186   6.671   3.545  1.00 20.00     0.009 C 
HETATM    9  C2  UNL     1     -35.601   6.954   3.024  1.00 20.00     0.022 C 
HETATM   10  C3  UNL     1     -33.833   7.635   4.684  1.00 20.00     0.022 C 
HETATM   11  C4  UNL     1     -34.136   5.232   4.090  1.00 20.00     0.022 C 
ENDBRANCH   1   8
TORSDOF 4
ENDMDL
MODEL 4
REMARK VINA RESULT:      -1.3      4.174      5.608
REMARK  4 active torsions:
REMARK  status: ('A' for Active; 'I' for Inactive)
REMARK    1  A    between atoms: C1_1  and  C5_5 
REMARK    2  A    between atoms: C1_1  and  C8_8 
REMARK    3  A    between atoms: C5_5  and  C6_6 
REMARK    4  A    between atoms: C6_6  and  C7_7 
ROOT
HETATM    1  C1  UNL     1     -33.682   6.070   3.007  1.00 20.00     0.134 C 
HETATM    2  O9  UNL     1     -33.954   6.970   3.805  1.00 20.00    -0.297 OA
ENDROOT
BRANCH   1   3
HETATM    3  C5  UNL     1     -34.202   4.652   3.222  1.00 20.00     0.084 C 
BRANCH   3   4
HETATM    4  C6  UNL     1     -33.986   4.137   4.644  1.00 20.00     0.078 C 
BRANCH   4   5
HETATM    5  C7  UNL     1     -32.926   3.053   4.719  1.00 20.00     0.353 C 
HETATM    6  F10 UNL     1     -33.517   1.842   4.559  1.00 20.00    -0.214 F 
HETATM    7  F11 UNL     1     -32.359   3.048   5.950  1.00 20.00    -0.214 F 
ENDBRANCH   4   5
ENDBRANCH   3   4
ENDBRANCH   1   3
BRANCH   1   8
HETATM    8  C8  UNL     1     -32.805   6.338   1.766  1.00 20.00     0.009 C 
HETATM    9  C2  UNL     1     -31.720   5.258   1.682  1.00 20.00     0.022 C 
HETATM   10  C3  UNL     1     -32.167   7.731   1.841  1.00 20.00     0.022 C 
HETATM   11  C4  UNL     1     -33.675   6.269   0.498  1.00 20.00     0.022 C 
ENDBRANCH   1   8
TORSDOF 4
ENDMDL
MODEL 5
REMARK VINA RESULT:      -1.3      4.217      5.452
REMARK  4 active torsions:
REMARK  status: ('A' for Active; 'I' for Inactive)
REMARK    1  A    between atoms: C1_1  and  C5_5 
REMARK    2  A    between atoms: C1_1  and  C8_8 
REMARK    3  A    between atoms: C5_5  and  C6_6 
REMARK    4  A    between atoms: C6_6  and  C7_7 
ROOT
HETATM    1  C1  UNL     1     -34.477   6.294   3.722  1.00 20.00     0.134 C 
HETATM    2  O9  UNL     1     -35.680   6.257   3.990  1.00 20.00    -0.297 OA
ENDROOT
BRANCH   1   3
HETATM    3  C5  UNL     1     -33.695   5.011   3.457  1.00 20.00     0.084 C 
BRANCH   3   4
HETATM    4  C6  UNL     1     -34.058   3.873   4.409  1.00 20.00     0.078 C 
BRANCH   4   5
HETATM    5  C7  UNL     1     -32.912   2.902   4.624  1.00 20.00     0.353 C 
HETATM    6  F10 UNL     1     -33.377   1.632   4.514  1.00 20.00    -0.214 F 
HETATM    7  F11 UNL     1     -32.430   3.031   5.885  1.00 20.00    -0.214 F 
ENDBRANCH   4   5
ENDBRANCH   3   4
ENDBRANCH   1   3
BRANCH   1   8
HETATM    8  C8  UNL     1     -33.714   7.634   3.650  1.00 20.00     0.009 C 
HETATM    9  C2  UNL     1     -32.637   7.533   2.562  1.00 20.00     0.022 C 
HETATM   10  C3  UNL     1     -33.076   7.969   5.004  1.00 20.00     0.022 C 
HETATM   11  C4  UNL     1     -34.692   8.762   3.279  1.00 20.00     0.022 C 
ENDBRANCH   1   8
TORSDOF 4
ENDMDL
MODEL 6
REMARK VINA RESULT:      -1.0      1.500      2.209
REMARK  4 active torsions:
REMARK  status: ('A' for Active; 'I' for Inactive)
REMARK    1  A    between atoms: C1_1  and  C5_5 
REMARK    2  A    between atoms: C1_1  and  C8_8 
REMARK    3  A    between atoms: C5_5  and  C6_6 
REMARK    4  A    between atoms: C6_6  and  C7_7 
ROOT
HETATM    1  C1  UNL     1     -33.760   5.638   2.915  1.00 20.00     0.134 C 
HETATM    2  O9  UNL     1     -33.258   4.565   3.256  1.00 20.00    -0.297 OA
ENDROOT
BRANCH   1   3
HETATM    3  C5  UNL     1     -33.348   6.314   1.611  1.00 20.00     0.084 C 
BRANCH   3   4
HETATM    4  C6  UNL     1     -31.857   6.641   1.544  1.00 20.00     0.078 C 
BRANCH   4   5
HETATM    5  C7  UNL     1     -31.575   8.123   1.710  1.00 20.00     0.353 C 
HETATM    6  F10 UNL     1     -31.600   8.435   3.031  1.00 20.00    -0.214 F 
HETATM    7  F11 UNL     1     -32.558   8.847   1.122  1.00 20.00    -0.214 F 
ENDBRANCH   4   5
ENDBRANCH   3   4
ENDBRANCH   1   3
BRANCH   1   8
HETATM    8  C8  UNL     1     -34.819   6.341   3.791  1.00 20.00     0.009 C 
HETATM    9  C2  UNL     1     -35.385   5.329   4.795  1.00 20.00     0.022 C 
HETATM   10  C3  UNL     1     -35.943   6.921   2.924  1.00 20.00     0.022 C 
HETATM   11  C4  UNL     1     -34.157   7.494   4.567  1.00 20.00     0.022 C 
ENDBRANCH   1   8
TORSDOF 4
ENDMDL
MODEL 7
REMARK VINA RESULT:      -1.0      1.634      2.267
REMARK  4 active torsions:
REMARK  status: ('A' for Active; 'I' for Inactive)
REMARK    1  A    between atoms: C1_1  and  C5_5 
REMARK    2  A    between atoms: C1_1  and  C8_8 
REMARK    3  A    between atoms: C5_5  and  C6_6 
REMARK    4  A    between atoms: C6_6  and  C7_7 
ROOT
HETATM    1  C1  UNL     1     -32.784   7.365   2.361  1.00 20.00     0.134 C 
HETATM    2  O9  UNL     1     -33.594   7.839   3.161  1.00 20.00    -0.297 OA
ENDROOT
BRANCH   1   3
HETATM    3  C5  UNL     1     -31.606   8.194   1.857  1.00 20.00     0.084 C 
BRANCH   3   4
HETATM    4  C6  UNL     1     -31.813   8.746   0.449  1.00 20.00     0.078 C 
BRANCH   4   5
HETATM    5  C7  UNL     1     -32.775   9.920   0.416  1.00 20.00     0.353 C 
HETATM    6  F10 UNL     1     -33.268  10.056  -0.842  1.00 20.00    -0.214 F 
HETATM    7  F11 UNL     1     -32.111  11.068   0.698  1.00 20.00    -0.214 F 
ENDBRANCH   4   5
ENDBRANCH   3   4
ENDBRANCH   1   3
BRANCH   1   8
HETATM    8  C8  UNL     1     -32.931   5.922   1.833  1.00 20.00     0.009 C 
HETATM    9  C2  UNL     1     -33.632   5.072   2.900  1.00 20.00     0.022 C 
HETATM   10  C3  UNL     1     -31.560   5.326   1.491  1.00 20.00     0.022 C 
HETATM   11  C4  UNL     1     -33.792   5.928   0.557  1.00 20.00     0.022 C 
ENDBRANCH   1   8
TORSDOF 4
ENDMDL
MODEL 8
REMARK VINA RESULT:      -1.0      1.630      2.437
REMARK  4 active torsions:
REMARK  status: ('A' for Active; 'I' for Inactive)
REMARK    1  A    between atoms: C1_1  and  C5_5 
REMARK    2  A    between atoms: C1_1  and  C8_8 
REMARK    3  A    between atoms: C5_5  and  C6_6 
REMARK    4  A    between atoms: C6_6  and  C7_7 
ROOT
HETATM    1  C1  UNL     1     -32.724   7.402   2.334  1.00 20.00     0.134 C 
HETATM    2  O9  UNL     1     -33.491   7.933   3.140  1.00 20.00    -0.297 OA
ENDROOT
BRANCH   1   3
HETATM    3  C5  UNL     1     -31.517   8.160   1.789  1.00 20.00     0.084 C 
BRANCH   3   4
HETATM    4  C6  UNL     1     -31.757   8.766   0.408  1.00 20.00     0.078 C 
BRANCH   4   5
HETATM    5  C7  UNL     1     -32.773   9.893   0.432  1.00 20.00     0.353 C 
HETATM    6  F10 UNL     1     -33.275  10.066  -0.818  1.00 20.00    -0.214 F 
HETATM    7  F11 UNL     1     -32.164  11.056   0.770  1.00 20.00    -0.214 F 
ENDBRANCH   4   5
ENDBRANCH   3   4
ENDBRANCH   1   3
BRANCH   1   8
HETATM    8  C8  UNL     1     -32.955   5.958   1.841  1.00 20.00     0.009 C 
HETATM    9  C2  UNL     1     -33.814   5.998   0.571  1.00 20.00     0.022 C 
HETATM   10  C3  UNL     1     -33.640   5.116   2.924  1.00 20.00     0.022 C 
HETATM   11  C4  UNL     1     -31.600   5.309   1.504  1.00 20.00     0.022 C 
ENDBRANCH   1   8
TORSDOF 4
ENDMDL
MODEL 9
REMARK VINA RESULT:      -0.7      3.332      4.840
REMARK  4 active torsions:
REMARK  status: ('A' for Active; 'I' for Inactive)
REMARK    1  A    between atoms: C1_1  and  C5_5 
REMARK    2  A    between atoms: C1_1  and  C8_8 
REMARK    3  A    between atoms: C5_5  and  C6_6 
REMARK    4  A    between atoms: C6_6  and  C7_7 
ROOT
HETATM    1  C1  UNL     1     -33.309   7.565   3.343  1.00 20.00     0.134 C 
HETATM    2  O9  UNL     1     -33.177   8.101   4.445  1.00 20.00    -0.297 OA
ENDROOT
BRANCH   1   3
HETATM    3  C5  UNL     1     -34.480   6.626   3.065  1.00 20.00     0.084 C 
BRANCH   3   4
HETATM    4  C6  UNL     1     -34.790   5.685   4.228  1.00 20.00     0.078 C 
BRANCH   4   5
HETATM    5  C7  UNL     1     -34.307   4.268   3.978  1.00 20.00     0.353 C 
HETATM    6  F10 UNL     1     -33.966   3.700   5.163  1.00 20.00    -0.214 F 
HETATM    7  F11 UNL     1     -33.182   4.292   3.222  1.00 20.00    -0.214 F 
ENDBRANCH   4   5
ENDBRANCH   3   4
ENDBRANCH   1   3
BRANCH   1   8
HETATM    8  C8  UNL     1     -32.298   7.816   2.204  1.00 20.00     0.009 C 
HETATM    9  C2  UNL     1     -32.090   6.509   1.428  1.00 20.00     0.022 C 
HETATM   10  C3  UNL     1     -30.963   8.323   2.765  1.00 20.00     0.022 C 
HETATM   11  C4  UNL     1     -32.859   8.881   1.245  1.00 20.00     0.022 C 
ENDBRANCH   1   8
TORSDOF 4
ENDMDL
