MODEL 1
REMARK VINA RESULT:      -1.8      0.000      0.000
REMARK  4 active torsions:
REMARK  status: ('A' for Active; 'I' for Inactive)
REMARK    1  A    between atoms: C1_1  and  C9_9 
REMARK    2  A    between atoms: C4_4  and  C8_8 
REMARK    3  A    between atoms: C8_8  and  C9_9 
REMARK    4  A    between atoms: C9_9  and  C10_10 
ROOT
HETATM    1  C9  UNL     1     -33.301   5.828   3.221  1.00 20.00     0.058 C 
ENDROOT
BRANCH   1   2
HETATM    2  C1  UNL     1     -32.648   6.153   1.872  1.00 20.00     0.127 C 
HETATM    3  C5  UNL     1     -32.118   7.554   1.695  1.00 20.00     0.091 C 
HETATM    4  O11 UNL     1     -32.536   5.318   0.974  1.00 20.00    -0.298 OA
ENDBRANCH   1   2
BRANCH   1   5
HETATM    5  C8  UNL     1     -33.956   4.435   3.198  1.00 20.00     0.017 C 
BRANCH   5   6
HETATM    6  C4  UNL     1     -33.762   3.720   4.535  1.00 20.00    -0.014 A 
HETATM    7  C2  UNL     1     -33.351   2.275   4.567  1.00 20.00     0.005 A 
HETATM    8  C3  UNL     1     -32.383   3.342   4.998  1.00 20.00     0.005 A 
ENDBRANCH   5   6
ENDBRANCH   1   5
BRANCH   1   9
HETATM    9  C10 UNL     1     -34.267   6.977   3.614  1.00 20.00    -0.012 C 
HETATM   10  C6  UNL     1     -33.748   7.851   4.760  1.00 20.00     0.010 C 
HETATM   11  C7  UNL     1     -35.659   6.440   3.961  1.00 20.00     0.010 C 
ENDBRANCH   1   9
TORSDOF 4
ENDMDL
MODEL 2
REMARK VINA RESULT:      -1.6      2.220      4.748
REMARK  4 active torsions:
REMARK  status: ('A' for Active; 'I' for Inactive)
REMARK    1  A    between atoms: C1_1  and  C9_9 
REMARK    2  A    between atoms: C4_4  and  C8_8 
REMARK    3  A    between atoms: C8_8  and  C9_9 
REMARK    4  A    between atoms: C9_9  and  C10_10 
ROOT
HETATM    1  C9  UNL     1     -33.255   7.087   2.046  1.00 20.00     0.058 C 
ENDROOT
BRANCH   1   2
HETATM    2  C1  UNL     1     -32.686   5.801   1.436  1.00 20.00     0.127 C 
HETATM    3  C5  UNL     1     -33.567   5.066   0.457  1.00 20.00     0.091 C 
HETATM    4  O11 UNL     1     -31.559   5.383   1.705  1.00 20.00    -0.298 OA
ENDBRANCH   1   2
BRANCH   1   5
HETATM    5  C8  UNL     1     -32.304   8.277   1.816  1.00 20.00     0.017 C 
BRANCH   5   6
HETATM    6  C4  UNL     1     -32.753   9.110   0.616  1.00 20.00    -0.014 A 
HETATM    7  C2  UNL     1     -32.659  10.610   0.659  1.00 20.00     0.005 A 
HETATM    8  C3  UNL     1     -31.737   9.824  -0.230  1.00 20.00     0.005 A 
ENDBRANCH   5   6
ENDBRANCH   1   5
BRANCH   1   9
HETATM    9  C10 UNL     1     -33.609   6.836   3.535  1.00 20.00    -0.012 C 
HETATM   10  C6  UNL     1     -35.029   6.301   3.746  1.00 20.00     0.010 C 
HETATM   11  C7  UNL     1     -33.401   8.099   4.377  1.00 20.00     0.010 C 
ENDBRANCH   1   9
TORSDOF 4
ENDMDL
MODEL 3
REMARK VINA RESULT:      -1.1      1.958      4.565
REMARK  4 active torsions:
REMARK  status: ('A' for Active; 'I' for Inactive)
REMARK    1  A    between atoms: C1_1  and  C9_9 
REMARK    2  A    between atoms: C4_4  and  C8_8 
REMARK    3  A    between atoms: C8_8  and  C9_9 
REMARK    4  A    between atoms: C9_9  and  C10_10 
ROOT
HETATM    1  C9  UNL     1     -33.026   7.361   1.810  1.00 20.00     0.058 C 
ENDROOT
BRANCH   1   2
HETATM    2  C1  UNL     1     -32.660   5.935   1.381  1.00 20.00     0.127 C 
HETATM    3  C5  UNL     1     -33.605   5.250   0.427  1.00 20.00     0.091 C 
HETATM    4  O11 UNL     1     -31.639   5.369   1.772  1.00 20.00    -0.298 OA
ENDBRANCH   1   2
BRANCH   1   5
HETATM    5  C8  UNL     1     -31.770   8.243   1.930  1.00 20.00     0.017 C 
BRANCH   5   6
HETATM    6  C4  UNL     1     -31.654   9.193   0.738  1.00 20.00    -0.014 A 
HETATM    7  C2  UNL     1     -32.696   9.178  -0.345  1.00 20.00     0.005 A 
HETATM    8  C3  UNL     1     -32.605  10.347   0.596  1.00 20.00     0.005 A 
ENDBRANCH   5   6
ENDBRANCH   1   5
BRANCH   1   9
HETATM    9  C10 UNL     1     -33.887   7.305   3.099  1.00 20.00    -0.012 C 
HETATM   10  C6  UNL     1     -33.237   7.996   4.302  1.00 20.00     0.010 C 
HETATM   11  C7  UNL     1     -34.249   5.862   3.464  1.00 20.00     0.010 C 
ENDBRANCH   1   9
TORSDOF 4
ENDMDL
MODEL 4
REMARK VINA RESULT:      -0.6      2.188      5.129
REMARK  4 active torsions:
REMARK  status: ('A' for Active; 'I' for Inactive)
REMARK    1  A    between atoms: C1_1  and  C9_9 
REMARK    2  A    between atoms: C4_4  and  C8_8 
REMARK    3  A    between atoms: C8_8  and  C9_9 
REMARK    4  A    between atoms: C9_9  and  C10_10 
ROOT
HETATM    1  C9  UNL     1     -32.408   7.168   2.729  1.00 20.00     0.058 C 
ENDROOT
BRANCH   1   2
HETATM    2  C1  UNL     1     -33.450   7.757   3.686  1.00 20.00     0.127 C 
HETATM    3  C5  UNL     1     -32.927   8.406   4.943  1.00 20.00     0.091 C 
HETATM    4  O11 UNL     1     -34.658   7.728   3.448  1.00 20.00    -0.298 OA
ENDBRANCH   1   2
BRANCH   1   5
HETATM    5  C8  UNL     1     -31.746   8.271   1.883  1.00 20.00     0.017 C 
BRANCH   5   6
HETATM    6  C4  UNL     1     -32.773   8.960   0.984  1.00 20.00    -0.014 A 
HETATM    7  C2  UNL     1     -32.707  10.444   0.760  1.00 20.00     0.005 A 
HETATM    8  C3  UNL     1     -32.363   9.499  -0.357  1.00 20.00     0.005 A 
ENDBRANCH   5   6
ENDBRANCH   1   5
BRANCH   1   9
HETATM    9  C10 UNL     1     -33.061   6.034   1.894  1.00 20.00    -0.012 C 
HETATM   10  C6  UNL     1     -33.716   4.943   2.747  1.00 20.00     0.010 C 
HETATM   11  C7  UNL     1     -32.053   5.402   0.929  1.00 20.00     0.010 C 
ENDBRANCH   1   9
TORSDOF 4
ENDMDL
MODEL 5
REMARK VINA RESULT:      -0.5      2.634      5.304
REMARK  4 active torsions:
REMARK  status: ('A' for Active; 'I' for Inactive)
REMARK    1  A    between atoms: C1_1  and  C9_9 
REMARK    2  A    between atoms: C4_4  and  C8_8 
REMARK    3  A    between atoms: C8_8  and  C9_9 
REMARK    4  A    between atoms: C9_9  and  C10_10 
ROOT
HETATM    1  C9  UNL     1     -32.709   7.169   2.231  1.00 20.00     0.058 C 
ENDROOT
BRANCH   1   2
HETATM    2  C1  UNL     1     -33.441   7.308   3.571  1.00 20.00     0.127 C 
HETATM    3  C5  UNL     1     -34.716   6.519   3.732  1.00 20.00     0.091 C 
HETATM    4  O11 UNL     1     -33.014   8.009   4.488  1.00 20.00    -0.298 OA
ENDBRANCH   1   2
BRANCH   1   5
HETATM    5  C8  UNL     1     -33.266   8.158   1.190  1.00 20.00     0.017 C 
BRANCH   5   6
HETATM    6  C4  UNL     1     -32.231   9.230   0.847  1.00 20.00    -0.014 A 
HETATM    7  C2  UNL     1     -32.267   9.916  -0.489  1.00 20.00     0.005 A 
HETATM    8  C3  UNL     1     -32.638  10.673   0.755  1.00 20.00     0.005 A 
ENDBRANCH   5   6
ENDBRANCH   1   5
BRANCH   1   9
HETATM    9  C10 UNL     1     -32.743   5.686   1.778  1.00 20.00    -0.012 C 
HETATM   10  C6  UNL     1     -31.353   5.073   1.579  1.00 20.00     0.010 C 
HETATM   11  C7  UNL     1     -33.573   5.512   0.502  1.00 20.00     0.010 C 
ENDBRANCH   1   9
TORSDOF 4
ENDMDL
MODEL 6
REMARK VINA RESULT:      -0.5      2.357      3.676
REMARK  4 active torsions:
REMARK  status: ('A' for Active; 'I' for Inactive)
REMARK    1  A    between atoms: C1_1  and  C9_9 
REMARK    2  A    between atoms: C4_4  and  C8_8 
REMARK    3  A    between atoms: C8_8  and  C9_9 
REMARK    4  A    between atoms: C9_9  and  C10_10 
ROOT
HETATM    1  C9  UNL     1     -33.035   7.010   1.885  1.00 20.00     0.058 C 
ENDROOT
BRANCH   1   2
HETATM    2  C1  UNL     1     -32.094   8.215   1.775  1.00 20.00     0.127 C 
HETATM    3  C5  UNL     1     -32.324   9.152   0.616  1.00 20.00     0.091 C 
HETATM    4  O11 UNL     1     -31.201   8.434   2.594  1.00 20.00    -0.298 OA
ENDBRANCH   1   2
BRANCH   1   5
HETATM    5  C8  UNL     1     -33.113   6.498   3.335  1.00 20.00     0.017 C 
BRANCH   5   6
HETATM    6  C4  UNL     1     -34.445   6.882   3.978  1.00 20.00    -0.014 A 
HETATM    7  C2  UNL     1     -35.728   6.723   3.213  1.00 20.00     0.005 A 
HETATM    8  C3  UNL     1     -35.428   5.817   4.374  1.00 20.00     0.005 A 
ENDBRANCH   5   6
ENDBRANCH   1   5
BRANCH   1   9
HETATM    9  C10 UNL     1     -32.611   5.931   0.853  1.00 20.00    -0.012 C 
HETATM   10  C6  UNL     1     -33.786   5.129   0.286  1.00 20.00     0.010 C 
HETATM   11  C7  UNL     1     -31.568   4.977   1.443  1.00 20.00     0.010 C 
ENDBRANCH   1   9
TORSDOF 4
ENDMDL
MODEL 7
REMARK VINA RESULT:      -0.4      1.521      4.012
REMARK  4 active torsions:
REMARK  status: ('A' for Active; 'I' for Inactive)
REMARK    1  A    between atoms: C1_1  and  C9_9 
REMARK    2  A    between atoms: C4_4  and  C8_8 
REMARK    3  A    between atoms: C8_8  and  C9_9 
REMARK    4  A    between atoms: C9_9  and  C10_10 
ROOT
HETATM    1  C9  UNL     1     -33.533   5.823   3.332  1.00 20.00     0.058 C 
ENDROOT
BRANCH   1   2
HETATM    2  C1  UNL     1     -34.417   6.986   3.798  1.00 20.00     0.127 C 
HETATM    3  C5  UNL     1     -33.808   7.947   4.786  1.00 20.00     0.091 C 
HETATM    4  O11 UNL     1     -35.563   7.152   3.380  1.00 20.00    -0.298 OA
ENDBRANCH   1   2
BRANCH   1   5
HETATM    5  C8  UNL     1     -33.228   5.927   1.826  1.00 20.00     0.017 C 
BRANCH   5   6
HETATM    6  C4  UNL     1     -31.954   6.736   1.582  1.00 20.00    -0.014 A 
HETATM    7  C2  UNL     1     -32.014   8.032   0.823  1.00 20.00     0.005 A 
HETATM    8  C3  UNL     1     -31.735   8.037   2.300  1.00 20.00     0.005 A 
ENDBRANCH   5   6
ENDBRANCH   1   5
BRANCH   1   9
HETATM    9  C10 UNL     1     -34.184   4.480   3.756  1.00 20.00    -0.012 C 
HETATM   10  C6  UNL     1     -35.300   4.640   4.793  1.00 20.00     0.010 C 
HETATM   11  C7  UNL     1     -33.135   3.491   4.271  1.00 20.00     0.010 C 
ENDBRANCH   1   9
TORSDOF 4
ENDMDL
MODEL 8
REMARK VINA RESULT:      -0.4      1.530      2.773
REMARK  4 active torsions:
REMARK  status: ('A' for Active; 'I' for Inactive)
REMARK    1  A    between atoms: C1_1  and  C9_9 
REMARK    2  A    between atoms: C4_4  and  C8_8 
REMARK    3  A    between atoms: C8_8  and  C9_9 
REMARK    4  A    between atoms: C9_9  and  C10_10 
ROOT
HETATM    1  C9  UNL     1     -33.808   5.621   2.779  1.00 20.00     0.058 C 
ENDROOT
BRANCH   1   2
HETATM    2  C1  UNL     1     -34.616   6.590   3.649  1.00 20.00     0.127 C 
HETATM    3  C5  UNL     1     -33.836   7.632   4.409  1.00 20.00     0.091 C 
HETATM    4  O11 UNL     1     -35.845   6.546   3.721  1.00 20.00    -0.298 OA
ENDBRANCH   1   2
BRANCH   1   5
HETATM    5  C8  UNL     1     -32.864   4.759   3.638  1.00 20.00     0.017 C 
BRANCH   5   6
HETATM    6  C4  UNL     1     -33.652   3.732   4.451  1.00 20.00    -0.014 A 
HETATM    7  C2  UNL     1     -33.279   2.277   4.397  1.00 20.00     0.005 A 
HETATM    8  C3  UNL     1     -33.026   3.072   5.647  1.00 20.00     0.005 A 
ENDBRANCH   5   6
ENDBRANCH   1   5
BRANCH   1   9
HETATM    9  C10 UNL     1     -33.093   6.415   1.654  1.00 20.00    -0.012 C 
HETATM   10  C6  UNL     1     -32.110   5.571   0.836  1.00 20.00     0.010 C 
HETATM   11  C7  UNL     1     -32.377   7.649   2.212  1.00 20.00     0.010 C 
ENDBRANCH   1   9
TORSDOF 4
ENDMDL
MODEL 9
REMARK VINA RESULT:      -0.4      2.190      5.097
REMARK  4 active torsions:
REMARK  status: ('A' for Active; 'I' for Inactive)
REMARK    1  A    between atoms: C1_1  and  C9_9 
REMARK    2  A    between atoms: C4_4  and  C8_8 
REMARK    3  A    between atoms: C8_8  and  C9_9 
REMARK    4  A    between atoms: C9_9  and  C10_10 
ROOT
HETATM    1  C9  UNL     1     -32.640   6.756   2.323  1.00 20.00     0.058 C 
ENDROOT
BRANCH   1   2
HETATM    2  C1  UNL     1     -33.676   6.065   3.217  1.00 20.00     0.127 C 
HETATM    3  C5  UNL     1     -34.811   6.918   3.724  1.00 20.00     0.091 C 
HETATM    4  O11 UNL     1     -33.612   4.869   3.500  1.00 20.00    -0.298 OA
ENDBRANCH   1   2
BRANCH   1   5
HETATM    5  C8  UNL     1     -33.014   8.230   2.078  1.00 20.00     0.017 C 
BRANCH   5   6
HETATM    6  C4  UNL     1     -32.101   8.857   1.025  1.00 20.00    -0.014 A 
HETATM    7  C2  UNL     1     -32.620   9.130  -0.359  1.00 20.00     0.005 A 
HETATM    8  C3  UNL     1     -32.328  10.272   0.573  1.00 20.00     0.005 A 
ENDBRANCH   5   6
ENDBRANCH   1   5
BRANCH   1   9
HETATM    9  C10 UNL     1     -32.445   5.927   1.026  1.00 20.00    -0.012 C 
HETATM   10  C6  UNL     1     -33.749   5.350   0.466  1.00 20.00     0.010 C 
HETATM   11  C7  UNL     1     -31.427   4.802   1.233  1.00 20.00     0.010 C 
ENDBRANCH   1   9
TORSDOF 4
ENDMDL
