MODEL 1
REMARK VINA RESULT:      -2.7      0.000      0.000
REMARK  4 active torsions:
REMARK  status: ('A' for Active; 'I' for Inactive)
REMARK    1  A    between atoms: C1_1  and  C6_6 
REMARK    2  A    between atoms: C4_4  and  C6_6 
REMARK    3  A    between atoms: C5_5  and  C6_6 
REMARK    4  A    between atoms: C5_5  and  C7_7 
ROOT
HETATM    1  C6  UNL     1     -33.567   5.349   3.533  1.00 20.00     0.059 C 
ENDROOT
BRANCH   1   2
HETATM    2  C1  UNL     1     -34.532   6.494   3.834  1.00 20.00     0.127 C 
HETATM    3  C2  UNL     1     -33.919   7.829   4.167  1.00 20.00     0.091 C 
HETATM    4  O8  UNL     1     -35.754   6.344   3.803  1.00 20.00    -0.298 OA
ENDBRANCH   1   2
BRANCH   1   5
HETATM    5  C4  UNL     1     -33.386   5.208   2.012  1.00 20.00     0.008 C 
HETATM    6  C3  UNL     1     -32.174   5.966   1.486  1.00 20.00     0.006 C 
ENDBRANCH   1   5
BRANCH   1   7
HETATM    7  C5  UNL     1     -34.096   4.031   4.132  1.00 20.00     0.083 C 
BRANCH   7   8
HETATM    8  C7  UNL     1     -32.998   3.039   4.482  1.00 20.00     0.353 C 
HETATM    9  F9  UNL     1     -33.450   1.766   4.380  1.00 20.00    -0.214 F 
HETATM   10  F10 UNL     1     -32.596   3.218   5.764  1.00 20.00    -0.214 F 
ENDBRANCH   7   8
ENDBRANCH   1   7
TORSDOF 4
ENDMDL
MODEL 2
REMARK VINA RESULT:      -2.7      4.183      4.858
REMARK  4 active torsions:
REMARK  status: ('A' for Active; 'I' for Inactive)
REMARK    1  A    between atoms: C1_1  and  C6_6 
REMARK    2  A    between atoms: C4_4  and  C6_6 
REMARK    3  A    between atoms: C5_5  and  C6_6 
REMARK    4  A    between atoms: C5_5  and  C7_7 
ROOT
HETATM    1  C6  UNL     1     -33.406   7.109   2.170  1.00 20.00     0.059 C 
ENDROOT
BRANCH   1   2
HETATM    2  C1  UNL     1     -33.910   7.226   3.606  1.00 20.00     0.127 C 
HETATM    3  C2  UNL     1     -35.108   6.389   3.975  1.00 20.00     0.091 C 
HETATM    4  O8  UNL     1     -33.369   7.961   4.432  1.00 20.00    -0.298 OA
ENDBRANCH   1   2
BRANCH   1   5
HETATM    5  C4  UNL     1     -33.096   5.638   1.846  1.00 20.00     0.008 C 
HETATM    6  C3  UNL     1     -31.750   5.453   1.157  1.00 20.00     0.006 C 
ENDBRANCH   1   5
BRANCH   1   7
HETATM    7  C5  UNL     1     -32.147   7.976   1.972  1.00 20.00     0.083 C 
BRANCH   7   8
HETATM    8  C7  UNL     1     -32.192   8.837   0.719  1.00 20.00     0.353 C 
HETATM    9  F9  UNL     1     -30.987   8.851   0.102  1.00 20.00    -0.214 F 
HETATM   10  F10 UNL     1     -32.491  10.119   1.042  1.00 20.00    -0.214 F 
ENDBRANCH   7   8
ENDBRANCH   1   7
TORSDOF 4
ENDMDL
MODEL 3
REMARK VINA RESULT:      -2.7      2.492      3.695
REMARK  4 active torsions:
REMARK  status: ('A' for Active; 'I' for Inactive)
REMARK    1  A    between atoms: C1_1  and  C6_6 
REMARK    2  A    between atoms: C4_4  and  C6_6 
REMARK    3  A    between atoms: C5_5  and  C6_6 
REMARK    4  A    between atoms: C5_5  and  C7_7 
ROOT
HETATM    1  C6  UNL     1     -33.678   5.860   3.481  1.00 20.00     0.059 C 
ENDROOT
BRANCH   1   2
HETATM    2  C1  UNL     1     -34.337   4.667   4.168  1.00 20.00     0.127 C 
HETATM    3  C2  UNL     1     -33.523   3.403   4.264  1.00 20.00     0.091 C 
HETATM    4  O8  UNL     1     -35.477   4.726   4.630  1.00 20.00    -0.298 OA
ENDBRANCH   1   2
BRANCH   1   5
HETATM    5  C4  UNL     1     -34.424   7.152   3.855  1.00 20.00     0.008 C 
HETATM    6  C3  UNL     1     -33.603   8.073   4.749  1.00 20.00     0.006 C 
ENDBRANCH   1   5
BRANCH   1   7
HETATM    7  C5  UNL     1     -33.679   5.666   1.952  1.00 20.00     0.083 C 
BRANCH   7   8
HETATM    8  C7  UNL     1     -32.398   6.131   1.278  1.00 20.00     0.353 C 
HETATM    9  F9  UNL     1     -31.435   5.184   1.371  1.00 20.00    -0.214 F 
HETATM   10  F10 UNL     1     -31.925   7.243   1.890  1.00 20.00    -0.214 F 
ENDBRANCH   7   8
ENDBRANCH   1   7
TORSDOF 4
ENDMDL
MODEL 4
REMARK VINA RESULT:      -2.2      2.767      3.787
REMARK  4 active torsions:
REMARK  status: ('A' for Active; 'I' for Inactive)
REMARK    1  A    between atoms: C1_1  and  C6_6 
REMARK    2  A    between atoms: C4_4  and  C6_6 
REMARK    3  A    between atoms: C5_5  and  C6_6 
REMARK    4  A    between atoms: C5_5  and  C7_7 
ROOT
HETATM    1  C6  UNL     1     -33.054   7.197   1.873  1.00 20.00     0.059 C 
ENDROOT
BRANCH   1   2
HETATM    2  C1  UNL     1     -32.599   5.849   1.320  1.00 20.00     0.127 C 
HETATM    3  C2  UNL     1     -33.533   5.160   0.359  1.00 20.00     0.091 C 
HETATM    4  O8  UNL     1     -31.521   5.344   1.633  1.00 20.00    -0.298 OA
ENDBRANCH   1   2
BRANCH   1   5
HETATM    5  C4  UNL     1     -31.923   8.230   1.720  1.00 20.00     0.008 C 
HETATM    6  C3  UNL     1     -32.229   9.295   0.675  1.00 20.00     0.006 C 
ENDBRANCH   1   5
BRANCH   1   7
HETATM    7  C5  UNL     1     -33.456   7.061   3.355  1.00 20.00     0.083 C 
BRANCH   7   8
HETATM    8  C7  UNL     1     -34.604   6.091   3.587  1.00 20.00     0.353 C 
HETATM    9  F9  UNL     1     -35.432   6.550   4.555  1.00 20.00    -0.214 F 
HETATM   10  F10 UNL     1     -34.127   4.894   4.005  1.00 20.00    -0.214 F 
ENDBRANCH   7   8
ENDBRANCH   1   7
TORSDOF 4
ENDMDL
MODEL 5
REMARK VINA RESULT:      -2.2      2.965      3.515
REMARK  4 active torsions:
REMARK  status: ('A' for Active; 'I' for Inactive)
REMARK    1  A    between atoms: C1_1  and  C6_6 
REMARK    2  A    between atoms: C4_4  and  C6_6 
REMARK    3  A    between atoms: C5_5  and  C6_6 
REMARK    4  A    between atoms: C5_5  and  C7_7 
ROOT
HETATM    1  C6  UNL     1     -32.811   7.068   2.894  1.00 20.00     0.059 C 
ENDROOT
BRANCH   1   2
HETATM    2  C1  UNL     1     -33.944   7.291   3.892  1.00 20.00     0.127 C 
HETATM    3  C2  UNL     1     -35.129   6.366   3.791  1.00 20.00     0.091 C 
HETATM    4  O8  UNL     1     -33.899   8.177   4.745  1.00 20.00    -0.298 OA
ENDBRANCH   1   2
BRANCH   1   5
HETATM    5  C4  UNL     1     -32.163   8.416   2.534  1.00 20.00     0.008 C 
HETATM    6  C3  UNL     1     -32.163   8.693   1.036  1.00 20.00     0.006 C 
ENDBRANCH   1   5
BRANCH   1   7
HETATM    7  C5  UNL     1     -33.343   6.375   1.624  1.00 20.00     0.083 C 
BRANCH   7   8
HETATM    8  C7  UNL     1     -32.641   5.064   1.306  1.00 20.00     0.353 C 
HETATM    9  F9  UNL     1     -31.303   5.249   1.198  1.00 20.00    -0.214 F 
HETATM   10  F10 UNL     1     -33.074   4.577   0.118  1.00 20.00    -0.214 F 
ENDBRANCH   7   8
ENDBRANCH   1   7
TORSDOF 4
ENDMDL
MODEL 6
REMARK VINA RESULT:      -2.2      3.236      4.037
REMARK  4 active torsions:
REMARK  status: ('A' for Active; 'I' for Inactive)
REMARK    1  A    between atoms: C1_1  and  C6_6 
REMARK    2  A    between atoms: C4_4  and  C6_6 
REMARK    3  A    between atoms: C5_5  and  C6_6 
REMARK    4  A    between atoms: C5_5  and  C7_7 
ROOT
HETATM    1  C6  UNL     1     -33.343   7.164   2.268  1.00 20.00     0.059 C 
ENDROOT
BRANCH   1   2
HETATM    2  C1  UNL     1     -32.230   8.182   2.032  1.00 20.00     0.127 C 
HETATM    3  C2  UNL     1     -32.344   9.040   0.800  1.00 20.00     0.091 C 
HETATM    4  O8  UNL     1     -31.282   8.305   2.808  1.00 20.00    -0.298 OA
ENDBRANCH   1   2
BRANCH   1   5
HETATM    5  C4  UNL     1     -33.953   7.375   3.665  1.00 20.00     0.008 C 
HETATM    6  C3  UNL     1     -35.104   6.423   3.960  1.00 20.00     0.006 C 
ENDBRANCH   1   5
BRANCH   1   7
HETATM    7  C5  UNL     1     -32.797   5.729   2.135  1.00 20.00     0.083 C 
BRANCH   7   8
HETATM    8  C7  UNL     1     -32.381   5.365   0.718  1.00 20.00     0.353 C 
HETATM    9  F9  UNL     1     -33.325   4.598   0.123  1.00 20.00    -0.214 F 
HETATM   10  F10 UNL     1     -31.234   4.644   0.738  1.00 20.00    -0.214 F 
ENDBRANCH   7   8
ENDBRANCH   1   7
TORSDOF 4
ENDMDL
MODEL 7
REMARK VINA RESULT:      -2.1      2.866      3.521
REMARK  4 active torsions:
REMARK  status: ('A' for Active; 'I' for Inactive)
REMARK    1  A    between atoms: C1_1  and  C6_6 
REMARK    2  A    between atoms: C4_4  and  C6_6 
REMARK    3  A    between atoms: C5_5  and  C6_6 
REMARK    4  A    between atoms: C5_5  and  C7_7 
ROOT
HETATM    1  C6  UNL     1     -32.838   6.982   2.664  1.00 20.00     0.059 C 
ENDROOT
BRANCH   1   2
HETATM    2  C1  UNL     1     -31.977   8.190   2.304  1.00 20.00     0.127 C 
HETATM    3  C2  UNL     1     -32.189   8.793   0.940  1.00 20.00     0.091 C 
HETATM    4  O8  UNL     1     -31.149   8.660   3.085  1.00 20.00    -0.298 OA
ENDBRANCH   1   2
BRANCH   1   5
HETATM    5  C4  UNL     1     -33.131   6.157   1.399  1.00 20.00     0.008 C 
HETATM    6  C3  UNL     1     -32.086   5.080   1.138  1.00 20.00     0.006 C 
ENDBRANCH   1   5
BRANCH   1   7
HETATM    7  C5  UNL     1     -34.156   7.440   3.321  1.00 20.00     0.083 C 
BRANCH   7   8
HETATM    8  C7  UNL     1     -34.844   6.350   4.127  1.00 20.00     0.353 C 
HETATM    9  F9  UNL     1     -34.226   5.158   3.951  1.00 20.00    -0.214 F 
HETATM   10  F10 UNL     1     -36.125   6.200   3.713  1.00 20.00    -0.214 F 
ENDBRANCH   7   8
ENDBRANCH   1   7
TORSDOF 4
ENDMDL
MODEL 8
REMARK VINA RESULT:      -2.1      2.515      3.330
REMARK  4 active torsions:
REMARK  status: ('A' for Active; 'I' for Inactive)
REMARK    1  A    between atoms: C1_1  and  C6_6 
REMARK    2  A    between atoms: C4_4  and  C6_6 
REMARK    3  A    between atoms: C5_5  and  C6_6 
REMARK    4  A    between atoms: C5_5  and  C7_7 
ROOT
HETATM    1  C6  UNL     1     -34.231   5.097   3.396  1.00 20.00     0.059 C 
ENDROOT
BRANCH   1   2
HETATM    2  C1  UNL     1     -34.924   6.413   3.742  1.00 20.00     0.127 C 
HETATM    3  C2  UNL     1     -34.056   7.511   4.299  1.00 20.00     0.091 C 
HETATM    4  O8  UNL     1     -36.132   6.580   3.574  1.00 20.00    -0.298 OA
ENDBRANCH   1   2
BRANCH   1   5
HETATM    5  C4  UNL     1     -34.242   4.166   4.621  1.00 20.00     0.008 C 
HETATM    6  C3  UNL     1     -33.214   3.047   4.525  1.00 20.00     0.006 C 
ENDBRANCH   1   5
BRANCH   1   7
HETATM    7  C5  UNL     1     -32.783   5.357   2.936  1.00 20.00     0.083 C 
BRANCH   7   8
HETATM    8  C7  UNL     1     -32.679   5.843   1.499  1.00 20.00     0.353 C 
HETATM    9  F9  UNL     1     -31.775   5.108   0.808  1.00 20.00    -0.214 F 
HETATM   10  F10 UNL     1     -32.255   7.129   1.469  1.00 20.00    -0.214 F 
ENDBRANCH   7   8
ENDBRANCH   1   7
TORSDOF 4
ENDMDL
MODEL 9
REMARK VINA RESULT:      -2.1      2.951      4.021
REMARK  4 active torsions:
REMARK  status: ('A' for Active; 'I' for Inactive)
REMARK    1  A    between atoms: C1_1  and  C6_6 
REMARK    2  A    between atoms: C4_4  and  C6_6 
REMARK    3  A    between atoms: C5_5  and  C6_6 
REMARK    4  A    between atoms: C5_5  and  C7_7 
ROOT
HETATM    1  C6  UNL     1     -33.140   6.710   1.821  1.00 20.00     0.059 C 
ENDROOT
BRANCH   1   2
HETATM    2  C1  UNL     1     -32.757   5.494   0.980  1.00 20.00     0.127 C 
HETATM    3  C2  UNL     1     -31.382   4.920   1.206  1.00 20.00     0.091 C 
HETATM    4  O8  UNL     1     -33.527   4.998   0.159  1.00 20.00    -0.298 OA
ENDBRANCH   1   2
BRANCH   1   5
HETATM    5  C4  UNL     1     -31.969   7.707   1.856  1.00 20.00     0.008 C 
HETATM    6  C3  UNL     1     -32.192   8.916   0.956  1.00 20.00     0.006 C 
ENDBRANCH   1   5
BRANCH   1   7
HETATM    7  C5  UNL     1     -33.515   6.276   3.251  1.00 20.00     0.083 C 
BRANCH   7   8
HETATM    8  C7  UNL     1     -34.692   7.045   3.832  1.00 20.00     0.353 C 
HETATM    9  F9  UNL     1     -34.279   7.891   4.806  1.00 20.00    -0.214 F 
HETATM   10  F10 UNL     1     -35.578   6.189   4.395  1.00 20.00    -0.214 F 
ENDBRANCH   7   8
ENDBRANCH   1   7
TORSDOF 4
ENDMDL
