MODEL 1
REMARK VINA RESULT:       0.5      0.000      0.000
REMARK  2 active torsions:
REMARK  status: ('A' for Active; 'I' for Inactive)
REMARK    1  A    between atoms: C7_7  and  C8_8 
REMARK    2  A    between atoms: C8_8  and  S9_9 
ROOT
HETATM    1  C1  UNL     1     -34.934   5.118   4.466  1.00 20.00     0.005 C 
HETATM    2  C2  UNL     1     -33.794   4.787   3.491  1.00 20.00     0.005 C 
HETATM    3  C3  UNL     1     -35.105   6.530   2.558  1.00 20.00     0.009 C 
HETATM    4  C4  UNL     1     -34.221   7.522   4.532  1.00 20.00     0.010 C 
HETATM    5  C5  UNL     1     -35.324   6.552   4.070  1.00 20.00    -0.014 C 
HETATM    6  C6  UNL     1     -33.645   6.089   2.681  1.00 20.00    -0.009 C 
HETATM    7  C7  UNL     1     -33.036   7.169   3.607  1.00 20.00    -0.001 C 
ENDROOT
BRANCH   7   8
HETATM    8  C8  UNL     1     -32.520   8.383   2.841  1.00 20.00     0.075 C 
BRANCH   8   9
HETATM    9  S9  UNL     1     -31.762   7.864   1.280  1.00 20.00    -0.182 SA
HETATM   10  H23 UNL     1     -31.446   6.622   1.677  1.00 20.00     0.101 HD
ENDBRANCH   8   9
ENDBRANCH   7   8
TORSDOF 2
ENDMDL
MODEL 2
REMARK VINA RESULT:       0.7      1.171      2.168
REMARK  2 active torsions:
REMARK  status: ('A' for Active; 'I' for Inactive)
REMARK    1  A    between atoms: C7_7  and  C8_8 
REMARK    2  A    between atoms: C8_8  and  S9_9 
ROOT
HETATM    1  C1  UNL     1     -35.210   6.018   3.769  1.00 20.00     0.005 C 
HETATM    2  C2  UNL     1     -35.303   7.533   3.533  1.00 20.00     0.005 C 
HETATM    3  C3  UNL     1     -33.167   7.039   4.439  1.00 20.00     0.009 C 
HETATM    4  C4  UNL     1     -33.143   5.893   2.353  1.00 20.00     0.010 C 
HETATM    5  C5  UNL     1     -33.693   5.762   3.785  1.00 20.00    -0.014 C 
HETATM    6  C6  UNL     1     -33.827   7.953   3.403  1.00 20.00    -0.009 C 
HETATM    7  C7  UNL     1     -33.282   7.403   2.063  1.00 20.00    -0.001 C 
ENDROOT
BRANCH   7   8
HETATM    8  C8  UNL     1     -31.956   8.039   1.658  1.00 20.00     0.075 C 
BRANCH   8   9
HETATM    9  S9  UNL     1     -32.245   9.448   0.558  1.00 20.00    -0.182 SA
HETATM   10  H23 UNL     1     -33.578   9.476   0.704  1.00 20.00     0.101 HD
ENDBRANCH   8   9
ENDBRANCH   7   8
TORSDOF 2
ENDMDL
MODEL 3
REMARK VINA RESULT:       1.0      2.258      3.546
REMARK  2 active torsions:
REMARK  status: ('A' for Active; 'I' for Inactive)
REMARK    1  A    between atoms: C7_7  and  C8_8 
REMARK    2  A    between atoms: C8_8  and  S9_9 
ROOT
HETATM    1  C1  UNL     1     -32.711   7.989   2.645  1.00 20.00     0.005 C 
HETATM    2  C2  UNL     1     -33.287   7.876   4.064  1.00 20.00     0.005 C 
HETATM    3  C3  UNL     1     -34.825   6.901   2.543  1.00 20.00     0.009 C 
HETATM    4  C4  UNL     1     -32.908   5.508   2.333  1.00 20.00     0.010 C 
HETATM    5  C5  UNL     1     -33.449   6.876   1.881  1.00 20.00    -0.014 C 
HETATM    6  C6  UNL     1     -34.256   6.684   3.948  1.00 20.00    -0.009 C 
HETATM    7  C7  UNL     1     -33.420   5.392   3.785  1.00 20.00    -0.001 C 
ENDROOT
BRANCH   7   8
HETATM    8  C8  UNL     1     -34.239   4.125   4.010  1.00 20.00     0.075 C 
BRANCH   8   9
HETATM    9  S9  UNL     1     -33.194   2.814   4.694  1.00 20.00    -0.182 SA
HETATM   10  H23 UNL     1     -32.393   3.622   5.403  1.00 20.00     0.101 HD
ENDBRANCH   8   9
ENDBRANCH   7   8
TORSDOF 2
ENDMDL
MODEL 4
REMARK VINA RESULT:       1.3      2.295      3.474
REMARK  2 active torsions:
REMARK  status: ('A' for Active; 'I' for Inactive)
REMARK    1  A    between atoms: C7_7  and  C8_8 
REMARK    2  A    between atoms: C8_8  and  S9_9 
ROOT
HETATM    1  C1  UNL     1     -31.361   6.378   1.348  1.00 20.00     0.005 C 
HETATM    2  C2  UNL     1     -31.711   7.813   1.770  1.00 20.00     0.005 C 
HETATM    3  C3  UNL     1     -33.690   6.740   1.022  1.00 20.00     0.009 C 
HETATM    4  C4  UNL     1     -33.077   5.461   2.932  1.00 20.00     0.010 C 
HETATM    5  C5  UNL     1     -32.711   5.648   1.449  1.00 20.00    -0.014 C 
HETATM    6  C6  UNL     1     -33.212   7.719   2.098  1.00 20.00    -0.009 C 
HETATM    7  C7  UNL     1     -33.374   6.902   3.402  1.00 20.00    -0.001 C 
ENDROOT
BRANCH   7   8
HETATM    8  C8  UNL     1     -34.765   7.034   4.015  1.00 20.00     0.075 C 
BRANCH   8   9
HETATM    9  S9  UNL     1     -35.427   5.401   4.430  1.00 20.00    -0.182 SA
HETATM   10  H23 UNL     1     -36.691   5.659   4.063  1.00 20.00     0.101 HD
ENDBRANCH   8   9
ENDBRANCH   7   8
TORSDOF 2
ENDMDL
MODEL 5
REMARK VINA RESULT:       1.4      1.870      2.976
REMARK  2 active torsions:
REMARK  status: ('A' for Active; 'I' for Inactive)
REMARK    1  A    between atoms: C7_7  and  C8_8 
REMARK    2  A    between atoms: C8_8  and  S9_9 
ROOT
HETATM    1  C1  UNL     1     -33.875   6.043   2.931  1.00 20.00     0.005 C 
HETATM    2  C2  UNL     1     -33.320   7.334   3.551  1.00 20.00     0.005 C 
HETATM    3  C3  UNL     1     -31.656   6.393   2.146  1.00 20.00     0.009 C 
HETATM    4  C4  UNL     1     -33.410   6.914   0.625  1.00 20.00     0.010 C 
HETATM    5  C5  UNL     1     -33.008   5.861   1.674  1.00 20.00    -0.014 C 
HETATM    6  C6  UNL     1     -32.227   7.754   2.550  1.00 20.00    -0.009 C 
HETATM    7  C7  UNL     1     -32.918   8.236   1.252  1.00 20.00    -0.001 C 
ENDROOT
BRANCH   7   8
HETATM    8  C8  UNL     1     -31.974   8.998   0.327  1.00 20.00     0.075 C 
BRANCH   8   9
HETATM    9  S9  UNL     1     -32.641  10.642  -0.035  1.00 20.00    -0.182 SA
HETATM   10  H23 UNL     1     -33.372  10.753   1.084  1.00 20.00     0.101 HD
ENDBRANCH   8   9
ENDBRANCH   7   8
TORSDOF 2
ENDMDL
MODEL 6
REMARK VINA RESULT:       1.7      2.290      3.895
REMARK  2 active torsions:
REMARK  status: ('A' for Active; 'I' for Inactive)
REMARK    1  A    between atoms: C7_7  and  C8_8 
REMARK    2  A    between atoms: C8_8  and  S9_9 
ROOT
HETATM    1  C1  UNL     1     -32.098   9.111   1.052  1.00 20.00     0.005 C 
HETATM    2  C2  UNL     1     -32.834   8.010   0.273  1.00 20.00     0.005 C 
HETATM    3  C3  UNL     1     -31.286   6.986   1.750  1.00 20.00     0.009 C 
HETATM    4  C4  UNL     1     -32.795   8.080   3.229  1.00 20.00     0.010 C 
HETATM    5  C5  UNL     1     -31.599   8.374   2.306  1.00 20.00    -0.014 C 
HETATM    6  C6  UNL     1     -32.700   6.786   1.198  1.00 20.00    -0.009 C 
HETATM    7  C7  UNL     1     -33.591   7.017   2.441  1.00 20.00    -0.001 C 
ENDROOT
BRANCH   7   8
HETATM    8  C8  UNL     1     -33.817   5.745   3.252  1.00 20.00     0.075 C 
BRANCH   8   9
HETATM    9  S9  UNL     1     -35.318   5.896   4.253  1.00 20.00    -0.182 SA
HETATM   10  H23 UNL     1     -35.663   4.601   4.194  1.00 20.00     0.101 HD
ENDBRANCH   8   9
ENDBRANCH   7   8
TORSDOF 2
ENDMDL
MODEL 7
REMARK VINA RESULT:       1.8      2.176      3.315
REMARK  2 active torsions:
REMARK  status: ('A' for Active; 'I' for Inactive)
REMARK    1  A    between atoms: C7_7  and  C8_8 
REMARK    2  A    between atoms: C8_8  and  S9_9 
ROOT
HETATM    1  C1  UNL     1     -33.766   7.954   2.301  1.00 20.00     0.005 C 
HETATM    2  C2  UNL     1     -32.889   6.712   2.077  1.00 20.00     0.005 C 
HETATM    3  C3  UNL     1     -33.040   7.120   4.409  1.00 20.00     0.009 C 
HETATM    4  C4  UNL     1     -35.291   6.644   3.802  1.00 20.00     0.010 C 
HETATM    5  C5  UNL     1     -34.251   7.778   3.750  1.00 20.00    -0.014 C 
HETATM    6  C6  UNL     1     -33.013   5.957   3.414  1.00 20.00    -0.009 C 
HETATM    7  C7  UNL     1     -34.446   5.383   3.517  1.00 20.00    -0.001 C 
ENDROOT
BRANCH   7   8
HETATM    8  C8  UNL     1     -34.585   4.333   4.614  1.00 20.00     0.075 C 
BRANCH   8   9
HETATM    9  S9  UNL     1     -33.253   3.114   4.490  1.00 20.00    -0.182 SA
HETATM   10  H23 UNL     1     -32.750   3.565   3.332  1.00 20.00     0.101 HD
ENDBRANCH   8   9
ENDBRANCH   7   8
TORSDOF 2
ENDMDL
MODEL 8
REMARK VINA RESULT:       1.9      2.292      3.892
REMARK  2 active torsions:
REMARK  status: ('A' for Active; 'I' for Inactive)
REMARK    1  A    between atoms: C7_7  and  C8_8 
REMARK    2  A    between atoms: C8_8  and  S9_9 
ROOT
HETATM    1  C1  UNL     1     -32.667   9.561   1.519  1.00 20.00     0.005 C 
HETATM    2  C2  UNL     1     -32.177   8.621   0.406  1.00 20.00     0.005 C 
HETATM    3  C3  UNL     1     -31.196   7.943   2.457  1.00 20.00     0.009 C 
HETATM    4  C4  UNL     1     -33.520   7.604   2.838  1.00 20.00     0.010 C 
HETATM    5  C5  UNL     1     -32.464   8.724   2.793  1.00 20.00    -0.014 C 
HETATM    6  C6  UNL     1     -31.790   7.346   1.179  1.00 20.00    -0.009 C 
HETATM    7  C7  UNL     1     -33.088   6.672   1.685  1.00 20.00    -0.001 C 
ENDROOT
BRANCH   7   8
HETATM    8  C8  UNL     1     -32.866   5.238   2.153  1.00 20.00     0.075 C 
BRANCH   8   9
HETATM    9  S9  UNL     1     -33.964   4.853   3.541  1.00 20.00    -0.182 SA
HETATM   10  H23 UNL     1     -33.645   5.925   4.281  1.00 20.00     0.101 HD
ENDBRANCH   8   9
ENDBRANCH   7   8
TORSDOF 2
ENDMDL
MODEL 9
REMARK VINA RESULT:       2.0      2.193      3.770
REMARK  2 active torsions:
REMARK  status: ('A' for Active; 'I' for Inactive)
REMARK    1  A    between atoms: C7_7  and  C8_8 
REMARK    2  A    between atoms: C8_8  and  S9_9 
ROOT
HETATM    1  C1  UNL     1     -30.983   7.571   1.651  1.00 20.00     0.005 C 
HETATM    2  C2  UNL     1     -31.361   8.387   2.896  1.00 20.00     0.005 C 
HETATM    3  C3  UNL     1     -33.219   8.353   1.421  1.00 20.00     0.009 C 
HETATM    4  C4  UNL     1     -32.955   6.061   2.002  1.00 20.00     0.010 C 
HETATM    5  C5  UNL     1     -32.349   7.142   1.089  1.00 20.00    -0.014 C 
HETATM    6  C6  UNL     1     -32.898   8.291   2.916  1.00 20.00    -0.009 C 
HETATM    7  C7  UNL     1     -33.290   6.842   3.292  1.00 20.00    -0.001 C 
ENDROOT
BRANCH   7   8
HETATM    8  C8  UNL     1     -34.757   6.708   3.684  1.00 20.00     0.075 C 
BRANCH   8   9
HETATM    9  S9  UNL     1     -35.068   5.077   4.407  1.00 20.00    -0.182 SA
HETATM   10  H23 UNL     1     -34.658   5.387   5.646  1.00 20.00     0.101 HD
ENDBRANCH   8   9
ENDBRANCH   7   8
TORSDOF 2
ENDMDL
