MODEL 1
REMARK VINA RESULT:       1.4      0.000      0.000
REMARK  2 active torsions:
REMARK  status: ('A' for Active; 'I' for Inactive)
REMARK    1  A    between atoms: C7_7  and  C8_8 
REMARK    2  A    between atoms: C8_8  and  S9_9 
ROOT
HETATM    1  C1  UNL     1     -32.707   8.500   0.457  1.00 20.00     0.005 C 
HETATM    2  C2  UNL     1     -32.664   9.359   1.730  1.00 20.00     0.005 C 
HETATM    3  C3  UNL     1     -30.955   7.723   1.870  1.00 20.00     0.009 C 
HETATM    4  C4  UNL     1     -32.956   6.421   1.826  1.00 20.00     0.010 C 
HETATM    5  C5  UNL     1     -32.009   7.200   0.894  1.00 20.00    -0.014 C 
HETATM    6  C6  UNL     1     -31.991   8.428   2.753  1.00 20.00    -0.009 C 
HETATM    7  C7  UNL     1     -32.904   7.239   3.134  1.00 20.00    -0.001 C 
ENDROOT
BRANCH   7   8
HETATM    8  C8  UNL     1     -34.275   7.606   3.676  1.00 20.00     0.075 C 
BRANCH   8   9
HETATM    9  S9  UNL     1     -35.235   6.110   4.037  1.00 20.00    -0.182 SA
HETATM   10  H23 UNL     1     -34.181   5.308   4.243  1.00 20.00     0.101 HD
ENDBRANCH   8   9
ENDBRANCH   7   8
TORSDOF 2
ENDMDL
MODEL 2
REMARK VINA RESULT:       1.5      2.437      3.730
REMARK  2 active torsions:
REMARK  status: ('A' for Active; 'I' for Inactive)
REMARK    1  A    between atoms: C7_7  and  C8_8 
REMARK    2  A    between atoms: C8_8  and  S9_9 
ROOT
HETATM    1  C1  UNL     1     -34.023   7.572   4.518  1.00 20.00     0.005 C 
HETATM    2  C2  UNL     1     -33.013   7.208   3.419  1.00 20.00     0.005 C 
HETATM    3  C3  UNL     1     -35.197   6.795   2.597  1.00 20.00     0.009 C 
HETATM    4  C4  UNL     1     -35.004   5.272   4.428  1.00 20.00     0.010 C 
HETATM    5  C5  UNL     1     -35.269   6.759   4.124  1.00 20.00    -0.014 C 
HETATM    6  C6  UNL     1     -33.788   6.194   2.559  1.00 20.00    -0.009 C 
HETATM    7  C7  UNL     1     -34.019   4.863   3.312  1.00 20.00    -0.001 C 
ENDROOT
BRANCH   7   8
HETATM    8  C8  UNL     1     -32.770   4.169   3.829  1.00 20.00     0.075 C 
BRANCH   8   9
HETATM    9  S9  UNL     1     -33.213   2.687   4.775  1.00 20.00    -0.182 SA
HETATM   10  H23 UNL     1     -32.385   2.919   5.804  1.00 20.00     0.101 HD
ENDBRANCH   8   9
ENDBRANCH   7   8
TORSDOF 2
ENDMDL
MODEL 3
REMARK VINA RESULT:       1.6      0.832      2.059
REMARK  2 active torsions:
REMARK  status: ('A' for Active; 'I' for Inactive)
REMARK    1  A    between atoms: C7_7  and  C8_8 
REMARK    2  A    between atoms: C8_8  and  S9_9 
ROOT
HETATM    1  C1  UNL     1     -31.388   6.356   1.623  1.00 20.00     0.005 C 
HETATM    2  C2  UNL     1     -32.865   5.932   1.621  1.00 20.00     0.005 C 
HETATM    3  C3  UNL     1     -32.723   8.161   0.830  1.00 20.00     0.009 C 
HETATM    4  C4  UNL     1     -31.919   8.324   3.072  1.00 20.00     0.010 C 
HETATM    5  C5  UNL     1     -31.470   7.891   1.664  1.00 20.00    -0.014 C 
HETATM    6  C6  UNL     1     -33.610   7.275   1.711  1.00 20.00    -0.009 C 
HETATM    7  C7  UNL     1     -33.415   7.948   3.089  1.00 20.00    -0.001 C 
ENDROOT
BRANCH   7   8
HETATM    8  C8  UNL     1     -33.818   7.116   4.295  1.00 20.00     0.075 C 
BRANCH   8   9
HETATM    9  S9  UNL     1     -35.352   6.210   3.957  1.00 20.00    -0.182 SA
HETATM   10  H23 UNL     1     -34.844   5.414   3.006  1.00 20.00     0.101 HD
ENDBRANCH   8   9
ENDBRANCH   7   8
TORSDOF 2
ENDMDL
MODEL 4
REMARK VINA RESULT:       1.7      2.221      3.622
REMARK  2 active torsions:
REMARK  status: ('A' for Active; 'I' for Inactive)
REMARK    1  A    between atoms: C7_7  and  C8_8 
REMARK    2  A    between atoms: C8_8  and  S9_9 
ROOT
HETATM    1  C1  UNL     1     -33.509   6.524   4.838  1.00 20.00     0.005 C 
HETATM    2  C2  UNL     1     -33.633   7.991   4.398  1.00 20.00     0.005 C 
HETATM    3  C3  UNL     1     -35.273   6.721   3.251  1.00 20.00     0.009 C 
HETATM    4  C4  UNL     1     -33.216   5.799   2.462  1.00 20.00     0.010 C 
HETATM    5  C5  UNL     1     -34.163   5.758   3.676  1.00 20.00    -0.014 C 
HETATM    6  C6  UNL     1     -34.299   7.881   3.016  1.00 20.00    -0.009 C 
HETATM    7  C7  UNL     1     -33.349   7.255   1.969  1.00 20.00    -0.001 C 
ENDROOT
BRANCH   7   8
HETATM    8  C8  UNL     1     -32.014   7.958   1.783  1.00 20.00     0.075 C 
BRANCH   8   9
HETATM    9  S9  UNL     1     -32.181   9.338   0.618  1.00 20.00    -0.182 SA
HETATM   10  H23 UNL     1     -31.686   8.690  -0.445  1.00 20.00     0.101 HD
ENDBRANCH   8   9
ENDBRANCH   7   8
TORSDOF 2
ENDMDL
MODEL 5
REMARK VINA RESULT:       1.7      2.357      3.717
REMARK  2 active torsions:
REMARK  status: ('A' for Active; 'I' for Inactive)
REMARK    1  A    between atoms: C7_7  and  C8_8 
REMARK    2  A    between atoms: C8_8  and  S9_9 
ROOT
HETATM    1  C1  UNL     1     -34.034   7.109   5.009  1.00 20.00     0.005 C 
HETATM    2  C2  UNL     1     -33.775   8.071   3.840  1.00 20.00     0.005 C 
HETATM    3  C3  UNL     1     -35.646   6.721   3.300  1.00 20.00     0.009 C 
HETATM    4  C4  UNL     1     -33.863   5.141   3.475  1.00 20.00     0.010 C 
HETATM    5  C5  UNL     1     -34.826   5.968   4.348  1.00 20.00    -0.014 C 
HETATM    6  C6  UNL     1     -34.407   7.339   2.643  1.00 20.00    -0.009 C 
HETATM    7  C7  UNL     1     -33.613   6.067   2.265  1.00 20.00    -0.001 C 
ENDROOT
BRANCH   7   8
HETATM    8  C8  UNL     1     -32.141   6.274   1.953  1.00 20.00     0.075 C 
BRANCH   8   9
HETATM    9  S9  UNL     1     -31.846   7.971   1.385  1.00 20.00    -0.182 SA
HETATM   10  H23 UNL     1     -32.648   8.564   2.279  1.00 20.00     0.101 HD
ENDBRANCH   8   9
ENDBRANCH   7   8
TORSDOF 2
ENDMDL
MODEL 6
REMARK VINA RESULT:       2.1      1.048      2.223
REMARK  2 active torsions:
REMARK  status: ('A' for Active; 'I' for Inactive)
REMARK    1  A    between atoms: C7_7  and  C8_8 
REMARK    2  A    between atoms: C8_8  and  S9_9 
ROOT
HETATM    1  C1  UNL     1     -31.032   7.111   1.862  1.00 20.00     0.005 C 
HETATM    2  C2  UNL     1     -31.955   6.049   1.244  1.00 20.00     0.005 C 
HETATM    3  C3  UNL     1     -33.020   8.160   1.073  1.00 20.00     0.009 C 
HETATM    4  C4  UNL     1     -32.845   7.824   3.432  1.00 20.00     0.010 C 
HETATM    5  C5  UNL     1     -32.004   8.251   2.213  1.00 20.00    -0.014 C 
HETATM    6  C6  UNL     1     -33.348   6.691   1.363  1.00 20.00    -0.009 C 
HETATM    7  C7  UNL     1     -33.814   6.782   2.835  1.00 20.00    -0.001 C 
ENDROOT
BRANCH   7   8
HETATM    8  C8  UNL     1     -33.844   5.471   3.602  1.00 20.00     0.075 C 
BRANCH   8   9
HETATM    9  S9  UNL     1     -35.408   5.299   4.503  1.00 20.00    -0.182 SA
HETATM   10  H23 UNL     1     -36.007   6.368   3.960  1.00 20.00     0.101 HD
ENDBRANCH   8   9
ENDBRANCH   7   8
TORSDOF 2
ENDMDL
MODEL 7
REMARK VINA RESULT:       2.3      2.431      3.445
REMARK  2 active torsions:
REMARK  status: ('A' for Active; 'I' for Inactive)
REMARK    1  A    between atoms: C7_7  and  C8_8 
REMARK    2  A    between atoms: C8_8  and  S9_9 
ROOT
HETATM    1  C1  UNL     1     -35.577   6.928   2.774  1.00 20.00     0.005 C 
HETATM    2  C2  UNL     1     -35.570   6.269   4.161  1.00 20.00     0.005 C 
HETATM    3  C3  UNL     1     -33.595   7.559   3.933  1.00 20.00     0.009 C 
HETATM    4  C4  UNL     1     -33.363   5.897   2.234  1.00 20.00     0.010 C 
HETATM    5  C5  UNL     1     -34.088   7.225   2.525  1.00 20.00    -0.014 C 
HETATM    6  C6  UNL     1     -34.073   6.225   4.515  1.00 20.00    -0.009 C 
HETATM    7  C7  UNL     1     -33.302   5.225   3.622  1.00 20.00    -0.001 C 
ENDROOT
BRANCH   7   8
HETATM    8  C8  UNL     1     -33.820   3.797   3.628  1.00 20.00     0.075 C 
BRANCH   8   9
HETATM    9  S9  UNL     1     -33.010   2.834   4.934  1.00 20.00    -0.182 SA
HETATM   10  H23 UNL     1     -34.055   2.820   5.773  1.00 20.00     0.101 HD
ENDBRANCH   8   9
ENDBRANCH   7   8
TORSDOF 2
ENDMDL
MODEL 8
REMARK VINA RESULT:       2.3      2.422      3.729
REMARK  2 active torsions:
REMARK  status: ('A' for Active; 'I' for Inactive)
REMARK    1  A    between atoms: C7_7  and  C8_8 
REMARK    2  A    between atoms: C8_8  and  S9_9 
ROOT
HETATM    1  C1  UNL     1     -33.874   7.285   4.860  1.00 20.00     0.005 C 
HETATM    2  C2  UNL     1     -33.653   8.089   3.569  1.00 20.00     0.005 C 
HETATM    3  C3  UNL     1     -35.612   6.782   3.312  1.00 20.00     0.009 C 
HETATM    4  C4  UNL     1     -33.891   5.145   3.565  1.00 20.00     0.010 C 
HETATM    5  C5  UNL     1     -34.757   6.116   4.390  1.00 20.00    -0.014 C 
HETATM    6  C6  UNL     1     -34.395   7.255   2.511  1.00 20.00    -0.009 C 
HETATM    7  C7  UNL     1     -33.683   5.909   2.240  1.00 20.00    -0.001 C 
ENDROOT
BRANCH   7   8
HETATM    8  C8  UNL     1     -32.228   6.003   1.815  1.00 20.00     0.075 C 
BRANCH   8   9
HETATM    9  S9  UNL     1     -31.824   4.685   0.638  1.00 20.00    -0.182 SA
HETATM   10  H23 UNL     1     -30.772   5.303   0.083  1.00 20.00     0.101 HD
ENDBRANCH   8   9
ENDBRANCH   7   8
TORSDOF 2
ENDMDL
MODEL 9
REMARK VINA RESULT:       2.4      2.249      3.382
REMARK  2 active torsions:
REMARK  status: ('A' for Active; 'I' for Inactive)
REMARK    1  A    between atoms: C7_7  and  C8_8 
REMARK    2  A    between atoms: C8_8  and  S9_9 
ROOT
HETATM    1  C1  UNL     1     -34.305   6.126   1.259  1.00 20.00     0.005 C 
HETATM    2  C2  UNL     1     -32.999   5.704   0.569  1.00 20.00     0.005 C 
HETATM    3  C3  UNL     1     -32.679   5.594   2.915  1.00 20.00     0.009 C 
HETATM    4  C4  UNL     1     -33.100   7.913   2.528  1.00 20.00     0.010 C 
HETATM    5  C5  UNL     1     -33.832   6.564   2.656  1.00 20.00    -0.014 C 
HETATM    6  C6  UNL     1     -31.933   5.999   1.639  1.00 20.00    -0.009 C 
HETATM    7  C7  UNL     1     -31.760   7.518   1.873  1.00 20.00    -0.001 C 
ENDROOT
BRANCH   7   8
HETATM    8  C8  UNL     1     -31.418   8.342   0.643  1.00 20.00     0.075 C 
BRANCH   8   9
HETATM    9  S9  UNL     1     -32.541   9.758   0.497  1.00 20.00    -0.182 SA
HETATM   10  H23 UNL     1     -32.947   9.494  -0.753  1.00 20.00     0.101 HD
ENDBRANCH   8   9
ENDBRANCH   7   8
TORSDOF 2
ENDMDL
