MODEL 1
REMARK VINA RESULT:      -2.0      0.000      0.000
REMARK  4 active torsions:
REMARK  status: ('A' for Active; 'I' for Inactive)
REMARK    1  A    between atoms: C4_4  and  C6_6 
REMARK    2  A    between atoms: C4_4  and  C7_7 
REMARK    3  A    between atoms: C5_5  and  C6_6 
REMARK    4  A    between atoms: C5_5  and  O8_8 
ROOT
HETATM    1  C1  UNL     1     -32.341   5.607   1.113  1.00 20.00     0.012 C 
HETATM    2  C6  UNL     1     -32.263   6.903   1.921  1.00 20.00     0.007 C 
ENDROOT
BRANCH   2   3
HETATM    3  C4  UNL     1     -33.640   7.329   2.484  1.00 20.00     0.026 C 
BRANCH   3   4
HETATM    4  C7  UNL     1     -33.976   6.826   3.897  1.00 20.00     0.078 C 
HETATM    5  C2  UNL     1     -35.397   6.275   3.955  1.00 20.00     0.026 C 
HETATM    6 CL9  UNL     1     -33.818   8.139   5.101  1.00 20.00    -0.125 Cl
ENDBRANCH   3   4
ENDBRANCH   2   3
BRANCH   2   7
HETATM    7  C5  UNL     1     -31.676   8.019   1.043  1.00 20.00     0.171 C 
BRANCH   7   8
HETATM    8  O8  UNL     1     -32.457   9.200   1.170  1.00 20.00    -0.396 OA
HETATM    9  C3  UNL     1     -32.478   9.945  -0.040  1.00 20.00     0.201 C 
ENDBRANCH   7   8
ENDBRANCH   2   7
TORSDOF 4
ENDMDL
MODEL 2
REMARK VINA RESULT:      -1.9      2.868      4.774
REMARK  4 active torsions:
REMARK  status: ('A' for Active; 'I' for Inactive)
REMARK    1  A    between atoms: C4_4  and  C6_6 
REMARK    2  A    between atoms: C4_4  and  C7_7 
REMARK    3  A    between atoms: C5_5  and  C6_6 
REMARK    4  A    between atoms: C5_5  and  O8_8 
ROOT
HETATM    1  C1  UNL     1     -33.854   7.902   4.817  1.00 20.00     0.012 C 
HETATM    2  C6  UNL     1     -33.969   6.716   3.859  1.00 20.00     0.007 C 
ENDROOT
BRANCH   2   3
HETATM    3  C4  UNL     1     -33.674   7.114   2.392  1.00 20.00     0.026 C 
BRANCH   3   4
HETATM    4  C7  UNL     1     -32.200   7.061   1.962  1.00 20.00     0.078 C 
HETATM    5  C2  UNL     1     -31.853   8.241   1.060  1.00 20.00     0.026 C 
HETATM    6 CL9  UNL     1     -31.838   5.543   1.088  1.00 20.00    -0.125 Cl
ENDBRANCH   3   4
ENDBRANCH   2   3
BRANCH   2   7
HETATM    7  C5  UNL     1     -35.371   6.099   3.973  1.00 20.00     0.171 C 
BRANCH   7   8
HETATM    8  O8  UNL     1     -35.286   4.796   4.535  1.00 20.00    -0.396 OA
HETATM    9  C3  UNL     1     -34.070   4.153   4.179  1.00 20.00     0.201 C 
ENDBRANCH   7   8
ENDBRANCH   2   7
TORSDOF 4
ENDMDL
MODEL 3
REMARK VINA RESULT:      -1.7      1.485      1.485
REMARK  4 active torsions:
REMARK  status: ('A' for Active; 'I' for Inactive)
REMARK    1  A    between atoms: C4_4  and  C6_6 
REMARK    2  A    between atoms: C4_4  and  C7_7 
REMARK    3  A    between atoms: C5_5  and  C6_6 
REMARK    4  A    between atoms: C5_5  and  O8_8 
ROOT
HETATM    1  C1  UNL     1     -32.826   5.649   0.851  1.00 20.00     0.012 C 
HETATM    2  C6  UNL     1     -32.232   6.473   1.994  1.00 20.00     0.007 C 
ENDROOT
BRANCH   2   3
HETATM    3  C4  UNL     1     -33.280   6.811   3.081  1.00 20.00     0.026 C 
BRANCH   3   4
HETATM    4  C7  UNL     1     -34.399   5.778   3.284  1.00 20.00     0.078 C 
HETATM    5  C2  UNL     1     -35.489   6.327   4.198  1.00 20.00     0.026 C 
HETATM    6 CL9  UNL     1     -33.759   4.267   3.997  1.00 20.00    -0.125 Cl
ENDBRANCH   3   4
ENDBRANCH   2   3
BRANCH   2   7
HETATM    7  C5  UNL     1     -31.614   7.761   1.429  1.00 20.00     0.171 C 
BRANCH   7   8
HETATM    8  O8  UNL     1     -32.592   8.792   1.385  1.00 20.00    -0.396 OA
HETATM    9  C3  UNL     1     -32.371   9.674   0.293  1.00 20.00     0.201 C 
ENDBRANCH   7   8
ENDBRANCH   2   7
TORSDOF 4
ENDMDL
MODEL 4
REMARK VINA RESULT:      -1.7      3.192      4.950
REMARK  4 active torsions:
REMARK  status: ('A' for Active; 'I' for Inactive)
REMARK    1  A    between atoms: C4_4  and  C6_6 
REMARK    2  A    between atoms: C4_4  and  C7_7 
REMARK    3  A    between atoms: C5_5  and  C6_6 
REMARK    4  A    between atoms: C5_5  and  O8_8 
ROOT
HETATM    1  C1  UNL     1     -35.567   6.241   4.091  1.00 20.00     0.012 C 
HETATM    2  C6  UNL     1     -34.083   6.152   3.731  1.00 20.00     0.007 C 
ENDROOT
BRANCH   2   3
HETATM    3  C4  UNL     1     -33.708   7.076   2.547  1.00 20.00     0.026 C 
BRANCH   3   4
HETATM    4  C7  UNL     1     -32.252   6.995   2.064  1.00 20.00     0.078 C 
HETATM    5  C2  UNL     1     -31.853   8.266   1.321  1.00 20.00     0.026 C 
HETATM    6 CL9  UNL     1     -32.011   5.594   0.977  1.00 20.00    -0.125 Cl
ENDBRANCH   3   4
ENDBRANCH   2   3
BRANCH   2   7
HETATM    7  C5  UNL     1     -33.721   4.695   3.407  1.00 20.00     0.171 C 
BRANCH   7   8
HETATM    8  O8  UNL     1     -34.186   3.835   4.439  1.00 20.00    -0.396 OA
HETATM    9  C3  UNL     1     -33.180   2.918   4.847  1.00 20.00     0.201 C 
ENDBRANCH   7   8
ENDBRANCH   2   7
TORSDOF 4
ENDMDL
MODEL 5
REMARK VINA RESULT:      -1.6      3.181      4.712
REMARK  4 active torsions:
REMARK  status: ('A' for Active; 'I' for Inactive)
REMARK    1  A    between atoms: C4_4  and  C6_6 
REMARK    2  A    between atoms: C4_4  and  C7_7 
REMARK    3  A    between atoms: C5_5  and  C6_6 
REMARK    4  A    between atoms: C5_5  and  O8_8 
ROOT
HETATM    1  C1  UNL     1     -34.982   6.618   3.795  1.00 20.00     0.012 C 
HETATM    2  C6  UNL     1     -33.636   6.136   3.252  1.00 20.00     0.007 C 
ENDROOT
BRANCH   2   3
HETATM    3  C4  UNL     1     -33.277   6.795   1.899  1.00 20.00     0.026 C 
BRANCH   3   4
HETATM    4  C7  UNL     1     -32.096   7.778   1.919  1.00 20.00     0.078 C 
HETATM    5  C2  UNL     1     -31.956   8.432   3.290  1.00 20.00     0.026 C 
HETATM    6 CL9  UNL     1     -32.305   9.060   0.689  1.00 20.00    -0.125 Cl
ENDBRANCH   3   4
ENDBRANCH   2   3
BRANCH   2   7
HETATM    7  C5  UNL     1     -33.659   4.606   3.112  1.00 20.00     0.171 C 
BRANCH   7   8
HETATM    8  O8  UNL     1     -34.137   4.013   4.312  1.00 20.00    -0.396 OA
HETATM    9  C3  UNL     1     -33.278   2.973   4.758  1.00 20.00     0.201 C 
ENDBRANCH   7   8
ENDBRANCH   2   7
TORSDOF 4
ENDMDL
MODEL 6
REMARK VINA RESULT:      -1.3      1.708      2.102
REMARK  4 active torsions:
REMARK  status: ('A' for Active; 'I' for Inactive)
REMARK    1  A    between atoms: C4_4  and  C6_6 
REMARK    2  A    between atoms: C4_4  and  C7_7 
REMARK    3  A    between atoms: C5_5  and  C6_6 
REMARK    4  A    between atoms: C5_5  and  O8_8 
ROOT
HETATM    1  C1  UNL     1     -33.150   8.060   3.866  1.00 20.00     0.012 C 
HETATM    2  C6  UNL     1     -33.267   7.394   2.494  1.00 20.00     0.007 C 
ENDROOT
BRANCH   2   3
HETATM    3  C4  UNL     1     -33.408   5.856   2.596  1.00 20.00     0.026 C 
BRANCH   3   4
HETATM    4  C7  UNL     1     -33.915   5.314   3.941  1.00 20.00     0.078 C 
HETATM    5  C2  UNL     1     -33.802   3.794   3.993  1.00 20.00     0.026 C 
HETATM    6 CL9  UNL     1     -35.622   5.773   4.218  1.00 20.00    -0.125 Cl
ENDBRANCH   3   4
ENDBRANCH   2   3
BRANCH   2   7
HETATM    7  C5  UNL     1     -32.043   7.762   1.641  1.00 20.00     0.171 C 
BRANCH   7   8
HETATM    8  O8  UNL     1     -32.000   9.168   1.432  1.00 20.00    -0.396 OA
HETATM    9  C3  UNL     1     -32.423   9.514   0.120  1.00 20.00     0.201 C 
ENDBRANCH   7   8
ENDBRANCH   2   7
TORSDOF 4
ENDMDL
MODEL 7
REMARK VINA RESULT:      -1.3      2.344      4.264
REMARK  4 active torsions:
REMARK  status: ('A' for Active; 'I' for Inactive)
REMARK    1  A    between atoms: C4_4  and  C6_6 
REMARK    2  A    between atoms: C4_4  and  C7_7 
REMARK    3  A    between atoms: C5_5  and  C6_6 
REMARK    4  A    between atoms: C5_5  and  O8_8 
ROOT
HETATM    1  C1  UNL     1     -32.681   5.850   1.595  1.00 20.00     0.012 C 
HETATM    2  C6  UNL     1     -33.067   7.238   2.108  1.00 20.00     0.007 C 
ENDROOT
BRANCH   2   3
HETATM    3  C4  UNL     1     -32.028   8.318   1.721  1.00 20.00     0.026 C 
BRANCH   3   4
HETATM    4  C7  UNL     1     -32.294   9.069   0.407  1.00 20.00     0.078 C 
HETATM    5  C2  UNL     1     -31.065   9.039  -0.496  1.00 20.00     0.026 C 
HETATM    6 CL9  UNL     1     -32.737  10.774   0.719  1.00 20.00    -0.125 Cl
ENDBRANCH   3   4
ENDBRANCH   2   3
BRANCH   2   7
HETATM    7  C5  UNL     1     -33.243   7.190   3.634  1.00 20.00     0.171 C 
BRANCH   7   8
HETATM    8  O8  UNL     1     -34.609   7.389   3.973  1.00 20.00    -0.396 OA
HETATM    9  C3  UNL     1     -35.314   6.157   4.041  1.00 20.00     0.201 C 
ENDBRANCH   7   8
ENDBRANCH   2   7
TORSDOF 4
ENDMDL
MODEL 8
REMARK VINA RESULT:      -1.2      2.587      4.262
REMARK  4 active torsions:
REMARK  status: ('A' for Active; 'I' for Inactive)
REMARK    1  A    between atoms: C4_4  and  C6_6 
REMARK    2  A    between atoms: C4_4  and  C7_7 
REMARK    3  A    between atoms: C5_5  and  C6_6 
REMARK    4  A    between atoms: C5_5  and  O8_8 
ROOT
HETATM    1  C1  UNL     1     -32.343   5.919   1.410  1.00 20.00     0.012 C 
HETATM    2  C6  UNL     1     -32.829   7.331   1.743  1.00 20.00     0.007 C 
ENDROOT
BRANCH   2   3
HETATM    3  C4  UNL     1     -31.699   8.383   1.635  1.00 20.00     0.026 C 
BRANCH   3   4
HETATM    4  C7  UNL     1     -31.912   9.497   0.598  1.00 20.00     0.078 C 
HETATM    5  C2  UNL     1     -32.867  10.560   1.130  1.00 20.00     0.026 C 
HETATM    6 CL9  UNL     1     -32.577   8.838  -0.927  1.00 20.00    -0.125 Cl
ENDBRANCH   3   4
ENDBRANCH   2   3
BRANCH   2   7
HETATM    7  C5  UNL     1     -33.437   7.344   3.154  1.00 20.00     0.171 C 
BRANCH   7   8
HETATM    8  O8  UNL     1     -34.038   6.087   3.438  1.00 20.00    -0.396 OA
HETATM    9  C3  UNL     1     -35.315   6.243   4.040  1.00 20.00     0.201 C 
ENDBRANCH   7   8
ENDBRANCH   2   7
TORSDOF 4
ENDMDL
MODEL 9
REMARK VINA RESULT:      -1.1      1.716      2.002
REMARK  4 active torsions:
REMARK  status: ('A' for Active; 'I' for Inactive)
REMARK    1  A    between atoms: C4_4  and  C6_6 
REMARK    2  A    between atoms: C4_4  and  C7_7 
REMARK    3  A    between atoms: C5_5  and  C6_6 
REMARK    4  A    between atoms: C5_5  and  O8_8 
ROOT
HETATM    1  C1  UNL     1     -32.012   8.349   3.570  1.00 20.00     0.012 C 
HETATM    2  C6  UNL     1     -32.750   7.764   2.365  1.00 20.00     0.007 C 
ENDROOT
BRANCH   2   3
HETATM    3  C4  UNL     1     -32.903   6.227   2.458  1.00 20.00     0.026 C 
BRANCH   3   4
HETATM    4  C7  UNL     1     -34.218   5.716   3.069  1.00 20.00     0.078 C 
HETATM    5  C2  UNL     1     -34.856   6.780   3.956  1.00 20.00     0.026 C 
HETATM    6 CL9  UNL     1     -33.944   4.242   4.045  1.00 20.00    -0.125 Cl
ENDBRANCH   3   4
ENDBRANCH   2   3
BRANCH   2   7
HETATM    7  C5  UNL     1     -32.010   8.149   1.075  1.00 20.00     0.171 C 
BRANCH   7   8
HETATM    8  O8  UNL     1     -32.063   9.557   0.884  1.00 20.00    -0.396 OA
HETATM    9  C3  UNL     1     -32.710   9.894  -0.336  1.00 20.00     0.201 C 
ENDBRANCH   7   8
ENDBRANCH   2   7
TORSDOF 4
ENDMDL
