MODEL 1
REMARK VINA RESULT:      -2.0      0.000      0.000
REMARK  2 active torsions:
REMARK  status: ('A' for Active; 'I' for Inactive)
REMARK    1  A    between atoms: C3_3  and  C4_4 
REMARK    2  A    between atoms: C3_3  and  S9_9 
ROOT
HETATM    1  C1  UNL     1     -33.699   4.353   3.953  1.00 20.00     0.083 C 
HETATM    2  C3  UNL     1     -33.558   5.764   3.568  1.00 20.00     0.261 C 
HETATM    3  N5  UNL     1     -33.804   3.237   4.255  1.00 20.00    -0.196 NA
ENDROOT
BRANCH   2   4
HETATM    4  C4  UNL     1     -34.823   6.544   3.885  1.00 20.00     0.412 C 
HETATM    5  F6  UNL     1     -35.638   5.847   4.711  1.00 20.00    -0.169 F 
HETATM    6  F7  UNL     1     -34.527   7.706   4.514  1.00 20.00    -0.169 F 
HETATM    7  F8  UNL     1     -35.528   6.851   2.774  1.00 20.00    -0.169 F 
ENDBRANCH   2   4
BRANCH   2   8
HETATM    8  S9  UNL     1     -33.160   5.918   1.793  1.00 20.00    -0.145 SA
HETATM    9  C2  UNL     1     -32.260   7.482   1.872  1.00 20.00     0.091 C 
ENDBRANCH   2   8
TORSDOF 2
ENDMDL
MODEL 2
REMARK VINA RESULT:      -2.0      2.960      3.474
REMARK  2 active torsions:
REMARK  status: ('A' for Active; 'I' for Inactive)
REMARK    1  A    between atoms: C3_3  and  C4_4 
REMARK    2  A    between atoms: C3_3  and  S9_9 
ROOT
HETATM    1  C1  UNL     1     -33.747   7.303   3.220  1.00 20.00     0.083 C 
HETATM    2  C3  UNL     1     -33.157   7.160   1.881  1.00 20.00     0.261 C 
HETATM    3  N5  UNL     1     -34.214   7.423   4.276  1.00 20.00    -0.196 NA
ENDROOT
BRANCH   2   4
HETATM    4  C4  UNL     1     -32.805   5.710   1.593  1.00 20.00     0.412 C 
HETATM    5  F6  UNL     1     -31.472   5.552   1.419  1.00 20.00    -0.169 F 
HETATM    6  F7  UNL     1     -33.164   4.914   2.628  1.00 20.00    -0.169 F 
HETATM    7  F8  UNL     1     -33.423   5.242   0.487  1.00 20.00    -0.169 F 
ENDBRANCH   2   4
BRANCH   2   8
HETATM    8  S9  UNL     1     -31.671   8.207   1.709  1.00 20.00    -0.145 SA
HETATM    9  C2  UNL     1     -32.353   9.424   0.562  1.00 20.00     0.091 C 
ENDBRANCH   2   8
TORSDOF 2
ENDMDL
MODEL 3
REMARK VINA RESULT:      -2.0      2.950      3.482
REMARK  2 active torsions:
REMARK  status: ('A' for Active; 'I' for Inactive)
REMARK    1  A    between atoms: C3_3  and  C4_4 
REMARK    2  A    between atoms: C3_3  and  S9_9 
ROOT
HETATM    1  C1  UNL     1     -33.749   7.312   3.239  1.00 20.00     0.083 C 
HETATM    2  C3  UNL     1     -33.161   7.175   1.899  1.00 20.00     0.261 C 
HETATM    3  N5  UNL     1     -34.213   7.426   4.297  1.00 20.00    -0.196 NA
ENDROOT
BRANCH   2   4
HETATM    4  C4  UNL     1     -32.812   5.726   1.603  1.00 20.00     0.412 C 
HETATM    5  F6  UNL     1     -33.187   4.911   2.616  1.00 20.00    -0.169 F 
HETATM    6  F7  UNL     1     -33.455   5.294   0.492  1.00 20.00    -0.169 F 
HETATM    7  F8  UNL     1     -31.488   5.549   1.401  1.00 20.00    -0.169 F 
ENDBRANCH   2   4
BRANCH   2   8
HETATM    8  S9  UNL     1     -31.674   8.221   1.731  1.00 20.00    -0.145 SA
HETATM    9  C2  UNL     1     -32.337   9.411   0.546  1.00 20.00     0.091 C 
ENDBRANCH   2   8
TORSDOF 2
ENDMDL
MODEL 4
REMARK VINA RESULT:      -2.0      0.017      1.257
REMARK  2 active torsions:
REMARK  status: ('A' for Active; 'I' for Inactive)
REMARK    1  A    between atoms: C3_3  and  C4_4 
REMARK    2  A    between atoms: C3_3  and  S9_9 
ROOT
HETATM    1  C1  UNL     1     -33.707   4.361   3.957  1.00 20.00     0.083 C 
HETATM    2  C3  UNL     1     -33.560   5.771   3.569  1.00 20.00     0.261 C 
HETATM    3  N5  UNL     1     -33.817   3.246   4.262  1.00 20.00    -0.196 NA
ENDROOT
BRANCH   2   4
HETATM    4  C4  UNL     1     -34.818   6.560   3.894  1.00 20.00     0.412 C 
HETATM    5  F6  UNL     1     -35.525   6.841   2.775  1.00 20.00    -0.169 F 
HETATM    6  F7  UNL     1     -35.635   5.849   4.706  1.00 20.00    -0.169 F 
HETATM    7  F8  UNL     1     -34.545   7.728   4.513  1.00 20.00    -0.169 F 
ENDBRANCH   2   4
BRANCH   2   8
HETATM    8  S9  UNL     1     -33.174   5.920   1.791  1.00 20.00    -0.145 SA
HETATM    9  C2  UNL     1     -32.246   7.467   1.863  1.00 20.00     0.091 C 
ENDBRANCH   2   8
TORSDOF 2
ENDMDL
MODEL 5
REMARK VINA RESULT:      -2.0      0.023      1.259
REMARK  2 active torsions:
REMARK  status: ('A' for Active; 'I' for Inactive)
REMARK    1  A    between atoms: C3_3  and  C4_4 
REMARK    2  A    between atoms: C3_3  and  S9_9 
ROOT
HETATM    1  C1  UNL     1     -33.691   4.348   3.961  1.00 20.00     0.083 C 
HETATM    2  C3  UNL     1     -33.545   5.757   3.572  1.00 20.00     0.261 C 
HETATM    3  N5  UNL     1     -33.801   3.233   4.267  1.00 20.00    -0.196 NA
ENDROOT
BRANCH   2   4
HETATM    4  C4  UNL     1     -34.803   6.545   3.896  1.00 20.00     0.412 C 
HETATM    5  F6  UNL     1     -34.507   7.720   4.499  1.00 20.00    -0.169 F 
HETATM    6  F7  UNL     1     -35.486   6.845   2.766  1.00 20.00    -0.169 F 
HETATM    7  F8  UNL     1     -35.640   5.865   4.708  1.00 20.00    -0.169 F 
ENDBRANCH   2   4
BRANCH   2   8
HETATM    8  S9  UNL     1     -33.158   5.904   1.794  1.00 20.00    -0.145 SA
HETATM    9  C2  UNL     1     -32.258   7.468   1.860  1.00 20.00     0.091 C 
ENDBRANCH   2   8
TORSDOF 2
ENDMDL
MODEL 6
REMARK VINA RESULT:      -1.7      3.113      3.787
REMARK  2 active torsions:
REMARK  status: ('A' for Active; 'I' for Inactive)
REMARK    1  A    between atoms: C3_3  and  C4_4 
REMARK    2  A    between atoms: C3_3  and  S9_9 
ROOT
HETATM    1  C1  UNL     1     -32.872   5.960   1.763  1.00 20.00     0.083 C 
HETATM    2  C3  UNL     1     -33.214   7.334   2.154  1.00 20.00     0.261 C 
HETATM    3  N5  UNL     1     -32.606   4.872   1.456  1.00 20.00    -0.196 NA
ENDROOT
BRANCH   2   4
HETATM    4  C4  UNL     1     -32.048   8.277   1.911  1.00 20.00     0.412 C 
HETATM    5  F6  UNL     1     -31.446   8.626   3.072  1.00 20.00    -0.169 F 
HETATM    6  F7  UNL     1     -31.104   7.685   1.141  1.00 20.00    -0.169 F 
HETATM    7  F8  UNL     1     -32.428   9.413   1.286  1.00 20.00    -0.169 F 
ENDBRANCH   2   4
BRANCH   2   8
HETATM    8  S9  UNL     1     -33.718   7.406   3.908  1.00 20.00    -0.145 SA
HETATM    9  C2  UNL     1     -35.132   6.289   3.810  1.00 20.00     0.091 C 
ENDBRANCH   2   8
TORSDOF 2
ENDMDL
MODEL 7
REMARK VINA RESULT:      -1.5      3.484      4.147
REMARK  2 active torsions:
REMARK  status: ('A' for Active; 'I' for Inactive)
REMARK    1  A    between atoms: C3_3  and  C4_4 
REMARK    2  A    between atoms: C3_3  and  S9_9 
ROOT
HETATM    1  C1  UNL     1     -32.363   8.240   1.560  1.00 20.00     0.083 C 
HETATM    2  C3  UNL     1     -32.576   7.107   2.472  1.00 20.00     0.261 C 
HETATM    3  N5  UNL     1     -32.194   9.138   0.845  1.00 20.00    -0.196 NA
ENDROOT
BRANCH   2   4
HETATM    4  C4  UNL     1     -32.708   5.804   1.701  1.00 20.00     0.412 C 
HETATM    5  F6  UNL     1     -31.504   5.370   1.259  1.00 20.00    -0.169 F 
HETATM    6  F7  UNL     1     -33.211   4.827   2.491  1.00 20.00    -0.169 F 
HETATM    7  F8  UNL     1     -33.522   5.922   0.630  1.00 20.00    -0.169 F 
ENDBRANCH   2   4
BRANCH   2   8
HETATM    8  S9  UNL     1     -34.059   7.373   3.503  1.00 20.00    -0.145 SA
HETATM    9  C2  UNL     1     -33.249   8.161   4.911  1.00 20.00     0.091 C 
ENDBRANCH   2   8
TORSDOF 2
ENDMDL
MODEL 8
REMARK VINA RESULT:      -1.0      2.183      2.553
REMARK  2 active torsions:
REMARK  status: ('A' for Active; 'I' for Inactive)
REMARK    1  A    between atoms: C3_3  and  C4_4 
REMARK    2  A    between atoms: C3_3  and  S9_9 
ROOT
HETATM    1  C1  UNL     1     -33.371   7.930   4.366  1.00 20.00     0.083 C 
HETATM    2  C3  UNL     1     -34.135   7.253   3.309  1.00 20.00     0.261 C 
HETATM    3  N5  UNL     1     -32.764   8.469   5.197  1.00 20.00    -0.196 NA
ENDROOT
BRANCH   2   4
HETATM    4  C4  UNL     1     -35.135   6.275   3.901  1.00 20.00     0.412 C 
HETATM    5  F6  UNL     1     -35.414   6.575   5.191  1.00 20.00    -0.169 F 
HETATM    6  F7  UNL     1     -36.308   6.318   3.225  1.00 20.00    -0.169 F 
HETATM    7  F8  UNL     1     -34.691   5.000   3.862  1.00 20.00    -0.169 F 
ENDBRANCH   2   4
BRANCH   2   8
HETATM    8  S9  UNL     1     -33.019   6.381   2.156  1.00 20.00    -0.145 SA
HETATM    9  C2  UNL     1     -31.963   7.780   1.722  1.00 20.00     0.091 C 
ENDBRANCH   2   8
TORSDOF 2
ENDMDL
MODEL 9
REMARK VINA RESULT:      -0.8      1.858      1.902
REMARK  2 active torsions:
REMARK  status: ('A' for Active; 'I' for Inactive)
REMARK    1  A    between atoms: C3_3  and  C4_4 
REMARK    2  A    between atoms: C3_3  and  S9_9 
ROOT
HETATM    1  C1  UNL     1     -33.321   5.808   1.904  1.00 20.00     0.083 C 
HETATM    2  C3  UNL     1     -33.368   6.440   3.230  1.00 20.00     0.261 C 
HETATM    3  N5  UNL     1     -33.278   5.310   0.856  1.00 20.00    -0.196 NA
ENDROOT
BRANCH   2   4
HETATM    4  C4  UNL     1     -34.765   6.360   3.823  1.00 20.00     0.412 C 
HETATM    5  F6  UNL     1     -35.034   5.115   4.282  1.00 20.00    -0.169 F 
HETATM    6  F7  UNL     1     -34.889   7.202   4.875  1.00 20.00    -0.169 F 
HETATM    7  F8  UNL     1     -35.721   6.685   2.927  1.00 20.00    -0.169 F 
ENDBRANCH   2   4
BRANCH   2   8
HETATM    8  S9  UNL     1     -32.828   8.182   3.140  1.00 20.00    -0.145 SA
HETATM    9  C2  UNL     1     -31.802   8.052   1.660  1.00 20.00     0.091 C 
ENDBRANCH   2   8
TORSDOF 2
ENDMDL
