MODEL 1
REMARK VINA RESULT:      -0.6      0.000      0.000
REMARK  3 active torsions:
REMARK  status: ('A' for Active; 'I' for Inactive)
REMARK    1  A    between atoms: C7_7  and  C9_9 
REMARK    2  A    between atoms: C9_9  and  N10_10 
REMARK    3  A    between atoms: N10_10  and  O11_11 
ROOT
HETATM    1  C1  UNL     1     -31.397   7.254   1.749  1.00 20.00     0.005 C 
HETATM    2  C2  UNL     1     -31.806   5.780   1.613  1.00 20.00     0.005 C 
HETATM    3  C3  UNL     1     -33.705   7.135   1.179  1.00 20.00     0.010 C 
HETATM    4  C4  UNL     1     -33.202   7.629   3.451  1.00 20.00     0.011 C 
HETATM    5  C5  UNL     1     -32.735   7.962   2.022  1.00 20.00    -0.014 C 
HETATM    6  C6  UNL     1     -33.325   5.820   1.863  1.00 20.00    -0.009 C 
HETATM    7  C7  UNL     1     -33.563   6.131   3.361  1.00 20.00     0.005 C 
ENDROOT
BRANCH   7   8
HETATM    8  C9  UNL     1     -34.995   5.853   3.802  1.00 20.00     0.122 C 
BRANCH   8   9
HETATM    9  N10 UNL     1     -35.042   4.661   4.579  1.00 20.00    -0.206 NA
HETATM   10  H28 UNL     1     -34.566   4.786   5.484  1.00 20.00     0.153 HD
BRANCH   9  11
HETATM   11  O11 UNL     1     -34.122   3.722   3.934  1.00 20.00    -0.311 OA
HETATM   12  C8  UNL     1     -33.331   3.107   4.942  1.00 20.00     0.229 C 
ENDBRANCH   9  11
ENDBRANCH   8   9
ENDBRANCH   7   8
TORSDOF 3
ENDMDL
MODEL 2
REMARK VINA RESULT:      -0.4      1.349      2.239
REMARK  3 active torsions:
REMARK  status: ('A' for Active; 'I' for Inactive)
REMARK    1  A    between atoms: C7_7  and  C9_9 
REMARK    2  A    between atoms: C9_9  and  N10_10 
REMARK    3  A    between atoms: N10_10  and  O11_11 
ROOT
HETATM    1  C1  UNL     1     -31.930   8.491   0.392  1.00 20.00     0.005 C 
HETATM    2  C2  UNL     1     -32.794   9.374   1.305  1.00 20.00     0.005 C 
HETATM    3  C3  UNL     1     -31.337   8.081   2.660  1.00 20.00     0.010 C 
HETATM    4  C4  UNL     1     -32.692   6.434   1.608  1.00 20.00     0.011 C 
HETATM    5  C5  UNL     1     -31.489   7.352   1.326  1.00 20.00    -0.014 C 
HETATM    6  C6  UNL     1     -32.773   8.609   2.642  1.00 20.00    -0.009 C 
HETATM    7  C7  UNL     1     -33.611   7.319   2.477  1.00 20.00     0.005 C 
ENDROOT
BRANCH   7   8
HETATM    8  C9  UNL     1     -33.955   6.663   3.809  1.00 20.00     0.122 C 
BRANCH   8   9
HETATM    9  N10 UNL     1     -35.301   6.197   3.787  1.00 20.00    -0.206 NA
HETATM   10  H28 UNL     1     -35.903   6.764   4.402  1.00 20.00     0.153 HD
BRANCH   9  11
HETATM   11  O11 UNL     1     -35.303   4.932   4.525  1.00 20.00    -0.311 OA
HETATM   12  C8  UNL     1     -34.134   4.207   4.172  1.00 20.00     0.229 C 
ENDBRANCH   9  11
ENDBRANCH   8   9
ENDBRANCH   7   8
TORSDOF 3
ENDMDL
MODEL 3
REMARK VINA RESULT:       0.0      2.979      4.584
REMARK  3 active torsions:
REMARK  status: ('A' for Active; 'I' for Inactive)
REMARK    1  A    between atoms: C7_7  and  C9_9 
REMARK    2  A    between atoms: C9_9  and  N10_10 
REMARK    3  A    between atoms: N10_10  and  O11_11 
ROOT
HETATM    1  C1  UNL     1     -35.448   6.154   4.111  1.00 20.00     0.005 C 
HETATM    2  C2  UNL     1     -34.432   5.056   3.764  1.00 20.00     0.005 C 
HETATM    3  C3  UNL     1     -33.252   6.962   4.542  1.00 20.00     0.010 C 
HETATM    4  C4  UNL     1     -34.297   7.752   2.556  1.00 20.00     0.011 C 
HETATM    5  C5  UNL     1     -34.610   7.441   4.032  1.00 20.00    -0.014 C 
HETATM    6  C6  UNL     1     -33.143   5.854   3.492  1.00 20.00    -0.009 C 
HETATM    7  C7  UNL     1     -33.321   6.624   2.160  1.00 20.00     0.005 C 
ENDROOT
BRANCH   7   8
HETATM    8  C9  UNL     1     -32.006   7.163   1.609  1.00 20.00     0.122 C 
BRANCH   8   9
HETATM    9  N10 UNL     1     -32.009   8.587   1.653  1.00 20.00    -0.206 NA
HETATM   10  H28 UNL     1     -32.953   8.953   1.847  1.00 20.00     0.153 HD
BRANCH   9  11
HETATM   11  O11 UNL     1     -31.841   9.034   0.269  1.00 20.00    -0.311 OA
HETATM   12  C8  UNL     1     -32.618  10.209   0.081  1.00 20.00     0.229 C 
ENDBRANCH   9  11
ENDBRANCH   8   9
ENDBRANCH   7   8
TORSDOF 3
ENDMDL
MODEL 4
REMARK VINA RESULT:       0.6      3.284      4.731
REMARK  3 active torsions:
REMARK  status: ('A' for Active; 'I' for Inactive)
REMARK    1  A    between atoms: C7_7  and  C9_9 
REMARK    2  A    between atoms: C9_9  and  N10_10 
REMARK    3  A    between atoms: N10_10  and  O11_11 
ROOT
HETATM    1  C1  UNL     1     -33.429   5.058   3.026  1.00 20.00     0.005 C 
HETATM    2  C2  UNL     1     -34.001   6.322   3.685  1.00 20.00     0.005 C 
HETATM    3  C3  UNL     1     -34.106   6.584   1.329  1.00 20.00     0.010 C 
HETATM    4  C4  UNL     1     -31.769   6.439   1.749  1.00 20.00     0.011 C 
HETATM    5  C5  UNL     1     -33.021   5.551   1.627  1.00 20.00    -0.014 C 
HETATM    6  C6  UNL     1     -33.814   7.394   2.595  1.00 20.00    -0.009 C 
HETATM    7  C7  UNL     1     -32.301   7.698   2.466  1.00 20.00     0.005 C 
ENDROOT
BRANCH   7   8
HETATM    8  C9  UNL     1     -32.019   8.974   1.682  1.00 20.00     0.122 C 
BRANCH   8   9
HETATM    9  N10 UNL     1     -31.704   8.653   0.331  1.00 20.00    -0.206 NA
HETATM   10  H28 UNL     1     -30.747   8.951   0.089  1.00 20.00     0.153 HD
BRANCH   9  11
HETATM   11  O11 UNL     1     -32.477   9.582  -0.496  1.00 20.00    -0.311 OA
HETATM   12  C8  UNL     1     -32.766  10.737   0.279  1.00 20.00     0.229 C 
ENDBRANCH   9  11
ENDBRANCH   8   9
ENDBRANCH   7   8
TORSDOF 3
ENDMDL
MODEL 5
REMARK VINA RESULT:       0.7      3.076      4.721
REMARK  3 active torsions:
REMARK  status: ('A' for Active; 'I' for Inactive)
REMARK    1  A    between atoms: C7_7  and  C9_9 
REMARK    2  A    between atoms: C9_9  and  N10_10 
REMARK    3  A    between atoms: N10_10  and  O11_11 
ROOT
HETATM    1  C1  UNL     1     -34.729   6.450   4.931  1.00 20.00     0.005 C 
HETATM    2  C2  UNL     1     -33.877   7.727   4.916  1.00 20.00     0.005 C 
HETATM    3  C3  UNL     1     -35.048   7.573   2.858  1.00 20.00     0.010 C 
HETATM    4  C4  UNL     1     -33.637   5.659   2.816  1.00 20.00     0.011 C 
HETATM    5  C5  UNL     1     -34.952   6.163   3.437  1.00 20.00    -0.014 C 
HETATM    6  C6  UNL     1     -33.684   7.994   3.411  1.00 20.00    -0.009 C 
HETATM    7  C7  UNL     1     -32.735   6.911   2.844  1.00 20.00     0.005 C 
ENDROOT
BRANCH   7   8
HETATM    8  C9  UNL     1     -32.193   7.264   1.464  1.00 20.00     0.122 C 
BRANCH   8   9
HETATM    9  N10 UNL     1     -31.829   8.641   1.423  1.00 20.00    -0.206 NA
HETATM   10  H28 UNL     1     -32.425   9.204   2.046  1.00 20.00     0.153 HD
BRANCH   9  11
HETATM   11  O11 UNL     1     -32.278   9.139   0.121  1.00 20.00    -0.311 OA
HETATM   12  C8  UNL     1     -32.615  10.512   0.260  1.00 20.00     0.229 C 
ENDBRANCH   9  11
ENDBRANCH   8   9
ENDBRANCH   7   8
TORSDOF 3
ENDMDL
MODEL 6
REMARK VINA RESULT:       1.6      2.363      3.606
REMARK  3 active torsions:
REMARK  status: ('A' for Active; 'I' for Inactive)
REMARK    1  A    between atoms: C7_7  and  C9_9 
REMARK    2  A    between atoms: C9_9  and  N10_10 
REMARK    3  A    between atoms: N10_10  and  O11_11 
ROOT
HETATM    1  C1  UNL     1     -32.969  10.440  -0.378  1.00 20.00     0.005 C 
HETATM    2  C2  UNL     1     -32.674  10.580   1.123  1.00 20.00     0.005 C 
HETATM    3  C3  UNL     1     -31.056   9.133   0.166  1.00 20.00     0.010 C 
HETATM    4  C4  UNL     1     -33.092   7.945  -0.152  1.00 20.00     0.011 C 
HETATM    5  C5  UNL     1     -32.283   9.114  -0.744  1.00 20.00    -0.014 C 
HETATM    6  C6  UNL     1     -31.887   9.295   1.440  1.00 20.00    -0.009 C 
HETATM    7  C7  UNL     1     -32.864   8.096   1.367  1.00 20.00     0.005 C 
ENDROOT
BRANCH   7   8
HETATM    8  C9  UNL     1     -32.295   6.830   1.996  1.00 20.00     0.122 C 
BRANCH   8   9
HETATM    9  N10 UNL     1     -33.348   6.046   2.548  1.00 20.00    -0.206 NA
HETATM   10  H28 UNL     1     -34.127   5.945   1.882  1.00 20.00     0.153 HD
BRANCH   9  11
HETATM   11  O11 UNL     1     -33.987   6.886   3.564  1.00 20.00    -0.311 OA
HETATM   12  C8  UNL     1     -35.192   6.254   3.973  1.00 20.00     0.229 C 
ENDBRANCH   9  11
ENDBRANCH   8   9
ENDBRANCH   7   8
TORSDOF 3
ENDMDL
MODEL 7
REMARK VINA RESULT:       1.9      1.201      2.217
REMARK  3 active torsions:
REMARK  status: ('A' for Active; 'I' for Inactive)
REMARK    1  A    between atoms: C7_7  and  C9_9 
REMARK    2  A    between atoms: C9_9  and  N10_10 
REMARK    3  A    between atoms: N10_10  and  O11_11 
ROOT
HETATM    1  C1  UNL     1     -33.321   8.591   2.192  1.00 20.00     0.005 C 
HETATM    2  C2  UNL     1     -34.495   8.732   3.172  1.00 20.00     0.005 C 
HETATM    3  C3  UNL     1     -32.741   7.558   4.256  1.00 20.00     0.010 C 
HETATM    4  C4  UNL     1     -33.345   6.098   2.478  1.00 20.00     0.011 C 
HETATM    5  C5  UNL     1     -32.546   7.386   2.751  1.00 20.00    -0.014 C 
HETATM    6  C6  UNL     1     -34.268   7.566   4.152  1.00 20.00    -0.009 C 
HETATM    7  C7  UNL     1     -34.568   6.242   3.408  1.00 20.00     0.005 C 
ENDROOT
BRANCH   7   8
HETATM    8  C9  UNL     1     -34.719   5.054   4.352  1.00 20.00     0.122 C 
BRANCH   8   9
HETATM    9  N10 UNL     1     -34.247   3.869   3.720  1.00 20.00    -0.206 NA
HETATM   10  H28 UNL     1     -34.729   3.034   4.084  1.00 20.00     0.153 HD
BRANCH   9  11
HETATM   11  O11 UNL     1     -32.901   3.638   4.249  1.00 20.00    -0.311 OA
HETATM   12  C8  UNL     1     -32.986   2.667   5.282  1.00 20.00     0.229 C 
ENDBRANCH   9  11
ENDBRANCH   8   9
ENDBRANCH   7   8
TORSDOF 3
ENDMDL
