MODEL 1
REMARK VINA RESULT:      -0.1      0.000      0.000
REMARK  4 active torsions:
REMARK  status: ('A' for Active; 'I' for Inactive)
REMARK    1  A    between atoms: C6_6  and  C7_7 
REMARK    2  A    between atoms: C6_6  and  O10_10 
REMARK    3  A    between atoms: C7_7  and  C8_8 
REMARK    4  A    between atoms: C7_7  and  O9_9 
ROOT
HETATM    1  C7  UNL     1     -33.202   6.284   3.279  1.00 20.00     0.154 C 
ENDROOT
BRANCH   1   2
HETATM    2  C6  UNL     1     -34.506   5.487   3.496  1.00 20.00     0.146 C 
HETATM    3  C1  UNL     1     -35.685   6.376   3.885  1.00 20.00     0.042 C 
BRANCH   2   4
HETATM    4  O10 UNL     1     -34.347   4.508   4.517  1.00 20.00    -0.388 OA
HETATM    5  C5  UNL     1     -33.520   3.436   4.086  1.00 20.00     0.202 C 
ENDBRANCH   2   4
ENDBRANCH   1   2
BRANCH   1   6
HETATM    6  C8  UNL     1     -32.648   6.344   1.816  1.00 20.00    -0.023 C 
HETATM    7  C2  UNL     1     -33.832   6.169   0.836  1.00 20.00     0.017 C 
HETATM    8  C3  UNL     1     -31.993   7.708   1.533  1.00 20.00     0.017 C 
HETATM    9  C4  UNL     1     -31.629   5.230   1.511  1.00 20.00     0.017 C 
ENDBRANCH   1   6
BRANCH   1  10
HETATM   10  O9  UNL     1     -33.380   7.620   3.757  1.00 20.00    -0.392 OA
HETATM   11  H28 UNL     1     -32.790   7.717   4.517  1.00 20.00     0.210 HD
ENDBRANCH   1  10
TORSDOF 4
ENDMDL
MODEL 2
REMARK VINA RESULT:      -0.1      1.484      3.916
REMARK  4 active torsions:
REMARK  status: ('A' for Active; 'I' for Inactive)
REMARK    1  A    between atoms: C6_6  and  C7_7 
REMARK    2  A    between atoms: C6_6  and  O10_10 
REMARK    3  A    between atoms: C7_7  and  C8_8 
REMARK    4  A    between atoms: C7_7  and  O9_9 
ROOT
HETATM    1  C7  UNL     1     -33.295   5.803   3.142  1.00 20.00     0.154 C 
ENDROOT
BRANCH   1   2
HETATM    2  C6  UNL     1     -32.886   6.254   1.724  1.00 20.00     0.146 C 
HETATM    3  C1  UNL     1     -32.441   5.092   0.839  1.00 20.00     0.042 C 
BRANCH   2   4
HETATM    4  O10 UNL     1     -31.820   7.196   1.770  1.00 20.00    -0.388 OA
HETATM    5  C5  UNL     1     -32.261   8.498   1.415  1.00 20.00     0.202 C 
ENDBRANCH   2   4
ENDBRANCH   1   2
BRANCH   1   6
HETATM    6  C8  UNL     1     -34.538   6.512   3.777  1.00 20.00    -0.023 C 
HETATM    7  C2  UNL     1     -35.301   5.482   4.642  1.00 20.00     0.017 C 
HETATM    8  C3  UNL     1     -34.101   7.670   4.692  1.00 20.00     0.017 C 
HETATM    9  C4  UNL     1     -35.525   7.054   2.726  1.00 20.00     0.017 C 
ENDBRANCH   1   6
BRANCH   1  10
HETATM   10  O9  UNL     1     -33.523   4.391   3.141  1.00 20.00    -0.392 OA
HETATM   11  H28 UNL     1     -34.009   4.195   2.328  1.00 20.00     0.210 HD
ENDBRANCH   1  10
TORSDOF 4
ENDMDL
MODEL 3
REMARK VINA RESULT:       0.4      1.122      2.005
REMARK  4 active torsions:
REMARK  status: ('A' for Active; 'I' for Inactive)
REMARK    1  A    between atoms: C6_6  and  C7_7 
REMARK    2  A    between atoms: C6_6  and  O10_10 
REMARK    3  A    between atoms: C7_7  and  C8_8 
REMARK    4  A    between atoms: C7_7  and  O9_9 
ROOT
HETATM    1  C7  UNL     1     -33.191   7.265   3.377  1.00 20.00     0.154 C 
ENDROOT
BRANCH   1   2
HETATM    2  C6  UNL     1     -34.135   6.067   3.144  1.00 20.00     0.146 C 
HETATM    3  C1  UNL     1     -35.373   6.106   4.037  1.00 20.00     0.042 C 
BRANCH   2   4
HETATM    4  O10 UNL     1     -33.469   4.831   3.383  1.00 20.00    -0.388 OA
HETATM    5  C5  UNL     1     -34.128   4.071   4.385  1.00 20.00     0.202 C 
ENDBRANCH   2   4
ENDBRANCH   1   2
BRANCH   1   6
HETATM    6  C8  UNL     1     -32.320   7.723   2.160  1.00 20.00    -0.023 C 
HETATM    7  C2  UNL     1     -30.992   8.305   2.699  1.00 20.00     0.017 C 
HETATM    8  C3  UNL     1     -31.981   6.530   1.248  1.00 20.00     0.017 C 
HETATM    9  C4  UNL     1     -32.994   8.820   1.314  1.00 20.00     0.017 C 
ENDBRANCH   1   6
BRANCH   1  10
HETATM   10  O9  UNL     1     -33.954   8.383   3.842  1.00 20.00    -0.392 OA
HETATM   11  H28 UNL     1     -34.280   8.836   3.052  1.00 20.00     0.210 HD
ENDBRANCH   1  10
TORSDOF 4
ENDMDL
MODEL 4
REMARK VINA RESULT:       0.5      1.587      2.679
REMARK  4 active torsions:
REMARK  status: ('A' for Active; 'I' for Inactive)
REMARK    1  A    between atoms: C6_6  and  C7_7 
REMARK    2  A    between atoms: C6_6  and  O10_10 
REMARK    3  A    between atoms: C7_7  and  C8_8 
REMARK    4  A    between atoms: C7_7  and  O9_9 
ROOT
HETATM    1  C7  UNL     1     -33.288   6.784   1.972  1.00 20.00     0.154 C 
ENDROOT
BRANCH   1   2
HETATM    2  C6  UNL     1     -33.653   6.285   3.386  1.00 20.00     0.146 C 
HETATM    3  C1  UNL     1     -33.588   4.764   3.512  1.00 20.00     0.042 C 
BRANCH   2   4
HETATM    4  O10 UNL     1     -34.967   6.693   3.754  1.00 20.00    -0.388 OA
HETATM    5  C5  UNL     1     -35.667   5.653   4.420  1.00 20.00     0.202 C 
ENDBRANCH   2   4
ENDBRANCH   1   2
BRANCH   1   6
HETATM    6  C8  UNL     1     -32.239   7.942   1.883  1.00 20.00    -0.023 C 
HETATM    7  C2  UNL     1     -32.049   8.542   3.296  1.00 20.00     0.017 C 
HETATM    8  C3  UNL     1     -30.876   7.412   1.405  1.00 20.00     0.017 C 
HETATM    9  C4  UNL     1     -32.682   9.087   0.952  1.00 20.00     0.017 C 
ENDBRANCH   1   6
BRANCH   1  10
HETATM   10  O9  UNL     1     -32.822   5.681   1.188  1.00 20.00    -0.392 OA
HETATM   11  H28 UNL     1     -33.606   5.163   0.957  1.00 20.00     0.210 HD
ENDBRANCH   1  10
TORSDOF 4
ENDMDL
MODEL 5
REMARK VINA RESULT:       0.6      1.580      2.585
REMARK  4 active torsions:
REMARK  status: ('A' for Active; 'I' for Inactive)
REMARK    1  A    between atoms: C6_6  and  C7_7 
REMARK    2  A    between atoms: C6_6  and  O10_10 
REMARK    3  A    between atoms: C7_7  and  C8_8 
REMARK    4  A    between atoms: C7_7  and  O9_9 
ROOT
HETATM    1  C7  UNL     1     -33.266   6.769   1.987  1.00 20.00     0.154 C 
ENDROOT
BRANCH   1   2
HETATM    2  C6  UNL     1     -33.654   6.261   3.392  1.00 20.00     0.146 C 
HETATM    3  C1  UNL     1     -33.634   4.737   3.496  1.00 20.00     0.042 C 
BRANCH   2   4
HETATM    4  O10 UNL     1     -34.957   6.703   3.758  1.00 20.00    -0.388 OA
HETATM    5  C5  UNL     1     -35.682   5.682   4.428  1.00 20.00     0.202 C 
ENDBRANCH   2   4
ENDBRANCH   1   2
BRANCH   1   6
HETATM    6  C8  UNL     1     -32.229   7.939   1.922  1.00 20.00    -0.023 C 
HETATM    7  C2  UNL     1     -30.887   7.377   1.395  1.00 20.00     0.017 C 
HETATM    8  C3  UNL     1     -32.699   9.035   0.949  1.00 20.00     0.017 C 
HETATM    9  C4  UNL     1     -31.952   8.578   3.296  1.00 20.00     0.017 C 
ENDBRANCH   1   6
BRANCH   1  10
HETATM   10  O9  UNL     1     -32.772   5.674   1.209  1.00 20.00    -0.392 OA
HETATM   11  H28 UNL     1     -32.922   5.911   0.283  1.00 20.00     0.210 HD
ENDBRANCH   1  10
TORSDOF 4
ENDMDL
MODEL 6
REMARK VINA RESULT:       0.7      1.590      2.413
REMARK  4 active torsions:
REMARK  status: ('A' for Active; 'I' for Inactive)
REMARK    1  A    between atoms: C6_6  and  C7_7 
REMARK    2  A    between atoms: C6_6  and  O10_10 
REMARK    3  A    between atoms: C7_7  and  C8_8 
REMARK    4  A    between atoms: C7_7  and  O9_9 
ROOT
HETATM    1  C7  UNL     1     -33.262   6.777   1.985  1.00 20.00     0.154 C 
ENDROOT
BRANCH   1   2
HETATM    2  C6  UNL     1     -33.658   6.262   3.384  1.00 20.00     0.146 C 
HETATM    3  C1  UNL     1     -33.610   4.739   3.489  1.00 20.00     0.042 C 
BRANCH   2   4
HETATM    4  O10 UNL     1     -34.974   6.679   3.734  1.00 20.00    -0.388 OA
HETATM    5  C5  UNL     1     -35.675   5.658   4.429  1.00 20.00     0.202 C 
ENDBRANCH   2   4
ENDBRANCH   1   2
BRANCH   1   6
HETATM    6  C8  UNL     1     -32.208   7.933   1.931  1.00 20.00    -0.023 C 
HETATM    7  C2  UNL     1     -32.729   9.029   0.972  1.00 20.00     0.017 C 
HETATM    8  C3  UNL     1     -32.019   8.568   3.320  1.00 20.00     0.017 C 
HETATM    9  C4  UNL     1     -30.835   7.474   1.403  1.00 20.00     0.017 C 
ENDBRANCH   1   6
BRANCH   1  10
HETATM   10  O9  UNL     1     -32.784   5.683   1.196  1.00 20.00    -0.392 OA
HETATM   11  H28 UNL     1     -33.532   5.080   1.089  1.00 20.00     0.210 HD
ENDBRANCH   1  10
TORSDOF 4
ENDMDL
MODEL 7
REMARK VINA RESULT:       0.8      1.655      4.015
REMARK  4 active torsions:
REMARK  status: ('A' for Active; 'I' for Inactive)
REMARK    1  A    between atoms: C6_6  and  C7_7 
REMARK    2  A    between atoms: C6_6  and  O10_10 
REMARK    3  A    between atoms: C7_7  and  C8_8 
REMARK    4  A    between atoms: C7_7  and  O9_9 
ROOT
HETATM    1  C7  UNL     1     -33.199   7.310   1.996  1.00 20.00     0.154 C 
ENDROOT
BRANCH   1   2
HETATM    2  C6  UNL     1     -32.044   8.256   1.608  1.00 20.00     0.146 C 
HETATM    3  C1  UNL     1     -31.102   8.548   2.774  1.00 20.00     0.042 C 
BRANCH   2   4
HETATM    4  O10 UNL     1     -32.538   9.503   1.128  1.00 20.00    -0.388 OA
HETATM    5  C5  UNL     1     -32.428   9.596  -0.284  1.00 20.00     0.202 C 
ENDBRANCH   2   4
ENDBRANCH   1   2
BRANCH   1   6
HETATM    6  C8  UNL     1     -32.989   5.786   1.709  1.00 20.00    -0.023 C 
HETATM    7  C2  UNL     1     -33.534   4.980   2.911  1.00 20.00     0.017 C 
HETATM    8  C3  UNL     1     -33.767   5.352   0.454  1.00 20.00     0.017 C 
HETATM    9  C4  UNL     1     -31.507   5.404   1.532  1.00 20.00     0.017 C 
ENDBRANCH   1   6
BRANCH   1  10
HETATM   10  O9  UNL     1     -33.501   7.478   3.385  1.00 20.00    -0.392 OA
HETATM   11  H28 UNL     1     -33.169   6.687   3.831  1.00 20.00     0.210 HD
ENDBRANCH   1  10
TORSDOF 4
ENDMDL
MODEL 8
REMARK VINA RESULT:       0.8      1.689      4.079
REMARK  4 active torsions:
REMARK  status: ('A' for Active; 'I' for Inactive)
REMARK    1  A    between atoms: C6_6  and  C7_7 
REMARK    2  A    between atoms: C6_6  and  O10_10 
REMARK    3  A    between atoms: C7_7  and  C8_8 
REMARK    4  A    between atoms: C7_7  and  O9_9 
ROOT
HETATM    1  C7  UNL     1     -33.052   7.235   1.911  1.00 20.00     0.154 C 
ENDROOT
BRANCH   1   2
HETATM    2  C6  UNL     1     -31.714   7.981   1.730  1.00 20.00     0.146 C 
HETATM    3  C1  UNL     1     -31.400   8.925   2.889  1.00 20.00     0.042 C 
BRANCH   2   4
HETATM    4  O10 UNL     1     -31.711   8.751   0.532  1.00 20.00    -0.388 OA
HETATM    5  C5  UNL     1     -32.568   9.878   0.636  1.00 20.00     0.202 C 
ENDBRANCH   2   4
ENDBRANCH   1   2
BRANCH   1   6
HETATM    6  C8  UNL     1     -33.033   5.687   1.683  1.00 20.00    -0.023 C 
HETATM    7  C2  UNL     1     -31.564   5.235   1.508  1.00 20.00     0.017 C 
HETATM    8  C3  UNL     1     -33.616   4.946   2.900  1.00 20.00     0.017 C 
HETATM    9  C4  UNL     1     -33.801   5.253   0.421  1.00 20.00     0.017 C 
ENDBRANCH   1   6
BRANCH   1  10
HETATM   10  O9  UNL     1     -33.566   7.500   3.220  1.00 20.00    -0.392 OA
HETATM   11  H28 UNL     1     -33.010   8.197   3.594  1.00 20.00     0.210 HD
ENDBRANCH   1  10
TORSDOF 4
ENDMDL
MODEL 9
REMARK VINA RESULT:       1.2      1.856      3.593
REMARK  4 active torsions:
REMARK  status: ('A' for Active; 'I' for Inactive)
REMARK    1  A    between atoms: C6_6  and  C7_7 
REMARK    2  A    between atoms: C6_6  and  O10_10 
REMARK    3  A    between atoms: C7_7  and  C8_8 
REMARK    4  A    between atoms: C7_7  and  O9_9 
ROOT
HETATM    1  C7  UNL     1     -33.559   6.814   2.199  1.00 20.00     0.154 C 
ENDROOT
BRANCH   1   2
HETATM    2  C6  UNL     1     -33.091   5.548   1.451  1.00 20.00     0.146 C 
HETATM    3  C1  UNL     1     -31.579   5.511   1.240  1.00 20.00     0.042 C 
BRANCH   2   4
HETATM    4  O10 UNL     1     -33.709   5.447   0.172  1.00 20.00    -0.388 OA
HETATM    5  C5  UNL     1     -33.636   4.123  -0.338  1.00 20.00     0.202 C 
ENDBRANCH   2   4
ENDBRANCH   1   2
BRANCH   1   6
HETATM    6  C8  UNL     1     -34.323   6.594   3.547  1.00 20.00    -0.023 C 
HETATM    7  C2  UNL     1     -34.014   5.166   4.058  1.00 20.00     0.017 C 
HETATM    8  C3  UNL     1     -33.848   7.594   4.616  1.00 20.00     0.017 C 
HETATM    9  C4  UNL     1     -35.852   6.710   3.401  1.00 20.00     0.017 C 
ENDBRANCH   1   6
BRANCH   1  10
HETATM   10  O9  UNL     1     -32.433   7.662   2.442  1.00 20.00    -0.392 OA
HETATM   11  H28 UNL     1     -31.672   7.076   2.551  1.00 20.00     0.210 HD
ENDBRANCH   1  10
TORSDOF 4
ENDMDL
