MODEL 1
REMARK VINA RESULT:      -0.2      0.000      0.000
REMARK  3 active torsions:
REMARK  status: ('A' for Active; 'I' for Inactive)
REMARK    1  A    between atoms: C1_1  and  C10_10 
REMARK    2  A    between atoms: C8_8  and  C11_11 
REMARK    3  A    between atoms: C10_10  and  C11_11 
ROOT
HETATM    1  C2  UNL     1     -31.655   8.787   0.321  1.00 20.00     0.005 C 
HETATM    2  C3  UNL     1     -32.742   9.494   1.142  1.00 20.00     0.005 C 
HETATM    3  C4  UNL     1     -31.334   8.298   2.628  1.00 20.00     0.009 C 
HETATM    4  C5  UNL     1     -32.306   6.575   1.309  1.00 20.00     0.009 C 
HETATM    5  C6  UNL     1     -31.204   7.649   1.253  1.00 20.00    -0.014 C 
HETATM    6  C7  UNL     1     -32.810   8.649   2.427  1.00 20.00    -0.010 C 
HETATM    7  C8  UNL     1     -33.444   7.282   2.076  1.00 20.00    -0.010 C 
ENDROOT
BRANCH   7   8
HETATM    8  C11 UNL     1     -33.882   6.498   3.310  1.00 20.00     0.012 C 
BRANCH   8   9
HETATM    9  C10 UNL     1     -33.446   5.041   3.225  1.00 20.00     0.078 C 
BRANCH   9  10
HETATM   10  C1  UNL     1     -34.112   4.176   4.280  1.00 20.00     0.123 C 
HETATM   11  C9  UNL     1     -33.328   2.977   4.747  1.00 20.00     0.091 C 
HETATM   12  O12 UNL     1     -35.227   4.422   4.740  1.00 20.00    -0.298 OA
ENDBRANCH   9  10
ENDBRANCH   8   9
ENDBRANCH   7   8
TORSDOF 3
ENDMDL
MODEL 2
REMARK VINA RESULT:       0.7      2.482      5.144
REMARK  3 active torsions:
REMARK  status: ('A' for Active; 'I' for Inactive)
REMARK    1  A    between atoms: C1_1  and  C10_10 
REMARK    2  A    between atoms: C8_8  and  C11_11 
REMARK    3  A    between atoms: C10_10  and  C11_11 
ROOT
HETATM    1  C2  UNL     1     -35.381   6.139   4.158  1.00 20.00     0.005 C 
HETATM    2  C3  UNL     1     -34.404   5.038   3.723  1.00 20.00     0.005 C 
HETATM    3  C4  UNL     1     -33.150   6.913   4.453  1.00 20.00     0.009 C 
HETATM    4  C5  UNL     1     -34.318   7.755   2.560  1.00 20.00     0.009 C 
HETATM    5  C6  UNL     1     -34.533   7.417   4.047  1.00 20.00    -0.014 C 
HETATM    6  C7  UNL     1     -33.127   5.826   3.376  1.00 20.00    -0.010 C 
HETATM    7  C8  UNL     1     -33.386   6.623   2.076  1.00 20.00    -0.010 C 
ENDROOT
BRANCH   7   8
HETATM    8  C11 UNL     1     -32.105   7.159   1.446  1.00 20.00     0.012 C 
BRANCH   8   9
HETATM    9  C10 UNL     1     -31.972   8.662   1.655  1.00 20.00     0.078 C 
BRANCH   9  10
HETATM   10  C1  UNL     1     -32.372   9.456   0.424  1.00 20.00     0.123 C 
HETATM   11  C9  UNL     1     -32.735  10.900   0.654  1.00 20.00     0.091 C 
HETATM   12  O12 UNL     1     -32.406   8.966  -0.704  1.00 20.00    -0.298 OA
ENDBRANCH   9  10
ENDBRANCH   8   9
ENDBRANCH   7   8
TORSDOF 3
ENDMDL
MODEL 3
REMARK VINA RESULT:       0.7      2.706      5.113
REMARK  3 active torsions:
REMARK  status: ('A' for Active; 'I' for Inactive)
REMARK    1  A    between atoms: C1_1  and  C10_10 
REMARK    2  A    between atoms: C8_8  and  C11_11 
REMARK    3  A    between atoms: C10_10  and  C11_11 
ROOT
HETATM    1  C2  UNL     1     -34.540   6.543   5.031  1.00 20.00     0.005 C 
HETATM    2  C3  UNL     1     -33.717   7.833   4.901  1.00 20.00     0.005 C 
HETATM    3  C4  UNL     1     -35.083   7.613   2.975  1.00 20.00     0.009 C 
HETATM    4  C5  UNL     1     -33.651   5.720   2.835  1.00 20.00     0.009 C 
HETATM    5  C6  UNL     1     -34.907   6.219   3.573  1.00 20.00    -0.014 C 
HETATM    6  C7  UNL     1     -33.679   8.067   3.379  1.00 20.00    -0.010 C 
HETATM    7  C8  UNL     1     -32.772   6.986   2.745  1.00 20.00    -0.010 C 
ENDROOT
BRANCH   7   8
HETATM    8  C11 UNL     1     -32.376   7.314   1.309  1.00 20.00     0.012 C 
BRANCH   8   9
HETATM    9  C10 UNL     1     -31.711   8.681   1.216  1.00 20.00     0.078 C 
BRANCH   9  10
HETATM   10  C1  UNL     1     -32.449   9.621   0.279  1.00 20.00     0.123 C 
HETATM   11  C9  UNL     1     -32.803  10.973   0.839  1.00 20.00     0.091 C 
HETATM   12  O12 UNL     1     -32.751   9.314  -0.874  1.00 20.00    -0.298 OA
ENDBRANCH   9  10
ENDBRANCH   8   9
ENDBRANCH   7   8
TORSDOF 3
ENDMDL
MODEL 4
REMARK VINA RESULT:       1.1      2.581      5.110
REMARK  3 active torsions:
REMARK  status: ('A' for Active; 'I' for Inactive)
REMARK    1  A    between atoms: C1_1  and  C10_10 
REMARK    2  A    between atoms: C8_8  and  C11_11 
REMARK    3  A    between atoms: C10_10  and  C11_11 
ROOT
HETATM    1  C2  UNL     1     -33.863   4.757   3.316  1.00 20.00     0.005 C 
HETATM    2  C3  UNL     1     -34.244   5.930   4.231  1.00 20.00     0.005 C 
HETATM    3  C4  UNL     1     -34.605   6.581   1.979  1.00 20.00     0.009 C 
HETATM    4  C5  UNL     1     -32.257   6.218   2.061  1.00 20.00     0.009 C 
HETATM    5  C6  UNL     1     -33.585   5.445   1.969  1.00 20.00    -0.014 C 
HETATM    6  C7  UNL     1     -34.097   7.152   3.305  1.00 20.00    -0.010 C 
HETATM    7  C8  UNL     1     -32.591   7.374   3.029  1.00 20.00    -0.010 C 
ENDROOT
BRANCH   7   8
HETATM    8  C11 UNL     1     -32.296   8.741   2.421  1.00 20.00     0.012 C 
BRANCH   8   9
HETATM    9  C10 UNL     1     -31.902   8.621   0.954  1.00 20.00     0.078 C 
BRANCH   9  10
HETATM   10  C1  UNL     1     -32.513   9.719   0.100  1.00 20.00     0.123 C 
HETATM   11  C9  UNL     1     -32.659  11.066   0.756  1.00 20.00     0.091 C 
HETATM   12  O12 UNL     1     -32.874   9.538  -1.062  1.00 20.00    -0.298 OA
ENDBRANCH   9  10
ENDBRANCH   8   9
ENDBRANCH   7   8
TORSDOF 3
ENDMDL
MODEL 5
REMARK VINA RESULT:       1.2      2.699      5.134
REMARK  3 active torsions:
REMARK  status: ('A' for Active; 'I' for Inactive)
REMARK    1  A    between atoms: C1_1  and  C10_10 
REMARK    2  A    between atoms: C8_8  and  C11_11 
REMARK    3  A    between atoms: C10_10  and  C11_11 
ROOT
HETATM    1  C2  UNL     1     -35.445   6.402   4.017  1.00 20.00     0.005 C 
HETATM    2  C3  UNL     1     -35.371   6.597   2.496  1.00 20.00     0.005 C 
HETATM    3  C4  UNL     1     -33.336   5.627   3.231  1.00 20.00     0.009 C 
HETATM    4  C5  UNL     1     -33.345   7.741   4.320  1.00 20.00     0.009 C 
HETATM    5  C6  UNL     1     -33.965   6.335   4.429  1.00 20.00    -0.014 C 
HETATM    6  C7  UNL     1     -33.856   6.660   2.228  1.00 20.00    -0.010 C 
HETATM    7  C8  UNL     1     -33.317   7.994   2.797  1.00 20.00    -0.010 C 
ENDROOT
BRANCH   7   8
HETATM    8  C11 UNL     1     -31.917   8.329   2.294  1.00 20.00     0.012 C 
BRANCH   8   9
HETATM    9  C10 UNL     1     -31.865   8.348   0.771  1.00 20.00     0.078 C 
BRANCH   9  10
HETATM   10  C1  UNL     1     -32.491   9.603   0.187  1.00 20.00     0.123 C 
HETATM   11  C9  UNL     1     -32.550  10.801   1.097  1.00 20.00     0.091 C 
HETATM   12  O12 UNL     1     -32.929   9.657  -0.962  1.00 20.00    -0.298 OA
ENDBRANCH   9  10
ENDBRANCH   8   9
ENDBRANCH   7   8
TORSDOF 3
ENDMDL
MODEL 6
REMARK VINA RESULT:       1.2      1.065      1.994
REMARK  3 active torsions:
REMARK  status: ('A' for Active; 'I' for Inactive)
REMARK    1  A    between atoms: C1_1  and  C10_10 
REMARK    2  A    between atoms: C8_8  and  C11_11 
REMARK    3  A    between atoms: C10_10  and  C11_11 
ROOT
HETATM    1  C2  UNL     1     -30.945   7.440   1.386  1.00 20.00     0.005 C 
HETATM    2  C3  UNL     1     -31.875   6.218   1.373  1.00 20.00     0.005 C 
HETATM    3  C4  UNL     1     -33.202   8.178   1.238  1.00 20.00     0.009 C 
HETATM    4  C5  UNL     1     -32.163   8.383   3.366  1.00 20.00     0.009 C 
HETATM    5  C6  UNL     1     -31.868   8.572   1.866  1.00 20.00    -0.014 C 
HETATM    6  C7  UNL     1     -33.208   6.793   1.888  1.00 20.00    -0.010 C 
HETATM    7  C8  UNL     1     -33.048   7.118   3.392  1.00 20.00    -0.010 C 
ENDROOT
BRANCH   7   8
HETATM    8  C11 UNL     1     -34.382   7.361   4.090  1.00 20.00     0.012 C 
BRANCH   8   9
HETATM    9  C10 UNL     1     -35.395   6.278   3.741  1.00 20.00     0.078 C 
BRANCH   9  10
HETATM   10  C1  UNL     1     -35.147   4.987   4.501  1.00 20.00     0.123 C 
HETATM   11  C9  UNL     1     -34.024   4.123   3.992  1.00 20.00     0.091 C 
HETATM   12  O12 UNL     1     -35.814   4.649   5.479  1.00 20.00    -0.298 OA
ENDBRANCH   9  10
ENDBRANCH   8   9
ENDBRANCH   7   8
TORSDOF 3
ENDMDL
MODEL 7
REMARK VINA RESULT:       1.2      1.283      2.230
REMARK  3 active torsions:
REMARK  status: ('A' for Active; 'I' for Inactive)
REMARK    1  A    between atoms: C1_1  and  C10_10 
REMARK    2  A    between atoms: C8_8  and  C11_11 
REMARK    3  A    between atoms: C10_10  and  C11_11 
ROOT
HETATM    1  C2  UNL     1     -31.310   7.398   1.639  1.00 20.00     0.005 C 
HETATM    2  C3  UNL     1     -31.616   5.895   1.564  1.00 20.00     0.005 C 
HETATM    3  C4  UNL     1     -33.591   7.094   1.030  1.00 20.00     0.009 C 
HETATM    4  C5  UNL     1     -33.175   7.726   3.284  1.00 20.00     0.009 C 
HETATM    5  C6  UNL     1     -32.699   8.023   1.850  1.00 20.00    -0.014 C 
HETATM    6  C7  UNL     1     -33.139   5.841   1.784  1.00 20.00    -0.010 C 
HETATM    7  C8  UNL     1     -33.431   6.203   3.259  1.00 20.00    -0.010 C 
ENDROOT
BRANCH   7   8
HETATM    8  C11 UNL     1     -34.851   5.849   3.686  1.00 20.00     0.012 C 
BRANCH   8   9
HETATM    9  C10 UNL     1     -34.854   4.769   4.761  1.00 20.00     0.078 C 
BRANCH   9  10
HETATM   10  C1  UNL     1     -33.890   3.639   4.447  1.00 20.00     0.123 C 
HETATM   11  C9  UNL     1     -32.906   3.286   5.531  1.00 20.00     0.091 C 
HETATM   12  O12 UNL     1     -33.897   3.033   3.376  1.00 20.00    -0.298 OA
ENDBRANCH   9  10
ENDBRANCH   8   9
ENDBRANCH   7   8
TORSDOF 3
ENDMDL
MODEL 8
REMARK VINA RESULT:       1.3      1.379      1.640
REMARK  3 active torsions:
REMARK  status: ('A' for Active; 'I' for Inactive)
REMARK    1  A    between atoms: C1_1  and  C10_10 
REMARK    2  A    between atoms: C8_8  and  C11_11 
REMARK    3  A    between atoms: C10_10  and  C11_11 
ROOT
HETATM    1  C2  UNL     1     -32.052   8.785  -0.206  1.00 20.00     0.005 C 
HETATM    2  C3  UNL     1     -32.644   9.780   0.803  1.00 20.00     0.005 C 
HETATM    3  C4  UNL     1     -30.877   8.600   1.856  1.00 20.00     0.009 C 
HETATM    4  C5  UNL     1     -32.458   6.887   1.383  1.00 20.00     0.009 C 
HETATM    5  C6  UNL     1     -31.374   7.740   0.697  1.00 20.00    -0.014 C 
HETATM    6  C7  UNL     1     -32.268   9.160   2.162  1.00 20.00    -0.010 C 
HETATM    7  C8  UNL     1     -33.117   7.882   2.363  1.00 20.00    -0.010 C 
ENDROOT
BRANCH   7   8
HETATM    8  C11 UNL     1     -33.094   7.377   3.802  1.00 20.00     0.012 C 
BRANCH   8   9
HETATM    9  C10 UNL     1     -34.485   7.405   4.422  1.00 20.00     0.078 C 
BRANCH   9  10
HETATM   10  C1  UNL     1     -35.347   6.243   3.961  1.00 20.00     0.123 C 
HETATM   11  C9  UNL     1     -34.889   4.870   4.377  1.00 20.00     0.091 C 
HETATM   12  O12 UNL     1     -36.365   6.394   3.286  1.00 20.00    -0.298 OA
ENDBRANCH   9  10
ENDBRANCH   8   9
ENDBRANCH   7   8
TORSDOF 3
ENDMDL
MODEL 9
REMARK VINA RESULT:       1.5      2.088      4.827
REMARK  3 active torsions:
REMARK  status: ('A' for Active; 'I' for Inactive)
REMARK    1  A    between atoms: C1_1  and  C10_10 
REMARK    2  A    between atoms: C8_8  and  C11_11 
REMARK    3  A    between atoms: C10_10  and  C11_11 
ROOT
HETATM    1  C2  UNL     1     -35.665   5.704   4.236  1.00 20.00     0.005 C 
HETATM    2  C3  UNL     1     -34.568   4.638   4.373  1.00 20.00     0.005 C 
HETATM    3  C4  UNL     1     -33.545   6.777   4.366  1.00 20.00     0.009 C 
HETATM    4  C5  UNL     1     -34.534   6.650   2.207  1.00 20.00     0.009 C 
HETATM    5  C6  UNL     1     -34.901   6.917   3.679  1.00 20.00    -0.014 C 
HETATM    6  C7  UNL     1     -33.317   5.359   3.838  1.00 20.00    -0.010 C 
HETATM    7  C8  UNL     1     -33.474   5.532   2.308  1.00 20.00    -0.010 C 
ENDROOT
BRANCH   7   8
HETATM    8  C11 UNL     1     -32.167   5.911   1.618  1.00 20.00     0.012 C 
BRANCH   8   9
HETATM    9  C10 UNL     1     -32.357   7.102   0.688  1.00 20.00     0.078 C 
BRANCH   9  10
HETATM   10  C1  UNL     1     -31.951   8.414   1.338  1.00 20.00     0.123 C 
HETATM   11  C9  UNL     1     -32.281   9.665   0.568  1.00 20.00     0.091 C 
HETATM   12  O12 UNL     1     -31.386   8.471   2.429  1.00 20.00    -0.298 OA
ENDBRANCH   9  10
ENDBRANCH   8   9
ENDBRANCH   7   8
TORSDOF 3
ENDMDL
