MODEL 1
REMARK VINA RESULT:      -1.5      0.000      0.000
REMARK  2 active torsions:
REMARK  status: ('A' for Active; 'I' for Inactive)
REMARK    1  A    between atoms: C4_4  and  C7_7 
REMARK    2  A    between atoms: C7_7  and  O8_8 
ROOT
HETATM    1  C1  UNL     1     -33.514   7.891   3.545  1.00 20.00     0.008 C 
HETATM    2  C2  UNL     1     -34.529   6.903   4.127  1.00 20.00     0.016 C 
HETATM    3  C3  UNL     1     -33.564   6.022   2.064  1.00 20.00     0.022 C 
HETATM    4  C4  UNL     1     -32.599   7.045   2.663  1.00 20.00     0.011 C 
HETATM    5  C5  UNL     1     -34.486   5.669   3.226  1.00 20.00     0.058 C 
HETATM    6 BR9  UNL     1     -33.761   4.142   4.212  1.00 20.00    -0.091 Br
ENDROOT
BRANCH   4   7
HETATM    7  C7  UNL     1     -31.864   7.858   1.611  1.00 20.00     0.171 C 
BRANCH   7   8
HETATM    8  O8  UNL     1     -32.507   9.114   1.472  1.00 20.00    -0.396 OA
HETATM    9  C6  UNL     1     -32.331   9.653   0.167  1.00 20.00     0.201 C 
ENDBRANCH   7   8
ENDBRANCH   4   7
TORSDOF 2
ENDMDL
MODEL 2
REMARK VINA RESULT:      -1.0      1.107      1.406
REMARK  2 active torsions:
REMARK  status: ('A' for Active; 'I' for Inactive)
REMARK    1  A    between atoms: C4_4  and  C7_7 
REMARK    2  A    between atoms: C7_7  and  O8_8 
ROOT
HETATM    1  C1  UNL     1     -34.864   6.851   4.095  1.00 20.00     0.008 C 
HETATM    2  C2  UNL     1     -35.295   5.400   4.324  1.00 20.00     0.016 C 
HETATM    3  C3  UNL     1     -33.440   5.502   2.738  1.00 20.00     0.022 C 
HETATM    4  C4  UNL     1     -33.423   6.764   3.601  1.00 20.00     0.011 C 
HETATM    5  C5  UNL     1     -34.317   4.536   3.526  1.00 20.00     0.058 C 
HETATM    6 BR9  UNL     1     -33.212   3.473   4.741  1.00 20.00    -0.091 Br
ENDROOT
BRANCH   4   7
HETATM    7  C7  UNL     1     -32.975   8.001   2.841  1.00 20.00     0.171 C 
BRANCH   7   8
HETATM    8  O8  UNL     1     -32.163   7.598   1.750  1.00 20.00    -0.396 OA
HETATM    9  C6  UNL     1     -31.891   8.681   0.869  1.00 20.00     0.201 C 
ENDBRANCH   7   8
ENDBRANCH   4   7
TORSDOF 2
ENDMDL
MODEL 3
REMARK VINA RESULT:      -1.0      2.894      4.237
REMARK  2 active torsions:
REMARK  status: ('A' for Active; 'I' for Inactive)
REMARK    1  A    between atoms: C4_4  and  C7_7 
REMARK    2  A    between atoms: C7_7  and  O8_8 
ROOT
HETATM    1  C1  UNL     1     -32.910   7.870   4.114  1.00 20.00     0.008 C 
HETATM    2  C2  UNL     1     -31.855   8.615   3.291  1.00 20.00     0.016 C 
HETATM    3  C3  UNL     1     -32.815   6.783   1.994  1.00 20.00     0.022 C 
HETATM    4  C4  UNL     1     -33.807   7.188   3.084  1.00 20.00     0.011 C 
HETATM    5  C5  UNL     1     -31.868   7.974   1.904  1.00 20.00     0.058 C 
HETATM    6 BR9  UNL     1     -32.529   9.252   0.577  1.00 20.00    -0.091 Br
ENDROOT
BRANCH   4   7
HETATM    7  C7  UNL     1     -34.582   6.012   3.652  1.00 20.00     0.171 C 
BRANCH   7   8
HETATM    8  O8  UNL     1     -33.897   4.813   3.328  1.00 20.00    -0.396 OA
HETATM    9  C6  UNL     1     -33.918   3.887   4.408  1.00 20.00     0.201 C 
ENDBRANCH   7   8
ENDBRANCH   4   7
TORSDOF 2
ENDMDL
MODEL 4
REMARK VINA RESULT:      -0.9      1.360      1.951
REMARK  2 active torsions:
REMARK  status: ('A' for Active; 'I' for Inactive)
REMARK    1  A    between atoms: C4_4  and  C7_7 
REMARK    2  A    between atoms: C7_7  and  O8_8 
ROOT
HETATM    1  C1  UNL     1     -32.489   6.219   1.347  1.00 20.00     0.008 C 
HETATM    2  C2  UNL     1     -33.227   5.351   2.369  1.00 20.00     0.016 C 
HETATM    3  C3  UNL     1     -32.839   7.587   3.268  1.00 20.00     0.022 C 
HETATM    4  C4  UNL     1     -32.812   7.658   1.741  1.00 20.00     0.011 C 
HETATM    5  C5  UNL     1     -33.532   6.261   3.558  1.00 20.00     0.058 C 
HETATM    6 BR9  UNL     1     -35.462   6.538   3.716  1.00 20.00    -0.091 Br
ENDROOT
BRANCH   4   7
HETATM    7  C7  UNL     1     -31.808   8.664   1.208  1.00 20.00     0.171 C 
BRANCH   7   8
HETATM    8  O8  UNL     1     -32.492   9.863   0.880  1.00 20.00    -0.396 OA
HETATM    9  C6  UNL     1     -32.708   9.979  -0.521  1.00 20.00     0.201 C 
ENDBRANCH   7   8
ENDBRANCH   4   7
TORSDOF 2
ENDMDL
MODEL 5
REMARK VINA RESULT:      -0.0      3.061      4.490
REMARK  2 active torsions:
REMARK  status: ('A' for Active; 'I' for Inactive)
REMARK    1  A    between atoms: C4_4  and  C7_7 
REMARK    2  A    between atoms: C7_7  and  O8_8 
ROOT
HETATM    1  C1  UNL     1     -32.921   5.990   2.107  1.00 20.00     0.008 C 
HETATM    2  C2  UNL     1     -32.996   7.505   2.316  1.00 20.00     0.016 C 
HETATM    3  C3  UNL     1     -34.549   6.357   3.811  1.00 20.00     0.022 C 
HETATM    4  C4  UNL     1     -33.441   5.384   3.408  1.00 20.00     0.011 C 
HETATM    5  C5  UNL     1     -33.970   7.726   3.473  1.00 20.00     0.058 C 
HETATM    6 BR9  UNL     1     -33.019   8.449   5.023  1.00 20.00    -0.091 Br
ENDROOT
BRANCH   4   7
HETATM    7  C7  UNL     1     -33.931   3.955   3.249  1.00 20.00     0.171 C 
BRANCH   7   8
HETATM    8  O8  UNL     1     -34.075   3.375   4.536  1.00 20.00    -0.396 OA
HETATM    9  C6  UNL     1     -32.840   2.860   5.021  1.00 20.00     0.201 C 
ENDBRANCH   7   8
ENDBRANCH   4   7
TORSDOF 2
ENDMDL
MODEL 6
REMARK VINA RESULT:       0.0      3.082      4.601
REMARK  2 active torsions:
REMARK  status: ('A' for Active; 'I' for Inactive)
REMARK    1  A    between atoms: C4_4  and  C7_7 
REMARK    2  A    between atoms: C7_7  and  O8_8 
ROOT
HETATM    1  C1  UNL     1     -33.181   5.352   2.082  1.00 20.00     0.008 C 
HETATM    2  C2  UNL     1     -32.661   6.652   1.462  1.00 20.00     0.016 C 
HETATM    3  C3  UNL     1     -34.041   7.129   3.420  1.00 20.00     0.022 C 
HETATM    4  C4  UNL     1     -33.499   5.704   3.532  1.00 20.00     0.011 C 
HETATM    5  C5  UNL     1     -33.137   7.779   2.379  1.00 20.00     0.058 C 
HETATM    6 BR9  UNL     1     -31.607   8.623   3.259  1.00 20.00    -0.091 Br
ENDROOT
BRANCH   4   7
HETATM    7  C7  UNL     1     -34.481   4.742   4.179  1.00 20.00     0.171 C 
BRANCH   7   8
HETATM    8  O8  UNL     1     -34.009   3.416   3.997  1.00 20.00    -0.396 OA
HETATM    9  C6  UNL     1     -33.081   3.045   5.009  1.00 20.00     0.201 C 
ENDBRANCH   7   8
ENDBRANCH   4   7
TORSDOF 2
ENDMDL
MODEL 7
REMARK VINA RESULT:       0.9      1.574      1.867
REMARK  2 active torsions:
REMARK  status: ('A' for Active; 'I' for Inactive)
REMARK    1  A    between atoms: C4_4  and  C7_7 
REMARK    2  A    between atoms: C7_7  and  O8_8 
ROOT
HETATM    1  C1  UNL     1     -33.195   7.531   3.082  1.00 20.00     0.008 C 
HETATM    2  C2  UNL     1     -33.467   6.033   2.921  1.00 20.00     0.016 C 
HETATM    3  C3  UNL     1     -32.658   6.986   0.824  1.00 20.00     0.022 C 
HETATM    4  C4  UNL     1     -32.197   7.874   1.980  1.00 20.00     0.011 C 
HETATM    5  C5  UNL     1     -33.031   5.672   1.501  1.00 20.00     0.058 C 
HETATM    6 BR9  UNL     1     -31.476   4.486   1.555  1.00 20.00    -0.091 Br
ENDROOT
BRANCH   4   7
HETATM    7  C7  UNL     1     -32.179   9.351   1.627  1.00 20.00     0.171 C 
BRANCH   7   8
HETATM    8  O8  UNL     1     -32.051   9.484   0.220  1.00 20.00    -0.396 OA
HETATM    9  C6  UNL     1     -32.874  10.528  -0.285  1.00 20.00     0.201 C 
ENDBRANCH   7   8
ENDBRANCH   4   7
TORSDOF 2
ENDMDL
MODEL 8
REMARK VINA RESULT:       1.2      2.490      3.801
REMARK  2 active torsions:
REMARK  status: ('A' for Active; 'I' for Inactive)
REMARK    1  A    between atoms: C4_4  and  C7_7 
REMARK    2  A    between atoms: C7_7  and  O8_8 
ROOT
HETATM    1  C1  UNL     1     -32.614   7.832   2.267  1.00 20.00     0.008 C 
HETATM    2  C2  UNL     1     -31.824   7.021   1.236  1.00 20.00     0.016 C 
HETATM    3  C3  UNL     1     -32.978   5.535   2.792  1.00 20.00     0.022 C 
HETATM    4  C4  UNL     1     -33.697   6.883   2.773  1.00 20.00     0.011 C 
HETATM    5  C5  UNL     1     -32.139   5.552   1.520  1.00 20.00     0.058 C 
HETATM    6 BR9  UNL     1     -33.159   4.784   0.038  1.00 20.00    -0.091 Br
ENDROOT
BRANCH   4   7
HETATM    7  C7  UNL     1     -34.256   7.281   4.128  1.00 20.00     0.171 C 
BRANCH   7   8
HETATM    8  O8  UNL     1     -35.495   6.619   4.324  1.00 20.00    -0.396 OA
HETATM    9  C6  UNL     1     -35.321   5.216   4.485  1.00 20.00     0.201 C 
ENDBRANCH   7   8
ENDBRANCH   4   7
TORSDOF 2
ENDMDL
MODEL 9
REMARK VINA RESULT:       1.3      3.085      3.963
REMARK  2 active torsions:
REMARK  status: ('A' for Active; 'I' for Inactive)
REMARK    1  A    between atoms: C4_4  and  C7_7 
REMARK    2  A    between atoms: C7_7  and  O8_8 
ROOT
HETATM    1  C1  UNL     1     -33.507   6.566   2.757  1.00 20.00     0.008 C 
HETATM    2  C2  UNL     1     -33.236   8.061   2.941  1.00 20.00     0.016 C 
HETATM    3  C3  UNL     1     -31.528   7.052   1.517  1.00 20.00     0.022 C 
HETATM    4  C4  UNL     1     -32.789   6.190   1.464  1.00 20.00     0.011 C 
HETATM    5  C5  UNL     1     -32.023   8.384   2.069  1.00 20.00     0.058 C 
HETATM    6 BR9  UNL     1     -32.548   9.561   0.596  1.00 20.00    -0.091 Br
ENDROOT
BRANCH   4   7
HETATM    7  C7  UNL     1     -32.492   4.704   1.355  1.00 20.00     0.171 C 
BRANCH   7   8
HETATM    8  O8  UNL     1     -32.582   4.318  -0.007  1.00 20.00    -0.396 OA
HETATM    9  C6  UNL     1     -33.935   4.209  -0.433  1.00 20.00     0.201 C 
ENDBRANCH   7   8
ENDBRANCH   4   7
TORSDOF 2
ENDMDL
