MODEL 1
REMARK VINA RESULT:      -1.0      0.000      0.000
REMARK  3 active torsions:
REMARK  status: ('A' for Active; 'I' for Inactive)
REMARK    1  A    between atoms: C3_3  and  C5_5 
REMARK    2  A    between atoms: C6_6  and  C8_8 
REMARK    3  A    between atoms: C8_8  and  C9_9 
ROOT
HETATM    1  C1  UNL     1     -33.113   5.166   3.258  1.00 20.00     0.026 A 
HETATM    2  C2  UNL     1     -34.914   6.534   3.797  1.00 20.00     0.061 A 
HETATM    3  C3  UNL     1     -33.733   6.438   3.094  1.00 20.00    -0.029 A 
HETATM    4  C4  UNL     1     -33.844   4.337   4.082  1.00 20.00    -0.021 A 
HETATM    5  C7  UNL     1     -33.541   2.951   4.496  1.00 20.00     0.056 C 
HETATM    6  S10 UNL     1     -35.270   5.094   4.653  1.00 20.00    -0.106 SA
ENDROOT
BRANCH   3   7
HETATM    7  C5  UNL     1     -33.199   7.540   2.277  1.00 20.00     0.008 C 
HETATM    8  C6  UNL     1     -31.965   7.582   1.749  1.00 20.00    -0.025 C 
BRANCH   8   9
HETATM    9  C8  UNL     1     -31.457   8.734   0.927  1.00 20.00     0.042 C 
BRANCH   9  10
HETATM   10  C9  UNL     1     -32.452   9.888   0.852  1.00 20.00     0.118 C 
HETATM   11 CL11 UNL     1     -32.992  10.183  -0.819  1.00 20.00    -0.130 Cl
ENDBRANCH   9  10
ENDBRANCH   8   9
ENDBRANCH   3   7
TORSDOF 3
ENDMDL
MODEL 2
REMARK VINA RESULT:       0.6      3.602      5.915
REMARK  3 active torsions:
REMARK  status: ('A' for Active; 'I' for Inactive)
REMARK    1  A    between atoms: C3_3  and  C5_5 
REMARK    2  A    between atoms: C6_6  and  C8_8 
REMARK    3  A    between atoms: C8_8  and  C9_9 
ROOT
HETATM    1  C1  UNL     1     -33.178   8.617   1.787  1.00 20.00     0.026 A 
HETATM    2  C2  UNL     1     -31.506   7.188   1.034  1.00 20.00     0.061 A 
HETATM    3  C3  UNL     1     -32.604   7.315   1.857  1.00 20.00    -0.029 A 
HETATM    4  C4  UNL     1     -32.497   9.436   0.913  1.00 20.00    -0.021 A 
HETATM    5  C7  UNL     1     -32.777  10.846   0.566  1.00 20.00     0.056 C 
HETATM    6  S10 UNL     1     -31.171   8.636   0.182  1.00 20.00    -0.106 SA
ENDROOT
BRANCH   3   7
HETATM    7  C5  UNL     1     -33.100   6.215   2.700  1.00 20.00     0.008 C 
HETATM    8  C6  UNL     1     -34.201   6.268   3.467  1.00 20.00    -0.025 C 
BRANCH   8   9
HETATM    9  C8  UNL     1     -34.669   5.121   4.321  1.00 20.00     0.042 C 
BRANCH   9  10
HETATM   10  C9  UNL     1     -34.031   3.793   3.924  1.00 20.00     0.118 C 
HETATM   11 CL11 UNL     1     -33.024   3.130   5.233  1.00 20.00    -0.130 Cl
ENDBRANCH   9  10
ENDBRANCH   8   9
ENDBRANCH   3   7
TORSDOF 3
ENDMDL
MODEL 3
REMARK VINA RESULT:       0.9      1.403      1.829
REMARK  3 active torsions:
REMARK  status: ('A' for Active; 'I' for Inactive)
REMARK    1  A    between atoms: C3_3  and  C5_5 
REMARK    2  A    between atoms: C6_6  and  C8_8 
REMARK    3  A    between atoms: C8_8  and  C9_9 
ROOT
HETATM    1  C1  UNL     1     -34.214   6.288   3.210  1.00 20.00     0.026 A 
HETATM    2  C2  UNL     1     -32.707   4.614   2.632  1.00 20.00     0.061 A 
HETATM    3  C3  UNL     1     -33.112   5.909   2.390  1.00 20.00    -0.029 A 
HETATM    4  C4  UNL     1     -34.611   5.267   4.047  1.00 20.00    -0.021 A 
HETATM    5  C7  UNL     1     -35.707   5.265   5.040  1.00 20.00     0.056 C 
HETATM    6  S10 UNL     1     -33.656   3.860   3.842  1.00 20.00    -0.106 SA
ENDROOT
BRANCH   3   7
HETATM    7  C5  UNL     1     -32.462   6.775   1.394  1.00 20.00     0.008 C 
HETATM    8  C6  UNL     1     -31.998   8.012   1.632  1.00 20.00    -0.025 C 
BRANCH   8   9
HETATM    9  C8  UNL     1     -31.347   8.868   0.581  1.00 20.00     0.042 C 
BRANCH   9  10
HETATM   10  C9  UNL     1     -32.354   9.701  -0.206  1.00 20.00     0.118 C 
HETATM   11 CL11 UNL     1     -33.006  11.040   0.770  1.00 20.00    -0.130 Cl
ENDBRANCH   9  10
ENDBRANCH   8   9
ENDBRANCH   3   7
TORSDOF 3
ENDMDL
MODEL 4
REMARK VINA RESULT:       1.7      3.515      5.723
REMARK  3 active torsions:
REMARK  status: ('A' for Active; 'I' for Inactive)
REMARK    1  A    between atoms: C3_3  and  C5_5 
REMARK    2  A    between atoms: C6_6  and  C8_8 
REMARK    3  A    between atoms: C8_8  and  C9_9 
ROOT
HETATM    1  C1  UNL     1     -31.973   7.448   1.115  1.00 20.00     0.026 A 
HETATM    2  C2  UNL     1     -33.396   8.690   2.470  1.00 20.00     0.061 A 
HETATM    3  C3  UNL     1     -32.896   7.434   2.199  1.00 20.00    -0.029 A 
HETATM    4  C4  UNL     1     -31.801   8.714   0.597  1.00 20.00    -0.021 A 
HETATM    5  C7  UNL     1     -30.936   9.141  -0.523  1.00 20.00     0.056 C 
HETATM    6  S10 UNL     1     -32.753   9.878   1.418  1.00 20.00    -0.106 SA
ENDROOT
BRANCH   3   7
HETATM    7  C5  UNL     1     -33.291   6.238   2.959  1.00 20.00     0.008 C 
HETATM    8  C6  UNL     1     -34.418   6.118   3.680  1.00 20.00    -0.025 C 
BRANCH   8   9
HETATM    9  C8  UNL     1     -34.779   4.878   4.450  1.00 20.00     0.042 C 
BRANCH   9  10
HETATM   10  C9  UNL     1     -33.959   3.663   4.027  1.00 20.00     0.118 C 
HETATM   11 CL11 UNL     1     -32.951   3.053   5.362  1.00 20.00    -0.130 Cl
ENDBRANCH   9  10
ENDBRANCH   8   9
ENDBRANCH   3   7
TORSDOF 3
ENDMDL
MODEL 5
REMARK VINA RESULT:       1.9      3.079      5.592
REMARK  3 active torsions:
REMARK  status: ('A' for Active; 'I' for Inactive)
REMARK    1  A    between atoms: C3_3  and  C5_5 
REMARK    2  A    between atoms: C6_6  and  C8_8 
REMARK    3  A    between atoms: C8_8  and  C9_9 
ROOT
HETATM    1  C1  UNL     1     -33.080   8.856   1.689  1.00 20.00     0.026 A 
HETATM    2  C2  UNL     1     -31.360   7.384   1.157  1.00 20.00     0.061 A 
HETATM    3  C3  UNL     1     -32.461   7.601   1.958  1.00 20.00    -0.029 A 
HETATM    4  C4  UNL     1     -32.429   9.551   0.692  1.00 20.00    -0.021 A 
HETATM    5  C7  UNL     1     -32.758  10.878   0.130  1.00 20.00     0.056 C 
HETATM    6  S10 UNL     1     -31.077   8.691   0.087  1.00 20.00    -0.106 SA
ENDROOT
BRANCH   3   7
HETATM    7  C5  UNL     1     -32.918   6.631   2.966  1.00 20.00     0.008 C 
HETATM    8  C6  UNL     1     -33.454   5.430   2.694  1.00 20.00    -0.025 C 
BRANCH   8   9
HETATM    9  C8  UNL     1     -33.916   4.472   3.756  1.00 20.00     0.042 C 
BRANCH   9  10
HETATM   10  C9  UNL     1     -35.123   4.991   4.532  1.00 20.00     0.118 C 
HETATM   11 CL11 UNL     1     -35.759   6.497   3.828  1.00 20.00    -0.130 Cl
ENDBRANCH   9  10
ENDBRANCH   8   9
ENDBRANCH   3   7
TORSDOF 3
ENDMDL
