MODEL 1
REMARK VINA RESULT:      -1.1      0.000      0.000
REMARK  4 active torsions:
REMARK  status: ('A' for Active; 'I' for Inactive)
REMARK    1  A    between atoms: C1_1  and  C9_9 
REMARK    2  A    between atoms: C8_8  and  C10_10 
REMARK    3  A    between atoms: C9_9  and  C11_11 
REMARK    4  A    between atoms: C10_10  and  C11_11 
ROOT
HETATM    1  C2  UNL     1     -34.942   5.128   4.499  1.00 20.00     0.005 C 
HETATM    2  C3  UNL     1     -33.823   4.756   3.514  1.00 20.00     0.005 C 
HETATM    3  C4  UNL     1     -35.109   6.511   2.568  1.00 20.00     0.009 C 
HETATM    4  C5  UNL     1     -34.177   7.517   4.511  1.00 20.00     0.009 C 
HETATM    5  C6  UNL     1     -35.306   6.563   4.082  1.00 20.00    -0.014 C 
HETATM    6  C7  UNL     1     -33.657   6.040   2.679  1.00 20.00    -0.010 C 
HETATM    7  C8  UNL     1     -33.012   7.123   3.577  1.00 20.00    -0.010 C 
ENDROOT
BRANCH   7   8
HETATM    8  C10 UNL     1     -32.482   8.311   2.782  1.00 20.00     0.005 C 
BRANCH   8   9
HETATM    9  C11 UNL     1     -31.960   7.872   1.413  1.00 20.00     0.007 C 
BRANCH   9  10
HETATM   10  C9  UNL     1     -31.389   9.038   0.610  1.00 20.00     0.069 C 
BRANCH  10  11
HETATM   11  C1  UNL     1     -32.429  10.024   0.133  1.00 20.00     0.231 C 
HETATM   12  O12 UNL     1     -33.166   9.856  -0.833  1.00 20.00    -0.307 OA
ENDBRANCH  10  11
ENDBRANCH   9  10
ENDBRANCH   8   9
ENDBRANCH   7   8
TORSDOF 4
ENDMDL
MODEL 2
REMARK VINA RESULT:      -0.5      0.788      1.738
REMARK  4 active torsions:
REMARK  status: ('A' for Active; 'I' for Inactive)
REMARK    1  A    between atoms: C1_1  and  C9_9 
REMARK    2  A    between atoms: C8_8  and  C10_10 
REMARK    3  A    between atoms: C9_9  and  C11_11 
REMARK    4  A    between atoms: C10_10  and  C11_11 
ROOT
HETATM    1  C2  UNL     1     -35.622   5.792   4.143  1.00 20.00     0.005 C 
HETATM    2  C3  UNL     1     -35.653   7.034   3.240  1.00 20.00     0.005 C 
HETATM    3  C4  UNL     1     -33.612   7.031   4.449  1.00 20.00     0.009 C 
HETATM    4  C5  UNL     1     -33.450   5.066   3.118  1.00 20.00     0.009 C 
HETATM    5  C6  UNL     1     -34.119   5.591   4.402  1.00 20.00    -0.014 C 
HETATM    6  C7  UNL     1     -34.160   7.368   3.061  1.00 20.00    -0.010 C 
HETATM    7  C8  UNL     1     -33.523   6.279   2.165  1.00 20.00    -0.010 C 
ENDROOT
BRANCH   7   8
HETATM    8  C10 UNL     1     -32.152   6.679   1.632  1.00 20.00     0.005 C 
BRANCH   8   9
HETATM    9  C11 UNL     1     -31.912   8.181   1.793  1.00 20.00     0.007 C 
BRANCH   9  10
HETATM   10  C9  UNL     1     -31.567   8.858   0.470  1.00 20.00     0.069 C 
BRANCH  10  11
HETATM   11  C1  UNL     1     -32.456  10.031   0.131  1.00 20.00     0.231 C 
HETATM   12  O12 UNL     1     -33.183  10.101  -0.855  1.00 20.00    -0.307 OA
ENDBRANCH  10  11
ENDBRANCH   9  10
ENDBRANCH   8   9
ENDBRANCH   7   8
TORSDOF 4
ENDMDL
MODEL 3
REMARK VINA RESULT:      -0.0      2.682      4.981
REMARK  4 active torsions:
REMARK  status: ('A' for Active; 'I' for Inactive)
REMARK    1  A    between atoms: C1_1  and  C9_9 
REMARK    2  A    between atoms: C8_8  and  C10_10 
REMARK    3  A    between atoms: C9_9  and  C11_11 
REMARK    4  A    between atoms: C10_10  and  C11_11 
ROOT
HETATM    1  C2  UNL     1     -31.652   8.597   0.749  1.00 20.00     0.005 C 
HETATM    2  C3  UNL     1     -33.098   8.127   0.526  1.00 20.00     0.005 C 
HETATM    3  C4  UNL     1     -31.974   6.509   1.846  1.00 20.00     0.009 C 
HETATM    4  C5  UNL     1     -31.955   8.440   3.234  1.00 20.00     0.009 C 
HETATM    5  C6  UNL     1     -31.233   7.833   2.017  1.00 20.00    -0.014 C 
HETATM    6  C7  UNL     1     -33.341   7.182   1.717  1.00 20.00    -0.010 C 
HETATM    7  C8  UNL     1     -33.428   8.036   3.005  1.00 20.00    -0.010 C 
ENDROOT
BRANCH   7   8
HETATM    8  C10 UNL     1     -34.007   7.267   4.187  1.00 20.00     0.005 C 
BRANCH   8   9
HETATM    9  C11 UNL     1     -35.106   6.304   3.736  1.00 20.00     0.007 C 
BRANCH   9  10
HETATM   10  C9  UNL     1     -35.043   4.968   4.470  1.00 20.00     0.069 C 
BRANCH  10  11
HETATM   11  C1  UNL     1     -33.919   4.068   4.012  1.00 20.00     0.231 C 
HETATM   12  O12 UNL     1     -33.452   3.139   4.663  1.00 20.00    -0.307 OA
ENDBRANCH  10  11
ENDBRANCH   9  10
ENDBRANCH   8   9
ENDBRANCH   7   8
TORSDOF 4
ENDMDL
MODEL 4
REMARK VINA RESULT:       0.5      2.899      5.265
REMARK  4 active torsions:
REMARK  status: ('A' for Active; 'I' for Inactive)
REMARK    1  A    between atoms: C1_1  and  C9_9 
REMARK    2  A    between atoms: C8_8  and  C10_10 
REMARK    3  A    between atoms: C9_9  and  C11_11 
REMARK    4  A    between atoms: C10_10  and  C11_11 
ROOT
HETATM    1  C2  UNL     1     -32.285   9.486   0.795  1.00 20.00     0.005 C 
HETATM    2  C3  UNL     1     -31.690   8.206   0.191  1.00 20.00     0.005 C 
HETATM    3  C4  UNL     1     -31.306   8.185   2.532  1.00 20.00     0.009 C 
HETATM    4  C5  UNL     1     -33.678   8.127   2.378  1.00 20.00     0.009 C 
HETATM    5  C6  UNL     1     -32.495   9.107   2.271  1.00 20.00    -0.014 C 
HETATM    6  C7  UNL     1     -31.670   7.236   1.388  1.00 20.00    -0.010 C 
HETATM    7  C8  UNL     1     -33.130   6.843   1.719  1.00 20.00    -0.010 C 
ENDROOT
BRANCH   7   8
HETATM    8  C10 UNL     1     -33.222   5.634   2.644  1.00 20.00     0.005 C 
BRANCH   8   9
HETATM    9  C11 UNL     1     -34.385   5.777   3.627  1.00 20.00     0.007 C 
BRANCH   9  10
HETATM   10  C9  UNL     1     -34.580   4.526   4.479  1.00 20.00     0.069 C 
BRANCH  10  11
HETATM   11  C1  UNL     1     -33.572   3.435   4.207  1.00 20.00     0.231 C 
HETATM   12  O12 UNL     1     -32.994   2.781   5.070  1.00 20.00    -0.307 OA
ENDBRANCH  10  11
ENDBRANCH   9  10
ENDBRANCH   8   9
ENDBRANCH   7   8
TORSDOF 4
ENDMDL
MODEL 5
REMARK VINA RESULT:       0.6      2.964      5.221
REMARK  4 active torsions:
REMARK  status: ('A' for Active; 'I' for Inactive)
REMARK    1  A    between atoms: C1_1  and  C9_9 
REMARK    2  A    between atoms: C8_8  and  C10_10 
REMARK    3  A    between atoms: C9_9  and  C11_11 
REMARK    4  A    between atoms: C10_10  and  C11_11 
ROOT
HETATM    1  C2  UNL     1     -31.240   7.984   1.876  1.00 20.00     0.005 C 
HETATM    2  C3  UNL     1     -31.582   8.355   3.327  1.00 20.00     0.005 C 
HETATM    3  C4  UNL     1     -33.528   8.632   1.999  1.00 20.00     0.009 C 
HETATM    4  C5  UNL     1     -33.098   6.298   1.840  1.00 20.00     0.009 C 
HETATM    5  C6  UNL     1     -32.615   7.646   1.273  1.00 20.00    -0.014 C 
HETATM    6  C7  UNL     1     -33.107   8.145   3.387  1.00 20.00    -0.010 C 
HETATM    7  C8  UNL     1     -33.391   6.626   3.320  1.00 20.00    -0.010 C 
ENDROOT
BRANCH   7   8
HETATM    8  C10 UNL     1     -34.820   6.273   3.719  1.00 20.00     0.005 C 
BRANCH   8   9
HETATM    9  C11 UNL     1     -34.881   4.908   4.406  1.00 20.00     0.007 C 
BRANCH   9  10
HETATM   10  C9  UNL     1     -33.870   3.922   3.827  1.00 20.00     0.069 C 
BRANCH  10  11
HETATM   11  C1  UNL     1     -33.380   2.892   4.818  1.00 20.00     0.231 C 
HETATM   12  O12 UNL     1     -32.446   3.054   5.597  1.00 20.00    -0.307 OA
ENDBRANCH  10  11
ENDBRANCH   9  10
ENDBRANCH   8   9
ENDBRANCH   7   8
TORSDOF 4
ENDMDL
MODEL 6
REMARK VINA RESULT:       1.5      2.271      4.815
REMARK  4 active torsions:
REMARK  status: ('A' for Active; 'I' for Inactive)
REMARK    1  A    between atoms: C1_1  and  C9_9 
REMARK    2  A    between atoms: C8_8  and  C10_10 
REMARK    3  A    between atoms: C9_9  and  C11_11 
REMARK    4  A    between atoms: C10_10  and  C11_11 
ROOT
HETATM    1  C2  UNL     1     -32.395   9.765   1.503  1.00 20.00     0.005 C 
HETATM    2  C3  UNL     1     -32.343   8.918   0.223  1.00 20.00     0.005 C 
HETATM    3  C4  UNL     1     -30.974   7.889   1.864  1.00 20.00     0.009 C 
HETATM    4  C5  UNL     1     -33.146   7.771   2.826  1.00 20.00     0.009 C 
HETATM    5  C6  UNL     1     -31.990   8.763   2.597  1.00 20.00    -0.014 C 
HETATM    6  C7  UNL     1     -31.954   7.523   0.747  1.00 20.00    -0.010 C 
HETATM    7  C8  UNL     1     -33.159   6.942   1.523  1.00 20.00    -0.010 C 
ENDROOT
BRANCH   7   8
HETATM    8  C10 UNL     1     -33.027   5.446   1.788  1.00 20.00     0.005 C 
BRANCH   8   9
HETATM    9  C11 UNL     1     -32.938   5.156   3.287  1.00 20.00     0.007 C 
BRANCH   9  10
HETATM   10  C9  UNL     1     -34.099   4.297   3.780  1.00 20.00     0.069 C 
BRANCH  10  11
HETATM   11  C1  UNL     1     -35.188   5.078   4.479  1.00 20.00     0.231 C 
HETATM   12  O12 UNL     1     -35.645   6.148   4.091  1.00 20.00    -0.307 OA
ENDBRANCH  10  11
ENDBRANCH   9  10
ENDBRANCH   8   9
ENDBRANCH   7   8
TORSDOF 4
ENDMDL
MODEL 7
REMARK VINA RESULT:       1.5      2.379      5.260
REMARK  4 active torsions:
REMARK  status: ('A' for Active; 'I' for Inactive)
REMARK    1  A    between atoms: C1_1  and  C9_9 
REMARK    2  A    between atoms: C8_8  and  C10_10 
REMARK    3  A    between atoms: C9_9  and  C11_11 
REMARK    4  A    between atoms: C10_10  and  C11_11 
ROOT
HETATM    1  C2  UNL     1     -31.923  10.961  -0.038  1.00 20.00     0.005 C 
HETATM    2  C3  UNL     1     -32.967  10.652   1.046  1.00 20.00     0.005 C 
HETATM    3  C4  UNL     1     -32.973   8.883  -0.534  1.00 20.00     0.009 C 
HETATM    4  C5  UNL     1     -30.786   8.767   0.393  1.00 20.00     0.009 C 
HETATM    5  C6  UNL     1     -31.614   9.573  -0.624  1.00 20.00    -0.014 C 
HETATM    6  C7  UNL     1     -33.098   9.120   0.973  1.00 20.00    -0.010 C 
HETATM    7  C8  UNL     1     -31.796   8.494   1.529  1.00 20.00    -0.010 C 
ENDROOT
BRANCH   7   8
HETATM    8  C10 UNL     1     -31.937   7.006   1.832  1.00 20.00     0.005 C 
BRANCH   8   9
HETATM    9  C11 UNL     1     -33.390   6.640   2.140  1.00 20.00     0.007 C 
BRANCH   9  10
HETATM   10  C9  UNL     1     -33.808   7.059   3.546  1.00 20.00     0.069 C 
BRANCH  10  11
HETATM   11  C1  UNL     1     -35.143   6.503   3.982  1.00 20.00     0.231 C 
HETATM   12  O12 UNL     1     -35.339   5.348   4.346  1.00 20.00    -0.307 OA
ENDBRANCH  10  11
ENDBRANCH   9  10
ENDBRANCH   8   9
ENDBRANCH   7   8
TORSDOF 4
ENDMDL
MODEL 8
REMARK VINA RESULT:       1.8      2.490      5.159
REMARK  4 active torsions:
REMARK  status: ('A' for Active; 'I' for Inactive)
REMARK    1  A    between atoms: C1_1  and  C9_9 
REMARK    2  A    between atoms: C8_8  and  C10_10 
REMARK    3  A    between atoms: C9_9  and  C11_11 
REMARK    4  A    between atoms: C10_10  and  C11_11 
ROOT
HETATM    1  C2  UNL     1     -32.719  10.027  -0.411  1.00 20.00     0.005 C 
HETATM    2  C3  UNL     1     -32.379   8.543  -0.619  1.00 20.00     0.005 C 
HETATM    3  C4  UNL     1     -31.172   9.335   1.263  1.00 20.00     0.009 C 
HETATM    4  C5  UNL     1     -33.439   9.559   1.946  1.00 20.00     0.009 C 
HETATM    5  C6  UNL     1     -32.378  10.253   1.072  1.00 20.00    -0.014 C 
HETATM    6  C7  UNL     1     -31.924   8.092   0.781  1.00 20.00    -0.010 C 
HETATM    7  C8  UNL     1     -33.163   8.058   1.707  1.00 20.00    -0.010 C 
ENDROOT
BRANCH   7   8
HETATM    8  C10 UNL     1     -32.909   7.303   3.007  1.00 20.00     0.005 C 
BRANCH   8   9
HETATM    9  C11 UNL     1     -34.073   7.478   3.984  1.00 20.00     0.007 C 
BRANCH   9  10
HETATM   10  C9  UNL     1     -35.002   6.267   4.001  1.00 20.00     0.069 C 
BRANCH  10  11
HETATM   11  C1  UNL     1     -34.314   4.960   3.684  1.00 20.00     0.231 C 
HETATM   12  O12 UNL     1     -34.324   3.968   4.404  1.00 20.00    -0.307 OA
ENDBRANCH  10  11
ENDBRANCH   9  10
ENDBRANCH   8   9
ENDBRANCH   7   8
TORSDOF 4
ENDMDL
