MODEL 1
REMARK VINA RESULT:      -2.2      0.000      0.000
REMARK  4 active torsions:
REMARK  status: ('A' for Active; 'I' for Inactive)
REMARK    1  A    between atoms: C4_4  and  C6_6 
REMARK    2  A    between atoms: C4_4  and  C7_7 
REMARK    3  A    between atoms: C5_5  and  C6_6 
REMARK    4  A    between atoms: C5_5  and  O8_8 
ROOT
HETATM    1  C1  UNL     1     -32.090   5.510   1.168  1.00 20.00     0.012 C 
HETATM    2  C6  UNL     1     -32.769   6.781   1.681  1.00 20.00     0.007 C 
ENDROOT
BRANCH   2   3
HETATM    3  C4  UNL     1     -33.273   6.630   3.136  1.00 20.00     0.026 C 
BRANCH   3   4
HETATM    4  C7  UNL     1     -34.424   5.635   3.350  1.00 20.00     0.078 C 
HETATM    5  C2  UNL     1     -35.511   6.241   4.232  1.00 20.00     0.026 C 
HETATM    6 CL9  UNL     1     -33.838   4.127   4.114  1.00 20.00    -0.125 Cl
ENDBRANCH   3   4
ENDBRANCH   2   3
BRANCH   2   7
HETATM    7  C5  UNL     1     -31.793   7.962   1.569  1.00 20.00     0.171 C 
BRANCH   7   8
HETATM    8  O8  UNL     1     -32.511   9.171   1.366  1.00 20.00    -0.396 OA
HETATM    9  C3  UNL     1     -32.347   9.659   0.043  1.00 20.00     0.201 C 
ENDBRANCH   7   8
ENDBRANCH   2   7
TORSDOF 4
ENDMDL
MODEL 2
REMARK VINA RESULT:      -2.1      1.156      1.202
REMARK  4 active torsions:
REMARK  status: ('A' for Active; 'I' for Inactive)
REMARK    1  A    between atoms: C4_4  and  C6_6 
REMARK    2  A    between atoms: C4_4  and  C7_7 
REMARK    3  A    between atoms: C5_5  and  C6_6 
REMARK    4  A    between atoms: C5_5  and  O8_8 
ROOT
HETATM    1  C1  UNL     1     -32.221   5.251   0.780  1.00 20.00     0.012 C 
HETATM    2  C6  UNL     1     -32.801   6.433   1.558  1.00 20.00     0.007 C 
ENDROOT
BRANCH   2   3
HETATM    3  C4  UNL     1     -33.221   6.041   2.995  1.00 20.00     0.026 C 
BRANCH   3   4
HETATM    4  C7  UNL     1     -34.429   6.794   3.573  1.00 20.00     0.078 C 
HETATM    5  C2  UNL     1     -33.983   7.853   4.575  1.00 20.00     0.026 C 
HETATM    6 CL9  UNL     1     -35.559   5.671   4.387  1.00 20.00    -0.125 Cl
ENDBRANCH   3   4
ENDBRANCH   2   3
BRANCH   2   7
HETATM    7  C5  UNL     1     -31.775   7.576   1.591  1.00 20.00     0.171 C 
BRANCH   7   8
HETATM    8  O8  UNL     1     -32.439   8.830   1.524  1.00 20.00    -0.396 OA
HETATM    9  C3  UNL     1     -32.261   9.447   0.257  1.00 20.00     0.201 C 
ENDBRANCH   7   8
ENDBRANCH   2   7
TORSDOF 4
ENDMDL
MODEL 3
REMARK VINA RESULT:      -1.7      2.755      4.682
REMARK  4 active torsions:
REMARK  status: ('A' for Active; 'I' for Inactive)
REMARK    1  A    between atoms: C4_4  and  C6_6 
REMARK    2  A    between atoms: C4_4  and  C7_7 
REMARK    3  A    between atoms: C5_5  and  C6_6 
REMARK    4  A    between atoms: C5_5  and  O8_8 
ROOT
HETATM    1  C1  UNL     1     -35.330   6.263   4.098  1.00 20.00     0.012 C 
HETATM    2  C6  UNL     1     -34.138   6.153   3.146  1.00 20.00     0.007 C 
ENDROOT
BRANCH   2   3
HETATM    3  C4  UNL     1     -33.211   7.389   3.221  1.00 20.00     0.026 C 
BRANCH   3   4
HETATM    4  C7  UNL     1     -32.145   7.499   2.120  1.00 20.00     0.078 C 
HETATM    5  C2  UNL     1     -32.416   8.698   1.217  1.00 20.00     0.026 C 
HETATM    6 CL9  UNL     1     -32.102   6.020   1.115  1.00 20.00    -0.125 Cl
ENDBRANCH   3   4
ENDBRANCH   2   3
BRANCH   2   7
HETATM    7  C5  UNL     1     -33.352   4.871   3.459  1.00 20.00     0.171 C 
BRANCH   7   8
HETATM    8  O8  UNL     1     -34.147   3.990   4.241  1.00 20.00    -0.396 OA
HETATM    9  C3  UNL     1     -33.370   2.934   4.789  1.00 20.00     0.201 C 
ENDBRANCH   7   8
ENDBRANCH   2   7
TORSDOF 4
ENDMDL
MODEL 4
REMARK VINA RESULT:      -1.5      3.062      4.984
REMARK  4 active torsions:
REMARK  status: ('A' for Active; 'I' for Inactive)
REMARK    1  A    between atoms: C4_4  and  C6_6 
REMARK    2  A    between atoms: C4_4  and  C7_7 
REMARK    3  A    between atoms: C5_5  and  C6_6 
REMARK    4  A    between atoms: C5_5  and  O8_8 
ROOT
HETATM    1  C1  UNL     1     -35.366   6.875   4.025  1.00 20.00     0.012 C 
HETATM    2  C6  UNL     1     -34.553   5.702   3.475  1.00 20.00     0.007 C 
ENDROOT
BRANCH   2   3
HETATM    3  C4  UNL     1     -33.096   6.103   3.141  1.00 20.00     0.026 C 
BRANCH   3   4
HETATM    4  C7  UNL     1     -32.806   6.418   1.665  1.00 20.00     0.078 C 
HETATM    5  C2  UNL     1     -32.068   5.263   0.997  1.00 20.00     0.026 C 
HETATM    6 CL9  UNL     1     -31.819   7.902   1.505  1.00 20.00    -0.125 Cl
ENDBRANCH   3   4
ENDBRANCH   2   3
BRANCH   2   7
HETATM    7  C5  UNL     1     -34.574   4.547   4.488  1.00 20.00     0.171 C 
BRANCH   7   8
HETATM    8  O8  UNL     1     -33.843   3.440   3.980  1.00 20.00    -0.396 OA
HETATM    9  C3  UNL     1     -33.017   2.857   4.978  1.00 20.00     0.201 C 
ENDBRANCH   7   8
ENDBRANCH   2   7
TORSDOF 4
ENDMDL
MODEL 5
REMARK VINA RESULT:      -1.5      1.496      1.505
REMARK  4 active torsions:
REMARK  status: ('A' for Active; 'I' for Inactive)
REMARK    1  A    between atoms: C4_4  and  C6_6 
REMARK    2  A    between atoms: C4_4  and  C7_7 
REMARK    3  A    between atoms: C5_5  and  C6_6 
REMARK    4  A    between atoms: C5_5  and  O8_8 
ROOT
HETATM    1  C1  UNL     1     -31.985   5.561   1.731  1.00 20.00     0.012 C 
HETATM    2  C6  UNL     1     -32.770   6.838   1.426  1.00 20.00     0.007 C 
ENDROOT
BRANCH   2   3
HETATM    3  C4  UNL     1     -34.094   6.918   2.223  1.00 20.00     0.026 C 
BRANCH   3   4
HETATM    4  C7  UNL     1     -34.009   6.536   3.709  1.00 20.00     0.078 C 
HETATM    5  C2  UNL     1     -35.300   5.871   4.175  1.00 20.00     0.026 C 
HETATM    6 CL9  UNL     1     -33.702   7.974   4.727  1.00 20.00    -0.125 Cl
ENDBRANCH   3   4
ENDBRANCH   2   3
BRANCH   2   7
HETATM    7  C5  UNL     1     -31.889   8.062   1.724  1.00 20.00     0.171 C 
BRANCH   7   8
HETATM    8  O8  UNL     1     -31.615   8.769   0.522  1.00 20.00    -0.396 OA
HETATM    9  C3  UNL     1     -32.474   9.890   0.369  1.00 20.00     0.201 C 
ENDBRANCH   7   8
ENDBRANCH   2   7
TORSDOF 4
ENDMDL
MODEL 6
REMARK VINA RESULT:      -1.4      1.430      1.870
REMARK  4 active torsions:
REMARK  status: ('A' for Active; 'I' for Inactive)
REMARK    1  A    between atoms: C4_4  and  C6_6 
REMARK    2  A    between atoms: C4_4  and  C7_7 
REMARK    3  A    between atoms: C5_5  and  C6_6 
REMARK    4  A    between atoms: C5_5  and  O8_8 
ROOT
HETATM    1  C1  UNL     1     -32.308   8.370   3.275  1.00 20.00     0.012 C 
HETATM    2  C6  UNL     1     -32.131   7.328   2.169  1.00 20.00     0.007 C 
ENDROOT
BRANCH   2   3
HETATM    3  C4  UNL     1     -33.275   6.287   2.155  1.00 20.00     0.026 C 
BRANCH   3   4
HETATM    4  C7  UNL     1     -33.832   5.881   3.529  1.00 20.00     0.078 C 
HETATM    5  C2  UNL     1     -33.863   4.364   3.678  1.00 20.00     0.026 C 
HETATM    6 CL9  UNL     1     -35.488   6.516   3.765  1.00 20.00    -0.125 Cl
ENDBRANCH   3   4
ENDBRANCH   2   3
BRANCH   2   7
HETATM    7  C5  UNL     1     -32.035   8.039   0.810  1.00 20.00     0.171 C 
BRANCH   7   8
HETATM    8  O8  UNL     1     -32.325   9.422   0.961  1.00 20.00    -0.396 OA
HETATM    9  C3  UNL     1     -32.613  10.034  -0.288  1.00 20.00     0.201 C 
ENDBRANCH   7   8
ENDBRANCH   2   7
TORSDOF 4
ENDMDL
MODEL 7
REMARK VINA RESULT:      -1.2      3.142      4.927
REMARK  4 active torsions:
REMARK  status: ('A' for Active; 'I' for Inactive)
REMARK    1  A    between atoms: C4_4  and  C6_6 
REMARK    2  A    between atoms: C4_4  and  C7_7 
REMARK    3  A    between atoms: C5_5  and  C6_6 
REMARK    4  A    between atoms: C5_5  and  O8_8 
ROOT
HETATM    1  C1  UNL     1     -35.281   6.417   4.144  1.00 20.00     0.012 C 
HETATM    2  C6  UNL     1     -34.194   6.261   3.079  1.00 20.00     0.007 C 
ENDROOT
BRANCH   2   3
HETATM    3  C4  UNL     1     -33.256   7.489   3.012  1.00 20.00     0.026 C 
BRANCH   3   4
HETATM    4  C7  UNL     1     -32.615   7.774   1.645  1.00 20.00     0.078 C 
HETATM    5  C2  UNL     1     -31.147   7.360   1.635  1.00 20.00     0.026 C 
HETATM    6 CL9  UNL     1     -32.727   9.510   1.229  1.00 20.00    -0.125 Cl
ENDBRANCH   3   4
ENDBRANCH   2   3
BRANCH   2   7
HETATM    7  C5  UNL     1     -33.388   4.983   3.358  1.00 20.00     0.171 C 
BRANCH   7   8
HETATM    8  O8  UNL     1     -34.164   4.075   4.127  1.00 20.00    -0.396 OA
HETATM    9  C3  UNL     1     -33.366   3.025   4.656  1.00 20.00     0.201 C 
ENDBRANCH   7   8
ENDBRANCH   2   7
TORSDOF 4
ENDMDL
MODEL 8
REMARK VINA RESULT:      -1.2      2.912      4.573
REMARK  4 active torsions:
REMARK  status: ('A' for Active; 'I' for Inactive)
REMARK    1  A    between atoms: C4_4  and  C6_6 
REMARK    2  A    between atoms: C4_4  and  C7_7 
REMARK    3  A    between atoms: C5_5  and  C6_6 
REMARK    4  A    between atoms: C5_5  and  O8_8 
ROOT
HETATM    1  C1  UNL     1     -32.511   6.060   1.113  1.00 20.00     0.012 C 
HETATM    2  C6  UNL     1     -32.174   7.142   2.140  1.00 20.00     0.007 C 
ENDROOT
BRANCH   2   3
HETATM    3  C4  UNL     1     -31.646   8.436   1.477  1.00 20.00     0.026 C 
BRANCH   3   4
HETATM    4  C7  UNL     1     -32.677   9.260   0.692  1.00 20.00     0.078 C 
HETATM    5  C2  UNL     1     -32.378   9.225  -0.803  1.00 20.00     0.026 C 
HETATM    6 CL9  UNL     1     -32.690  10.965   1.236  1.00 20.00    -0.125 Cl
ENDBRANCH   3   4
ENDBRANCH   2   3
BRANCH   2   7
HETATM    7  C5  UNL     1     -33.419   7.443   2.990  1.00 20.00     0.171 C 
BRANCH   7   8
HETATM    8  O8  UNL     1     -34.039   6.230   3.394  1.00 20.00    -0.396 OA
HETATM    9  C3  UNL     1     -35.297   6.467   4.010  1.00 20.00     0.201 C 
ENDBRANCH   7   8
ENDBRANCH   2   7
TORSDOF 4
ENDMDL
MODEL 9
REMARK VINA RESULT:      -1.1      2.944      4.891
REMARK  4 active torsions:
REMARK  status: ('A' for Active; 'I' for Inactive)
REMARK    1  A    between atoms: C4_4  and  C6_6 
REMARK    2  A    between atoms: C4_4  and  C7_7 
REMARK    3  A    between atoms: C5_5  and  C6_6 
REMARK    4  A    between atoms: C5_5  and  O8_8 
ROOT
HETATM    1  C1  UNL     1     -35.454   6.768   3.871  1.00 20.00     0.012 C 
HETATM    2  C6  UNL     1     -34.610   5.593   3.375  1.00 20.00     0.007 C 
ENDROOT
BRANCH   2   3
HETATM    3  C4  UNL     1     -33.238   6.048   2.825  1.00 20.00     0.026 C 
BRANCH   3   4
HETATM    4  C7  UNL     1     -33.015   7.566   2.742  1.00 20.00     0.078 C 
HETATM    5  C2  UNL     1     -31.889   7.899   1.768  1.00 20.00     0.026 C 
HETATM    6 CL9  UNL     1     -32.607   8.246   4.346  1.00 20.00    -0.125 Cl
ENDBRANCH   3   4
ENDBRANCH   2   3
BRANCH   2   7
HETATM    7  C5  UNL     1     -34.424   4.581   4.516  1.00 20.00     0.171 C 
BRANCH   7   8
HETATM    8  O8  UNL     1     -33.840   3.386   4.016  1.00 20.00    -0.396 OA
HETATM    9  C3  UNL     1     -32.928   2.822   4.948  1.00 20.00     0.201 C 
ENDBRANCH   7   8
ENDBRANCH   2   7
TORSDOF 4
ENDMDL
