MODEL 1
REMARK VINA RESULT:      -2.6      0.000      0.000
REMARK  3 active torsions:
REMARK  status: ('A' for Active; 'I' for Inactive)
REMARK    1  A    between atoms: C1_1  and  C5_5 
REMARK    2  A    between atoms: C2_2  and  C7_7 
REMARK    3  A    between atoms: C5_5  and  C6_6 
ROOT
HETATM    1  C1  UNL     1     -33.963   6.570   3.088  1.00 20.00    -0.029 C 
HETATM    2  C2  UNL     1     -33.157   7.636   2.980  1.00 20.00    -0.027 C 
ENDROOT
BRANCH   1   3
HETATM    3  C5  UNL     1     -35.093   6.474   4.073  1.00 20.00     0.042 C 
BRANCH   3   4
HETATM    4  C6  UNL     1     -35.331   5.047   4.559  1.00 20.00     0.118 C 
HETATM    5 CL8  UNL     1     -33.964   3.980   4.157  1.00 20.00    -0.130 Cl
ENDBRANCH   3   4
ENDBRANCH   1   3
BRANCH   2   6
HETATM    6  C7  UNL     1     -32.024   7.732   1.990  1.00 20.00    -0.001 C 
HETATM    7  C3  UNL     1     -32.273   8.881   1.011  1.00 20.00     0.013 C 
HETATM    8  C4  UNL     1     -31.868   6.410   1.238  1.00 20.00     0.013 C 
ENDBRANCH   2   6
TORSDOF 3
ENDMDL
MODEL 2
REMARK VINA RESULT:      -2.2      2.889      4.846
REMARK  3 active torsions:
REMARK  status: ('A' for Active; 'I' for Inactive)
REMARK    1  A    between atoms: C1_1  and  C5_5 
REMARK    2  A    between atoms: C2_2  and  C7_7 
REMARK    3  A    between atoms: C5_5  and  C6_6 
ROOT
HETATM    1  C1  UNL     1     -32.624   7.559   2.515  1.00 20.00    -0.029 C 
HETATM    2  C2  UNL     1     -33.378   6.449   2.544  1.00 20.00    -0.027 C 
ENDROOT
BRANCH   1   3
HETATM    3  C5  UNL     1     -31.956   8.083   1.276  1.00 20.00     0.042 C 
BRANCH   3   4
HETATM    4  C6  UNL     1     -32.266   9.554   1.017  1.00 20.00     0.118 C 
HETATM    5 CL8  UNL     1     -32.758   9.835  -0.670  1.00 20.00    -0.130 Cl
ENDBRANCH   3   4
ENDBRANCH   1   3
BRANCH   2   6
HETATM    6  C7  UNL     1     -34.050   5.926   3.787  1.00 20.00    -0.001 C 
HETATM    7  C3  UNL     1     -34.035   4.397   3.792  1.00 20.00     0.013 C 
HETATM    8  C4  UNL     1     -35.484   6.449   3.870  1.00 20.00     0.013 C 
ENDBRANCH   2   6
TORSDOF 3
ENDMDL
MODEL 3
REMARK VINA RESULT:      -2.1      2.852      4.643
REMARK  3 active torsions:
REMARK  status: ('A' for Active; 'I' for Inactive)
REMARK    1  A    between atoms: C1_1  and  C5_5 
REMARK    2  A    between atoms: C2_2  and  C7_7 
REMARK    3  A    between atoms: C5_5  and  C6_6 
ROOT
HETATM    1  C1  UNL     1     -32.754   7.676   2.346  1.00 20.00    -0.029 C 
HETATM    2  C2  UNL     1     -33.189   6.407   2.364  1.00 20.00    -0.027 C 
ENDROOT
BRANCH   1   3
HETATM    3  C5  UNL     1     -31.605   8.153   1.504  1.00 20.00     0.042 C 
BRANCH   3   4
HETATM    4  C6  UNL     1     -32.061   8.895   0.252  1.00 20.00     0.118 C 
HETATM    5 CL8  UNL     1     -32.678  10.519   0.638  1.00 20.00    -0.130 Cl
ENDBRANCH   3   4
ENDBRANCH   1   3
BRANCH   2   6
HETATM    6  C7  UNL     1     -34.343   5.929   3.207  1.00 20.00    -0.001 C 
HETATM    7  C3  UNL     1     -34.698   6.978   4.261  1.00 20.00     0.013 C 
HETATM    8  C4  UNL     1     -33.996   4.597   3.871  1.00 20.00     0.013 C 
ENDBRANCH   2   6
TORSDOF 3
ENDMDL
MODEL 4
REMARK VINA RESULT:      -2.1      2.939      4.838
REMARK  3 active torsions:
REMARK  status: ('A' for Active; 'I' for Inactive)
REMARK    1  A    between atoms: C1_1  and  C5_5 
REMARK    2  A    between atoms: C2_2  and  C7_7 
REMARK    3  A    between atoms: C5_5  and  C6_6 
ROOT
HETATM    1  C1  UNL     1     -32.341   8.125   2.150  1.00 20.00    -0.029 C 
HETATM    2  C2  UNL     1     -33.134   7.085   2.450  1.00 20.00    -0.027 C 
ENDROOT
BRANCH   1   3
HETATM    3  C5  UNL     1     -31.725   8.342   0.797  1.00 20.00     0.042 C 
BRANCH   3   4
HETATM    4  C6  UNL     1     -32.461   9.397  -0.022  1.00 20.00     0.118 C 
HETATM    5 CL8  UNL     1     -32.656  10.916   0.886  1.00 20.00    -0.130 Cl
ENDBRANCH   3   4
ENDBRANCH   1   3
BRANCH   2   6
HETATM    6  C7  UNL     1     -33.753   6.870   3.807  1.00 20.00    -0.001 C 
HETATM    7  C3  UNL     1     -35.210   6.432   3.661  1.00 20.00     0.013 C 
HETATM    8  C4  UNL     1     -33.657   8.148   4.640  1.00 20.00     0.013 C 
ENDBRANCH   2   6
TORSDOF 3
ENDMDL
MODEL 5
REMARK VINA RESULT:      -1.8      0.753      1.584
REMARK  3 active torsions:
REMARK  status: ('A' for Active; 'I' for Inactive)
REMARK    1  A    between atoms: C1_1  and  C5_5 
REMARK    2  A    between atoms: C2_2  and  C7_7 
REMARK    3  A    between atoms: C5_5  and  C6_6 
ROOT
HETATM    1  C1  UNL     1     -33.878   6.611   3.389  1.00 20.00    -0.029 C 
HETATM    2  C2  UNL     1     -33.771   6.413   2.067  1.00 20.00    -0.027 C 
ENDROOT
BRANCH   1   3
HETATM    3  C5  UNL     1     -35.147   6.404   4.165  1.00 20.00     0.042 C 
BRANCH   3   4
HETATM    4  C6  UNL     1     -35.349   4.951   4.585  1.00 20.00     0.118 C 
HETATM    5 CL8  UNL     1     -33.914   3.959   4.232  1.00 20.00    -0.130 Cl
ENDBRANCH   3   4
ENDBRANCH   1   3
BRANCH   2   6
HETATM    6  C7  UNL     1     -32.496   6.620   1.290  1.00 20.00    -0.001 C 
HETATM    7  C3  UNL     1     -31.633   5.360   1.344  1.00 20.00     0.013 C 
HETATM    8  C4  UNL     1     -31.729   7.821   1.845  1.00 20.00     0.013 C 
ENDBRANCH   2   6
TORSDOF 3
ENDMDL
MODEL 6
REMARK VINA RESULT:      -1.8      0.727      1.289
REMARK  3 active torsions:
REMARK  status: ('A' for Active; 'I' for Inactive)
REMARK    1  A    between atoms: C1_1  and  C5_5 
REMARK    2  A    between atoms: C2_2  and  C7_7 
REMARK    3  A    between atoms: C5_5  and  C6_6 
ROOT
HETATM    1  C1  UNL     1     -33.950   7.012   3.519  1.00 20.00    -0.029 C 
HETATM    2  C2  UNL     1     -33.382   7.149   2.312  1.00 20.00    -0.027 C 
ENDROOT
BRANCH   1   3
HETATM    3  C5  UNL     1     -35.258   6.310   3.752  1.00 20.00     0.042 C 
BRANCH   3   4
HETATM    4  C6  UNL     1     -35.116   5.086   4.651  1.00 20.00     0.118 C 
HETATM    5 CL8  UNL     1     -33.899   3.947   4.025  1.00 20.00    -0.130 Cl
ENDBRANCH   3   4
ENDBRANCH   1   3
BRANCH   2   6
HETATM    6  C7  UNL     1     -32.069   7.852   2.079  1.00 20.00    -0.001 C 
HETATM    7  C3  UNL     1     -31.637   8.598   3.342  1.00 20.00     0.013 C 
HETATM    8  C4  UNL     1     -32.189   8.817   0.900  1.00 20.00     0.013 C 
ENDBRANCH   2   6
TORSDOF 3
ENDMDL
MODEL 7
REMARK VINA RESULT:      -1.5      1.539      2.290
REMARK  3 active torsions:
REMARK  status: ('A' for Active; 'I' for Inactive)
REMARK    1  A    between atoms: C1_1  and  C5_5 
REMARK    2  A    between atoms: C2_2  and  C7_7 
REMARK    3  A    between atoms: C5_5  and  C6_6 
ROOT
HETATM    1  C1  UNL     1     -32.448   7.134   1.645  1.00 20.00    -0.029 C 
HETATM    2  C2  UNL     1     -32.542   8.472   1.686  1.00 20.00    -0.027 C 
ENDROOT
BRANCH   1   3
HETATM    3  C5  UNL     1     -33.196   6.216   2.569  1.00 20.00     0.042 C 
BRANCH   3   4
HETATM    4  C6  UNL     1     -33.991   6.970   3.630  1.00 20.00     0.118 C 
HETATM    5 CL8  UNL     1     -35.463   6.085   4.100  1.00 20.00    -0.130 Cl
ENDBRANCH   3   4
ENDBRANCH   1   3
BRANCH   2   6
HETATM    6  C7  UNL     1     -31.794   9.393   0.756  1.00 20.00    -0.001 C 
HETATM    7  C3  UNL     1     -32.742  10.439   0.171  1.00 20.00     0.013 C 
HETATM    8  C4  UNL     1     -31.128   8.587  -0.359  1.00 20.00     0.013 C 
ENDBRANCH   2   6
TORSDOF 3
ENDMDL
MODEL 8
REMARK VINA RESULT:      -1.5      1.169      1.737
REMARK  3 active torsions:
REMARK  status: ('A' for Active; 'I' for Inactive)
REMARK    1  A    between atoms: C1_1  and  C5_5 
REMARK    2  A    between atoms: C2_2  and  C7_7 
REMARK    3  A    between atoms: C5_5  and  C6_6 
ROOT
HETATM    1  C1  UNL     1     -34.313   6.356   3.849  1.00 20.00    -0.029 C 
HETATM    2  C2  UNL     1     -33.373   6.536   2.909  1.00 20.00    -0.027 C 
ENDROOT
BRANCH   1   3
HETATM    3  C5  UNL     1     -34.832   5.009   4.265  1.00 20.00     0.042 C 
BRANCH   3   4
HETATM    4  C6  UNL     1     -33.958   3.862   3.765  1.00 20.00     0.118 C 
HETATM    5 CL8  UNL     1     -33.130   3.035   5.106  1.00 20.00    -0.130 Cl
ENDBRANCH   3   4
ENDBRANCH   1   3
BRANCH   2   6
HETATM    6  C7  UNL     1     -32.852   7.888   2.494  1.00 20.00    -0.001 C 
HETATM    7  C3  UNL     1     -31.841   7.739   1.357  1.00 20.00     0.013 C 
HETATM    8  C4  UNL     1     -32.215   8.596   3.690  1.00 20.00     0.013 C 
ENDBRANCH   2   6
TORSDOF 3
ENDMDL
MODEL 9
REMARK VINA RESULT:      -1.3      1.789      2.621
REMARK  3 active torsions:
REMARK  status: ('A' for Active; 'I' for Inactive)
REMARK    1  A    between atoms: C1_1  and  C5_5 
REMARK    2  A    between atoms: C2_2  and  C7_7 
REMARK    3  A    between atoms: C5_5  and  C6_6 
ROOT
HETATM    1  C1  UNL     1     -32.911   7.356   1.447  1.00 20.00    -0.029 C 
HETATM    2  C2  UNL     1     -31.965   8.305   1.474  1.00 20.00    -0.027 C 
ENDROOT
BRANCH   1   3
HETATM    3  C5  UNL     1     -32.903   6.142   2.333  1.00 20.00     0.042 C 
BRANCH   3   4
HETATM    4  C6  UNL     1     -34.077   6.116   3.306  1.00 20.00     0.118 C 
HETATM    5 CL8  UNL     1     -34.229   7.652   4.194  1.00 20.00    -0.130 Cl
ENDBRANCH   3   4
ENDBRANCH   1   3
BRANCH   2   6
HETATM    6  C7  UNL     1     -31.975   9.524   0.587  1.00 20.00    -0.001 C 
HETATM    7  C3  UNL     1     -32.860  10.613   1.193  1.00 20.00     0.013 C 
HETATM    8  C4  UNL     1     -32.463   9.151  -0.813  1.00 20.00     0.013 C 
ENDBRANCH   2   6
TORSDOF 3
ENDMDL
