MODEL 1
REMARK VINA RESULT:      -2.0      0.000      0.000
REMARK  2 active torsions:
REMARK  status: ('A' for Active; 'I' for Inactive)
REMARK    1  A    between atoms: C4_4  and  C7_7 
REMARK    2  A    between atoms: C7_7  and  O8_8 
ROOT
HETATM    1  C1  UNL     1     -34.505   7.241   4.397  1.00 20.00     0.008 C 
HETATM    2  C2  UNL     1     -33.725   8.202   3.511  1.00 20.00     0.020 C 
HETATM    3  C3  UNL     1     -33.490   6.018   2.529  1.00 20.00     0.027 C 
HETATM    4  C4  UNL     1     -34.652   5.978   3.539  1.00 20.00     0.011 C 
HETATM    5  C5  UNL     1     -32.700   7.280   2.873  1.00 20.00     0.082 C 
HETATM    6 CL9  UNL     1     -31.931   8.008   1.454  1.00 20.00    -0.125 Cl
ENDROOT
BRANCH   4   7
HETATM    7  C7  UNL     1     -34.670   4.707   4.375  1.00 20.00     0.171 C 
BRANCH   7   8
HETATM    8  O8  UNL     1     -33.731   3.794   3.834  1.00 20.00    -0.396 OA
HETATM    9  C6  UNL     1     -33.169   2.961   4.841  1.00 20.00     0.201 C 
ENDBRANCH   7   8
ENDBRANCH   4   7
TORSDOF 2
ENDMDL
MODEL 2
REMARK VINA RESULT:      -1.8      3.153      4.533
REMARK  2 active torsions:
REMARK  status: ('A' for Active; 'I' for Inactive)
REMARK    1  A    between atoms: C4_4  and  C7_7 
REMARK    2  A    between atoms: C7_7  and  O8_8 
ROOT
HETATM    1  C1  UNL     1     -32.949   8.457   3.534  1.00 20.00     0.008 C 
HETATM    2  C2  UNL     1     -33.862   7.664   4.458  1.00 20.00     0.020 C 
HETATM    3  C3  UNL     1     -33.417   6.255   2.559  1.00 20.00     0.027 C 
HETATM    4  C4  UNL     1     -32.391   7.404   2.568  1.00 20.00     0.011 C 
HETATM    5  C5  UNL     1     -34.541   6.711   3.489  1.00 20.00     0.082 C 
HETATM    6 CL9  UNL     1     -35.329   5.358   4.316  1.00 20.00    -0.125 Cl
ENDROOT
BRANCH   4   7
HETATM    7  C7  UNL     1     -32.123   7.972   1.182  1.00 20.00     0.171 C 
BRANCH   7   8
HETATM    8  O8  UNL     1     -32.417   9.358   1.194  1.00 20.00    -0.396 OA
HETATM    9  C6  UNL     1     -32.496   9.890  -0.123  1.00 20.00     0.201 C 
ENDBRANCH   7   8
ENDBRANCH   4   7
TORSDOF 2
ENDMDL
MODEL 3
REMARK VINA RESULT:      -1.6      3.173      4.775
REMARK  2 active torsions:
REMARK  status: ('A' for Active; 'I' for Inactive)
REMARK    1  A    between atoms: C4_4  and  C7_7 
REMARK    2  A    between atoms: C7_7  and  O8_8 
ROOT
HETATM    1  C1  UNL     1     -32.513   5.887   1.621  1.00 20.00     0.008 C 
HETATM    2  C2  UNL     1     -33.636   5.193   2.378  1.00 20.00     0.020 C 
HETATM    3  C3  UNL     1     -33.798   7.535   2.906  1.00 20.00     0.027 C 
HETATM    4  C4  UNL     1     -32.892   7.372   1.671  1.00 20.00     0.011 C 
HETATM    5  C5  UNL     1     -33.871   6.146   3.538  1.00 20.00     0.082 C 
HETATM    6 CL9  UNL     1     -35.415   5.849   4.352  1.00 20.00    -0.125 Cl
ENDROOT
BRANCH   4   7
HETATM    7  C7  UNL     1     -31.673   8.282   1.704  1.00 20.00     0.171 C 
BRANCH   7   8
HETATM    8  O8  UNL     1     -31.559   8.937   0.453  1.00 20.00    -0.396 OA
HETATM    9  C6  UNL     1     -32.484  10.011   0.336  1.00 20.00     0.201 C 
ENDBRANCH   7   8
ENDBRANCH   4   7
TORSDOF 2
ENDMDL
MODEL 4
REMARK VINA RESULT:      -1.2      0.959      1.066
REMARK  2 active torsions:
REMARK  status: ('A' for Active; 'I' for Inactive)
REMARK    1  A    between atoms: C4_4  and  C7_7 
REMARK    2  A    between atoms: C7_7  and  O8_8 
ROOT
HETATM    1  C1  UNL     1     -33.931   6.594   3.790  1.00 20.00     0.008 C 
HETATM    2  C2  UNL     1     -33.639   7.958   3.181  1.00 20.00     0.020 C 
HETATM    3  C3  UNL     1     -32.812   6.320   1.625  1.00 20.00     0.027 C 
HETATM    4  C4  UNL     1     -33.754   5.618   2.620  1.00 20.00     0.011 C 
HETATM    5  C5  UNL     1     -32.454   7.654   2.280  1.00 20.00     0.082 C 
HETATM    6 CL9  UNL     1     -32.163   8.936   1.095  1.00 20.00    -0.125 Cl
ENDROOT
BRANCH   4   7
HETATM    7  C7  UNL     1     -33.237   4.259   3.071  1.00 20.00     0.171 C 
BRANCH   7   8
HETATM    8  O8  UNL     1     -33.981   3.842   4.202  1.00 20.00    -0.396 OA
HETATM    9  C6  UNL     1     -33.265   2.892   4.981  1.00 20.00     0.201 C 
ENDBRANCH   7   8
ENDBRANCH   4   7
TORSDOF 2
ENDMDL
MODEL 5
REMARK VINA RESULT:      -0.9      2.876      4.166
REMARK  2 active torsions:
REMARK  status: ('A' for Active; 'I' for Inactive)
REMARK    1  A    between atoms: C4_4  and  C7_7 
REMARK    2  A    between atoms: C7_7  and  O8_8 
ROOT
HETATM    1  C1  UNL     1     -35.085   6.482   3.735  1.00 20.00     0.008 C 
HETATM    2  C2  UNL     1     -35.079   5.191   4.540  1.00 20.00     0.020 C 
HETATM    3  C3  UNL     1     -32.975   5.284   3.378  1.00 20.00     0.027 C 
HETATM    4  C4  UNL     1     -33.616   6.684   3.343  1.00 20.00     0.011 C 
HETATM    5  C5  UNL     1     -34.109   4.330   3.749  1.00 20.00     0.082 C 
HETATM    6 CL9  UNL     1     -33.545   2.929   4.673  1.00 20.00    -0.125 Cl
ENDROOT
BRANCH   4   7
HETATM    7  C7  UNL     1     -33.463   7.374   1.996  1.00 20.00     0.171 C 
BRANCH   7   8
HETATM    8  O8  UNL     1     -32.146   7.887   1.893  1.00 20.00    -0.396 OA
HETATM    9  C6  UNL     1     -32.071   8.961   0.963  1.00 20.00     0.201 C 
ENDBRANCH   7   8
ENDBRANCH   4   7
TORSDOF 2
ENDMDL
MODEL 6
REMARK VINA RESULT:      -0.7      1.163      1.966
REMARK  2 active torsions:
REMARK  status: ('A' for Active; 'I' for Inactive)
REMARK    1  A    between atoms: C4_4  and  C7_7 
REMARK    2  A    between atoms: C7_7  and  O8_8 
ROOT
HETATM    1  C1  UNL     1     -33.491   5.468   2.011  1.00 20.00     0.008 C 
HETATM    2  C2  UNL     1     -32.386   6.288   1.360  1.00 20.00     0.020 C 
HETATM    3  C3  UNL     1     -33.197   7.582   3.218  1.00 20.00     0.027 C 
HETATM    4  C4  UNL     1     -33.692   6.133   3.378  1.00 20.00     0.011 C 
HETATM    5  C5  UNL     1     -32.768   7.704   1.757  1.00 20.00     0.082 C 
HETATM    6 CL9  UNL     1     -31.437   8.849   1.532  1.00 20.00    -0.125 Cl
ENDROOT
BRANCH   4   7
HETATM    7  C7  UNL     1     -35.133   6.047   3.860  1.00 20.00     0.171 C 
BRANCH   7   8
HETATM    8  O8  UNL     1     -35.311   4.819   4.546  1.00 20.00    -0.396 OA
HETATM    9  C6  UNL     1     -34.126   4.031   4.527  1.00 20.00     0.201 C 
ENDBRANCH   7   8
ENDBRANCH   4   7
TORSDOF 2
ENDMDL
MODEL 7
REMARK VINA RESULT:      -0.6      1.996      2.664
REMARK  2 active torsions:
REMARK  status: ('A' for Active; 'I' for Inactive)
REMARK    1  A    between atoms: C4_4  and  C7_7 
REMARK    2  A    between atoms: C7_7  and  O8_8 
ROOT
HETATM    1  C1  UNL     1     -32.371   8.010   2.475  1.00 20.00     0.008 C 
HETATM    2  C2  UNL     1     -31.596   7.295   1.378  1.00 20.00     0.020 C 
HETATM    3  C3  UNL     1     -33.377   5.817   2.034  1.00 20.00     0.027 C 
HETATM    4  C4  UNL     1     -33.685   7.226   2.574  1.00 20.00     0.011 C 
HETATM    5  C5  UNL     1     -31.891   5.836   1.683  1.00 20.00     0.082 C 
HETATM    6 CL9  UNL     1     -31.500   4.771   0.323  1.00 20.00    -0.125 Cl
ENDROOT
BRANCH   4   7
HETATM    7  C7  UNL     1     -34.247   7.210   3.989  1.00 20.00     0.171 C 
BRANCH   7   8
HETATM    8  O8  UNL     1     -35.426   6.425   4.002  1.00 20.00    -0.396 OA
HETATM    9  C6  UNL     1     -35.192   5.136   4.556  1.00 20.00     0.201 C 
ENDBRANCH   7   8
ENDBRANCH   4   7
TORSDOF 2
ENDMDL
MODEL 8
REMARK VINA RESULT:      -0.3      3.255      4.812
REMARK  2 active torsions:
REMARK  status: ('A' for Active; 'I' for Inactive)
REMARK    1  A    between atoms: C4_4  and  C7_7 
REMARK    2  A    between atoms: C7_7  and  O8_8 
ROOT
HETATM    1  C1  UNL     1     -33.533   7.525   2.913  1.00 20.00     0.008 C 
HETATM    2  C2  UNL     1     -33.313   6.030   2.731  1.00 20.00     0.020 C 
HETATM    3  C3  UNL     1     -31.721   7.136   1.306  1.00 20.00     0.027 C 
HETATM    4  C4  UNL     1     -32.274   8.163   2.313  1.00 20.00     0.011 C 
HETATM    5  C5  UNL     1     -32.705   5.968   1.340  1.00 20.00     0.082 C 
HETATM    6 CL9  UNL     1     -31.924   4.413   1.015  1.00 20.00    -0.125 Cl
ENDROOT
BRANCH   4   7
HETATM    7  C7  UNL     1     -32.555   9.520   1.684  1.00 20.00     0.171 C 
BRANCH   7   8
HETATM    8  O8  UNL     1     -32.014   9.535   0.374  1.00 20.00    -0.396 OA
HETATM    9  C6  UNL     1     -32.857  10.235  -0.533  1.00 20.00     0.201 C 
ENDBRANCH   7   8
ENDBRANCH   4   7
TORSDOF 2
ENDMDL
MODEL 9
REMARK VINA RESULT:      -0.2      2.310      3.416
REMARK  2 active torsions:
REMARK  status: ('A' for Active; 'I' for Inactive)
REMARK    1  A    between atoms: C4_4  and  C7_7 
REMARK    2  A    between atoms: C7_7  and  O8_8 
ROOT
HETATM    1  C1  UNL     1     -31.578   7.180   1.205  1.00 20.00     0.008 C 
HETATM    2  C2  UNL     1     -31.274   8.497   0.506  1.00 20.00     0.020 C 
HETATM    3  C3  UNL     1     -33.042   8.945   2.076  1.00 20.00     0.027 C 
HETATM    4  C4  UNL     1     -32.402   7.590   2.432  1.00 20.00     0.011 C 
HETATM    5  C5  UNL     1     -32.593   9.239   0.645  1.00 20.00     0.082 C 
HETATM    6 CL9  UNL     1     -32.426  10.973   0.329  1.00 20.00    -0.125 Cl
ENDROOT
BRANCH   4   7
HETATM    7  C7  UNL     1     -33.425   6.534   2.824  1.00 20.00     0.171 C 
BRANCH   7   8
HETATM    8  O8  UNL     1     -34.278   7.074   3.818  1.00 20.00    -0.396 OA
HETATM    9  C6  UNL     1     -35.361   6.200   4.112  1.00 20.00     0.201 C 
ENDBRANCH   7   8
ENDBRANCH   4   7
TORSDOF 2
ENDMDL
