MODEL 1
REMARK VINA RESULT:      -0.6      0.000      0.000
REMARK  3 active torsions:
REMARK  status: ('A' for Active; 'I' for Inactive)
REMARK    1  A    between atoms: C4_4  and  C9_9 
REMARK    2  A    between atoms: C7_7  and  C8_8 
REMARK    3  A    between atoms: C8_8  and  N11_11 
ROOT
HETATM    1  C1  UNL     1     -32.484   9.584   0.284  1.00 20.00     0.060 C 
HETATM    2  C7  UNL     1     -32.026   9.138   1.608  1.00 20.00     0.151 C 
HETATM    3  N10 UNL     1     -32.846   9.937  -0.760  1.00 20.00    -0.197 NA
ENDROOT
BRANCH   2   4
HETATM    4  C8  UNL     1     -31.627   7.670   1.615  1.00 20.00     0.249 C 
BRANCH   4   5
HETATM    5  N11 UNL     1     -32.830   6.813   1.528  1.00 20.00    -0.069 N 
HETATM    6  C2  UNL     1     -33.756   7.045   2.655  1.00 20.00     0.241 C 
HETATM    7  C4  UNL     1     -33.933   5.515   2.743  1.00 20.00     0.041 C 
HETATM    8  C3  UNL     1     -32.570   5.446   2.022  1.00 20.00     0.241 C 
HETATM    9  H28 UNL     1     -33.289   6.839   0.607  1.00 20.00     0.279 HD
BRANCH   7  10
HETATM   10  C9  UNL     1     -34.004   4.912   4.130  1.00 20.00    -0.015 C 
HETATM   11  C5  UNL     1     -35.409   5.058   4.722  1.00 20.00     0.010 C 
HETATM   12  C6  UNL     1     -33.592   3.437   4.111  1.00 20.00     0.010 C 
ENDBRANCH   7  10
ENDBRANCH   4   5
ENDBRANCH   2   4
TORSDOF 3
ENDMDL
MODEL 2
REMARK VINA RESULT:      -0.5      1.911      5.263
REMARK  3 active torsions:
REMARK  status: ('A' for Active; 'I' for Inactive)
REMARK    1  A    between atoms: C4_4  and  C9_9 
REMARK    2  A    between atoms: C7_7  and  C8_8 
REMARK    3  A    between atoms: C8_8  and  N11_11 
ROOT
HETATM    1  C1  UNL     1     -34.579   4.938   4.131  1.00 20.00     0.060 C 
HETATM    2  C7  UNL     1     -35.111   6.249   3.734  1.00 20.00     0.151 C 
HETATM    3  N10 UNL     1     -34.160   3.902   4.443  1.00 20.00    -0.197 NA
ENDROOT
BRANCH   2   4
HETATM    4  C8  UNL     1     -34.157   7.385   4.073  1.00 20.00     0.249 C 
BRANCH   4   5
HETATM    5  N11 UNL     1     -32.902   7.244   3.304  1.00 20.00    -0.069 N 
HETATM    6  C2  UNL     1     -32.317   8.556   2.957  1.00 20.00     0.241 C 
HETATM    7  C4  UNL     1     -32.034   7.987   1.550  1.00 20.00     0.041 C 
HETATM    8  C3  UNL     1     -33.158   6.980   1.873  1.00 20.00     0.241 C 
HETATM    9  H28 UNL     1     -32.228   6.593   3.729  1.00 20.00     0.279 HD
BRANCH   7  10
HETATM   10  C9  UNL     1     -32.266   8.916   0.378  1.00 20.00    -0.015 C 
HETATM   11  C5  UNL     1     -32.660  10.318   0.856  1.00 20.00     0.010 C 
HETATM   12  C6  UNL     1     -31.023   8.996  -0.514  1.00 20.00     0.010 C 
ENDBRANCH   7  10
ENDBRANCH   4   5
ENDBRANCH   2   4
TORSDOF 3
ENDMDL
MODEL 3
REMARK VINA RESULT:      -0.4      2.212      5.310
REMARK  3 active torsions:
REMARK  status: ('A' for Active; 'I' for Inactive)
REMARK    1  A    between atoms: C4_4  and  C9_9 
REMARK    2  A    between atoms: C7_7  and  C8_8 
REMARK    3  A    between atoms: C8_8  and  N11_11 
ROOT
HETATM    1  C1  UNL     1     -33.446   3.446   4.604  1.00 20.00     0.060 C 
HETATM    2  C7  UNL     1     -34.243   4.313   3.725  1.00 20.00     0.151 C 
HETATM    3  N10 UNL     1     -32.816   2.762   5.297  1.00 20.00    -0.197 NA
ENDROOT
BRANCH   2   4
HETATM    4  C8  UNL     1     -35.063   5.330   4.506  1.00 20.00     0.249 C 
BRANCH   4   5
HETATM    5  N11 UNL     1     -34.963   6.662   3.873  1.00 20.00    -0.069 N 
HETATM    6  C2  UNL     1     -34.518   6.573   2.467  1.00 20.00     0.241 C 
HETATM    7  C4  UNL     1     -33.593   7.775   2.750  1.00 20.00     0.041 C 
HETATM    8  C3  UNL     1     -33.704   7.348   4.228  1.00 20.00     0.241 C 
HETATM    9  H28 UNL     1     -35.801   7.246   4.003  1.00 20.00     0.279 HD
BRANCH   7  10
HETATM   10  C9  UNL     1     -32.213   7.737   2.129  1.00 20.00    -0.015 C 
HETATM   11  C5  UNL     1     -31.946   6.383   1.464  1.00 20.00     0.010 C 
HETATM   12  C6  UNL     1     -32.036   8.866   1.109  1.00 20.00     0.010 C 
ENDBRANCH   7  10
ENDBRANCH   4   5
ENDBRANCH   2   4
TORSDOF 3
ENDMDL
MODEL 4
REMARK VINA RESULT:      -0.1      1.374      1.951
REMARK  3 active torsions:
REMARK  status: ('A' for Active; 'I' for Inactive)
REMARK    1  A    between atoms: C4_4  and  C9_9 
REMARK    2  A    between atoms: C7_7  and  C8_8 
REMARK    3  A    between atoms: C8_8  and  N11_11 
ROOT
HETATM    1  C1  UNL     1     -32.683  10.055  -0.206  1.00 20.00     0.060 C 
HETATM    2  C7  UNL     1     -32.056   9.342   0.916  1.00 20.00     0.151 C 
HETATM    3  N10 UNL     1     -33.178  10.619  -1.090  1.00 20.00    -0.197 NA
ENDROOT
BRANCH   2   4
HETATM    4  C8  UNL     1     -31.540   7.969   0.510  1.00 20.00     0.249 C 
BRANCH   4   5
HETATM    5  N11 UNL     1     -31.745   7.002   1.610  1.00 20.00    -0.069 N 
HETATM    6  C2  UNL     1     -33.098   6.411   1.582  1.00 20.00     0.241 C 
HETATM    7  C4  UNL     1     -33.142   6.595   3.113  1.00 20.00     0.041 C 
HETATM    8  C3  UNL     1     -32.065   7.675   2.885  1.00 20.00     0.241 C 
HETATM    9  H28 UNL     1     -30.993   6.303   1.691  1.00 20.00     0.279 HD
BRANCH   7  10
HETATM   10  C9  UNL     1     -34.456   7.054   3.709  1.00 20.00    -0.015 C 
HETATM   11  C5  UNL     1     -35.308   5.859   4.150  1.00 20.00     0.010 C 
HETATM   12  C6  UNL     1     -34.223   7.997   4.893  1.00 20.00     0.010 C 
ENDBRANCH   7  10
ENDBRANCH   4   5
ENDBRANCH   2   4
TORSDOF 3
ENDMDL
MODEL 5
REMARK VINA RESULT:      -0.0      1.906      5.332
REMARK  3 active torsions:
REMARK  status: ('A' for Active; 'I' for Inactive)
REMARK    1  A    between atoms: C4_4  and  C9_9 
REMARK    2  A    between atoms: C7_7  and  C8_8 
REMARK    3  A    between atoms: C8_8  and  N11_11 
ROOT
HETATM    1  C1  UNL     1     -34.575   5.041   4.124  1.00 20.00     0.060 C 
HETATM    2  C7  UNL     1     -35.109   6.376   3.821  1.00 20.00     0.151 C 
HETATM    3  N10 UNL     1     -34.154   3.986   4.362  1.00 20.00    -0.197 NA
ENDROOT
BRANCH   2   4
HETATM    4  C8  UNL     1     -34.066   7.469   3.999  1.00 20.00     0.249 C 
BRANCH   4   5
HETATM    5  N11 UNL     1     -32.919   7.232   3.097  1.00 20.00    -0.069 N 
HETATM    6  C2  UNL     1     -32.018   8.401   3.029  1.00 20.00     0.241 C 
HETATM    7  C4  UNL     1     -31.943   8.176   1.504  1.00 20.00     0.041 C 
HETATM    8  C3  UNL     1     -33.283   7.430   1.679  1.00 20.00     0.241 C 
HETATM    9  H28 UNL     1     -32.428   6.345   3.276  1.00 20.00     0.279 HD
BRANCH   7  10
HETATM   10  C9  UNL     1     -31.958   9.412   0.630  1.00 20.00    -0.015 C 
HETATM   11  C5  UNL     1     -32.352   9.063  -0.809  1.00 20.00     0.010 C 
HETATM   12  C6  UNL     1     -32.909  10.473   1.192  1.00 20.00     0.010 C 
ENDBRANCH   7  10
ENDBRANCH   4   5
ENDBRANCH   2   4
TORSDOF 3
ENDMDL
MODEL 6
REMARK VINA RESULT:       0.2      1.700      5.482
REMARK  3 active torsions:
REMARK  status: ('A' for Active; 'I' for Inactive)
REMARK    1  A    between atoms: C4_4  and  C9_9 
REMARK    2  A    between atoms: C7_7  and  C8_8 
REMARK    3  A    between atoms: C8_8  and  N11_11 
ROOT
HETATM    1  C1  UNL     1     -33.883   4.452   3.907  1.00 20.00     0.060 C 
HETATM    2  C7  UNL     1     -33.873   5.762   3.242  1.00 20.00     0.151 C 
HETATM    3  N10 UNL     1     -33.893   3.417   4.431  1.00 20.00    -0.197 NA
ENDROOT
BRANCH   2   4
HETATM    4  C8  UNL     1     -33.021   5.763   1.981  1.00 20.00     0.249 C 
BRANCH   4   5
HETATM    5  N11 UNL     1     -32.083   6.906   1.999  1.00 20.00    -0.069 N 
HETATM    6  C2  UNL     1     -32.730   8.145   2.476  1.00 20.00     0.241 C 
HETATM    7  C4  UNL     1     -32.000   8.889   1.338  1.00 20.00     0.041 C 
HETATM    8  C3  UNL     1     -31.919   7.506   0.659  1.00 20.00     0.241 C 
HETATM    9  H28 UNL     1     -31.191   6.700   2.470  1.00 20.00     0.279 HD
BRANCH   7  10
HETATM   10  C9  UNL     1     -32.781   9.963   0.612  1.00 20.00    -0.015 C 
HETATM   11  C5  UNL     1     -32.388  11.359   1.104  1.00 20.00     0.010 C 
HETATM   12  C6  UNL     1     -32.575   9.863  -0.903  1.00 20.00     0.010 C 
ENDBRANCH   7  10
ENDBRANCH   4   5
ENDBRANCH   2   4
TORSDOF 3
ENDMDL
MODEL 7
REMARK VINA RESULT:       0.5      0.825      1.592
REMARK  3 active torsions:
REMARK  status: ('A' for Active; 'I' for Inactive)
REMARK    1  A    between atoms: C4_4  and  C9_9 
REMARK    2  A    between atoms: C7_7  and  C8_8 
REMARK    3  A    between atoms: C8_8  and  N11_11 
ROOT
HETATM    1  C1  UNL     1     -32.686  10.169  -0.246  1.00 20.00     0.060 C 
HETATM    2  C7  UNL     1     -32.102   9.343   0.820  1.00 20.00     0.151 C 
HETATM    3  N10 UNL     1     -33.146  10.821  -1.087  1.00 20.00    -0.197 NA
ENDROOT
BRANCH   2   4
HETATM    4  C8  UNL     1     -32.608   7.908   0.782  1.00 20.00     0.249 C 
BRANCH   4   5
HETATM    5  N11 UNL     1     -32.250   7.207   2.034  1.00 20.00    -0.069 N 
HETATM    6  C2  UNL     1     -32.448   5.747   1.924  1.00 20.00     0.241 C 
HETATM    7  C4  UNL     1     -33.069   5.789   3.336  1.00 20.00     0.041 C 
HETATM    8  C3  UNL     1     -33.333   7.279   3.035  1.00 20.00     0.241 C 
HETATM    9  H28 UNL     1     -31.327   7.470   2.405  1.00 20.00     0.279 HD
BRANCH   7  10
HETATM   10  C9  UNL     1     -34.281   4.915   3.576  1.00 20.00    -0.015 C 
HETATM   11  C5  UNL     1     -33.912   3.674   4.395  1.00 20.00     0.010 C 
HETATM   12  C6  UNL     1     -35.393   5.697   4.283  1.00 20.00     0.010 C 
ENDBRANCH   7  10
ENDBRANCH   4   5
ENDBRANCH   2   4
TORSDOF 3
ENDMDL
MODEL 8
REMARK VINA RESULT:       1.4      1.283      2.023
REMARK  3 active torsions:
REMARK  status: ('A' for Active; 'I' for Inactive)
REMARK    1  A    between atoms: C4_4  and  C9_9 
REMARK    2  A    between atoms: C7_7  and  C8_8 
REMARK    3  A    between atoms: C8_8  and  N11_11 
ROOT
HETATM    1  C1  UNL     1     -32.330   8.590   1.226  1.00 20.00     0.060 C 
HETATM    2  C7  UNL     1     -32.290   7.366   2.039  1.00 20.00     0.151 C 
HETATM    3  N10 UNL     1     -32.361   9.554   0.583  1.00 20.00    -0.197 NA
ENDROOT
BRANCH   2   4
HETATM    4  C8  UNL     1     -33.377   7.345   3.103  1.00 20.00     0.249 C 
BRANCH   4   5
HETATM    5  N11 UNL     1     -34.105   6.059   3.065  1.00 20.00    -0.069 N 
HETATM    6  C2  UNL     1     -34.215   5.446   4.405  1.00 20.00     0.241 C 
HETATM    7  C4  UNL     1     -33.872   4.094   3.746  1.00 20.00     0.041 C 
HETATM    8  C3  UNL     1     -33.237   4.947   2.627  1.00 20.00     0.241 C 
HETATM    9  H28 UNL     1     -35.001   6.106   2.560  1.00 20.00     0.279 HD
BRANCH   7  10
HETATM   10  C9  UNL     1     -32.946   3.174   4.513  1.00 20.00    -0.015 C 
HETATM   11  C5  UNL     1     -32.843   3.597   5.981  1.00 20.00     0.010 C 
HETATM   12  C6  UNL     1     -33.414   1.718   4.418  1.00 20.00     0.010 C 
ENDBRANCH   7  10
ENDBRANCH   4   5
ENDBRANCH   2   4
TORSDOF 3
ENDMDL
MODEL 9
REMARK VINA RESULT:       1.4      1.928      5.076
REMARK  3 active torsions:
REMARK  status: ('A' for Active; 'I' for Inactive)
REMARK    1  A    between atoms: C4_4  and  C9_9 
REMARK    2  A    between atoms: C7_7  and  C8_8 
REMARK    3  A    between atoms: C8_8  and  N11_11 
ROOT
HETATM    1  C1  UNL     1     -34.874   4.582   4.460  1.00 20.00     0.060 C 
HETATM    2  C7  UNL     1     -33.721   3.704   4.215  1.00 20.00     0.151 C 
HETATM    3  N10 UNL     1     -35.783   5.275   4.655  1.00 20.00    -0.197 NA
ENDROOT
BRANCH   2   4
HETATM    4  C8  UNL     1     -32.697   4.341   3.287  1.00 20.00     0.249 C 
BRANCH   4   5
HETATM    5  N11 UNL     1     -33.347   5.354   2.428  1.00 20.00    -0.069 N 
HETATM    6  C2  UNL     1     -32.496   5.734   1.282  1.00 20.00     0.241 C 
HETATM    7  C4  UNL     1     -32.898   7.200   1.550  1.00 20.00     0.041 C 
HETATM    8  C3  UNL     1     -33.210   6.717   2.982  1.00 20.00     0.241 C 
HETATM    9  H28 UNL     1     -34.312   5.113   2.161  1.00 20.00     0.279 HD
BRANCH   7  10
HETATM   10  C9  UNL     1     -31.813   8.245   1.402  1.00 20.00    -0.015 C 
HETATM   11  C5  UNL     1     -32.290   9.416   0.538  1.00 20.00     0.010 C 
HETATM   12  C6  UNL     1     -31.352   8.756   2.771  1.00 20.00     0.010 C 
ENDBRANCH   7  10
ENDBRANCH   4   5
ENDBRANCH   2   4
TORSDOF 3
ENDMDL
