MODEL 1
REMARK VINA RESULT:      -1.6      0.000      0.000
REMARK  3 active torsions:
REMARK  status: ('A' for Active; 'I' for Inactive)
REMARK    1  A    between atoms: C7_7  and  C9_9 
REMARK    2  A    between atoms: C8_8  and  O11_11 
REMARK    3  A    between atoms: C9_9  and  O11_11 
ROOT
HETATM    1  C1  UNL     1     -34.544   6.086   3.684  1.00 20.00     0.129 C 
HETATM    2  C2  UNL     1     -34.030   5.185   2.591  1.00 20.00     0.081 C 
HETATM    3  C3  UNL     1     -33.849   7.423   3.697  1.00 20.00     0.110 C 
HETATM    4  C4  UNL     1     -32.750   5.899   2.185  1.00 20.00     0.040 C 
HETATM    5  C8  UNL     1     -33.048   7.378   2.400  1.00 20.00     0.128 C 
HETATM    6  O10 UNL     1     -35.433   5.773   4.464  1.00 20.00    -0.298 OA
ENDROOT
BRANCH   5   7
HETATM    7  O11 UNL     1     -31.849   8.121   2.528  1.00 20.00    -0.385 OA
BRANCH   7   8
HETATM    8  C9  UNL     1     -31.458   8.692   1.288  1.00 20.00     0.172 C 
BRANCH   8   9
HETATM    9  C7  UNL     1     -32.651   9.392   0.671  1.00 20.00     0.009 A 
HETATM   10  C5  UNL     1     -32.610  10.872   0.414  1.00 20.00     0.007 A 
HETATM   11  C6  UNL     1     -32.577   9.909  -0.739  1.00 20.00     0.007 A 
ENDBRANCH   8   9
ENDBRANCH   7   8
ENDBRANCH   5   7
TORSDOF 3
ENDMDL
MODEL 2
REMARK VINA RESULT:      -1.6      0.818      1.470
REMARK  3 active torsions:
REMARK  status: ('A' for Active; 'I' for Inactive)
REMARK    1  A    between atoms: C7_7  and  C9_9 
REMARK    2  A    between atoms: C8_8  and  O11_11 
REMARK    3  A    between atoms: C9_9  and  O11_11 
ROOT
HETATM    1  C1  UNL     1     -34.635   5.630   3.984  1.00 20.00     0.129 C 
HETATM    2  C2  UNL     1     -34.660   7.060   4.457  1.00 20.00     0.081 C 
HETATM    3  C3  UNL     1     -33.637   5.411   2.877  1.00 20.00     0.110 C 
HETATM    4  C4  UNL     1     -33.901   7.763   3.341  1.00 20.00     0.040 C 
HETATM    5  C8  UNL     1     -32.882   6.736   2.862  1.00 20.00     0.128 C 
HETATM    6  O10 UNL     1     -35.336   4.745   4.455  1.00 20.00    -0.298 OA
ENDROOT
BRANCH   5   7
HETATM    7  O11 UNL     1     -32.436   7.041   1.553  1.00 20.00    -0.385 OA
BRANCH   7   8
HETATM    8  C9  UNL     1     -31.872   8.343   1.487  1.00 20.00     0.172 C 
BRANCH   8   9
HETATM    9  C7  UNL     1     -32.695   9.188   0.537  1.00 20.00     0.009 A 
HETATM   10  C5  UNL     1     -32.762  10.679   0.715  1.00 20.00     0.007 A 
HETATM   11  C6  UNL     1     -32.013  10.095  -0.450  1.00 20.00     0.007 A 
ENDBRANCH   8   9
ENDBRANCH   7   8
ENDBRANCH   5   7
TORSDOF 3
ENDMDL
MODEL 3
REMARK VINA RESULT:      -1.4      1.197      1.759
REMARK  3 active torsions:
REMARK  status: ('A' for Active; 'I' for Inactive)
REMARK    1  A    between atoms: C7_7  and  C9_9 
REMARK    2  A    between atoms: C8_8  and  O11_11 
REMARK    3  A    between atoms: C9_9  and  O11_11 
ROOT
HETATM    1  C1  UNL     1     -34.138   4.783   3.823  1.00 20.00     0.129 C 
HETATM    2  C2  UNL     1     -35.051   5.894   4.270  1.00 20.00     0.081 C 
HETATM    3  C3  UNL     1     -33.073   5.264   2.873  1.00 20.00     0.110 C 
HETATM    4  C4  UNL     1     -34.715   6.987   3.267  1.00 20.00     0.040 C 
HETATM    5  C8  UNL     1     -33.238   6.778   2.951  1.00 20.00     0.128 C 
HETATM    6  O10 UNL     1     -34.243   3.622   4.199  1.00 20.00    -0.298 OA
ENDROOT
BRANCH   5   7
HETATM    7  O11 UNL     1     -32.896   7.381   1.716  1.00 20.00    -0.385 OA
BRANCH   7   8
HETATM    8  C9  UNL     1     -31.913   8.392   1.887  1.00 20.00     0.172 C 
BRANCH   8   9
HETATM    9  C7  UNL     1     -31.730   9.127   0.576  1.00 20.00     0.009 A 
HETATM   10  C5  UNL     1     -32.867   9.227  -0.401  1.00 20.00     0.007 A 
HETATM   11  C6  UNL     1     -32.412  10.448   0.349  1.00 20.00     0.007 A 
ENDBRANCH   8   9
ENDBRANCH   7   8
ENDBRANCH   5   7
TORSDOF 3
ENDMDL
MODEL 4
REMARK VINA RESULT:      -1.4      0.844      1.085
REMARK  3 active torsions:
REMARK  status: ('A' for Active; 'I' for Inactive)
REMARK    1  A    between atoms: C7_7  and  C9_9 
REMARK    2  A    between atoms: C8_8  and  O11_11 
REMARK    3  A    between atoms: C9_9  and  O11_11 
ROOT
HETATM    1  C1  UNL     1     -34.558   6.134   3.715  1.00 20.00     0.129 C 
HETATM    2  C2  UNL     1     -34.023   4.758   3.418  1.00 20.00     0.081 C 
HETATM    3  C3  UNL     1     -33.903   7.197   2.871  1.00 20.00     0.110 C 
HETATM    4  C4  UNL     1     -32.766   5.083   2.625  1.00 20.00     0.040 C 
HETATM    5  C8  UNL     1     -33.107   6.364   1.872  1.00 20.00     0.128 C 
HETATM    6  O10 UNL     1     -35.434   6.362   4.539  1.00 20.00    -0.298 OA
ENDROOT
BRANCH   5   7
HETATM    7  O11 UNL     1     -31.930   7.047   1.478  1.00 20.00    -0.385 OA
BRANCH   7   8
HETATM    8  C9  UNL     1     -31.972   8.414   1.861  1.00 20.00     0.172 C 
BRANCH   8   9
HETATM    9  C7  UNL     1     -31.714   9.274   0.642  1.00 20.00     0.009 A 
HETATM   10  C5  UNL     1     -32.684   9.271  -0.505  1.00 20.00     0.007 A 
HETATM   11  C6  UNL     1     -32.567  10.483   0.376  1.00 20.00     0.007 A 
ENDBRANCH   8   9
ENDBRANCH   7   8
ENDBRANCH   5   7
TORSDOF 3
ENDMDL
MODEL 5
REMARK VINA RESULT:      -1.1      1.978      5.555
REMARK  3 active torsions:
REMARK  status: ('A' for Active; 'I' for Inactive)
REMARK    1  A    between atoms: C7_7  and  C9_9 
REMARK    2  A    between atoms: C8_8  and  O11_11 
REMARK    3  A    between atoms: C9_9  and  O11_11 
ROOT
HETATM    1  C1  UNL     1     -32.320   7.612   2.147  1.00 20.00     0.129 C 
HETATM    2  C2  UNL     1     -32.547   8.545   3.308  1.00 20.00     0.081 C 
HETATM    3  C3  UNL     1     -33.247   6.425   2.177  1.00 20.00     0.110 C 
HETATM    4  C4  UNL     1     -33.395   7.682   4.231  1.00 20.00     0.040 C 
HETATM    5  C8  UNL     1     -34.216   6.806   3.291  1.00 20.00     0.128 C 
HETATM    6  O10 UNL     1     -31.486   7.804   1.272  1.00 20.00    -0.298 OA
ENDROOT
BRANCH   5   7
HETATM    7  O11 UNL     1     -34.686   5.650   3.961  1.00 20.00    -0.385 OA
BRANCH   7   8
HETATM    8  C9  UNL     1     -33.982   4.488   3.546  1.00 20.00     0.172 C 
BRANCH   8   9
HETATM    9  C7  UNL     1     -33.852   3.543   4.722  1.00 20.00     0.009 A 
HETATM   10  C5  UNL     1     -33.311   2.156   4.522  1.00 20.00     0.007 A 
HETATM   11  C6  UNL     1     -32.494   3.182   5.256  1.00 20.00     0.007 A 
ENDBRANCH   8   9
ENDBRANCH   7   8
ENDBRANCH   5   7
TORSDOF 3
ENDMDL
MODEL 6
REMARK VINA RESULT:      -0.2      1.586      2.525
REMARK  3 active torsions:
REMARK  status: ('A' for Active; 'I' for Inactive)
REMARK    1  A    between atoms: C7_7  and  C9_9 
REMARK    2  A    between atoms: C8_8  and  O11_11 
REMARK    3  A    between atoms: C9_9  and  O11_11 
ROOT
HETATM    1  C1  UNL     1     -34.128   4.180   4.280  1.00 20.00     0.129 C 
HETATM    2  C2  UNL     1     -35.354   4.904   4.773  1.00 20.00     0.081 C 
HETATM    3  C3  UNL     1     -33.255   5.054   3.418  1.00 20.00     0.110 C 
HETATM    4  C4  UNL     1     -35.364   6.131   3.874  1.00 20.00     0.040 C 
HETATM    5  C8  UNL     1     -33.893   6.426   3.607  1.00 20.00     0.128 C 
HETATM    6  O10 UNL     1     -33.865   3.017   4.559  1.00 20.00    -0.298 OA
ENDROOT
BRANCH   5   7
HETATM    7  O11 UNL     1     -33.740   7.213   2.439  1.00 20.00    -0.385 OA
BRANCH   7   8
HETATM    8  C9  UNL     1     -32.841   6.608   1.521  1.00 20.00     0.172 C 
BRANCH   8   9
HETATM    9  C7  UNL     1     -31.763   7.607   1.156  1.00 20.00     0.009 A 
HETATM   10  C5  UNL     1     -32.109   9.058   0.970  1.00 20.00     0.007 A 
HETATM   11  C6  UNL     1     -31.303   8.625   2.162  1.00 20.00     0.007 A 
ENDBRANCH   8   9
ENDBRANCH   7   8
ENDBRANCH   5   7
TORSDOF 3
ENDMDL
MODEL 7
REMARK VINA RESULT:      -0.0      1.563      4.683
REMARK  3 active torsions:
REMARK  status: ('A' for Active; 'I' for Inactive)
REMARK    1  A    between atoms: C7_7  and  C9_9 
REMARK    2  A    between atoms: C8_8  and  O11_11 
REMARK    3  A    between atoms: C9_9  and  O11_11 
ROOT
HETATM    1  C1  UNL     1     -32.419   9.404   0.604  1.00 20.00     0.129 C 
HETATM    2  C2  UNL     1     -31.462   8.289   0.273  1.00 20.00     0.081 C 
HETATM    3  C3  UNL     1     -32.896   9.343   2.032  1.00 20.00     0.110 C 
HETATM    4  C4  UNL     1     -31.670   7.349   1.451  1.00 20.00     0.040 C 
HETATM    5  C8  UNL     1     -31.992   8.267   2.624  1.00 20.00     0.128 C 
HETATM    6  O10 UNL     1     -32.760  10.269  -0.192  1.00 20.00    -0.298 OA
ENDROOT
BRANCH   5   7
HETATM    7  O11 UNL     1     -32.665   7.559   3.649  1.00 20.00    -0.385 OA
BRANCH   7   8
HETATM    8  C9  UNL     1     -34.061   7.821   3.630  1.00 20.00     0.172 C 
BRANCH   8   9
HETATM    9  C7  UNL     1     -34.799   6.535   3.324  1.00 20.00     0.009 A 
HETATM   10  C5  UNL     1     -34.181   5.208   3.665  1.00 20.00     0.007 A 
HETATM   11  C6  UNL     1     -35.367   5.705   4.441  1.00 20.00     0.007 A 
ENDBRANCH   8   9
ENDBRANCH   7   8
ENDBRANCH   5   7
TORSDOF 3
ENDMDL
MODEL 8
REMARK VINA RESULT:       0.0      1.624      4.590
REMARK  3 active torsions:
REMARK  status: ('A' for Active; 'I' for Inactive)
REMARK    1  A    between atoms: C7_7  and  C9_9 
REMARK    2  A    between atoms: C8_8  and  O11_11 
REMARK    3  A    between atoms: C9_9  and  O11_11 
ROOT
HETATM    1  C1  UNL     1     -32.460  10.201   0.834  1.00 20.00     0.129 C 
HETATM    2  C2  UNL     1     -32.688   9.532  -0.496  1.00 20.00     0.081 C 
HETATM    3  C3  UNL     1     -32.003   9.231   1.892  1.00 20.00     0.110 C 
HETATM    4  C4  UNL     1     -32.701   8.063  -0.100  1.00 20.00     0.040 C 
HETATM    5  C8  UNL     1     -31.733   7.972   1.074  1.00 20.00     0.128 C 
HETATM    6  O10 UNL     1     -32.617  11.399   1.030  1.00 20.00    -0.298 OA
ENDROOT
BRANCH   5   7
HETATM    7  O11 UNL     1     -31.984   6.812   1.847  1.00 20.00    -0.385 OA
BRANCH   7   8
HETATM    8  C9  UNL     1     -33.373   6.521   1.908  1.00 20.00     0.172 C 
BRANCH   8   9
HETATM    9  C7  UNL     1     -33.766   6.301   3.354  1.00 20.00     0.009 A 
HETATM   10  C5  UNL     1     -34.229   7.457   4.196  1.00 20.00     0.007 A 
HETATM   11  C6  UNL     1     -35.208   6.400   3.768  1.00 20.00     0.007 A 
ENDBRANCH   8   9
ENDBRANCH   7   8
ENDBRANCH   5   7
TORSDOF 3
ENDMDL
MODEL 9
REMARK VINA RESULT:       0.6      1.676      4.856
REMARK  3 active torsions:
REMARK  status: ('A' for Active; 'I' for Inactive)
REMARK    1  A    between atoms: C7_7  and  C9_9 
REMARK    2  A    between atoms: C8_8  and  O11_11 
REMARK    3  A    between atoms: C9_9  and  O11_11 
ROOT
HETATM    1  C1  UNL     1     -32.707   9.813  -0.275  1.00 20.00     0.129 C 
HETATM    2  C2  UNL     1     -32.409  10.477   1.044  1.00 20.00     0.081 C 
HETATM    3  C3  UNL     1     -32.781   8.313  -0.156  1.00 20.00     0.110 C 
HETATM    4  C4  UNL     1     -31.947   9.296   1.883  1.00 20.00     0.040 C 
HETATM    5  C8  UNL     1     -32.750   8.112   1.355  1.00 20.00     0.128 C 
HETATM    6  O10 UNL     1     -32.881  10.423  -1.322  1.00 20.00    -0.298 OA
ENDROOT
BRANCH   5   7
HETATM    7  O11 UNL     1     -32.117   6.887   1.682  1.00 20.00    -0.385 OA
BRANCH   7   8
HETATM    8  C9  UNL     1     -32.978   6.042   2.431  1.00 20.00     0.172 C 
BRANCH   8   9
HETATM    9  C7  UNL     1     -34.153   6.856   2.931  1.00 20.00     0.009 A 
HETATM   10  C5  UNL     1     -35.086   6.283   3.961  1.00 20.00     0.007 A 
HETATM   11  C6  UNL     1     -34.153   7.402   4.332  1.00 20.00     0.007 A 
ENDBRANCH   8   9
ENDBRANCH   7   8
ENDBRANCH   5   7
TORSDOF 3
ENDMDL
