MODEL 1
REMARK VINA RESULT:      -2.4      0.000      0.000
REMARK  3 active torsions:
REMARK  status: ('A' for Active; 'I' for Inactive)
REMARK    1  A    between atoms: C3_3  and  C9_9 
REMARK    2  A    between atoms: C7_7  and  O11_11 
REMARK    3  A    between atoms: C9_9  and  O11_11 
ROOT
HETATM    1  C1  UNL     1     -34.159   4.514   4.018  1.00 20.00     0.129 C 
HETATM    2  C4  UNL     1     -35.351   5.355   4.393  1.00 20.00     0.081 C 
HETATM    3  C5  UNL     1     -33.159   5.275   3.188  1.00 20.00     0.110 C 
HETATM    4  C6  UNL     1     -34.853   6.754   4.061  1.00 20.00     0.040 C 
HETATM    5  C7  UNL     1     -33.919   6.558   2.871  1.00 20.00     0.129 C 
HETATM    6  O10 UNL     1     -34.024   3.341   4.342  1.00 20.00    -0.298 OA
ENDROOT
BRANCH   5   7
HETATM    7  O11 UNL     1     -33.026   7.649   2.745  1.00 20.00    -0.382 OA
BRANCH   7   8
HETATM    8  C9  UNL     1     -31.960   7.347   1.858  1.00 20.00     0.195 C 
BRANCH   8   9
HETATM    9  C3  UNL     1     -31.714   8.532   0.983  1.00 20.00    -0.005 C 
HETATM   10  C2  UNL     1     -32.648   9.448   0.690  1.00 20.00    -0.033 C 
HETATM   11  C8  UNL     1     -32.406  10.632  -0.188  1.00 20.00     0.036 C 
ENDBRANCH   8   9
ENDBRANCH   7   8
ENDBRANCH   5   7
TORSDOF 3
ENDMDL
MODEL 2
REMARK VINA RESULT:      -1.4      0.926      1.511
REMARK  3 active torsions:
REMARK  status: ('A' for Active; 'I' for Inactive)
REMARK    1  A    between atoms: C3_3  and  C9_9 
REMARK    2  A    between atoms: C7_7  and  O11_11 
REMARK    3  A    between atoms: C9_9  and  O11_11 
ROOT
HETATM    1  C1  UNL     1     -34.911   5.395   4.155  1.00 20.00     0.129 C 
HETATM    2  C4  UNL     1     -33.877   4.536   3.475  1.00 20.00     0.081 C 
HETATM    3  C5  UNL     1     -34.620   6.865   4.009  1.00 20.00     0.110 C 
HETATM    4  C6  UNL     1     -33.155   5.557   2.608  1.00 20.00     0.040 C 
HETATM    5  C7  UNL     1     -33.219   6.854   3.408  1.00 20.00     0.129 C 
HETATM    6  O10 UNL     1     -35.872   4.948   4.767  1.00 20.00    -0.298 OA
ENDROOT
BRANCH   5   7
HETATM    7  O11 UNL     1     -33.028   7.976   2.566  1.00 20.00    -0.382 OA
BRANCH   7   8
HETATM    8  C9  UNL     1     -31.798   7.892   1.860  1.00 20.00     0.195 C 
BRANCH   8   9
HETATM    9  C3  UNL     1     -31.903   8.712   0.616  1.00 20.00    -0.005 C 
HETATM   10  C2  UNL     1     -32.682   9.796   0.501  1.00 20.00    -0.033 C 
HETATM   11  C8  UNL     1     -32.792  10.615  -0.743  1.00 20.00     0.036 C 
ENDBRANCH   8   9
ENDBRANCH   7   8
ENDBRANCH   5   7
TORSDOF 3
ENDMDL
MODEL 3
REMARK VINA RESULT:      -1.1      1.937      5.172
REMARK  3 active torsions:
REMARK  status: ('A' for Active; 'I' for Inactive)
REMARK    1  A    between atoms: C3_3  and  C9_9 
REMARK    2  A    between atoms: C7_7  and  O11_11 
REMARK    3  A    between atoms: C9_9  and  O11_11 
ROOT
HETATM    1  C1  UNL     1     -32.222   7.859   2.019  1.00 20.00     0.129 C 
HETATM    2  C4  UNL     1     -32.039   8.495   3.372  1.00 20.00     0.081 C 
HETATM    3  C5  UNL     1     -33.373   6.888   1.994  1.00 20.00     0.110 C 
HETATM    4  C6  UNL     1     -33.350   8.137   4.056  1.00 20.00     0.040 C 
HETATM    5  C7  UNL     1     -33.733   6.783   3.472  1.00 20.00     0.129 C 
HETATM    6  O10 UNL     1     -31.509   8.097   1.053  1.00 20.00    -0.298 OA
ENDROOT
BRANCH   5   7
HETATM    7  O11 UNL     1     -35.118   6.537   3.631  1.00 20.00    -0.382 OA
BRANCH   7   8
HETATM    8  C9  UNL     1     -35.352   5.361   4.392  1.00 20.00     0.195 C 
BRANCH   8   9
HETATM    9  C3  UNL     1     -34.316   4.345   4.037  1.00 20.00    -0.005 C 
HETATM   10  C2  UNL     1     -33.746   3.520   4.927  1.00 20.00    -0.033 C 
HETATM   11  C8  UNL     1     -32.707   2.507   4.575  1.00 20.00     0.036 C 
ENDBRANCH   8   9
ENDBRANCH   7   8
ENDBRANCH   5   7
TORSDOF 3
ENDMDL
MODEL 4
REMARK VINA RESULT:      -1.0      1.794      5.270
REMARK  3 active torsions:
REMARK  status: ('A' for Active; 'I' for Inactive)
REMARK    1  A    between atoms: C3_3  and  C9_9 
REMARK    2  A    between atoms: C7_7  and  O11_11 
REMARK    3  A    between atoms: C9_9  and  O11_11 
ROOT
HETATM    1  C1  UNL     1     -31.913   7.897   1.521  1.00 20.00     0.129 C 
HETATM    2  C4  UNL     1     -32.222   6.527   0.978  1.00 20.00     0.081 C 
HETATM    3  C5  UNL     1     -32.772   8.251   2.707  1.00 20.00     0.110 C 
HETATM    4  C6  UNL     1     -33.048   5.931   2.109  1.00 20.00     0.040 C 
HETATM    5  C7  UNL     1     -33.792   7.118   2.709  1.00 20.00     0.129 C 
HETATM    6  O10 UNL     1     -31.066   8.643   1.046  1.00 20.00    -0.298 OA
ENDROOT
BRANCH   5   7
HETATM    7  O11 UNL     1     -34.217   6.832   4.029  1.00 20.00    -0.382 OA
BRANCH   7   8
HETATM    8  C9  UNL     1     -35.263   5.872   4.041  1.00 20.00     0.195 C 
BRANCH   8   9
HETATM    9  C3  UNL     1     -34.762   4.625   4.693  1.00 20.00    -0.005 C 
HETATM   10  C2  UNL     1     -33.780   3.864   4.188  1.00 20.00    -0.033 C 
HETATM   11  C8  UNL     1     -33.280   2.614   4.835  1.00 20.00     0.036 C 
ENDBRANCH   8   9
ENDBRANCH   7   8
ENDBRANCH   5   7
TORSDOF 3
ENDMDL
MODEL 5
REMARK VINA RESULT:      -0.5      1.551      5.629
REMARK  3 active torsions:
REMARK  status: ('A' for Active; 'I' for Inactive)
REMARK    1  A    between atoms: C3_3  and  C9_9 
REMARK    2  A    between atoms: C7_7  and  O11_11 
REMARK    3  A    between atoms: C9_9  and  O11_11 
ROOT
HETATM    1  C1  UNL     1     -32.334   9.482   0.696  1.00 20.00     0.129 C 
HETATM    2  C4  UNL     1     -31.342   8.363   0.521  1.00 20.00     0.081 C 
HETATM    3  C5  UNL     1     -33.343   9.190   1.775  1.00 20.00     0.110 C 
HETATM    4  C6  UNL     1     -31.578   7.547   1.783  1.00 20.00     0.040 C 
HETATM    5  C7  UNL     1     -33.061   7.724   2.085  1.00 20.00     0.129 C 
HETATM    6  O10 UNL     1     -32.327  10.509   0.030  1.00 20.00    -0.298 OA
ENDROOT
BRANCH   5   7
HETATM    7  O11 UNL     1     -33.338   7.439   3.444  1.00 20.00    -0.382 OA
BRANCH   7   8
HETATM    8  C9  UNL     1     -34.373   6.475   3.572  1.00 20.00     0.195 C 
BRANCH   8   9
HETATM    9  C3  UNL     1     -33.765   5.111   3.532  1.00 20.00    -0.005 C 
HETATM   10  C2  UNL     1     -33.995   4.166   4.455  1.00 20.00    -0.033 C 
HETATM   11  C8  UNL     1     -33.386   2.803   4.421  1.00 20.00     0.036 C 
ENDBRANCH   8   9
ENDBRANCH   7   8
ENDBRANCH   5   7
TORSDOF 3
ENDMDL
MODEL 6
REMARK VINA RESULT:      -0.0      1.845      5.251
REMARK  3 active torsions:
REMARK  status: ('A' for Active; 'I' for Inactive)
REMARK    1  A    between atoms: C3_3  and  C9_9 
REMARK    2  A    between atoms: C7_7  and  O11_11 
REMARK    3  A    between atoms: C9_9  and  O11_11 
ROOT
HETATM    1  C1  UNL     1     -32.623   9.770  -0.129  1.00 20.00     0.129 C 
HETATM    2  C4  UNL     1     -32.750  10.485   1.190  1.00 20.00     0.081 C 
HETATM    3  C5  UNL     1     -32.015   8.399   0.018  1.00 20.00     0.110 C 
HETATM    4  C6  UNL     1     -32.530   9.347   2.175  1.00 20.00     0.040 C 
HETATM    5  C7  UNL     1     -31.554   8.411   1.471  1.00 20.00     0.129 C 
HETATM    6  O10 UNL     1     -32.965  10.252  -1.202  1.00 20.00    -0.298 OA
ENDROOT
BRANCH   5   7
HETATM    7  O11 UNL     1     -31.615   7.109   2.024  1.00 20.00    -0.382 OA
BRANCH   7   8
HETATM    8  C9  UNL     1     -32.665   6.348   1.446  1.00 20.00     0.195 C 
BRANCH   8   9
HETATM    9  C3  UNL     1     -33.526   5.810   2.541  1.00 20.00    -0.005 C 
HETATM   10  C2  UNL     1     -34.378   6.560   3.255  1.00 20.00    -0.033 C 
HETATM   11  C8  UNL     1     -35.237   6.026   4.354  1.00 20.00     0.036 C 
ENDBRANCH   8   9
ENDBRANCH   7   8
ENDBRANCH   5   7
TORSDOF 3
ENDMDL
MODEL 7
REMARK VINA RESULT:       0.3      0.960      1.080
REMARK  3 active torsions:
REMARK  status: ('A' for Active; 'I' for Inactive)
REMARK    1  A    between atoms: C3_3  and  C9_9 
REMARK    2  A    between atoms: C7_7  and  O11_11 
REMARK    3  A    between atoms: C9_9  and  O11_11 
ROOT
HETATM    1  C1  UNL     1     -34.027   4.391   4.123  1.00 20.00     0.129 C 
HETATM    2  C4  UNL     1     -35.388   4.789   4.629  1.00 20.00     0.081 C 
HETATM    3  C5  UNL     1     -33.355   5.499   3.355  1.00 20.00     0.110 C 
HETATM    4  C6  UNL     1     -35.352   6.299   4.445  1.00 20.00     0.040 C 
HETATM    5  C7  UNL     1     -34.482   6.516   3.212  1.00 20.00     0.129 C 
HETATM    6  O10 UNL     1     -33.528   3.288   4.305  1.00 20.00    -0.298 OA
ENDROOT
BRANCH   5   7
HETATM    7  O11 UNL     1     -33.965   7.833   3.184  1.00 20.00    -0.382 OA
BRANCH   7   8
HETATM    8  C9  UNL     1     -32.557   7.843   3.369  1.00 20.00     0.195 C 
BRANCH   8   9
HETATM    9  C3  UNL     1     -31.931   8.607   2.249  1.00 20.00    -0.005 C 
HETATM   10  C2  UNL     1     -32.053   8.269   0.958  1.00 20.00    -0.033 C 
HETATM   11  C8  UNL     1     -31.424   9.029  -0.164  1.00 20.00     0.036 C 
ENDBRANCH   8   9
ENDBRANCH   7   8
ENDBRANCH   5   7
TORSDOF 3
ENDMDL
