MODEL 1
REMARK VINA RESULT:      -1.8      0.000      0.000
REMARK  2 active torsions:
REMARK  status: ('A' for Active; 'I' for Inactive)
REMARK    1  A    between atoms: C2_2  and  C8_8 
REMARK    2  A    between atoms: C2_2  and  C9_9 
ROOT
HETATM    1  C1  UNL     1     -34.081   5.053   3.691  1.00 20.00     0.127 C 
HETATM    2  C3  UNL     1     -34.975   6.138   4.225  1.00 20.00     0.079 C 
HETATM    3  C4  UNL     1     -33.135   5.559   2.632  1.00 20.00     0.090 C 
HETATM    4  C5  UNL     1     -34.268   7.392   3.734  1.00 20.00     0.020 C 
HETATM    5  C8  UNL     1     -33.625   6.988   2.410  1.00 20.00     0.063 C 
HETATM    6  O10 UNL     1     -34.129   3.887   4.059  1.00 20.00    -0.298 OA
ENDROOT
BRANCH   5   7
HETATM    7  C2  UNL     1     -32.487   7.896   2.068  1.00 20.00     0.135 C 
HETATM    8  O11 UNL     1     -31.630   8.198   2.898  1.00 20.00    -0.297 OA
BRANCH   7   9
HETATM    9  C9  UNL     1     -32.442   8.423   0.659  1.00 20.00     0.056 A 
HETATM   10  C6  UNL     1     -32.552   9.891   0.456  1.00 20.00     0.013 A 
HETATM   11  C7  UNL     1     -31.243   9.194   0.239  1.00 20.00     0.013 A 
ENDBRANCH   7   9
ENDBRANCH   5   7
TORSDOF 2
ENDMDL
MODEL 2
REMARK VINA RESULT:      -1.8      1.166      1.458
REMARK  2 active torsions:
REMARK  status: ('A' for Active; 'I' for Inactive)
REMARK    1  A    between atoms: C2_2  and  C8_8 
REMARK    2  A    between atoms: C2_2  and  C9_9 
ROOT
HETATM    1  C1  UNL     1     -34.475   6.411   3.801  1.00 20.00     0.127 C 
HETATM    2  C3  UNL     1     -34.109   7.594   4.654  1.00 20.00     0.079 C 
HETATM    3  C4  UNL     1     -33.869   6.487   2.423  1.00 20.00     0.090 C 
HETATM    4  C5  UNL     1     -32.945   8.189   3.876  1.00 20.00     0.020 C 
HETATM    5  C8  UNL     1     -33.255   7.885   2.412  1.00 20.00     0.063 C 
HETATM    6  O10 UNL     1     -35.199   5.498   4.176  1.00 20.00    -0.298 OA
ENDROOT
BRANCH   5   7
HETATM    7  C2  UNL     1     -32.010   7.916   1.584  1.00 20.00     0.135 C 
HETATM    8  O11 UNL     1     -31.239   6.958   1.542  1.00 20.00    -0.297 OA
BRANCH   7   9
HETATM    9  C9  UNL     1     -31.747   9.177   0.804  1.00 20.00     0.056 A 
HETATM   10  C6  UNL     1     -32.618   9.473  -0.363  1.00 20.00     0.013 A 
HETATM   11  C7  UNL     1     -32.744  10.275   0.897  1.00 20.00     0.013 A 
ENDBRANCH   7   9
ENDBRANCH   5   7
TORSDOF 2
ENDMDL
MODEL 3
REMARK VINA RESULT:      -1.7      1.134      1.318
REMARK  2 active torsions:
REMARK  status: ('A' for Active; 'I' for Inactive)
REMARK    1  A    between atoms: C2_2  and  C8_8 
REMARK    2  A    between atoms: C2_2  and  C9_9 
ROOT
HETATM    1  C1  UNL     1     -34.719   5.543   4.024  1.00 20.00     0.127 C 
HETATM    2  C3  UNL     1     -34.846   6.982   4.441  1.00 20.00     0.079 C 
HETATM    3  C4  UNL     1     -33.874   5.376   2.786  1.00 20.00     0.090 C 
HETATM    4  C5  UNL     1     -33.728   7.636   3.642  1.00 20.00     0.020 C 
HETATM    5  C8  UNL     1     -33.638   6.821   2.354  1.00 20.00     0.063 C 
HETATM    6  O10 UNL     1     -35.257   4.613   4.611  1.00 20.00    -0.298 OA
ENDROOT
BRANCH   5   7
HETATM    7  C2  UNL     1     -32.294   6.975   1.716  1.00 20.00     0.135 C 
HETATM    8  O11 UNL     1     -31.645   6.001   1.337  1.00 20.00    -0.297 OA
BRANCH   7   9
HETATM    9  C9  UNL     1     -31.775   8.380   1.562  1.00 20.00     0.056 A 
HETATM   10  C6  UNL     1     -31.255   8.792   0.232  1.00 20.00     0.013 A 
HETATM   11  C7  UNL     1     -32.563   9.328   0.731  1.00 20.00     0.013 A 
ENDBRANCH   7   9
ENDBRANCH   5   7
TORSDOF 2
ENDMDL
MODEL 4
REMARK VINA RESULT:      -1.6      1.425      1.995
REMARK  2 active torsions:
REMARK  status: ('A' for Active; 'I' for Inactive)
REMARK    1  A    between atoms: C2_2  and  C8_8 
REMARK    2  A    between atoms: C2_2  and  C9_9 
ROOT
HETATM    1  C1  UNL     1     -34.210   6.570   3.391  1.00 20.00     0.127 C 
HETATM    2  C3  UNL     1     -33.621   5.374   2.694  1.00 20.00     0.079 C 
HETATM    3  C4  UNL     1     -33.478   7.846   3.059  1.00 20.00     0.090 C 
HETATM    4  C5  UNL     1     -32.757   6.031   1.628  1.00 20.00     0.020 C 
HETATM    5  C8  UNL     1     -32.281   7.338   2.258  1.00 20.00     0.063 C 
HETATM    6  O10 UNL     1     -35.163   6.512   4.156  1.00 20.00    -0.298 OA
ENDROOT
BRANCH   5   7
HETATM    7  C2  UNL     1     -31.884   8.325   1.207  1.00 20.00     0.135 C 
HETATM    8  O11 UNL     1     -30.773   8.295   0.681  1.00 20.00    -0.297 OA
BRANCH   7   9
HETATM    9  C9  UNL     1     -32.911   9.359   0.827  1.00 20.00     0.056 A 
HETATM   10  C6  UNL     1     -32.468  10.770   0.694  1.00 20.00     0.013 A 
HETATM   11  C7  UNL     1     -32.818   9.971  -0.525  1.00 20.00     0.013 A 
ENDBRANCH   7   9
ENDBRANCH   5   7
TORSDOF 2
ENDMDL
MODEL 5
REMARK VINA RESULT:      -1.3      1.662      5.137
REMARK  2 active torsions:
REMARK  status: ('A' for Active; 'I' for Inactive)
REMARK    1  A    between atoms: C2_2  and  C8_8 
REMARK    2  A    between atoms: C2_2  and  C9_9 
ROOT
HETATM    1  C1  UNL     1     -32.625   7.609   2.453  1.00 20.00     0.127 C 
HETATM    2  C3  UNL     1     -32.443   6.657   1.303  1.00 20.00     0.079 C 
HETATM    3  C4  UNL     1     -33.511   7.042   3.533  1.00 20.00     0.090 C 
HETATM    4  C5  UNL     1     -32.929   5.347   1.906  1.00 20.00     0.020 C 
HETATM    5  C8  UNL     1     -34.019   5.751   2.896  1.00 20.00     0.063 C 
HETATM    6  O10 UNL     1     -32.126   8.726   2.498  1.00 20.00    -0.298 OA
ENDROOT
BRANCH   5   7
HETATM    7  C2  UNL     1     -34.223   4.690   3.930  1.00 20.00     0.135 C 
HETATM    8  O11 UNL     1     -35.257   4.626   4.593  1.00 20.00    -0.297 OA
BRANCH   7   9
HETATM    9  C9  UNL     1     -33.100   3.705   4.120  1.00 20.00     0.056 A 
HETATM   10  C6  UNL     1     -32.825   3.213   5.495  1.00 20.00     0.013 A 
HETATM   11  C7  UNL     1     -33.451   2.306   4.478  1.00 20.00     0.013 A 
ENDBRANCH   7   9
ENDBRANCH   5   7
TORSDOF 2
ENDMDL
MODEL 6
REMARK VINA RESULT:      -0.5      1.704      4.712
REMARK  2 active torsions:
REMARK  status: ('A' for Active; 'I' for Inactive)
REMARK    1  A    between atoms: C2_2  and  C8_8 
REMARK    2  A    between atoms: C2_2  and  C9_9 
ROOT
HETATM    1  C1  UNL     1     -32.333   7.731   1.858  1.00 20.00     0.127 C 
HETATM    2  C3  UNL     1     -32.235   8.492   3.151  1.00 20.00     0.079 C 
HETATM    3  C4  UNL     1     -33.112   6.449   2.005  1.00 20.00     0.090 C 
HETATM    4  C5  UNL     1     -33.313   7.821   3.989  1.00 20.00     0.020 C 
HETATM    5  C8  UNL     1     -33.334   6.370   3.513  1.00 20.00     0.063 C 
HETATM    6  O10 UNL     1     -31.821   8.100   0.809  1.00 20.00    -0.298 OA
ENDROOT
BRANCH   5   7
HETATM    7  C2  UNL     1     -34.644   5.722   3.828  1.00 20.00     0.135 C 
HETATM    8  O11 UNL     1     -35.704   6.343   3.761  1.00 20.00    -0.297 OA
BRANCH   7   9
HETATM    9  C9  UNL     1     -34.602   4.273   4.233  1.00 20.00     0.056 A 
HETATM   10  C6  UNL     1     -33.516   3.423   3.680  1.00 20.00     0.013 A 
HETATM   11  C7  UNL     1     -33.497   3.828   5.123  1.00 20.00     0.013 A 
ENDBRANCH   7   9
ENDBRANCH   5   7
TORSDOF 2
ENDMDL
MODEL 7
REMARK VINA RESULT:      -0.0      1.810      4.673
REMARK  2 active torsions:
REMARK  status: ('A' for Active; 'I' for Inactive)
REMARK    1  A    between atoms: C2_2  and  C8_8 
REMARK    2  A    between atoms: C2_2  and  C9_9 
ROOT
HETATM    1  C1  UNL     1     -32.350   9.383   0.710  1.00 20.00     0.127 C 
HETATM    2  C3  UNL     1     -31.534   8.129   0.564  1.00 20.00     0.079 C 
HETATM    3  C4  UNL     1     -33.286   9.326   1.890  1.00 20.00     0.090 C 
HETATM    4  C5  UNL     1     -31.728   7.474   1.923  1.00 20.00     0.020 C 
HETATM    5  C8  UNL     1     -33.133   7.881   2.359  1.00 20.00     0.063 C 
HETATM    6  O10 UNL     1     -32.277  10.336  -0.055  1.00 20.00    -0.298 OA
ENDROOT
BRANCH   5   7
HETATM    7  C2  UNL     1     -33.284   7.782   3.843  1.00 20.00     0.135 C 
HETATM    8  O11 UNL     1     -32.504   8.347   4.610  1.00 20.00    -0.297 OA
BRANCH   7   9
HETATM    9  C9  UNL     1     -34.435   6.957   4.354  1.00 20.00     0.056 A 
HETATM   10  C6  UNL     1     -35.533   6.627   3.408  1.00 20.00     0.013 A 
HETATM   11  C7  UNL     1     -34.573   5.565   3.852  1.00 20.00     0.013 A 
ENDBRANCH   7   9
ENDBRANCH   5   7
TORSDOF 2
ENDMDL
MODEL 8
REMARK VINA RESULT:       0.2      1.554      4.614
REMARK  2 active torsions:
REMARK  status: ('A' for Active; 'I' for Inactive)
REMARK    1  A    between atoms: C2_2  and  C8_8 
REMARK    2  A    between atoms: C2_2  and  C9_9 
ROOT
HETATM    1  C1  UNL     1     -32.411   9.041   0.318  1.00 20.00     0.127 C 
HETATM    2  C3  UNL     1     -31.278   9.148   1.300  1.00 20.00     0.079 C 
HETATM    3  C4  UNL     1     -33.204   7.771   0.492  1.00 20.00     0.090 C 
HETATM    4  C5  UNL     1     -31.655   8.088   2.325  1.00 20.00     0.020 C 
HETATM    5  C8  UNL     1     -32.378   7.008   1.524  1.00 20.00     0.063 C 
HETATM    6  O10 UNL     1     -32.651   9.881  -0.540  1.00 20.00    -0.298 OA
ENDROOT
BRANCH   5   7
HETATM    7  C2  UNL     1     -33.257   6.184   2.409  1.00 20.00     0.135 C 
HETATM    8  O11 UNL     1     -33.034   4.990   2.609  1.00 20.00    -0.297 OA
BRANCH   7   9
HETATM    9  C9  UNL     1     -34.429   6.886   3.042  1.00 20.00     0.056 A 
HETATM   10  C6  UNL     1     -35.171   6.179   4.117  1.00 20.00     0.013 A 
HETATM   11  C7  UNL     1     -34.291   7.346   4.448  1.00 20.00     0.013 A 
ENDBRANCH   7   9
ENDBRANCH   5   7
TORSDOF 2
ENDMDL
MODEL 9
REMARK VINA RESULT:       0.3      1.565      4.922
REMARK  2 active torsions:
REMARK  status: ('A' for Active; 'I' for Inactive)
REMARK    1  A    between atoms: C2_2  and  C8_8 
REMARK    2  A    between atoms: C2_2  and  C9_9 
ROOT
HETATM    1  C1  UNL     1     -32.230   9.575   0.685  1.00 20.00     0.127 C 
HETATM    2  C3  UNL     1     -31.119   8.565   0.602  1.00 20.00     0.079 C 
HETATM    3  C4  UNL     1     -33.385   9.090   1.523  1.00 20.00     0.090 C 
HETATM    4  C5  UNL     1     -31.476   7.617   1.738  1.00 20.00     0.020 C 
HETATM    5  C8  UNL     1     -33.001   7.639   1.802  1.00 20.00     0.063 C 
HETATM    6  O10 UNL     1     -32.207  10.661   0.120  1.00 20.00    -0.298 OA
ENDROOT
BRANCH   5   7
HETATM    7  C2  UNL     1     -33.487   7.207   3.149  1.00 20.00     0.135 C 
HETATM    8  O11 UNL     1     -33.092   7.749   4.181  1.00 20.00    -0.297 OA
BRANCH   7   9
HETATM    9  C9  UNL     1     -34.482   6.078   3.180  1.00 20.00     0.056 A 
HETATM   10  C6  UNL     1     -34.230   4.948   4.111  1.00 20.00     0.013 A 
HETATM   11  C7  UNL     1     -35.330   5.927   4.391  1.00 20.00     0.013 A 
ENDBRANCH   7   9
ENDBRANCH   5   7
TORSDOF 2
ENDMDL
