MODEL 1
REMARK VINA RESULT:      -1.5      0.000      0.000
REMARK  4 active torsions:
REMARK  status: ('A' for Active; 'I' for Inactive)
REMARK    1  A    between atoms: C2_2  and  C7_7 
REMARK    2  A    between atoms: C2_2  and  O11_11 
REMARK    3  A    between atoms: C6_6  and  C7_7 
REMARK    4  A    between atoms: C6_6  and  C8_8 
ROOT
HETATM    1  C1  UNL     1     -32.133   5.572   0.994  1.00 20.00     0.074 C 
HETATM    2  C7  UNL     1     -32.866   6.661   1.667  1.00 20.00     0.192 C 
HETATM    3  N9  UNL     1     -31.558   4.716   0.462  1.00 20.00    -0.196 NA
ENDROOT
BRANCH   2   4
HETATM    4  C2  UNL     1     -32.024   7.927   1.688  1.00 20.00     0.276 C 
HETATM    5  O10 UNL     1     -31.407   8.347   2.658  1.00 20.00    -0.264 OA
BRANCH   4   6
HETATM    6  O11 UNL     1     -32.060   8.515   0.454  1.00 20.00    -0.325 OA
HETATM    7  C5  UNL     1     -32.459   9.890   0.436  1.00 20.00     0.213 C 
ENDBRANCH   4   6
ENDBRANCH   2   4
BRANCH   2   8
HETATM    8  C6  UNL     1     -33.235   6.278   3.111  1.00 20.00     0.033 C 
BRANCH   8   9
HETATM    9  C8  UNL     1     -34.461   7.011   3.695  1.00 20.00    -0.021 C 
HETATM   10  C3  UNL     1     -34.014   7.939   4.828  1.00 20.00     0.009 C 
HETATM   11  C4  UNL     1     -35.527   6.044   4.213  1.00 20.00     0.009 C 
ENDBRANCH   8   9
ENDBRANCH   2   8
TORSDOF 4
ENDMDL
MODEL 2
REMARK VINA RESULT:      -1.5      0.866      1.177
REMARK  4 active torsions:
REMARK  status: ('A' for Active; 'I' for Inactive)
REMARK    1  A    between atoms: C2_2  and  C7_7 
REMARK    2  A    between atoms: C2_2  and  O11_11 
REMARK    3  A    between atoms: C6_6  and  C7_7 
REMARK    4  A    between atoms: C6_6  and  C8_8 
ROOT
HETATM    1  C1  UNL     1     -32.355   5.753   1.229  1.00 20.00     0.074 C 
HETATM    2  C7  UNL     1     -32.981   6.932   1.856  1.00 20.00     0.192 C 
HETATM    3  N9  UNL     1     -31.865   4.825   0.732  1.00 20.00    -0.196 NA
ENDROOT
BRANCH   2   4
HETATM    4  C2  UNL     1     -32.014   8.107   1.847  1.00 20.00     0.276 C 
HETATM    5  O10 UNL     1     -31.413   8.532   2.825  1.00 20.00    -0.264 OA
BRANCH   4   6
HETATM    6  O11 UNL     1     -31.919   8.606   0.577  1.00 20.00    -0.325 OA
HETATM    7  C5  UNL     1     -32.496   9.900   0.376  1.00 20.00     0.213 C 
ENDBRANCH   4   6
ENDBRANCH   2   4
BRANCH   2   8
HETATM    8  C6  UNL     1     -33.402   6.638   3.306  1.00 20.00     0.033 C 
BRANCH   8   9
HETATM    9  C8  UNL     1     -34.469   5.534   3.472  1.00 20.00    -0.021 C 
HETATM   10  C3  UNL     1     -35.628   6.063   4.322  1.00 20.00     0.009 C 
HETATM   11  C4  UNL     1     -33.901   4.266   4.110  1.00 20.00     0.009 C 
ENDBRANCH   8   9
ENDBRANCH   2   8
TORSDOF 4
ENDMDL
MODEL 3
REMARK VINA RESULT:      -1.1      3.135      4.814
REMARK  4 active torsions:
REMARK  status: ('A' for Active; 'I' for Inactive)
REMARK    1  A    between atoms: C2_2  and  C7_7 
REMARK    2  A    between atoms: C2_2  and  O11_11 
REMARK    3  A    between atoms: C6_6  and  C7_7 
REMARK    4  A    between atoms: C6_6  and  C8_8 
ROOT
HETATM    1  C1  UNL     1     -33.857   7.473   4.350  1.00 20.00     0.074 C 
HETATM    2  C7  UNL     1     -34.640   6.577   3.479  1.00 20.00     0.192 C 
HETATM    3  N9  UNL     1     -33.244   8.180   5.037  1.00 20.00    -0.196 NA
ENDROOT
BRANCH   2   4
HETATM    4  C2  UNL     1     -34.764   5.201   4.116  1.00 20.00     0.276 C 
HETATM    5  O10 UNL     1     -35.698   4.829   4.814  1.00 20.00    -0.264 OA
BRANCH   4   6
HETATM    6  O11 UNL     1     -33.675   4.446   3.779  1.00 20.00    -0.325 OA
HETATM    7  C5  UNL     1     -33.470   3.269   4.568  1.00 20.00     0.213 C 
ENDBRANCH   4   6
ENDBRANCH   2   4
BRANCH   2   8
HETATM    8  C6  UNL     1     -33.988   6.433   2.093  1.00 20.00     0.033 C 
BRANCH   8   9
HETATM    9  C8  UNL     1     -32.452   6.582   2.068  1.00 20.00    -0.021 C 
HETATM   10  C3  UNL     1     -32.078   7.974   1.553  1.00 20.00     0.009 C 
HETATM   11  C4  UNL     1     -31.776   5.516   1.204  1.00 20.00     0.009 C 
ENDBRANCH   8   9
ENDBRANCH   2   8
TORSDOF 4
ENDMDL
MODEL 4
REMARK VINA RESULT:      -1.0      2.531      4.146
REMARK  4 active torsions:
REMARK  status: ('A' for Active; 'I' for Inactive)
REMARK    1  A    between atoms: C2_2  and  C7_7 
REMARK    2  A    between atoms: C2_2  and  O11_11 
REMARK    3  A    between atoms: C6_6  and  C7_7 
REMARK    4  A    between atoms: C6_6  and  C8_8 
ROOT
HETATM    1  C1  UNL     1     -33.696   4.298   3.958  1.00 20.00     0.074 C 
HETATM    2  C7  UNL     1     -33.617   5.658   3.393  1.00 20.00     0.192 C 
HETATM    3  N9  UNL     1     -33.756   3.229   4.406  1.00 20.00    -0.196 NA
ENDROOT
BRANCH   2   4
HETATM    4  C2  UNL     1     -34.751   6.518   3.930  1.00 20.00     0.276 C 
HETATM    5  O10 UNL     1     -35.859   6.105   4.247  1.00 20.00    -0.264 OA
BRANCH   4   6
HETATM    6  O11 UNL     1     -34.336   7.818   4.010  1.00 20.00    -0.325 OA
HETATM    7  C5  UNL     1     -33.310   8.081   4.975  1.00 20.00     0.213 C 
ENDBRANCH   4   6
ENDBRANCH   2   4
BRANCH   2   8
HETATM    8  C6  UNL     1     -33.691   5.631   1.856  1.00 20.00     0.033 C 
BRANCH   8   9
HETATM    9  C8  UNL     1     -32.413   6.095   1.126  1.00 20.00    -0.021 C 
HETATM   10  C3  UNL     1     -31.343   5.003   1.217  1.00 20.00     0.009 C 
HETATM   11  C4  UNL     1     -31.860   7.404   1.691  1.00 20.00     0.009 C 
ENDBRANCH   8   9
ENDBRANCH   2   8
TORSDOF 4
ENDMDL
MODEL 5
REMARK VINA RESULT:      -0.6      1.765      4.013
REMARK  4 active torsions:
REMARK  status: ('A' for Active; 'I' for Inactive)
REMARK    1  A    between atoms: C2_2  and  C7_7 
REMARK    2  A    between atoms: C2_2  and  O11_11 
REMARK    3  A    between atoms: C6_6  and  C7_7 
REMARK    4  A    between atoms: C6_6  and  C8_8 
ROOT
HETATM    1  C1  UNL     1     -32.291   6.106   1.648  1.00 20.00     0.074 C 
HETATM    2  C7  UNL     1     -32.463   7.413   2.310  1.00 20.00     0.192 C 
HETATM    3  N9  UNL     1     -32.152   5.077   1.128  1.00 20.00    -0.196 NA
ENDROOT
BRANCH   2   4
HETATM    4  C2  UNL     1     -33.397   7.279   3.504  1.00 20.00     0.276 C 
HETATM    5  O10 UNL     1     -33.443   8.051   4.452  1.00 20.00    -0.264 OA
BRANCH   4   6
HETATM    6  O11 UNL     1     -34.178   6.167   3.345  1.00 20.00    -0.325 OA
HETATM    7  C5  UNL     1     -35.391   6.151   4.105  1.00 20.00     0.213 C 
ENDBRANCH   4   6
ENDBRANCH   2   4
BRANCH   2   8
HETATM    8  C6  UNL     1     -33.035   8.461   1.339  1.00 20.00     0.033 C 
BRANCH   8   9
HETATM    9  C8  UNL     1     -32.006   9.460   0.767  1.00 20.00    -0.021 C 
HETATM   10  C3  UNL     1     -32.737  10.678   0.193  1.00 20.00     0.009 C 
HETATM   11  C4  UNL     1     -31.124   8.834  -0.314  1.00 20.00     0.009 C 
ENDBRANCH   8   9
ENDBRANCH   2   8
TORSDOF 4
ENDMDL
MODEL 6
REMARK VINA RESULT:      -0.6      2.692      4.657
REMARK  4 active torsions:
REMARK  status: ('A' for Active; 'I' for Inactive)
REMARK    1  A    between atoms: C2_2  and  C7_7 
REMARK    2  A    between atoms: C2_2  and  O11_11 
REMARK    3  A    between atoms: C6_6  and  C7_7 
REMARK    4  A    between atoms: C6_6  and  C8_8 
ROOT
HETATM    1  C1  UNL     1     -33.409   7.903   4.085  1.00 20.00     0.074 C 
HETATM    2  C7  UNL     1     -33.362   7.556   2.652  1.00 20.00     0.192 C 
HETATM    3  N9  UNL     1     -33.450   8.176   5.212  1.00 20.00    -0.196 NA
ENDROOT
BRANCH   2   4
HETATM    4  C2  UNL     1     -33.373   6.045   2.475  1.00 20.00     0.276 C 
HETATM    5  O10 UNL     1     -32.749   5.431   1.620  1.00 20.00    -0.264 OA
BRANCH   4   6
HETATM    6  O11 UNL     1     -34.182   5.484   3.424  1.00 20.00    -0.325 OA
HETATM    7  C5  UNL     1     -33.805   4.173   3.861  1.00 20.00     0.213 C 
ENDBRANCH   4   6
ENDBRANCH   2   4
BRANCH   2   8
HETATM    8  C6  UNL     1     -32.104   8.132   1.978  1.00 20.00     0.033 C 
BRANCH   8   9
HETATM    9  C8  UNL     1     -32.350   8.880   0.650  1.00 20.00    -0.021 C 
HETATM   10  C3  UNL     1     -31.106   8.779  -0.236  1.00 20.00     0.009 C 
HETATM   11  C4  UNL     1     -32.709  10.351   0.867  1.00 20.00     0.009 C 
ENDBRANCH   8   9
ENDBRANCH   2   8
TORSDOF 4
ENDMDL
MODEL 7
REMARK VINA RESULT:      -0.4      2.907      4.263
REMARK  4 active torsions:
REMARK  status: ('A' for Active; 'I' for Inactive)
REMARK    1  A    between atoms: C2_2  and  C7_7 
REMARK    2  A    between atoms: C2_2  and  O11_11 
REMARK    3  A    between atoms: C6_6  and  C7_7 
REMARK    4  A    between atoms: C6_6  and  C8_8 
ROOT
HETATM    1  C1  UNL     1     -33.242   5.383   2.013  1.00 20.00     0.074 C 
HETATM    2  C7  UNL     1     -33.576   5.696   3.416  1.00 20.00     0.192 C 
HETATM    3  N9  UNL     1     -32.975   5.135   0.911  1.00 20.00    -0.196 NA
ENDROOT
BRANCH   2   4
HETATM    4  C2  UNL     1     -34.351   4.547   4.041  1.00 20.00     0.276 C 
HETATM    5  O10 UNL     1     -35.421   4.655   4.627  1.00 20.00    -0.264 OA
BRANCH   4   6
HETATM    6  O11 UNL     1     -33.670   3.378   3.839  1.00 20.00    -0.325 OA
HETATM    7  C5  UNL     1     -33.022   2.833   4.994  1.00 20.00     0.213 C 
ENDBRANCH   4   6
ENDBRANCH   2   4
BRANCH   2   8
HETATM    8  C6  UNL     1     -34.414   6.983   3.517  1.00 20.00     0.033 C 
BRANCH   8   9
HETATM    9  C8  UNL     1     -33.614   8.271   3.802  1.00 20.00    -0.021 C 
HETATM   10  C3  UNL     1     -32.457   8.389   2.805  1.00 20.00     0.009 C 
HETATM   11  C4  UNL     1     -33.068   8.315   5.230  1.00 20.00     0.009 C 
ENDBRANCH   8   9
ENDBRANCH   2   8
TORSDOF 4
ENDMDL
MODEL 8
REMARK VINA RESULT:      -0.0      2.445      4.158
REMARK  4 active torsions:
REMARK  status: ('A' for Active; 'I' for Inactive)
REMARK    1  A    between atoms: C2_2  and  C7_7 
REMARK    2  A    between atoms: C2_2  and  O11_11 
REMARK    3  A    between atoms: C6_6  and  C7_7 
REMARK    4  A    between atoms: C6_6  and  C8_8 
ROOT
HETATM    1  C1  UNL     1     -33.048   5.345   1.481  1.00 20.00     0.074 C 
HETATM    2  C7  UNL     1     -33.138   6.078   2.758  1.00 20.00     0.192 C 
HETATM    3  N9  UNL     1     -32.975   4.766   0.478  1.00 20.00    -0.196 NA
ENDROOT
BRANCH   2   4
HETATM    4  C2  UNL     1     -34.369   5.634   3.534  1.00 20.00     0.276 C 
HETATM    5  O10 UNL     1     -35.207   6.385   4.015  1.00 20.00    -0.264 OA
BRANCH   4   6
HETATM    6  O11 UNL     1     -34.394   4.269   3.600  1.00 20.00    -0.325 OA
HETATM    7  C5  UNL     1     -33.639   3.687   4.669  1.00 20.00     0.213 C 
ENDBRANCH   4   6
ENDBRANCH   2   4
BRANCH   2   8
HETATM    8  C6  UNL     1     -33.209   7.598   2.527  1.00 20.00     0.033 C 
BRANCH   8   9
HETATM    9  C8  UNL     1     -32.077   8.187   1.659  1.00 20.00    -0.021 C 
HETATM   10  C3  UNL     1     -30.928   8.651   2.558  1.00 20.00     0.009 C 
HETATM   11  C4  UNL     1     -32.553   9.353   0.791  1.00 20.00     0.009 C 
ENDBRANCH   8   9
ENDBRANCH   2   8
TORSDOF 4
ENDMDL
MODEL 9
REMARK VINA RESULT:       0.0      2.542      4.351
REMARK  4 active torsions:
REMARK  status: ('A' for Active; 'I' for Inactive)
REMARK    1  A    between atoms: C2_2  and  C7_7 
REMARK    2  A    between atoms: C2_2  and  O11_11 
REMARK    3  A    between atoms: C6_6  and  C7_7 
REMARK    4  A    between atoms: C6_6  and  C8_8 
ROOT
HETATM    1  C1  UNL     1     -33.696   7.721   3.798  1.00 20.00     0.074 C 
HETATM    2  C7  UNL     1     -33.342   7.344   2.417  1.00 20.00     0.192 C 
HETATM    3  N9  UNL     1     -33.978   8.017   4.884  1.00 20.00    -0.196 NA
ENDROOT
BRANCH   2   4
HETATM    4  C2  UNL     1     -33.032   5.856   2.340  1.00 20.00     0.276 C 
HETATM    5  O10 UNL     1     -33.602   4.984   2.984  1.00 20.00    -0.264 OA
BRANCH   4   6
HETATM    6  O11 UNL     1     -32.027   5.649   1.437  1.00 20.00    -0.325 OA
HETATM    7  C5  UNL     1     -32.290   4.661   0.435  1.00 20.00     0.213 C 
ENDBRANCH   4   6
ENDBRANCH   2   4
BRANCH   2   8
HETATM    8  C6  UNL     1     -32.123   8.138   1.915  1.00 20.00     0.033 C 
BRANCH   8   9
HETATM    9  C8  UNL     1     -32.342   8.924   0.604  1.00 20.00    -0.021 C 
HETATM   10  C3  UNL     1     -31.076   8.855  -0.255  1.00 20.00     0.009 C 
HETATM   11  C4  UNL     1     -32.712  10.386   0.856  1.00 20.00     0.009 C 
ENDBRANCH   8   9
ENDBRANCH   2   8
TORSDOF 4
ENDMDL
