MODEL 1
REMARK VINA RESULT:       1.0      0.000      0.000
REMARK  1 active torsions:
REMARK  status: ('A' for Active; 'I' for Inactive)
REMARK    1  A    between atoms: C2_2  and  C3_3 
ROOT
HETATM    1  C1  UNL     1     -34.098   4.960   3.588  1.00 20.00    -0.034 C 
HETATM    2  C2  UNL     1     -34.193   4.143   4.648  1.00 20.00     0.194 C 
HETATM    3  C4  UNL     1     -34.979   6.163   3.428  1.00 20.00     0.038 C 
HETATM    4  C5  UNL     1     -33.058   4.747   2.514  1.00 20.00     0.042 C 
HETATM    5  C6  UNL     1     -34.169   7.458   3.287  1.00 20.00     0.009 C 
HETATM    6  C7  UNL     1     -32.585   6.056   1.835  1.00 20.00    -0.011 C 
HETATM    7  C8  UNL     1     -32.717   7.249   2.810  1.00 20.00    -0.014 C 
HETATM    8  C9  UNL     1     -33.300   6.275   0.496  1.00 20.00     0.010 C 
HETATM    9  C10 UNL     1     -32.140   8.551   2.253  1.00 20.00     0.010 C 
HETATM   10  F13 UNL     1     -35.117   4.429   5.589  1.00 20.00    -0.199 F 
ENDROOT
BRANCH   2  11
HETATM   11  C3  UNL     1     -33.300   2.910   4.826  1.00 20.00     0.239 C 
HETATM   12  O11 UNL     1     -32.289   3.109   5.561  1.00 20.00    -0.642 OA
HETATM   13  O12 UNL     1     -33.659   1.854   4.234  1.00 20.00    -0.642 OA
ENDBRANCH   2  11
TORSDOF 1
ENDMDL
MODEL 2
REMARK VINA RESULT:       1.0      4.191      5.495
REMARK  1 active torsions:
REMARK  status: ('A' for Active; 'I' for Inactive)
REMARK    1  A    between atoms: C2_2  and  C3_3 
ROOT
HETATM    1  C1  UNL     1     -32.371   8.188   2.146  1.00 20.00    -0.034 C 
HETATM    2  C2  UNL     1     -32.145   9.276   1.393  1.00 20.00     0.194 C 
HETATM    3  C4  UNL     1     -32.412   8.251   3.644  1.00 20.00     0.038 C 
HETATM    4  C5  UNL     1     -32.653   6.840   1.527  1.00 20.00     0.042 C 
HETATM    5  C6  UNL     1     -33.742   7.738   4.209  1.00 20.00     0.009 C 
HETATM    6  C7  UNL     1     -33.576   5.939   2.385  1.00 20.00    -0.011 C 
HETATM    7  C8  UNL     1     -34.517   6.804   3.256  1.00 20.00    -0.014 C 
HETATM    8  C9  UNL     1     -32.760   4.919   3.190  1.00 20.00     0.010 C 
HETATM    9  C10 UNL     1     -35.550   5.982   4.028  1.00 20.00     0.010 C 
HETATM   10  F13 UNL     1     -31.949  10.454   2.022  1.00 20.00    -0.199 F 
ENDROOT
BRANCH   2  11
HETATM   11  C3  UNL     1     -32.101   9.227  -0.138  1.00 20.00     0.239 C 
HETATM   12  O11 UNL     1     -31.030   8.743  -0.607  1.00 20.00    -0.642 OA
HETATM   13  O12 UNL     1     -33.113   9.666  -0.753  1.00 20.00    -0.642 OA
ENDBRANCH   2  11
TORSDOF 1
ENDMDL
MODEL 3
REMARK VINA RESULT:       2.9      2.196      3.209
REMARK  1 active torsions:
REMARK  status: ('A' for Active; 'I' for Inactive)
REMARK    1  A    between atoms: C2_2  and  C3_3 
ROOT
HETATM    1  C1  UNL     1     -33.051   6.186   2.822  1.00 20.00    -0.034 C 
HETATM    2  C2  UNL     1     -33.967   5.227   3.030  1.00 20.00     0.194 C 
HETATM    3  C4  UNL     1     -31.929   6.016   1.840  1.00 20.00     0.038 C 
HETATM    4  C5  UNL     1     -33.125   7.519   3.527  1.00 20.00     0.042 C 
HETATM    5  C6  UNL     1     -31.923   7.118   0.774  1.00 20.00     0.009 C 
HETATM    6  C7  UNL     1     -32.537   8.693   2.705  1.00 20.00    -0.011 C 
HETATM    7  C8  UNL     1     -32.661   8.407   1.190  1.00 20.00    -0.014 C 
HETATM    8  C9  UNL     1     -31.107   9.021   3.153  1.00 20.00     0.010 C 
HETATM    9  C10 UNL     1     -32.226   9.584   0.316  1.00 20.00     0.010 C 
HETATM   10  F13 UNL     1     -33.858   4.081   2.326  1.00 20.00    -0.199 F 
ENDROOT
BRANCH   2  11
HETATM   11  C3  UNL     1     -35.118   5.386   4.029  1.00 20.00     0.239 C 
HETATM   12  O11 UNL     1     -35.213   4.435   4.859  1.00 20.00    -0.642 OA
HETATM   13  O12 UNL     1     -35.832   6.422   3.920  1.00 20.00    -0.642 OA
ENDBRANCH   2  11
TORSDOF 1
ENDMDL
MODEL 4
REMARK VINA RESULT:       3.1      3.477      5.095
REMARK  1 active torsions:
REMARK  status: ('A' for Active; 'I' for Inactive)
REMARK    1  A    between atoms: C2_2  and  C3_3 
ROOT
HETATM    1  C1  UNL     1     -33.057   6.726   2.054  1.00 20.00    -0.034 C 
HETATM    2  C2  UNL     1     -32.086   7.503   1.552  1.00 20.00     0.194 C 
HETATM    3  C4  UNL     1     -33.386   5.383   1.470  1.00 20.00     0.038 C 
HETATM    4  C5  UNL     1     -33.847   7.132   3.276  1.00 20.00     0.042 C 
HETATM    5  C6  UNL     1     -33.272   4.259   2.506  1.00 20.00     0.009 C 
HETATM    6  C7  UNL     1     -34.337   5.937   4.130  1.00 20.00    -0.011 C 
HETATM    7  C8  UNL     1     -33.381   4.732   3.970  1.00 20.00    -0.014 C 
HETATM    8  C9  UNL     1     -35.802   5.602   3.824  1.00 20.00     0.010 C 
HETATM    9  C10 UNL     1     -33.726   3.561   4.891  1.00 20.00     0.010 C 
HETATM   10  F13 UNL     1     -31.394   7.046   0.487  1.00 20.00    -0.199 F 
ENDROOT
BRANCH   2  11
HETATM   11  C3  UNL     1     -31.739   8.876   2.138  1.00 20.00     0.239 C 
HETATM   12  O11 UNL     1     -32.106   9.850   1.419  1.00 20.00    -0.642 OA
HETATM   13  O12 UNL     1     -31.138   8.888   3.249  1.00 20.00    -0.642 OA
ENDBRANCH   2  11
TORSDOF 1
ENDMDL
MODEL 5
REMARK VINA RESULT:       3.4      4.495      5.813
REMARK  1 active torsions:
REMARK  status: ('A' for Active; 'I' for Inactive)
REMARK    1  A    between atoms: C2_2  and  C3_3 
ROOT
HETATM    1  C1  UNL     1     -32.123   8.565   1.788  1.00 20.00    -0.034 C 
HETATM    2  C2  UNL     1     -32.254   9.781   1.236  1.00 20.00     0.194 C 
HETATM    3  C4  UNL     1     -32.066   8.366   3.274  1.00 20.00     0.038 C 
HETATM    4  C5  UNL     1     -32.080   7.312   0.946  1.00 20.00     0.042 C 
HETATM    5  C6  UNL     1     -33.163   7.419   3.774  1.00 20.00     0.009 C 
HETATM    6  C7  UNL     1     -32.661   6.063   1.653  1.00 20.00    -0.011 C 
HETATM    7  C8  UNL     1     -33.730   6.478   2.691  1.00 20.00    -0.014 C 
HETATM    8  C9  UNL     1     -31.544   5.190   2.240  1.00 20.00     0.010 C 
HETATM    9  C10 UNL     1     -34.444   5.287   3.331  1.00 20.00     0.010 C 
HETATM   10  F13 UNL     1     -32.333  10.847   2.061  1.00 20.00    -0.199 F 
ENDROOT
BRANCH   2  11
HETATM   11  C3  UNL     1     -32.314  10.000  -0.279  1.00 20.00     0.239 C 
HETATM   12  O11 UNL     1     -31.363  10.698  -0.736  1.00 20.00    -0.642 OA
HETATM   13  O12 UNL     1     -33.283   9.473  -0.894  1.00 20.00    -0.642 OA
ENDBRANCH   2  11
TORSDOF 1
ENDMDL
