MODEL 1
REMARK VINA RESULT:       1.2      0.000      0.000
REMARK  0 active torsions:
REMARK  status: ('A' for Active; 'I' for Inactive)
ROOT
HETATM    1  C1  UNL     1     -31.968   6.477   1.241  1.00 20.00     0.009 A 
HETATM    2  C2  UNL     1     -31.664   7.698   0.634  1.00 20.00     0.024 A 
HETATM    3  C3  UNL     1     -33.268   8.856   2.051  1.00 20.00     0.033 A 
HETATM    4  C4  UNL     1     -32.928   6.463   2.240  1.00 20.00    -0.050 A 
HETATM    5  C5  UNL     1     -33.568   7.641   2.646  1.00 20.00    -0.031 A 
HETATM    6  C6  UNL     1     -32.310   8.878   1.035  1.00 20.00     0.034 A 
HETATM    7  C7  UNL     1     -33.399   5.290   3.044  1.00 20.00     0.045 C 
HETATM    8  C8  UNL     1     -34.527   7.372   3.769  1.00 20.00     0.119 C 
HETATM    9  C9  UNL     1     -34.727   5.841   3.612  1.00 20.00     0.009 C 
HETATM   10  C10 UNL     1     -35.192   5.092   4.852  1.00 20.00     0.012 C 
HETATM   11 CL11 UNL     1     -31.911  10.368   0.270  1.00 20.00    -0.084 Cl
HETATM   12 CL12 UNL     1     -33.777   7.854   5.308  1.00 20.00    -0.119 Cl
ENDROOT
TORSDOF 0
ENDMDL
MODEL 2
REMARK VINA RESULT:       2.2      1.855      4.711
REMARK  0 active torsions:
REMARK  status: ('A' for Active; 'I' for Inactive)
ROOT
HETATM    1  C1  UNL     1     -34.820   6.960   3.907  1.00 20.00     0.009 A 
HETATM    2  C2  UNL     1     -34.727   5.614   4.271  1.00 20.00     0.024 A 
HETATM    3  C3  UNL     1     -32.846   5.285   2.762  1.00 20.00     0.033 A 
HETATM    4  C4  UNL     1     -33.928   7.446   2.965  1.00 20.00    -0.050 A 
HETATM    5  C5  UNL     1     -32.946   6.620   2.401  1.00 20.00    -0.031 A 
HETATM    6  C6  UNL     1     -33.749   4.784   3.702  1.00 20.00     0.034 A 
HETATM    7  C7  UNL     1     -33.820   8.845   2.439  1.00 20.00     0.045 C 
HETATM    8  C8  UNL     1     -32.079   7.390   1.448  1.00 20.00     0.119 C 
HETATM    9  C9  UNL     1     -32.992   8.611   1.156  1.00 20.00     0.009 C 
HETATM   10  C10 UNL     1     -32.292   9.872   0.669  1.00 20.00     0.012 C 
HETATM   11 CL11 UNL     1     -33.657   3.130   4.174  1.00 20.00    -0.084 Cl
HETATM   12 CL12 UNL     1     -30.546   7.801   2.250  1.00 20.00    -0.119 Cl
ENDROOT
TORSDOF 0
ENDMDL
MODEL 3
REMARK VINA RESULT:       2.5      1.978      4.752
REMARK  0 active torsions:
REMARK  status: ('A' for Active; 'I' for Inactive)
ROOT
HETATM    1  C1  UNL     1     -33.437   8.128   4.291  1.00 20.00     0.009 A 
HETATM    2  C2  UNL     1     -34.335   7.210   4.841  1.00 20.00     0.024 A 
HETATM    3  C3  UNL     1     -34.171   5.795   2.868  1.00 20.00     0.033 A 
HETATM    4  C4  UNL     1     -32.926   7.870   3.030  1.00 20.00    -0.050 A 
HETATM    5  C5  UNL     1     -33.284   6.712   2.326  1.00 20.00    -0.031 A 
HETATM    6  C6  UNL     1     -34.700   6.054   4.134  1.00 20.00     0.034 A 
HETATM    7  C7  UNL     1     -31.940   8.687   2.253  1.00 20.00     0.045 C 
HETATM    8  C8  UNL     1     -32.565   6.639   1.010  1.00 20.00     0.119 C 
HETATM    9  C9  UNL     1     -32.151   8.124   0.830  1.00 20.00     0.009 C 
HETATM   10  C10 UNL     1     -30.965   8.385  -0.088  1.00 20.00     0.012 C 
HETATM   11 CL11 UNL     1     -35.807   4.939   4.840  1.00 20.00    -0.084 Cl
HETATM   12 CL12 UNL     1     -31.195   5.513   1.153  1.00 20.00    -0.119 Cl
ENDROOT
TORSDOF 0
ENDMDL
MODEL 4
REMARK VINA RESULT:       4.0      1.831      2.575
REMARK  0 active torsions:
REMARK  status: ('A' for Active; 'I' for Inactive)
ROOT
HETATM    1  C1  UNL     1     -33.904   8.685   2.835  1.00 20.00     0.009 A 
HETATM    2  C2  UNL     1     -33.240   9.516   1.930  1.00 20.00     0.024 A 
HETATM    3  C3  UNL     1     -32.046   7.618   0.988  1.00 20.00     0.033 A 
HETATM    4  C4  UNL     1     -33.620   7.330   2.809  1.00 20.00    -0.050 A 
HETATM    5  C5  UNL     1     -32.705   6.798   1.892  1.00 20.00    -0.031 A 
HETATM    6  C6  UNL     1     -32.317   8.987   1.014  1.00 20.00     0.034 A 
HETATM    7  C7  UNL     1     -34.217   6.250   3.659  1.00 20.00     0.045 C 
HETATM    8  C8  UNL     1     -32.606   5.307   2.033  1.00 20.00     0.119 C 
HETATM    9  C9  UNL     1     -33.185   5.118   3.460  1.00 20.00     0.009 C 
HETATM   10  C10 UNL     1     -33.752   3.742   3.779  1.00 20.00     0.012 C 
HETATM   11 CL11 UNL     1     -31.517  10.037  -0.092  1.00 20.00    -0.084 Cl
HETATM   12 CL12 UNL     1     -33.563   4.532   0.750  1.00 20.00    -0.119 Cl
ENDROOT
TORSDOF 0
ENDMDL
