MODEL 1
REMARK VINA RESULT:       2.3      0.000      0.000
REMARK  0 active torsions:
REMARK  status: ('A' for Active; 'I' for Inactive)
ROOT
HETATM    1  C1  UNL     1     -31.883   6.660   1.083  1.00 20.00     0.009 A 
HETATM    2  C2  UNL     1     -31.645   7.907   0.502  1.00 20.00     0.024 A 
HETATM    3  C3  UNL     1     -33.270   8.958   1.978  1.00 20.00     0.032 A 
HETATM    4  C4  UNL     1     -32.821   6.578   2.099  1.00 20.00    -0.050 A 
HETATM    5  C5  UNL     1     -33.502   7.717   2.550  1.00 20.00    -0.035 A 
HETATM    6  C6  UNL     1     -32.335   9.047   0.944  1.00 20.00     0.034 A 
HETATM    7  C7  UNL     1     -33.227   5.365   2.879  1.00 20.00     0.045 C 
HETATM    8  C8  UNL     1     -34.427   7.375   3.678  1.00 20.00     0.095 C 
HETATM    9  C9  UNL     1     -34.560   5.845   3.495  1.00 20.00     0.005 C 
HETATM   10  C10 UNL     1     -34.977   5.034   4.714  1.00 20.00     0.011 C 
HETATM   11 CL11 UNL     1     -32.018  10.572   0.209  1.00 20.00    -0.084 Cl
HETATM   12 BR12 UNL     1     -33.575   7.901   5.343  1.00 20.00    -0.086 Br
ENDROOT
TORSDOF 0
ENDMDL
MODEL 2
REMARK VINA RESULT:       3.6      2.984      4.748
REMARK  0 active torsions:
REMARK  status: ('A' for Active; 'I' for Inactive)
ROOT
HETATM    1  C1  UNL     1     -33.346   8.123   4.348  1.00 20.00     0.009 A 
HETATM    2  C2  UNL     1     -34.273   7.233   4.894  1.00 20.00     0.024 A 
HETATM    3  C3  UNL     1     -34.254   5.893   2.862  1.00 20.00     0.032 A 
HETATM    4  C4  UNL     1     -32.894   7.891   3.060  1.00 20.00    -0.050 A 
HETATM    5  C5  UNL     1     -33.335   6.781   2.326  1.00 20.00    -0.035 A 
HETATM    6  C6  UNL     1     -34.725   6.127   4.156  1.00 20.00     0.034 A 
HETATM    7  C7  UNL     1     -31.895   8.690   2.279  1.00 20.00     0.045 C 
HETATM    8  C8  UNL     1     -32.671   6.730   0.983  1.00 20.00     0.095 C 
HETATM    9  C9  UNL     1     -32.177   8.189   0.845  1.00 20.00     0.005 C 
HETATM   10  C10 UNL     1     -31.018   8.441  -0.110  1.00 20.00     0.011 C 
HETATM   11 CL11 UNL     1     -35.866   5.045   4.858  1.00 20.00    -0.084 Cl
HETATM   12 BR12 UNL     1     -31.242   5.416   1.063  1.00 20.00    -0.086 Br
ENDROOT
TORSDOF 0
ENDMDL
MODEL 3
REMARK VINA RESULT:       3.8      2.850      4.732
REMARK  0 active torsions:
REMARK  status: ('A' for Active; 'I' for Inactive)
ROOT
HETATM    1  C1  UNL     1     -34.920   6.946   3.884  1.00 20.00     0.009 A 
HETATM    2  C2  UNL     1     -34.794   5.604   4.249  1.00 20.00     0.024 A 
HETATM    3  C3  UNL     1     -32.860   5.342   2.794  1.00 20.00     0.032 A 
HETATM    4  C4  UNL     1     -34.019   7.465   2.970  1.00 20.00    -0.050 A 
HETATM    5  C5  UNL     1     -32.992   6.675   2.436  1.00 20.00    -0.035 A 
HETATM    6  C6  UNL     1     -33.773   4.808   3.706  1.00 20.00     0.034 A 
HETATM    7  C7  UNL     1     -33.945   8.868   2.448  1.00 20.00     0.045 C 
HETATM    8  C8  UNL     1     -32.130   7.475   1.507  1.00 20.00     0.095 C 
HETATM    9  C9  UNL     1     -33.063   8.668   1.195  1.00 20.00     0.005 C 
HETATM   10  C10 UNL     1     -32.406   9.956   0.720  1.00 20.00     0.011 C 
HETATM   11 CL11 UNL     1     -33.641   3.156   4.176  1.00 20.00    -0.084 Cl
HETATM   12 BR12 UNL     1     -30.508   7.967   2.457  1.00 20.00    -0.086 Br
ENDROOT
TORSDOF 0
ENDMDL
MODEL 4
REMARK VINA RESULT:       4.8      1.872      2.576
REMARK  0 active torsions:
REMARK  status: ('A' for Active; 'I' for Inactive)
ROOT
HETATM    1  C1  UNL     1     -33.887   8.733   2.818  1.00 20.00     0.009 A 
HETATM    2  C2  UNL     1     -33.220   9.562   1.914  1.00 20.00     0.024 A 
HETATM    3  C3  UNL     1     -32.035   7.658   0.970  1.00 20.00     0.032 A 
HETATM    4  C4  UNL     1     -33.611   7.377   2.792  1.00 20.00    -0.050 A 
HETATM    5  C5  UNL     1     -32.700   6.840   1.870  1.00 20.00    -0.035 A 
HETATM    6  C6  UNL     1     -32.299   9.029   0.998  1.00 20.00     0.034 A 
HETATM    7  C7  UNL     1     -34.211   6.300   3.643  1.00 20.00     0.045 C 
HETATM    8  C8  UNL     1     -32.607   5.352   2.015  1.00 20.00     0.095 C 
HETATM    9  C9  UNL     1     -33.191   5.158   3.434  1.00 20.00     0.005 C 
HETATM   10  C10 UNL     1     -33.759   3.786   3.769  1.00 20.00     0.011 C 
HETATM   11 CL11 UNL     1     -31.493  10.076  -0.106  1.00 20.00    -0.084 Cl
HETATM   12 BR12 UNL     1     -33.668   4.537   0.606  1.00 20.00    -0.086 Br
ENDROOT
TORSDOF 0
ENDMDL
