MODEL 1
REMARK VINA RESULT:       0.6      0.000      0.000
REMARK  0 active torsions:
REMARK  status: ('A' for Active; 'I' for Inactive)
ROOT
HETATM    1  C1  UNL     1     -32.444   5.584   1.561  1.00 20.00     0.009 A 
HETATM    2  C2  UNL     1     -31.737   6.496   0.774  1.00 20.00     0.024 A 
HETATM    3  C3  UNL     1     -32.606   8.360   2.075  1.00 20.00     0.033 A 
HETATM    4  C4  UNL     1     -33.231   6.075   2.588  1.00 20.00    -0.050 A 
HETATM    5  C5  UNL     1     -33.308   7.448   2.847  1.00 20.00    -0.031 A 
HETATM    6  C6  UNL     1     -31.818   7.874   1.029  1.00 20.00     0.034 A 
HETATM    7  C7  UNL     1     -34.051   5.295   3.570  1.00 20.00     0.045 C 
HETATM    8  C8  UNL     1     -34.191   7.724   4.028  1.00 20.00     0.119 C 
HETATM    9  C9  UNL     1     -34.974   6.393   4.151  1.00 20.00     0.009 C 
HETATM   10  C10 UNL     1     -36.297   6.463   3.373  1.00 20.00     0.012 C 
HETATM   11 CL11 UNL     1     -30.932   8.975   0.044  1.00 20.00    -0.084 Cl
HETATM   12 CL12 UNL     1     -33.184   8.011   5.468  1.00 20.00    -0.119 Cl
ENDROOT
TORSDOF 0
ENDMDL
MODEL 2
REMARK VINA RESULT:       1.0      1.797      4.548
REMARK  0 active torsions:
REMARK  status: ('A' for Active; 'I' for Inactive)
ROOT
HETATM    1  C1  UNL     1     -33.040   8.208   4.306  1.00 20.00     0.009 A 
HETATM    2  C2  UNL     1     -34.097   7.429   4.780  1.00 20.00     0.024 A 
HETATM    3  C3  UNL     1     -34.119   6.128   2.724  1.00 20.00     0.033 A 
HETATM    4  C4  UNL     1     -32.544   7.943   3.041  1.00 20.00    -0.050 A 
HETATM    5  C5  UNL     1     -33.073   6.910   2.259  1.00 20.00    -0.031 A 
HETATM    6  C6  UNL     1     -34.633   6.396   3.994  1.00 20.00     0.034 A 
HETATM    7  C7  UNL     1     -31.408   8.622   2.338  1.00 20.00     0.045 C 
HETATM    8  C8  UNL     1     -32.346   6.798   0.952  1.00 20.00     0.119 C 
HETATM    9  C9  UNL     1     -31.627   8.168   0.875  1.00 20.00     0.009 C 
HETATM   10  C10 UNL     1     -32.479   9.190   0.108  1.00 20.00     0.012 C 
HETATM   11 CL11 UNL     1     -35.934   5.449   4.606  1.00 20.00    -0.084 Cl
HETATM   12 CL12 UNL     1     -31.172   5.462   1.039  1.00 20.00    -0.119 Cl
ENDROOT
TORSDOF 0
ENDMDL
MODEL 3
REMARK VINA RESULT:       2.6      1.009      4.065
REMARK  0 active torsions:
REMARK  status: ('A' for Active; 'I' for Inactive)
ROOT
HETATM    1  C1  UNL     1     -34.747   6.172   3.351  1.00 20.00     0.009 A 
HETATM    2  C2  UNL     1     -34.768   6.953   4.508  1.00 20.00     0.024 A 
HETATM    3  C3  UNL     1     -32.725   8.089   3.832  1.00 20.00     0.033 A 
HETATM    4  C4  UNL     1     -33.709   6.355   2.454  1.00 20.00    -0.050 A 
HETATM    5  C5  UNL     1     -32.710   7.307   2.688  1.00 20.00    -0.031 A 
HETATM    6  C6  UNL     1     -33.763   7.904   4.748  1.00 20.00     0.034 A 
HETATM    7  C7  UNL     1     -33.493   5.659   1.145  1.00 20.00     0.045 C 
HETATM    8  C8  UNL     1     -31.724   7.340   1.559  1.00 20.00     0.119 C 
HETATM    9  C9  UNL     1     -32.010   5.990   0.853  1.00 20.00     0.009 C 
HETATM   10  C10 UNL     1     -31.087   4.886   1.389  1.00 20.00     0.012 C 
HETATM   11 CL11 UNL     1     -33.816   8.855   6.183  1.00 20.00    -0.084 Cl
HETATM   12 CL12 UNL     1     -32.092   8.714   0.489  1.00 20.00    -0.119 Cl
ENDROOT
TORSDOF 0
ENDMDL
MODEL 4
REMARK VINA RESULT:       2.7      1.982      2.852
REMARK  0 active torsions:
REMARK  status: ('A' for Active; 'I' for Inactive)
ROOT
HETATM    1  C1  UNL     1     -32.099   7.977   1.448  1.00 20.00     0.009 A 
HETATM    2  C2  UNL     1     -31.625   6.858   0.760  1.00 20.00     0.024 A 
HETATM    3  C3  UNL     1     -32.964   5.379   2.152  1.00 20.00     0.033 A 
HETATM    4  C4  UNL     1     -32.992   7.779   2.487  1.00 20.00    -0.050 A 
HETATM    5  C5  UNL     1     -33.426   6.495   2.834  1.00 20.00    -0.031 A 
HETATM    6  C6  UNL     1     -32.054   5.568   1.110  1.00 20.00     0.034 A 
HETATM    7  C7  UNL     1     -33.650   8.818   3.343  1.00 20.00     0.045 C 
HETATM    8  C8  UNL     1     -34.414   6.546   3.960  1.00 20.00     0.119 C 
HETATM    9  C9  UNL     1     -34.171   7.968   4.526  1.00 20.00     0.009 C 
HETATM   10  C10 UNL     1     -33.144   7.932   5.668  1.00 20.00     0.012 C 
HETATM   11 CL11 UNL     1     -31.456   4.207   0.241  1.00 20.00    -0.084 Cl
HETATM   12 CL12 UNL     1     -36.064   6.390   3.309  1.00 20.00    -0.119 Cl
ENDROOT
TORSDOF 0
ENDMDL
