MODEL 1
REMARK VINA RESULT:       1.8      0.000      0.000
REMARK  0 active torsions:
REMARK  status: ('A' for Active; 'I' for Inactive)
ROOT
HETATM    1  C1  UNL     1     -31.637   6.447   0.944  1.00 20.00     0.009 A 
HETATM    2  C2  UNL     1     -31.709   7.800   0.608  1.00 20.00     0.019 A 
HETATM    3  C3  UNL     1     -33.355   8.189   2.358  1.00 20.00     0.028 A 
HETATM    4  C4  UNL     1     -32.437   5.981   1.974  1.00 20.00    -0.050 A 
HETATM    5  C5  UNL     1     -33.297   6.840   2.674  1.00 20.00    -0.032 A 
HETATM    6  C6  UNL     1     -32.560   8.665   1.312  1.00 20.00     0.011 A 
HETATM    7  C7  UNL     1     -32.488   4.593   2.533  1.00 20.00     0.045 C 
HETATM    8  C8  UNL     1     -33.998   6.096   3.771  1.00 20.00     0.119 C 
HETATM    9  C9  UNL     1     -33.821   4.630   3.309  1.00 20.00     0.009 C 
HETATM   10  C10 UNL     1     -33.849   3.636   4.462  1.00 20.00     0.012 C 
HETATM   11 CL11 UNL     1     -35.708   6.521   3.932  1.00 20.00    -0.119 Cl
HETATM   12 BR12 UNL     1     -32.640  10.493   0.833  1.00 20.00    -0.051 Br
ENDROOT
TORSDOF 0
ENDMDL
MODEL 2
REMARK VINA RESULT:       3.1      3.204      5.010
REMARK  0 active torsions:
REMARK  status: ('A' for Active; 'I' for Inactive)
ROOT
HETATM    1  C1  UNL     1     -34.955   6.034   4.182  1.00 20.00     0.009 A 
HETATM    2  C2  UNL     1     -34.789   4.712   4.600  1.00 20.00     0.019 A 
HETATM    3  C3  UNL     1     -32.799   4.483   3.218  1.00 20.00     0.028 A 
HETATM    4  C4  UNL     1     -34.048   6.556   3.275  1.00 20.00    -0.050 A 
HETATM    5  C5  UNL     1     -32.981   5.788   2.788  1.00 20.00    -0.032 A 
HETATM    6  C6  UNL     1     -33.716   3.943   4.123  1.00 20.00     0.011 A 
HETATM    7  C7  UNL     1     -34.002   7.951   2.732  1.00 20.00     0.045 C 
HETATM    8  C8  UNL     1     -32.122   6.610   1.874  1.00 20.00     0.119 C 
HETATM    9  C9  UNL     1     -33.082   7.766   1.507  1.00 20.00     0.009 C 
HETATM   10  C10 UNL     1     -32.353   9.049   1.132  1.00 20.00     0.012 C 
HETATM   11 CL11 UNL     1     -31.584   5.735   0.434  1.00 20.00    -0.119 Cl
HETATM   12 BR12 UNL     1     -33.517   2.154   4.704  1.00 20.00    -0.051 Br
ENDROOT
TORSDOF 0
ENDMDL
MODEL 3
REMARK VINA RESULT:       4.2      1.761      2.484
REMARK  0 active torsions:
REMARK  status: ('A' for Active; 'I' for Inactive)
ROOT
HETATM    1  C1  UNL     1     -33.947   8.398   3.319  1.00 20.00     0.009 A 
HETATM    2  C2  UNL     1     -33.475   9.282   2.347  1.00 20.00     0.019 A 
HETATM    3  C3  UNL     1     -32.504   7.442   1.085  1.00 20.00     0.028 A 
HETATM    4  C4  UNL     1     -33.676   7.048   3.167  1.00 20.00    -0.050 A 
HETATM    5  C5  UNL     1     -32.954   6.570   2.064  1.00 20.00    -0.032 A 
HETATM    6  C6  UNL     1     -32.761   8.807   1.237  1.00 20.00     0.011 A 
HETATM    7  C7  UNL     1     -34.121   5.924   4.050  1.00 20.00     0.045 C 
HETATM    8  C8  UNL     1     -32.857   5.075   2.114  1.00 20.00     0.119 C 
HETATM    9  C9  UNL     1     -33.168   4.795   3.604  1.00 20.00     0.009 C 
HETATM   10  C10 UNL     1     -33.758   3.412   3.839  1.00 20.00     0.012 C 
HETATM   11 CL11 UNL     1     -31.263   4.455   1.660  1.00 20.00    -0.119 Cl
HETATM   12 BR12 UNL     1     -32.132  10.029  -0.063  1.00 20.00    -0.051 Br
ENDROOT
TORSDOF 0
ENDMDL
MODEL 4
REMARK VINA RESULT:       4.6      1.890      2.690
REMARK  0 active torsions:
REMARK  status: ('A' for Active; 'I' for Inactive)
ROOT
HETATM    1  C1  UNL     1     -34.423   7.372   3.810  1.00 20.00     0.009 A 
HETATM    2  C2  UNL     1     -33.961   8.355   2.931  1.00 20.00     0.019 A 
HETATM    3  C3  UNL     1     -32.583   6.724   1.765  1.00 20.00     0.028 A 
HETATM    4  C4  UNL     1     -33.945   6.081   3.662  1.00 20.00    -0.050 A 
HETATM    5  C5  UNL     1     -33.026   5.756   2.654  1.00 20.00    -0.032 A 
HETATM    6  C6  UNL     1     -33.050   8.032   1.915  1.00 20.00     0.011 A 
HETATM    7  C7  UNL     1     -34.334   4.869   4.450  1.00 20.00     0.045 C 
HETATM    8  C8  UNL     1     -32.723   4.288   2.679  1.00 20.00     0.119 C 
HETATM    9  C9  UNL     1     -33.180   3.904   4.106  1.00 20.00     0.009 C 
HETATM   10  C10 UNL     1     -33.592   2.443   4.226  1.00 20.00     0.012 C 
HETATM   11 CL11 UNL     1     -31.012   3.915   2.426  1.00 20.00    -0.119 Cl
HETATM   12 BR12 UNL     1     -32.441   9.384   0.741  1.00 20.00    -0.051 Br
ENDROOT
TORSDOF 0
ENDMDL
MODEL 5
REMARK VINA RESULT:       4.7      2.802      4.453
REMARK  0 active torsions:
REMARK  status: ('A' for Active; 'I' for Inactive)
ROOT
HETATM    1  C1  UNL     1     -32.777   5.268   0.848  1.00 20.00     0.009 A 
HETATM    2  C2  UNL     1     -33.087   4.348   1.852  1.00 20.00     0.019 A 
HETATM    3  C3  UNL     1     -33.206   6.131   3.504  1.00 20.00     0.028 A 
HETATM    4  C4  UNL     1     -32.671   6.605   1.190  1.00 20.00    -0.050 A 
HETATM    5  C5  UNL     1     -32.875   7.038   2.508  1.00 20.00    -0.032 A 
HETATM    6  C6  UNL     1     -33.302   4.778   3.170  1.00 20.00     0.011 A 
HETATM    7  C7  UNL     1     -32.399   7.762   0.278  1.00 20.00     0.045 C 
HETATM    8  C8  UNL     1     -32.761   8.531   2.591  1.00 20.00     0.119 C 
HETATM    9  C9  UNL     1     -31.988   8.852   1.289  1.00 20.00     0.009 C 
HETATM   10  C10 UNL     1     -32.258  10.257   0.768  1.00 20.00     0.012 C 
HETATM   11 CL11 UNL     1     -31.883   9.094   4.020  1.00 20.00    -0.119 Cl
HETATM   12 BR12 UNL     1     -33.718   3.510   4.510  1.00 20.00    -0.051 Br
ENDROOT
TORSDOF 0
ENDMDL
