MODEL 1
REMARK VINA RESULT:      -0.7      0.000      0.000
REMARK  1 active torsions:
REMARK  status: ('A' for Active; 'I' for Inactive)
REMARK    1  A    between atoms: C4_4  and  C9_9 
ROOT
HETATM    1  C1  UNL     1     -32.469   8.253   2.362  1.00 20.00     0.001 C 
HETATM    2  C2  UNL     1     -33.365   7.454   3.309  1.00 20.00     0.007 C 
HETATM    3  C3  UNL     1     -31.764   7.230   1.472  1.00 20.00     0.009 C 
HETATM    4  C4  UNL     1     -33.078   5.978   3.010  1.00 20.00     0.011 C 
HETATM    5  C5  UNL     1     -32.642   5.968   1.526  1.00 20.00    -0.043 C 
HETATM    6  C6  UNL     1     -33.816   6.089   0.538  1.00 20.00     0.015 C 
HETATM    7  C7  UNL     1     -31.827   4.718   1.177  1.00 20.00     0.015 C 
ENDROOT
BRANCH   4   8
HETATM    8  C9  UNL     1     -34.248   5.072   3.373  1.00 20.00     0.083 C 
HETATM    9  C8  UNL     1     -33.805   3.907   4.245  1.00 20.00     0.027 C 
HETATM   10 CL10 UNL     1     -35.493   6.021   4.234  1.00 20.00    -0.125 Cl
ENDBRANCH   4   8
TORSDOF 1
ENDMDL
MODEL 2
REMARK VINA RESULT:       0.7      1.985      3.955
REMARK  1 active torsions:
REMARK  status: ('A' for Active; 'I' for Inactive)
REMARK    1  A    between atoms: C4_4  and  C9_9 
ROOT
HETATM    1  C1  UNL     1     -34.665   4.290   4.326  1.00 20.00     0.001 C 
HETATM    2  C2  UNL     1     -33.695   4.493   3.161  1.00 20.00     0.007 C 
HETATM    3  C3  UNL     1     -34.943   5.678   4.901  1.00 20.00     0.009 C 
HETATM    4  C4  UNL     1     -33.356   5.989   3.156  1.00 20.00     0.011 C 
HETATM    5  C5  UNL     1     -34.605   6.664   3.769  1.00 20.00    -0.043 C 
HETATM    6  C6  UNL     1     -35.786   6.781   2.789  1.00 20.00     0.015 C 
HETATM    7  C7  UNL     1     -34.287   8.054   4.330  1.00 20.00     0.015 C 
ENDROOT
BRANCH   4   8
HETATM    8  C9  UNL     1     -32.931   6.484   1.779  1.00 20.00     0.083 C 
HETATM    9  C8  UNL     1     -32.023   7.701   1.877  1.00 20.00     0.027 C 
HETATM   10 CL10 UNL     1     -32.081   5.175   0.909  1.00 20.00    -0.125 Cl
ENDBRANCH   4   8
TORSDOF 1
ENDMDL
MODEL 3
REMARK VINA RESULT:       1.0      1.663      2.860
REMARK  1 active torsions:
REMARK  status: ('A' for Active; 'I' for Inactive)
REMARK    1  A    between atoms: C4_4  and  C9_9 
ROOT
HETATM    1  C1  UNL     1     -31.815   5.591   1.444  1.00 20.00     0.001 C 
HETATM    2  C2  UNL     1     -32.999   5.665   2.408  1.00 20.00     0.007 C 
HETATM    3  C3  UNL     1     -31.647   6.993   0.861  1.00 20.00     0.009 C 
HETATM    4  C4  UNL     1     -33.553   7.089   2.282  1.00 20.00     0.011 C 
HETATM    5  C5  UNL     1     -32.328   7.938   1.867  1.00 20.00    -0.043 C 
HETATM    6  C6  UNL     1     -31.376   8.257   3.033  1.00 20.00     0.015 C 
HETATM    7  C7  UNL     1     -32.743   9.250   1.192  1.00 20.00     0.015 C 
ENDROOT
BRANCH   4   8
HETATM    8  C9  UNL     1     -34.290   7.541   3.537  1.00 20.00     0.083 C 
HETATM    9  C8  UNL     1     -35.240   6.467   4.045  1.00 20.00     0.027 C 
HETATM   10 CL10 UNL     1     -33.106   7.942   4.813  1.00 20.00    -0.125 Cl
ENDBRANCH   4   8
TORSDOF 1
ENDMDL
MODEL 4
REMARK VINA RESULT:       1.1      2.035      3.584
REMARK  1 active torsions:
REMARK  status: ('A' for Active; 'I' for Inactive)
REMARK    1  A    between atoms: C4_4  and  C9_9 
ROOT
HETATM    1  C1  UNL     1     -34.141   6.365   3.934  1.00 20.00     0.001 C 
HETATM    2  C2  UNL     1     -33.396   7.608   3.448  1.00 20.00     0.007 C 
HETATM    3  C3  UNL     1     -34.235   5.423   2.734  1.00 20.00     0.009 C 
HETATM    4  C4  UNL     1     -33.164   7.397   1.947  1.00 20.00     0.011 C 
HETATM    5  C5  UNL     1     -33.106   5.860   1.783  1.00 20.00    -0.043 C 
HETATM    6  C6  UNL     1     -31.766   5.244   2.223  1.00 20.00     0.015 C 
HETATM    7  C7  UNL     1     -33.403   5.426   0.344  1.00 20.00     0.015 C 
ENDROOT
BRANCH   4   8
HETATM    8  C9  UNL     1     -31.961   8.176   1.428  1.00 20.00     0.083 C 
HETATM    9  C8  UNL     1     -32.387   9.388   0.615  1.00 20.00     0.027 C 
HETATM   10 CL10 UNL     1     -30.954   8.705   2.805  1.00 20.00    -0.125 Cl
ENDBRANCH   4   8
TORSDOF 1
ENDMDL
MODEL 5
REMARK VINA RESULT:       1.5      1.446      2.822
REMARK  1 active torsions:
REMARK  status: ('A' for Active; 'I' for Inactive)
REMARK    1  A    between atoms: C4_4  and  C9_9 
ROOT
HETATM    1  C1  UNL     1     -31.949   6.818   1.473  1.00 20.00     0.001 C 
HETATM    2  C2  UNL     1     -32.555   5.630   2.221  1.00 20.00     0.007 C 
HETATM    3  C3  UNL     1     -32.799   8.034   1.839  1.00 20.00     0.009 C 
HETATM    4  C4  UNL     1     -33.805   6.172   2.925  1.00 20.00     0.011 C 
HETATM    5  C5  UNL     1     -33.489   7.667   3.164  1.00 20.00    -0.043 C 
HETATM    6  C6  UNL     1     -32.539   7.914   4.350  1.00 20.00     0.015 C 
HETATM    7  C7  UNL     1     -34.761   8.496   3.367  1.00 20.00     0.015 C 
ENDROOT
BRANCH   4   8
HETATM    8  C9  UNL     1     -34.179   5.358   4.157  1.00 20.00     0.083 C 
HETATM    9  C8  UNL     1     -35.674   5.411   4.431  1.00 20.00     0.027 C 
HETATM   10 CL10 UNL     1     -33.676   3.659   3.926  1.00 20.00    -0.125 Cl
ENDBRANCH   4   8
TORSDOF 1
ENDMDL
MODEL 6
REMARK VINA RESULT:       1.7      1.378      1.807
REMARK  1 active torsions:
REMARK  status: ('A' for Active; 'I' for Inactive)
REMARK    1  A    between atoms: C4_4  and  C9_9 
ROOT
HETATM    1  C1  UNL     1     -31.448   7.658   1.232  1.00 20.00     0.001 C 
HETATM    2  C2  UNL     1     -32.334   8.241   2.333  1.00 20.00     0.007 C 
HETATM    3  C3  UNL     1     -31.671   6.146   1.257  1.00 20.00     0.009 C 
HETATM    4  C4  UNL     1     -32.972   7.038   3.038  1.00 20.00     0.011 C 
HETATM    5  C5  UNL     1     -33.033   5.946   1.944  1.00 20.00    -0.043 C 
HETATM    6  C6  UNL     1     -34.178   6.146   0.935  1.00 20.00     0.015 C 
HETATM    7  C7  UNL     1     -33.142   4.540   2.545  1.00 20.00     0.015 C 
ENDROOT
BRANCH   4   8
HETATM    8  C9  UNL     1     -34.293   7.392   3.710  1.00 20.00     0.083 C 
HETATM    9  C8  UNL     1     -35.105   6.148   4.037  1.00 20.00     0.027 C 
HETATM   10 CL10 UNL     1     -33.974   8.307   5.210  1.00 20.00    -0.125 Cl
ENDBRANCH   4   8
TORSDOF 1
ENDMDL
MODEL 7
REMARK VINA RESULT:       1.8      1.977      3.388
REMARK  1 active torsions:
REMARK  status: ('A' for Active; 'I' for Inactive)
REMARK    1  A    between atoms: C4_4  and  C9_9 
ROOT
HETATM    1  C1  UNL     1     -32.554   8.235   3.709  1.00 20.00     0.001 C 
HETATM    2  C2  UNL     1     -32.304   7.456   2.417  1.00 20.00     0.007 C 
HETATM    3  C3  UNL     1     -33.952   7.840   4.185  1.00 20.00     0.009 C 
HETATM    4  C4  UNL     1     -33.608   6.705   2.122  1.00 20.00     0.011 C 
HETATM    5  C5  UNL     1     -34.244   6.486   3.515  1.00 20.00    -0.043 C 
HETATM    6  C6  UNL     1     -33.597   5.341   4.315  1.00 20.00     0.015 C 
HETATM    7  C7  UNL     1     -35.753   6.235   3.422  1.00 20.00     0.015 C 
ENDROOT
BRANCH   4   8
HETATM    8  C9  UNL     1     -33.383   5.455   1.281  1.00 20.00     0.083 C 
HETATM    9  C8  UNL     1     -34.073   5.557  -0.071  1.00 20.00     0.027 C 
HETATM   10 CL10 UNL     1     -31.630   5.207   1.038  1.00 20.00    -0.125 Cl
ENDBRANCH   4   8
TORSDOF 1
ENDMDL
MODEL 8
REMARK VINA RESULT:       1.8      1.860      3.030
REMARK  1 active torsions:
REMARK  status: ('A' for Active; 'I' for Inactive)
REMARK    1  A    between atoms: C4_4  and  C9_9 
ROOT
HETATM    1  C1  UNL     1     -34.319   7.239   3.804  1.00 20.00     0.001 C 
HETATM    2  C2  UNL     1     -34.026   6.118   2.806  1.00 20.00     0.007 C 
HETATM    3  C3  UNL     1     -33.088   8.143   3.808  1.00 20.00     0.009 C 
HETATM    4  C4  UNL     1     -32.586   6.346   2.331  1.00 20.00     0.011 C 
HETATM    5  C5  UNL     1     -32.378   7.873   2.470  1.00 20.00    -0.043 C 
HETATM    6  C6  UNL     1     -33.033   8.690   1.341  1.00 20.00     0.015 C 
HETATM    7  C7  UNL     1     -30.893   8.243   2.552  1.00 20.00     0.015 C 
ENDROOT
BRANCH   4   8
HETATM    8  C9  UNL     1     -32.328   5.755   0.951  1.00 20.00     0.083 C 
HETATM    9  C8  UNL     1     -31.374   4.572   1.019  1.00 20.00     0.027 C 
HETATM   10 CL10 UNL     1     -33.875   5.233   0.225  1.00 20.00    -0.125 Cl
ENDBRANCH   4   8
TORSDOF 1
ENDMDL
