MODEL 1
REMARK VINA RESULT:       0.6      0.000      0.000
REMARK  0 active torsions:
REMARK  status: ('A' for Active; 'I' for Inactive)
ROOT
HETATM    1  C1  UNL     1     -33.120   7.962   3.639  1.00 20.00     0.021 C 
HETATM    2  C2  UNL     1     -34.148   7.395   4.291  1.00 20.00     0.001 C 
HETATM    3  C3  UNL     1     -33.087   6.256   1.914  1.00 20.00     0.003 C 
HETATM    4  C4  UNL     1     -32.692   7.462   2.353  1.00 20.00     0.030 C 
HETATM    5  C5  UNL     1     -33.992   5.363   2.746  1.00 20.00     0.033 C 
HETATM    6  C6  UNL     1     -34.898   6.211   3.709  1.00 20.00     0.058 C 
HETATM    7  C7  UNL     1     -33.088   4.333   3.442  1.00 20.00     0.016 C 
HETATM    8  C8  UNL     1     -36.126   6.749   2.950  1.00 20.00     0.037 C 
HETATM    9 CL9  UNL     1     -31.620   8.435   1.417  1.00 20.00    -0.085 Cl
HETATM   10 CL10 UNL     1     -35.529   5.214   5.073  1.00 20.00    -0.115 Cl
ENDROOT
TORSDOF 0
ENDMDL
MODEL 2
REMARK VINA RESULT:       0.8      1.193      3.755
REMARK  0 active torsions:
REMARK  status: ('A' for Active; 'I' for Inactive)
ROOT
HETATM    1  C1  UNL     1     -34.312   6.851   3.660  1.00 20.00     0.021 C 
HETATM    2  C2  UNL     1     -33.769   7.917   3.050  1.00 20.00     0.001 C 
HETATM    3  C3  UNL     1     -32.981   5.267   2.393  1.00 20.00     0.003 C 
HETATM    4  C4  UNL     1     -33.795   5.522   3.430  1.00 20.00     0.030 C 
HETATM    5  C5  UNL     1     -32.573   6.356   1.414  1.00 20.00     0.033 C 
HETATM    6  C6  UNL     1     -32.598   7.771   2.096  1.00 20.00     0.058 C 
HETATM    7  C7  UNL     1     -33.479   6.213   0.181  1.00 20.00     0.016 C 
HETATM    8  C8  UNL     1     -31.300   8.002   2.894  1.00 20.00     0.037 C 
HETATM    9 CL9  UNL     1     -34.289   4.260   4.495  1.00 20.00    -0.085 Cl
HETATM   10 CL10 UNL     1     -32.695   9.094   0.874  1.00 20.00    -0.115 Cl
ENDROOT
TORSDOF 0
ENDMDL
MODEL 3
REMARK VINA RESULT:       1.6      1.730      3.473
REMARK  0 active torsions:
REMARK  status: ('A' for Active; 'I' for Inactive)
ROOT
HETATM    1  C1  UNL     1     -35.060   5.078   4.289  1.00 20.00     0.021 C 
HETATM    2  C2  UNL     1     -35.186   6.409   4.162  1.00 20.00     0.001 C 
HETATM    3  C3  UNL     1     -32.832   5.052   3.329  1.00 20.00     0.003 C 
HETATM    4  C4  UNL     1     -33.805   4.422   4.007  1.00 20.00     0.030 C 
HETATM    5  C5  UNL     1     -33.007   6.475   2.824  1.00 20.00     0.033 C 
HETATM    6  C6  UNL     1     -34.021   7.275   3.717  1.00 20.00     0.058 C 
HETATM    7  C7  UNL     1     -33.385   6.379   1.337  1.00 20.00     0.016 C 
HETATM    8  C8  UNL     1     -33.314   7.810   4.978  1.00 20.00     0.037 C 
HETATM    9 CL9  UNL     1     -33.606   2.789   4.523  1.00 20.00    -0.085 Cl
HETATM   10 CL10 UNL     1     -34.681   8.710   2.847  1.00 20.00    -0.115 Cl
ENDROOT
TORSDOF 0
ENDMDL
MODEL 4
REMARK VINA RESULT:       1.9      1.322      3.893
REMARK  0 active torsions:
REMARK  status: ('A' for Active; 'I' for Inactive)
ROOT
HETATM    1  C1  UNL     1     -32.215   4.658   2.836  1.00 20.00     0.021 C 
HETATM    2  C2  UNL     1     -32.025   5.654   1.956  1.00 20.00     0.001 C 
HETATM    3  C3  UNL     1     -34.290   5.599   3.671  1.00 20.00     0.003 C 
HETATM    4  C4  UNL     1     -33.443   4.560   3.590  1.00 20.00     0.030 C 
HETATM    5  C5  UNL     1     -33.995   6.922   2.983  1.00 20.00     0.033 C 
HETATM    6  C6  UNL     1     -33.085   6.715   1.719  1.00 20.00     0.058 C 
HETATM    7  C7  UNL     1     -33.419   7.864   4.052  1.00 20.00     0.016 C 
HETATM    8  C8  UNL     1     -33.938   6.278   0.513  1.00 20.00     0.037 C 
HETATM    9 CL9  UNL     1     -33.770   3.087   4.424  1.00 20.00    -0.085 Cl
HETATM   10 CL10 UNL     1     -32.259   8.245   1.240  1.00 20.00    -0.115 Cl
ENDROOT
TORSDOF 0
ENDMDL
MODEL 5
REMARK VINA RESULT:       2.0      0.929      3.937
REMARK  0 active torsions:
REMARK  status: ('A' for Active; 'I' for Inactive)
ROOT
HETATM    1  C1  UNL     1     -33.449   4.862   3.366  1.00 20.00     0.021 C 
HETATM    2  C2  UNL     1     -32.644   5.380   2.424  1.00 20.00     0.001 C 
HETATM    3  C3  UNL     1     -34.580   6.971   3.764  1.00 20.00     0.003 C 
HETATM    4  C4  UNL     1     -34.529   5.639   3.927  1.00 20.00     0.030 C 
HETATM    5  C5  UNL     1     -33.507   7.720   2.991  1.00 20.00     0.033 C 
HETATM    6  C6  UNL     1     -32.833   6.797   1.914  1.00 20.00     0.058 C 
HETATM    7  C7  UNL     1     -32.543   8.318   4.029  1.00 20.00     0.016 C 
HETATM    8  C8  UNL     1     -33.704   6.736   0.644  1.00 20.00     0.037 C 
HETATM    9 CL9  UNL     1     -35.727   4.817   4.854  1.00 20.00    -0.085 Cl
HETATM   10 CL10 UNL     1     -31.224   7.435   1.407  1.00 20.00    -0.115 Cl
ENDROOT
TORSDOF 0
ENDMDL
MODEL 6
REMARK VINA RESULT:       2.5      2.398      3.721
REMARK  0 active torsions:
REMARK  status: ('A' for Active; 'I' for Inactive)
ROOT
HETATM    1  C1  UNL     1     -31.682   5.761   1.253  1.00 20.00     0.021 C 
HETATM    2  C2  UNL     1     -31.261   6.910   1.807  1.00 20.00     0.001 C 
HETATM    3  C3  UNL     1     -34.027   6.332   1.507  1.00 20.00     0.003 C 
HETATM    4  C4  UNL     1     -33.081   5.547   0.965  1.00 20.00     0.030 C 
HETATM    5  C5  UNL     1     -33.672   7.472   2.448  1.00 20.00     0.033 C 
HETATM    6  C6  UNL     1     -32.231   8.024   2.154  1.00 20.00     0.058 C 
HETATM    7  C7  UNL     1     -33.892   6.956   3.879  1.00 20.00     0.016 C 
HETATM    8  C8  UNL     1     -32.269   9.011   0.972  1.00 20.00     0.037 C 
HETATM    9 CL9  UNL     1     -33.510   4.225  -0.055  1.00 20.00    -0.085 Cl
HETATM   10 CL10 UNL     1     -31.569   8.931   3.565  1.00 20.00    -0.115 Cl
ENDROOT
TORSDOF 0
ENDMDL
MODEL 7
REMARK VINA RESULT:       2.6      1.049      4.059
REMARK  0 active torsions:
REMARK  status: ('A' for Active; 'I' for Inactive)
ROOT
HETATM    1  C1  UNL     1     -33.337   5.646   2.724  1.00 20.00     0.021 C 
HETATM    2  C2  UNL     1     -32.458   6.248   1.905  1.00 20.00     0.001 C 
HETATM    3  C3  UNL     1     -34.066   7.738   3.715  1.00 20.00     0.003 C 
HETATM    4  C4  UNL     1     -34.255   6.422   3.525  1.00 20.00     0.030 C 
HETATM    5  C5  UNL     1     -32.880   8.468   3.105  1.00 20.00     0.033 C 
HETATM    6  C6  UNL     1     -32.392   7.761   1.790  1.00 20.00     0.058 C 
HETATM    7  C7  UNL     1     -31.817   8.595   4.208  1.00 20.00     0.016 C 
HETATM    8  C8  UNL     1     -33.269   8.189   0.598  1.00 20.00     0.037 C 
HETATM    9 CL9  UNL     1     -35.575   5.603   4.271  1.00 20.00    -0.085 Cl
HETATM   10 CL10 UNL     1     -30.698   8.224   1.379  1.00 20.00    -0.115 Cl
ENDROOT
TORSDOF 0
ENDMDL
MODEL 8
REMARK VINA RESULT:       2.7      2.182      3.370
REMARK  0 active torsions:
REMARK  status: ('A' for Active; 'I' for Inactive)
ROOT
HETATM    1  C1  UNL     1     -33.432   5.687   1.999  1.00 20.00     0.021 C 
HETATM    2  C2  UNL     1     -34.089   6.607   2.724  1.00 20.00     0.001 C 
HETATM    3  C3  UNL     1     -31.491   7.109   1.686  1.00 20.00     0.003 C 
HETATM    4  C4  UNL     1     -32.057   5.893   1.610  1.00 20.00     0.030 C 
HETATM    5  C5  UNL     1     -32.269   8.319   2.175  1.00 20.00     0.033 C 
HETATM    6  C6  UNL     1     -33.417   7.897   3.160  1.00 20.00     0.058 C 
HETATM    7  C7  UNL     1     -32.732   9.088   0.928  1.00 20.00     0.016 C 
HETATM    8  C8  UNL     1     -32.853   7.686   4.578  1.00 20.00     0.037 C 
HETATM    9 CL9  UNL     1     -31.173   4.545   0.999  1.00 20.00    -0.085 Cl
HETATM   10 CL10 UNL     1     -34.681   9.177   3.292  1.00 20.00    -0.115 Cl
ENDROOT
TORSDOF 0
ENDMDL
MODEL 9
REMARK VINA RESULT:       2.8      1.114      2.490
REMARK  0 active torsions:
REMARK  status: ('A' for Active; 'I' for Inactive)
ROOT
HETATM    1  C1  UNL     1     -33.279   6.643   1.177  1.00 20.00     0.021 C 
HETATM    2  C2  UNL     1     -34.058   5.864   1.945  1.00 20.00     0.001 C 
HETATM    3  C3  UNL     1     -32.315   7.803   3.078  1.00 20.00     0.003 C 
HETATM    4  C4  UNL     1     -32.289   7.513   1.767  1.00 20.00     0.030 C 
HETATM    5  C5  UNL     1     -33.386   7.238   3.996  1.00 20.00     0.033 C 
HETATM    6  C6  UNL     1     -33.931   5.866   3.458  1.00 20.00     0.058 C 
HETATM    7  C7  UNL     1     -34.448   8.335   4.173  1.00 20.00     0.016 C 
HETATM    8  C8  UNL     1     -32.982   4.721   3.860  1.00 20.00     0.037 C 
HETATM    9 CL9  UNL     1     -31.098   8.209   0.733  1.00 20.00    -0.085 Cl
HETATM   10 CL10 UNL     1     -35.544   5.473   4.162  1.00 20.00    -0.115 Cl
ENDROOT
TORSDOF 0
ENDMDL
