MODEL 1
REMARK VINA RESULT:      -1.8      0.000      0.000
REMARK  1 active torsions:
REMARK  status: ('A' for Active; 'I' for Inactive)
REMARK    1  A    between atoms: C1_1  and  C4_4 
ROOT
HETATM    1  C1  UNL     1     -32.599   7.489   1.727  1.00 20.00    -0.079 C 
HETATM    2  C2  UNL     1     -32.438   8.556   1.201  1.00 20.00    -0.106 C 
HETATM    3  C7  UNL     1     -32.242   9.856   0.563  1.00 20.00     0.112 C 
ENDROOT
BRANCH   1   4
HETATM    4  C4  UNL     1     -32.792   6.222   2.347  1.00 20.00     0.070 C 
HETATM    5  C3  UNL     1     -33.863   5.957   3.092  1.00 20.00    -0.017 C 
HETATM    6  C5  UNL     1     -34.348   4.759   3.860  1.00 20.00     0.306 C 
HETATM    7  C6  UNL     1     -35.083   6.732   3.504  1.00 20.00     0.306 C 
HETATM    8  N8  UNL     1     -35.308   5.671   4.498  1.00 20.00     0.091 N 
HETATM    9  H17 UNL     1     -36.265   5.323   4.546  1.00 20.00     0.316 HD
ENDBRANCH   1   4
TORSDOF 1
ENDMDL
MODEL 2
REMARK VINA RESULT:      -1.3      2.658      4.675
REMARK  1 active torsions:
REMARK  status: ('A' for Active; 'I' for Inactive)
REMARK    1  A    between atoms: C1_1  and  C4_4 
ROOT
HETATM    1  C1  UNL     1     -33.236   6.918   2.595  1.00 20.00    -0.079 C 
HETATM    2  C2  UNL     1     -34.137   6.612   3.327  1.00 20.00    -0.106 C 
HETATM    3  C7  UNL     1     -35.233   6.241   4.220  1.00 20.00     0.112 C 
ENDROOT
BRANCH   1   4
HETATM    4  C4  UNL     1     -32.170   7.278   1.723  1.00 20.00     0.070 C 
HETATM    5  C3  UNL     1     -32.124   8.463   1.117  1.00 20.00    -0.017 C 
HETATM    6  C5  UNL     1     -31.167   9.129   0.169  1.00 20.00     0.306 C 
HETATM    7  C6  UNL     1     -33.004   9.682   1.108  1.00 20.00     0.306 C 
HETATM    8  N8  UNL     1     -32.231  10.118  -0.066  1.00 20.00     0.091 N 
HETATM    9  H17 UNL     1     -31.927  11.090  -0.043  1.00 20.00     0.316 HD
ENDBRANCH   1   4
TORSDOF 1
ENDMDL
MODEL 3
REMARK VINA RESULT:      -0.9      2.187      4.728
REMARK  1 active torsions:
REMARK  status: ('A' for Active; 'I' for Inactive)
REMARK    1  A    between atoms: C1_1  and  C4_4 
ROOT
HETATM    1  C1  UNL     1     -33.808   4.995   3.813  1.00 20.00    -0.079 C 
HETATM    2  C2  UNL     1     -33.645   3.864   4.181  1.00 20.00    -0.106 C 
HETATM    3  C7  UNL     1     -33.449   2.487   4.630  1.00 20.00     0.112 C 
ENDROOT
BRANCH   1   4
HETATM    4  C4  UNL     1     -33.996   6.336   3.376  1.00 20.00     0.070 C 
HETATM    5  C3  UNL     1     -33.171   6.919   2.508  1.00 20.00    -0.017 C 
HETATM    6  C5  UNL     1     -33.096   8.276   1.867  1.00 20.00     0.306 C 
HETATM    7  C6  UNL     1     -31.939   6.484   1.765  1.00 20.00     0.306 C 
HETATM    8  N8  UNL     1     -31.730   7.909   1.463  1.00 20.00     0.091 N 
HETATM    9  H17 UNL     1     -31.501   8.114   0.492  1.00 20.00     0.316 HD
ENDBRANCH   1   4
TORSDOF 1
ENDMDL
MODEL 4
REMARK VINA RESULT:      -0.6      1.656      2.841
REMARK  1 active torsions:
REMARK  status: ('A' for Active; 'I' for Inactive)
REMARK    1  A    between atoms: C1_1  and  C4_4 
ROOT
HETATM    1  C1  UNL     1     -32.430   5.646   1.416  1.00 20.00    -0.079 C 
HETATM    2  C2  UNL     1     -31.817   4.854   0.754  1.00 20.00    -0.106 C 
HETATM    3  C7  UNL     1     -31.069   3.890  -0.051  1.00 20.00     0.112 C 
ENDROOT
BRANCH   1   4
HETATM    4  C4  UNL     1     -33.160   6.584   2.199  1.00 20.00     0.070 C 
HETATM    5  C3  UNL     1     -33.976   6.202   3.179  1.00 20.00    -0.017 C 
HETATM    6  C5  UNL     1     -34.861   6.920   4.159  1.00 20.00     0.306 C 
HETATM    7  C6  UNL     1     -34.383   4.877   3.762  1.00 20.00     0.306 C 
HETATM    8  N8  UNL     1     -35.470   5.609   4.430  1.00 20.00     0.091 N 
HETATM    9  H17 UNL     1     -35.592   5.388   5.418  1.00 20.00     0.316 HD
ENDBRANCH   1   4
TORSDOF 1
ENDMDL
MODEL 5
REMARK VINA RESULT:      -0.2      1.263      1.640
REMARK  1 active torsions:
REMARK  status: ('A' for Active; 'I' for Inactive)
REMARK    1  A    between atoms: C1_1  and  C4_4 
ROOT
HETATM    1  C1  UNL     1     -33.195   7.655   2.501  1.00 20.00    -0.079 C 
HETATM    2  C2  UNL     1     -32.355   8.114   1.775  1.00 20.00    -0.106 C 
HETATM    3  C7  UNL     1     -31.334   8.673   0.891  1.00 20.00     0.112 C 
ENDROOT
BRANCH   1   4
HETATM    4  C4  UNL     1     -34.190   7.109   3.359  1.00 20.00     0.070 C 
HETATM    5  C3  UNL     1     -34.153   5.841   3.764  1.00 20.00    -0.017 C 
HETATM    6  C5  UNL     1     -35.023   4.985   4.642  1.00 20.00     0.306 C 
HETATM    7  C6  UNL     1     -33.222   4.683   3.534  1.00 20.00     0.306 C 
HETATM    8  N8  UNL     1     -34.286   3.835   4.096  1.00 20.00     0.091 N 
HETATM    9  H17 UNL     1     -33.973   3.157   4.789  1.00 20.00     0.316 HD
ENDBRANCH   1   4
TORSDOF 1
ENDMDL
MODEL 6
REMARK VINA RESULT:      -0.2      3.447      4.943
REMARK  1 active torsions:
REMARK  status: ('A' for Active; 'I' for Inactive)
REMARK    1  A    between atoms: C1_1  and  C4_4 
ROOT
HETATM    1  C1  UNL     1     -32.098   6.940   1.519  1.00 20.00    -0.079 C 
HETATM    2  C2  UNL     1     -31.965   5.787   1.210  1.00 20.00    -0.106 C 
HETATM    3  C7  UNL     1     -31.802   4.383   0.836  1.00 20.00     0.112 C 
ENDROOT
BRANCH   1   4
HETATM    4  C4  UNL     1     -32.258   8.306   1.881  1.00 20.00     0.070 C 
HETATM    5  C3  UNL     1     -32.446   9.260   0.972  1.00 20.00    -0.017 C 
HETATM    6  C5  UNL     1     -32.643  10.750   1.025  1.00 20.00     0.306 C 
HETATM    7  C6  UNL     1     -32.556   9.286  -0.528  1.00 20.00     0.306 C 
HETATM    8  N8  UNL     1     -32.386  10.744  -0.423  1.00 20.00     0.091 N 
HETATM    9  H17 UNL     1     -33.041  11.294  -0.977  1.00 20.00     0.316 HD
ENDBRANCH   1   4
TORSDOF 1
ENDMDL
MODEL 7
REMARK VINA RESULT:       0.7      2.157      3.142
REMARK  1 active torsions:
REMARK  status: ('A' for Active; 'I' for Inactive)
REMARK    1  A    between atoms: C1_1  and  C4_4 
ROOT
HETATM    1  C1  UNL     1     -32.978   5.713   1.038  1.00 20.00    -0.079 C 
HETATM    2  C2  UNL     1     -33.338   4.856   0.278  1.00 20.00    -0.106 C 
HETATM    3  C7  UNL     1     -33.774   3.813  -0.648  1.00 20.00     0.112 C 
ENDROOT
BRANCH   1   4
HETATM    4  C4  UNL     1     -32.556   6.730   1.940  1.00 20.00     0.070 C 
HETATM    5  C3  UNL     1     -33.237   7.018   3.048  1.00 20.00    -0.017 C 
HETATM    6  C5  UNL     1     -33.063   8.002   4.171  1.00 20.00     0.306 C 
HETATM    7  C6  UNL     1     -34.490   6.488   3.688  1.00 20.00     0.306 C 
HETATM    8  N8  UNL     1     -34.451   7.687   4.540  1.00 20.00     0.091 N 
HETATM    9  H17 UNL     1     -34.602   7.513   5.533  1.00 20.00     0.316 HD
ENDBRANCH   1   4
TORSDOF 1
ENDMDL
MODEL 8
REMARK VINA RESULT:       0.8      1.466      1.942
REMARK  1 active torsions:
REMARK  status: ('A' for Active; 'I' for Inactive)
REMARK    1  A    between atoms: C1_1  and  C4_4 
ROOT
HETATM    1  C1  UNL     1     -32.628   8.802   1.526  1.00 20.00    -0.079 C 
HETATM    2  C2  UNL     1     -32.334   9.490   0.587  1.00 20.00    -0.106 C 
HETATM    3  C7  UNL     1     -31.976  10.328  -0.555  1.00 20.00     0.112 C 
ENDROOT
BRANCH   1   4
HETATM    4  C4  UNL     1     -32.980   7.987   2.638  1.00 20.00     0.070 C 
HETATM    5  C3  UNL     1     -33.065   6.661   2.543  1.00 20.00    -0.017 C 
HETATM    6  C5  UNL     1     -33.401   5.551   3.499  1.00 20.00     0.306 C 
HETATM    7  C6  UNL     1     -32.858   5.664   1.437  1.00 20.00     0.306 C 
HETATM    8  N8  UNL     1     -33.529   4.691   2.313  1.00 20.00     0.091 N 
HETATM    9  H17 UNL     1     -33.065   3.787   2.386  1.00 20.00     0.316 HD
ENDBRANCH   1   4
TORSDOF 1
ENDMDL
MODEL 9
REMARK VINA RESULT:       1.2      2.860      4.046
REMARK  1 active torsions:
REMARK  status: ('A' for Active; 'I' for Inactive)
REMARK    1  A    between atoms: C1_1  and  C4_4 
ROOT
HETATM    1  C1  UNL     1     -32.098   4.719   0.858  1.00 20.00    -0.079 C 
HETATM    2  C2  UNL     1     -31.386   4.090   0.123  1.00 20.00    -0.106 C 
HETATM    3  C7  UNL     1     -30.519   3.326  -0.773  1.00 20.00     0.112 C 
ENDROOT
BRANCH   1   4
HETATM    4  C4  UNL     1     -32.942   5.460   1.731  1.00 20.00     0.070 C 
HETATM    5  C3  UNL     1     -32.706   6.737   2.025  1.00 20.00    -0.017 C 
HETATM    6  C5  UNL     1     -33.384   7.768   2.884  1.00 20.00     0.306 C 
HETATM    7  C6  UNL     1     -31.657   7.738   1.628  1.00 20.00     0.306 C 
HETATM    8  N8  UNL     1     -32.156   8.564   2.739  1.00 20.00     0.091 N 
HETATM    9  H17 UNL     1     -32.305   9.546   2.511  1.00 20.00     0.316 HD
ENDBRANCH   1   4
TORSDOF 1
ENDMDL
