MODEL 1
REMARK VINA RESULT:      -2.4      0.000      0.000
REMARK  1 active torsions:
REMARK  status: ('A' for Active; 'I' for Inactive)
REMARK    1  A    between atoms: C2_2  and  C5_5 
ROOT
HETATM    1  C1  UNL     1     -33.422   5.477   2.305  1.00 20.00     0.075 A 
HETATM    2  C2  UNL     1     -33.916   6.466   3.059  1.00 20.00     0.039 A 
HETATM    3  C3  UNL     1     -32.266   5.901   1.503  1.00 20.00     0.209 A 
HETATM    4  C4  UNL     1     -33.248   7.802   2.978  1.00 20.00     0.126 A 
HETATM    5  O6  UNL     1     -31.649   5.175   0.741  1.00 20.00    -0.281 OA
HETATM    6  S10 UNL     1     -31.893   7.588   1.786  1.00 20.00    -0.084 SA
ENDROOT
BRANCH   2   7
HETATM    7  C5  UNL     1     -35.091   6.314   3.969  1.00 20.00     0.414 C 
HETATM    8  F7  UNL     1     -34.993   7.141   5.033  1.00 20.00    -0.166 F 
HETATM    9  F8  UNL     1     -36.245   6.603   3.330  1.00 20.00    -0.166 F 
HETATM   10  F9  UNL     1     -35.186   5.052   4.438  1.00 20.00    -0.166 F 
ENDBRANCH   2   7
TORSDOF 1
ENDMDL
MODEL 2
REMARK VINA RESULT:      -2.4      0.001      1.194
REMARK  1 active torsions:
REMARK  status: ('A' for Active; 'I' for Inactive)
REMARK    1  A    between atoms: C2_2  and  C5_5 
ROOT
HETATM    1  C1  UNL     1     -33.422   5.477   2.305  1.00 20.00     0.075 A 
HETATM    2  C2  UNL     1     -33.916   6.466   3.059  1.00 20.00     0.039 A 
HETATM    3  C3  UNL     1     -32.266   5.901   1.502  1.00 20.00     0.209 A 
HETATM    4  C4  UNL     1     -33.248   7.802   2.978  1.00 20.00     0.126 A 
HETATM    5  O6  UNL     1     -31.650   5.175   0.740  1.00 20.00    -0.281 OA
HETATM    6  S10 UNL     1     -31.894   7.588   1.786  1.00 20.00    -0.084 SA
ENDROOT
BRANCH   2   7
HETATM    7  C5  UNL     1     -35.090   6.314   3.970  1.00 20.00     0.414 C 
HETATM    8  F7  UNL     1     -36.244   6.603   3.329  1.00 20.00    -0.166 F 
HETATM    9  F8  UNL     1     -35.185   5.051   4.437  1.00 20.00    -0.166 F 
HETATM   10  F9  UNL     1     -34.995   7.139   5.034  1.00 20.00    -0.166 F 
ENDBRANCH   2   7
TORSDOF 1
ENDMDL
MODEL 3
REMARK VINA RESULT:      -2.3      1.303      2.072
REMARK  1 active torsions:
REMARK  status: ('A' for Active; 'I' for Inactive)
REMARK    1  A    between atoms: C2_2  and  C5_5 
ROOT
HETATM    1  C1  UNL     1     -33.314   7.628   2.776  1.00 20.00     0.075 A 
HETATM    2  C2  UNL     1     -33.930   6.466   3.028  1.00 20.00     0.039 A 
HETATM    3  C3  UNL     1     -32.221   7.488   1.803  1.00 20.00     0.209 A 
HETATM    4  C4  UNL     1     -33.436   5.249   2.313  1.00 20.00     0.126 A 
HETATM    5  O6  UNL     1     -31.517   8.407   1.417  1.00 20.00    -0.281 OA
HETATM    6  S10 UNL     1     -32.063   5.827   1.274  1.00 20.00    -0.084 SA
ENDROOT
BRANCH   2   7
HETATM    7  C5  UNL     1     -35.073   6.318   3.977  1.00 20.00     0.414 C 
HETATM    8  F7  UNL     1     -35.142   5.061   4.464  1.00 20.00    -0.166 F 
HETATM    9  F8  UNL     1     -34.949   7.159   5.027  1.00 20.00    -0.166 F 
HETATM   10  F9  UNL     1     -36.250   6.589   3.373  1.00 20.00    -0.166 F 
ENDBRANCH   2   7
TORSDOF 1
ENDMDL
MODEL 4
REMARK VINA RESULT:      -2.3      1.304      1.696
REMARK  1 active torsions:
REMARK  status: ('A' for Active; 'I' for Inactive)
REMARK    1  A    between atoms: C2_2  and  C5_5 
ROOT
HETATM    1  C1  UNL     1     -33.299   7.624   2.767  1.00 20.00     0.075 A 
HETATM    2  C2  UNL     1     -33.925   6.466   3.014  1.00 20.00     0.039 A 
HETATM    3  C3  UNL     1     -32.213   7.483   1.787  1.00 20.00     0.209 A 
HETATM    4  C4  UNL     1     -33.445   5.250   2.287  1.00 20.00     0.126 A 
HETATM    5  O6  UNL     1     -31.504   8.397   1.405  1.00 20.00    -0.281 OA
HETATM    6  S10 UNL     1     -32.073   5.824   1.245  1.00 20.00    -0.084 SA
ENDROOT
BRANCH   2   7
HETATM    7  C5  UNL     1     -35.064   6.321   3.968  1.00 20.00     0.414 C 
HETATM    8  F7  UNL     1     -34.929   7.158   5.019  1.00 20.00    -0.166 F 
HETATM    9  F8  UNL     1     -36.242   6.600   3.369  1.00 20.00    -0.166 F 
HETATM   10  F9  UNL     1     -35.139   5.063   4.453  1.00 20.00    -0.166 F 
ENDBRANCH   2   7
TORSDOF 1
ENDMDL
MODEL 5
REMARK VINA RESULT:      -1.6      3.352      3.737
REMARK  1 active torsions:
REMARK  status: ('A' for Active; 'I' for Inactive)
REMARK    1  A    between atoms: C2_2  and  C5_5 
ROOT
HETATM    1  C1  UNL     1     -33.010   5.534   2.918  1.00 20.00     0.075 A 
HETATM    2  C2  UNL     1     -33.131   6.864   2.819  1.00 20.00     0.039 A 
HETATM    3  C3  UNL     1     -34.096   4.924   3.699  1.00 20.00     0.209 A 
HETATM    4  C4  UNL     1     -34.303   7.507   3.491  1.00 20.00     0.126 A 
HETATM    5  O6  UNL     1     -34.200   3.730   3.924  1.00 20.00    -0.281 OA
HETATM    6  S10 UNL     1     -35.220   6.142   4.265  1.00 20.00    -0.084 SA
ENDROOT
BRANCH   2   7
HETATM    7  C5  UNL     1     -32.167   7.736   2.085  1.00 20.00     0.414 C 
HETATM    8  F7  UNL     1     -31.408   8.453   2.941  1.00 20.00    -0.166 F 
HETATM    9  F8  UNL     1     -31.335   7.003   1.313  1.00 20.00    -0.166 F 
HETATM   10  F9  UNL     1     -32.811   8.607   1.279  1.00 20.00    -0.166 F 
ENDBRANCH   2   7
TORSDOF 1
ENDMDL
MODEL 6
REMARK VINA RESULT:      -1.4      3.547      4.147
REMARK  1 active torsions:
REMARK  status: ('A' for Active; 'I' for Inactive)
REMARK    1  A    between atoms: C2_2  and  C5_5 
ROOT
HETATM    1  C1  UNL     1     -33.852   7.408   3.334  1.00 20.00     0.075 A 
HETATM    2  C2  UNL     1     -32.855   7.143   2.481  1.00 20.00     0.039 A 
HETATM    3  C3  UNL     1     -34.591   6.202   3.733  1.00 20.00     0.209 A 
HETATM    4  C4  UNL     1     -32.649   5.718   2.075  1.00 20.00     0.126 A 
HETATM    5  O6  UNL     1     -35.538   6.193   4.501  1.00 20.00    -0.281 OA
HETATM    6  S10 UNL     1     -33.930   4.779   2.956  1.00 20.00    -0.084 SA
ENDROOT
BRANCH   2   7
HETATM    7  C5  UNL     1     -31.945   8.182   1.913  1.00 20.00     0.414 C 
HETATM    8  F7  UNL     1     -31.176   8.735   2.876  1.00 20.00    -0.166 F 
HETATM    9  F8  UNL     1     -31.121   7.653   0.983  1.00 20.00    -0.166 F 
HETATM   10  F9  UNL     1     -32.643   9.176   1.325  1.00 20.00    -0.166 F 
ENDBRANCH   2   7
TORSDOF 1
ENDMDL
MODEL 7
REMARK VINA RESULT:      -1.0      3.488      3.969
REMARK  1 active torsions:
REMARK  status: ('A' for Active; 'I' for Inactive)
REMARK    1  A    between atoms: C2_2  and  C5_5 
ROOT
HETATM    1  C1  UNL     1     -33.935   5.076   3.015  1.00 20.00     0.075 A 
HETATM    2  C2  UNL     1     -33.142   5.995   2.449  1.00 20.00     0.039 A 
HETATM    3  C3  UNL     1     -34.787   5.639   4.072  1.00 20.00     0.209 A 
HETATM    4  C4  UNL     1     -33.235   7.399   2.955  1.00 20.00     0.126 A 
HETATM    5  O6  UNL     1     -35.590   4.997   4.728  1.00 20.00    -0.281 OA
HETATM    6  S10 UNL     1     -34.492   7.355   4.265  1.00 20.00    -0.084 SA
ENDROOT
BRANCH   2   7
HETATM    7  C5  UNL     1     -32.175   5.698   1.351  1.00 20.00     0.414 C 
HETATM    8  F7  UNL     1     -32.793   5.113   0.302  1.00 20.00    -0.166 F 
HETATM    9  F8  UNL     1     -31.585   6.827   0.901  1.00 20.00    -0.166 F 
HETATM   10  F9  UNL     1     -31.199   4.864   1.769  1.00 20.00    -0.166 F 
ENDBRANCH   2   7
TORSDOF 1
ENDMDL
MODEL 8
REMARK VINA RESULT:      -0.7      3.594      4.089
REMARK  1 active torsions:
REMARK  status: ('A' for Active; 'I' for Inactive)
REMARK    1  A    between atoms: C2_2  and  C5_5 
ROOT
HETATM    1  C1  UNL     1     -33.810   6.513   2.748  1.00 20.00     0.075 A 
HETATM    2  C2  UNL     1     -32.824   7.419   2.739  1.00 20.00     0.039 A 
HETATM    3  C3  UNL     1     -34.635   6.586   3.962  1.00 20.00     0.209 A 
HETATM    4  C4  UNL     1     -32.711   8.334   3.918  1.00 20.00     0.126 A 
HETATM    5  O6  UNL     1     -35.589   5.864   4.194  1.00 20.00    -0.281 OA
HETATM    6  S10 UNL     1     -34.062   7.849   5.032  1.00 20.00    -0.084 SA
ENDROOT
BRANCH   2   7
HETATM    7  C5  UNL     1     -31.836   7.566   1.629  1.00 20.00     0.414 C 
HETATM    8  F7  UNL     1     -30.639   7.982   2.095  1.00 20.00    -0.166 F 
HETATM    9  F8  UNL     1     -31.643   6.393   0.989  1.00 20.00    -0.166 F 
HETATM   10  F9  UNL     1     -32.256   8.467   0.716  1.00 20.00    -0.166 F 
ENDBRANCH   2   7
TORSDOF 1
ENDMDL
MODEL 9
REMARK VINA RESULT:      -0.6      3.977      4.679
REMARK  1 active torsions:
REMARK  status: ('A' for Active; 'I' for Inactive)
REMARK    1  A    between atoms: C2_2  and  C5_5 
ROOT
HETATM    1  C1  UNL     1     -33.310   8.503   2.564  1.00 20.00     0.075 A 
HETATM    2  C2  UNL     1     -32.621   8.204   1.456  1.00 20.00     0.039 A 
HETATM    3  C3  UNL     1     -33.660   7.313   3.352  1.00 20.00     0.209 A 
HETATM    4  C4  UNL     1     -32.322   6.762   1.194  1.00 20.00     0.126 A 
HETATM    5  O6  UNL     1     -34.285   7.336   4.399  1.00 20.00    -0.281 OA
HETATM    6  S10 UNL     1     -33.061   5.857   2.585  1.00 20.00    -0.084 SA
ENDROOT
BRANCH   2   7
HETATM    7  C5  UNL     1     -32.139   9.219   0.474  1.00 20.00     0.414 C 
HETATM    8  F7  UNL     1     -32.897   9.213  -0.644  1.00 20.00    -0.166 F 
HETATM    9  F8  UNL     1     -32.187  10.464   0.995  1.00 20.00    -0.166 F 
HETATM   10  F9  UNL     1     -30.863   8.978   0.105  1.00 20.00    -0.166 F 
ENDBRANCH   2   7
TORSDOF 1
ENDMDL
