MODEL 1
REMARK VINA RESULT:       1.0      0.000      0.000
REMARK  0 active torsions:
REMARK  status: ('A' for Active; 'I' for Inactive)
ROOT
HETATM    1  C1  UNL     1     -32.414   9.635   0.466  1.00 20.00     0.088 C 
HETATM    2  C2  UNL     1     -32.676   7.511   1.569  1.00 20.00    -0.062 C 
HETATM    3  C3  UNL     1     -32.611   8.234   0.438  1.00 20.00     0.097 C 
HETATM    4  C4  UNL     1     -32.536   8.208   2.906  1.00 20.00     0.036 C 
HETATM    5  C5  UNL     1     -33.708   7.887   3.828  1.00 20.00     0.004 C 
HETATM    6  C6  UNL     1     -33.908   6.383   3.983  1.00 20.00     0.001 C 
HETATM    7  C7  UNL     1     -34.065   5.700   2.623  1.00 20.00     0.013 C 
HETATM    8  C8  UNL     1     -32.909   5.994   1.630  1.00 20.00    -0.024 C 
HETATM    9  C9  UNL     1     -31.613   5.293   2.091  1.00 20.00     0.019 C 
HETATM   10  C10 UNL     1     -33.303   5.366   0.272  1.00 20.00     0.019 C 
HETATM   11  N11 UNL     1     -32.254  10.785   0.478  1.00 20.00    -0.192 NA
ENDROOT
TORSDOF 0
ENDMDL
MODEL 2
REMARK VINA RESULT:       1.6      1.257      2.922
REMARK  0 active torsions:
REMARK  status: ('A' for Active; 'I' for Inactive)
ROOT
HETATM    1  C1  UNL     1     -31.936   8.685   1.187  1.00 20.00     0.088 C 
HETATM    2  C2  UNL     1     -33.313   7.203   2.493  1.00 20.00    -0.062 C 
HETATM    3  C3  UNL     1     -32.685   8.382   2.349  1.00 20.00     0.097 C 
HETATM    4  C4  UNL     1     -33.220   6.171   1.388  1.00 20.00     0.036 C 
HETATM    5  C5  UNL     1     -32.728   4.828   1.918  1.00 20.00     0.004 C 
HETATM    6  C6  UNL     1     -33.575   4.341   3.089  1.00 20.00     0.001 C 
HETATM    7  C7  UNL     1     -33.642   5.388   4.201  1.00 20.00     0.013 C 
HETATM    8  C8  UNL     1     -34.126   6.785   3.728  1.00 20.00    -0.024 C 
HETATM    9  C9  UNL     1     -35.626   6.739   3.363  1.00 20.00     0.019 C 
HETATM   10  C10 UNL     1     -33.982   7.750   4.928  1.00 20.00     0.019 C 
HETATM   11  N11 UNL     1     -31.319   8.942   0.238  1.00 20.00    -0.192 NA
ENDROOT
TORSDOF 0
ENDMDL
MODEL 3
REMARK VINA RESULT:       1.6      2.944      4.204
REMARK  0 active torsions:
REMARK  status: ('A' for Active; 'I' for Inactive)
ROOT
HETATM    1  C1  UNL     1     -33.852   3.839   4.330  1.00 20.00     0.088 C 
HETATM    2  C2  UNL     1     -33.334   5.498   2.663  1.00 20.00    -0.062 C 
HETATM    3  C3  UNL     1     -33.211   4.246   3.136  1.00 20.00     0.097 C 
HETATM    4  C4  UNL     1     -34.177   6.500   3.424  1.00 20.00     0.036 C 
HETATM    5  C5  UNL     1     -33.392   7.772   3.730  1.00 20.00     0.004 C 
HETATM    6  C6  UNL     1     -32.782   8.374   2.469  1.00 20.00     0.001 C 
HETATM    7  C7  UNL     1     -31.921   7.353   1.725  1.00 20.00     0.013 C 
HETATM    8  C8  UNL     1     -32.657   6.027   1.390  1.00 20.00    -0.024 C 
HETATM    9  C9  UNL     1     -33.725   6.266   0.302  1.00 20.00     0.019 C 
HETATM   10  C10 UNL     1     -31.608   5.061   0.791  1.00 20.00     0.019 C 
HETATM   11  N11 UNL     1     -34.372   3.497   5.310  1.00 20.00    -0.192 NA
ENDROOT
TORSDOF 0
ENDMDL
MODEL 4
REMARK VINA RESULT:       2.3      3.342      5.012
REMARK  0 active torsions:
REMARK  status: ('A' for Active; 'I' for Inactive)
ROOT
HETATM    1  C1  UNL     1     -33.553   2.942   4.461  1.00 20.00     0.088 C 
HETATM    2  C2  UNL     1     -33.517   5.181   3.575  1.00 20.00    -0.062 C 
HETATM    3  C3  UNL     1     -34.133   4.220   4.286  1.00 20.00     0.097 C 
HETATM    4  C4  UNL     1     -32.170   4.890   2.945  1.00 20.00     0.036 C 
HETATM    5  C5  UNL     1     -32.176   5.195   1.451  1.00 20.00     0.004 C 
HETATM    6  C6  UNL     1     -32.648   6.617   1.167  1.00 20.00     0.001 C 
HETATM    7  C7  UNL     1     -34.016   6.885   1.796  1.00 20.00     0.013 C 
HETATM    8  C8  UNL     1     -34.084   6.585   3.318  1.00 20.00    -0.024 C 
HETATM    9  C9  UNL     1     -33.260   7.624   4.108  1.00 20.00     0.019 C 
HETATM   10  C10 UNL     1     -35.559   6.753   3.752  1.00 20.00     0.019 C 
HETATM   11  N11 UNL     1     -33.086   1.889   4.609  1.00 20.00    -0.192 NA
ENDROOT
TORSDOF 0
ENDMDL
MODEL 5
REMARK VINA RESULT:       2.8      2.225      3.747
REMARK  0 active torsions:
REMARK  status: ('A' for Active; 'I' for Inactive)
ROOT
HETATM    1  C1  UNL     1     -32.073   4.924   1.002  1.00 20.00     0.088 C 
HETATM    2  C2  UNL     1     -32.729   6.883   2.239  1.00 20.00    -0.062 C 
HETATM    3  C3  UNL     1     -32.887   5.579   1.956  1.00 20.00     0.097 C 
HETATM    4  C4  UNL     1     -31.653   7.674   1.522  1.00 20.00     0.036 C 
HETATM    5  C5  UNL     1     -32.227   8.923   0.861  1.00 20.00     0.004 C 
HETATM    6  C6  UNL     1     -33.004   9.780   1.854  1.00 20.00     0.001 C 
HETATM    7  C7  UNL     1     -34.095   8.969   2.555  1.00 20.00     0.013 C 
HETATM    8  C8  UNL     1     -33.581   7.676   3.242  1.00 20.00    -0.024 C 
HETATM    9  C9  UNL     1     -32.725   8.027   4.478  1.00 20.00     0.019 C 
HETATM   10  C10 UNL     1     -34.820   6.906   3.755  1.00 20.00     0.019 C 
HETATM   11  N11 UNL     1     -31.411   4.378   0.220  1.00 20.00    -0.192 NA
ENDROOT
TORSDOF 0
ENDMDL
MODEL 6
REMARK VINA RESULT:       3.2      2.605      4.176
REMARK  0 active torsions:
REMARK  status: ('A' for Active; 'I' for Inactive)
ROOT
HETATM    1  C1  UNL     1     -35.135   6.199   4.077  1.00 20.00     0.088 C 
HETATM    2  C2  UNL     1     -33.241   7.009   2.831  1.00 20.00    -0.062 C 
HETATM    3  C3  UNL     1     -34.396   7.245   3.476  1.00 20.00     0.097 C 
HETATM    4  C4  UNL     1     -32.715   5.591   2.743  1.00 20.00     0.036 C 
HETATM    5  C5  UNL     1     -32.435   5.189   1.298  1.00 20.00     0.004 C 
HETATM    6  C6  UNL     1     -31.514   6.187   0.604  1.00 20.00     0.001 C 
HETATM    7  C7  UNL     1     -32.071   7.609   0.688  1.00 20.00     0.013 C 
HETATM    8  C8  UNL     1     -32.390   8.080   2.133  1.00 20.00    -0.024 C 
HETATM    9  C9  UNL     1     -31.084   8.296   2.928  1.00 20.00     0.019 C 
HETATM   10  C10 UNL     1     -33.084   9.458   2.022  1.00 20.00     0.019 C 
HETATM   11  N11 UNL     1     -35.749   5.347   4.573  1.00 20.00    -0.192 NA
ENDROOT
TORSDOF 0
ENDMDL
MODEL 7
REMARK VINA RESULT:       3.6      2.333      3.595
REMARK  0 active torsions:
REMARK  status: ('A' for Active; 'I' for Inactive)
ROOT
HETATM    1  C1  UNL     1     -32.437   4.911   0.533  1.00 20.00     0.088 C 
HETATM    2  C2  UNL     1     -32.772   6.868   1.896  1.00 20.00    -0.062 C 
HETATM    3  C3  UNL     1     -31.974   6.110   1.126  1.00 20.00     0.097 C 
HETATM    4  C4  UNL     1     -34.203   6.432   2.138  1.00 20.00     0.036 C 
HETATM    5  C5  UNL     1     -34.521   6.365   3.628  1.00 20.00     0.004 C 
HETATM    6  C6  UNL     1     -34.193   7.676   4.334  1.00 20.00     0.001 C 
HETATM    7  C7  UNL     1     -32.740   8.089   4.093  1.00 20.00     0.013 C 
HETATM    8  C8  UNL     1     -32.345   8.168   2.594  1.00 20.00    -0.024 C 
HETATM    9  C9  UNL     1     -33.042   9.367   1.916  1.00 20.00     0.019 C 
HETATM   10  C10 UNL     1     -30.823   8.438   2.536  1.00 20.00     0.019 C 
HETATM   11  N11 UNL     1     -32.808   3.926   0.044  1.00 20.00    -0.192 NA
ENDROOT
TORSDOF 0
ENDMDL
