MODEL 1
REMARK VINA RESULT:      -0.4      0.000      0.000
REMARK  2 active torsions:
REMARK  status: ('A' for Active; 'I' for Inactive)
REMARK    1  A    between atoms: C6_6  and  N11_11 
REMARK    2  A    between atoms: C10_10  and  N11_11 
ROOT
HETATM    1  C1  UNL     1     -32.454   9.997   0.100  1.00 20.00     0.013 C 
HETATM    2  C2  UNL     1     -32.267   9.084   0.857  1.00 20.00    -0.087 C 
HETATM    3  C10 UNL     1     -32.035   7.971   1.782  1.00 20.00     0.362 C 
ENDROOT
BRANCH   3   4
HETATM    4  N11 UNL     1     -33.058   6.946   1.621  1.00 20.00     0.099 N 
HETATM    5  H28 UNL     1     -32.796   6.331   0.851  1.00 20.00     0.317 HD
BRANCH   4   6
HETATM    6  C6  UNL     1     -33.206   6.160   2.836  1.00 20.00     0.229 C 
HETATM    7  C4  UNL     1     -33.428   4.675   2.548  1.00 20.00     0.036 C 
HETATM    8  C3  UNL     1     -34.101   4.123   3.808  1.00 20.00     0.003 C 
HETATM    9  C5  UNL     1     -34.454   5.332   4.680  1.00 20.00     0.011 C 
HETATM   10  C7  UNL     1     -34.396   6.551   3.740  1.00 20.00    -0.017 C 
HETATM   11  C8  UNL     1     -34.130   7.843   4.519  1.00 20.00     0.017 C 
HETATM   12  C9  UNL     1     -35.725   6.697   2.974  1.00 20.00     0.017 C 
ENDBRANCH   4   6
ENDBRANCH   3   4
TORSDOF 2
ENDMDL
MODEL 2
REMARK VINA RESULT:      -0.3      1.711      4.683
REMARK  2 active torsions:
REMARK  status: ('A' for Active; 'I' for Inactive)
REMARK    1  A    between atoms: C6_6  and  N11_11 
REMARK    2  A    between atoms: C10_10  and  N11_11 
ROOT
HETATM    1  C1  UNL     1     -33.099   2.792   4.530  1.00 20.00     0.013 C 
HETATM    2  C2  UNL     1     -33.825   3.748   4.504  1.00 20.00    -0.087 C 
HETATM    3  C10 UNL     1     -34.714   4.913   4.477  1.00 20.00     0.362 C 
ENDROOT
BRANCH   3   4
HETATM    4  N11 UNL     1     -34.646   5.583   3.185  1.00 20.00     0.099 N 
HETATM    5  H28 UNL     1     -35.422   6.240   3.108  1.00 20.00     0.317 HD
BRANCH   4   6
HETATM    6  C6  UNL     1     -33.390   6.301   3.035  1.00 20.00     0.229 C 
HETATM    7  C4  UNL     1     -33.542   7.802   3.288  1.00 20.00     0.036 C 
HETATM    8  C3  UNL     1     -32.354   8.448   2.570  1.00 20.00     0.003 C 
HETATM    9  C5  UNL     1     -31.692   7.343   1.740  1.00 20.00     0.011 C 
HETATM   10  C7  UNL     1     -32.741   6.219   1.635  1.00 20.00    -0.017 C 
HETATM   11  C8  UNL     1     -32.079   4.861   1.384  1.00 20.00     0.017 C 
HETATM   12  C9  UNL     1     -33.723   6.514   0.485  1.00 20.00     0.017 C 
ENDBRANCH   4   6
ENDBRANCH   3   4
TORSDOF 2
ENDMDL
MODEL 3
REMARK VINA RESULT:       0.1      1.200      1.342
REMARK  2 active torsions:
REMARK  status: ('A' for Active; 'I' for Inactive)
REMARK    1  A    between atoms: C6_6  and  N11_11 
REMARK    2  A    between atoms: C10_10  and  N11_11 
ROOT
HETATM    1  C1  UNL     1     -32.769  10.638  -0.158  1.00 20.00     0.013 C 
HETATM    2  C2  UNL     1     -32.389   9.606   0.325  1.00 20.00    -0.087 C 
HETATM    3  C10 UNL     1     -31.925   8.345   0.909  1.00 20.00     0.362 C 
ENDROOT
BRANCH   3   4
HETATM    4  N11 UNL     1     -31.952   8.411   2.365  1.00 20.00     0.099 N 
HETATM    5  H28 UNL     1     -32.516   9.211   2.652  1.00 20.00     0.317 HD
BRANCH   4   6
HETATM    6  C6  UNL     1     -32.516   7.197   2.933  1.00 20.00     0.229 C 
HETATM    7  C4  UNL     1     -32.946   6.195   1.860  1.00 20.00     0.036 C 
HETATM    8  C3  UNL     1     -33.978   5.297   2.546  1.00 20.00     0.003 C 
HETATM    9  C5  UNL     1     -34.283   5.940   3.903  1.00 20.00     0.011 C 
HETATM   10  C7  UNL     1     -33.783   7.393   3.794  1.00 20.00    -0.017 C 
HETATM   11  C8  UNL     1     -33.459   7.976   5.173  1.00 20.00     0.017 C 
HETATM   12  C9  UNL     1     -34.853   8.274   3.120  1.00 20.00     0.017 C 
ENDBRANCH   4   6
ENDBRANCH   3   4
TORSDOF 2
ENDMDL
MODEL 4
REMARK VINA RESULT:       0.1      1.231      2.460
REMARK  2 active torsions:
REMARK  status: ('A' for Active; 'I' for Inactive)
REMARK    1  A    between atoms: C6_6  and  N11_11 
REMARK    2  A    between atoms: C10_10  and  N11_11 
ROOT
HETATM    1  C1  UNL     1     -32.736  10.615   0.297  1.00 20.00     0.013 C 
HETATM    2  C2  UNL     1     -32.206   9.551   0.469  1.00 20.00    -0.087 C 
HETATM    3  C10 UNL     1     -31.559   8.252   0.673  1.00 20.00     0.362 C 
ENDROOT
BRANCH   3   4
HETATM    4  N11 UNL     1     -31.649   7.846   2.070  1.00 20.00     0.099 N 
HETATM    5  H28 UNL     1     -31.255   8.582   2.656  1.00 20.00     0.317 HD
BRANCH   4   6
HETATM    6  C6  UNL     1     -33.031   7.610   2.457  1.00 20.00     0.229 C 
HETATM    7  C4  UNL     1     -33.293   7.952   3.924  1.00 20.00     0.036 C 
HETATM    8  C3  UNL     1     -34.544   7.154   4.301  1.00 20.00     0.003 C 
HETATM    9  C5  UNL     1     -34.828   6.209   3.129  1.00 20.00     0.011 C 
HETATM   10  C7  UNL     1     -33.519   6.151   2.317  1.00 20.00    -0.017 C 
HETATM   11  C8  UNL     1     -33.785   5.768   0.858  1.00 20.00     0.017 C 
HETATM   12  C9  UNL     1     -32.556   5.120   2.935  1.00 20.00     0.017 C 
ENDBRANCH   4   6
ENDBRANCH   3   4
TORSDOF 2
ENDMDL
MODEL 5
REMARK VINA RESULT:       1.1      1.291      4.329
REMARK  2 active torsions:
REMARK  status: ('A' for Active; 'I' for Inactive)
REMARK    1  A    between atoms: C6_6  and  N11_11 
REMARK    2  A    between atoms: C10_10  and  N11_11 
ROOT
HETATM    1  C1  UNL     1     -34.245   4.032   4.516  1.00 20.00     0.013 C 
HETATM    2  C2  UNL     1     -34.617   5.136   4.226  1.00 20.00    -0.087 C 
HETATM    3  C10 UNL     1     -35.076   6.482   3.872  1.00 20.00     0.362 C 
ENDROOT
BRANCH   3   4
HETATM    4  N11 UNL     1     -33.942   7.358   3.604  1.00 20.00     0.099 N 
HETATM    5  H28 UNL     1     -33.220   7.193   4.306  1.00 20.00     0.317 HD
BRANCH   4   6
HETATM    6  C6  UNL     1     -33.393   7.111   2.281  1.00 20.00     0.229 C 
HETATM    7  C4  UNL     1     -32.763   5.723   2.159  1.00 20.00     0.036 C 
HETATM    8  C3  UNL     1     -31.785   5.832   0.986  1.00 20.00     0.003 C 
HETATM    9  C5  UNL     1     -31.707   7.317   0.620  1.00 20.00     0.011 C 
HETATM   10  C7  UNL     1     -32.269   8.074   1.838  1.00 20.00    -0.017 C 
HETATM   11  C8  UNL     1     -32.812   9.450   1.438  1.00 20.00     0.017 C 
HETATM   12  C9  UNL     1     -31.169   8.263   2.901  1.00 20.00     0.017 C 
ENDBRANCH   4   6
ENDBRANCH   3   4
TORSDOF 2
ENDMDL
MODEL 6
REMARK VINA RESULT:       1.2      1.703      4.462
REMARK  2 active torsions:
REMARK  status: ('A' for Active; 'I' for Inactive)
REMARK    1  A    between atoms: C6_6  and  N11_11 
REMARK    2  A    between atoms: C10_10  and  N11_11 
ROOT
HETATM    1  C1  UNL     1     -32.817   2.823   5.645  1.00 20.00     0.013 C 
HETATM    2  C2  UNL     1     -33.348   3.341   4.701  1.00 20.00    -0.087 C 
HETATM    3  C10 UNL     1     -33.995   3.969   3.546  1.00 20.00     0.362 C 
ENDROOT
BRANCH   3   4
HETATM    4  N11 UNL     1     -34.355   5.349   3.844  1.00 20.00     0.099 N 
HETATM    5  H28 UNL     1     -33.941   5.616   4.737  1.00 20.00     0.317 HD
BRANCH   4   6
HETATM    6  C6  UNL     1     -33.881   6.249   2.805  1.00 20.00     0.229 C 
HETATM    7  C4  UNL     1     -32.576   5.770   2.168  1.00 20.00     0.036 C 
HETATM    8  C3  UNL     1     -31.949   7.025   1.556  1.00 20.00     0.003 C 
HETATM    9  C5  UNL     1     -32.780   8.214   2.051  1.00 20.00     0.011 C 
HETATM   10  C7  UNL     1     -33.569   7.690   3.266  1.00 20.00    -0.017 C 
HETATM   11  C8  UNL     1     -34.842   8.510   3.500  1.00 20.00     0.017 C 
HETATM   12  C9  UNL     1     -32.696   7.753   4.534  1.00 20.00     0.017 C 
ENDBRANCH   4   6
ENDBRANCH   3   4
TORSDOF 2
ENDMDL
MODEL 7
REMARK VINA RESULT:       2.2      1.463      4.548
REMARK  2 active torsions:
REMARK  status: ('A' for Active; 'I' for Inactive)
REMARK    1  A    between atoms: C6_6  and  N11_11 
REMARK    2  A    between atoms: C10_10  and  N11_11 
ROOT
HETATM    1  C1  UNL     1     -35.483   5.374   4.411  1.00 20.00     0.013 C 
HETATM    2  C2  UNL     1     -34.936   6.391   4.082  1.00 20.00    -0.087 C 
HETATM    3  C10 UNL     1     -34.273   7.634   3.680  1.00 20.00     0.362 C 
ENDROOT
BRANCH   3   4
HETATM    4  N11 UNL     1     -32.828   7.519   3.831  1.00 20.00     0.099 N 
HETATM    5  H28 UNL     1     -32.588   6.544   4.006  1.00 20.00     0.317 HD
BRANCH   4   6
HETATM    6  C6  UNL     1     -32.140   7.977   2.634  1.00 20.00     0.229 C 
HETATM    7  C4  UNL     1     -32.720   9.284   2.091  1.00 20.00     0.036 C 
HETATM    8  C3  UNL     1     -32.308   9.318   0.617  1.00 20.00     0.003 C 
HETATM    9  C5  UNL     1     -31.713   7.943   0.298  1.00 20.00     0.011 C 
HETATM   10  C7  UNL     1     -32.191   7.012   1.429  1.00 20.00    -0.017 C 
HETATM   11  C8  UNL     1     -31.248   5.818   1.605  1.00 20.00     0.017 C 
HETATM   12  C9  UNL     1     -33.607   6.487   1.123  1.00 20.00     0.017 C 
ENDBRANCH   4   6
ENDBRANCH   3   4
TORSDOF 2
ENDMDL
MODEL 8
REMARK VINA RESULT:       2.4      1.722      3.188
REMARK  2 active torsions:
REMARK  status: ('A' for Active; 'I' for Inactive)
REMARK    1  A    between atoms: C6_6  and  N11_11 
REMARK    2  A    between atoms: C10_10  and  N11_11 
ROOT
HETATM    1  C1  UNL     1     -31.338   3.891  -0.045  1.00 20.00     0.013 C 
HETATM    2  C2  UNL     1     -31.575   4.856   0.630  1.00 20.00    -0.087 C 
HETATM    3  C10 UNL     1     -31.859   6.034   1.454  1.00 20.00     0.362 C 
ENDROOT
BRANCH   3   4
HETATM    4  N11 UNL     1     -33.288   6.318   1.471  1.00 20.00     0.099 N 
HETATM    5  H28 UNL     1     -33.800   5.445   1.591  1.00 20.00     0.317 HD
BRANCH   4   6
HETATM    6  C6  UNL     1     -33.626   7.227   2.555  1.00 20.00     0.229 C 
HETATM    7  C4  UNL     1     -32.389   7.763   3.276  1.00 20.00     0.036 C 
HETATM    8  C3  UNL     1     -32.892   8.203   4.654  1.00 20.00     0.003 C 
HETATM    9  C5  UNL     1     -34.335   7.702   4.772  1.00 20.00     0.011 C 
HETATM   10  C7  UNL     1     -34.488   6.621   3.685  1.00 20.00    -0.017 C 
HETATM   11  C8  UNL     1     -35.952   6.454   3.268  1.00 20.00     0.017 C 
HETATM   12  C9  UNL     1     -33.960   5.269   4.201  1.00 20.00     0.017 C 
ENDBRANCH   4   6
ENDBRANCH   3   4
TORSDOF 2
ENDMDL
MODEL 9
REMARK VINA RESULT:       2.5      1.260      4.431
REMARK  2 active torsions:
REMARK  status: ('A' for Active; 'I' for Inactive)
REMARK    1  A    between atoms: C6_6  and  N11_11 
REMARK    2  A    between atoms: C10_10  and  N11_11 
ROOT
HETATM    1  C1  UNL     1     -33.859   4.292   3.984  1.00 20.00     0.013 C 
HETATM    2  C2  UNL     1     -33.409   4.633   2.925  1.00 20.00    -0.087 C 
HETATM    3  C10 UNL     1     -32.861   5.044   1.629  1.00 20.00     0.362 C 
ENDROOT
BRANCH   3   4
HETATM    4  N11 UNL     1     -31.921   6.146   1.794  1.00 20.00     0.099 N 
HETATM    5  H28 UNL     1     -31.108   5.982   1.201  1.00 20.00     0.317 HD
BRANCH   4   6
HETATM    6  C6  UNL     1     -32.534   7.414   1.430  1.00 20.00     0.229 C 
HETATM    7  C4  UNL     1     -31.727   8.172   0.376  1.00 20.00     0.036 C 
HETATM    8  C3  UNL     1     -32.156   9.634   0.523  1.00 20.00     0.003 C 
HETATM    9  C5  UNL     1     -33.009   9.713   1.793  1.00 20.00     0.011 C 
HETATM   10  C7  UNL     1     -32.694   8.429   2.584  1.00 20.00    -0.017 C 
HETATM   11  C8  UNL     1     -33.844   8.057   3.525  1.00 20.00     0.017 C 
HETATM   12  C9  UNL     1     -31.411   8.618   3.416  1.00 20.00     0.017 C 
ENDBRANCH   4   6
ENDBRANCH   3   4
TORSDOF 2
ENDMDL
