MODEL 1
REMARK VINA RESULT:       1.5      0.000      0.000
REMARK  2 active torsions:
REMARK  status: ('A' for Active; 'I' for Inactive)
REMARK    1  A    between atoms: C5_5  and  C9_9 
REMARK    2  A    between atoms: C5_5  and  O10_10 
ROOT
HETATM    1  C1  UNL     1     -32.163   8.281   2.503  1.00 20.00     0.004 C 
HETATM    2  C2  UNL     1     -32.552   7.619   1.179  1.00 20.00     0.012 C 
HETATM    3  C3  UNL     1     -32.598   7.328   3.617  1.00 20.00     0.038 C 
HETATM    4  C4  UNL     1     -32.857   6.149   1.520  1.00 20.00    -0.017 C 
HETATM    5  C5  UNL     1     -33.479   6.266   2.942  1.00 20.00     0.064 C 
HETATM    6  C6  UNL     1     -31.547   5.329   1.525  1.00 20.00     0.018 C 
HETATM    7  C7  UNL     1     -33.792   5.521   0.477  1.00 20.00     0.018 C 
ENDROOT
BRANCH   5   8
HETATM    8  C9  UNL     1     -34.950   6.704   2.972  1.00 20.00     0.034 C 
HETATM    9  C8  UNL     1     -35.664   6.158   4.165  1.00 20.00     0.008 C 
ENDBRANCH   5   8
BRANCH   5  10
HETATM   10  O10 UNL     1     -33.381   5.046   3.667  1.00 20.00    -0.389 OA
HETATM   11  H28 UNL     1     -32.539   5.085   4.142  1.00 20.00     0.210 HD
ENDBRANCH   5  10
TORSDOF 2
ENDMDL
MODEL 2
REMARK VINA RESULT:       1.6      1.296      3.185
REMARK  2 active torsions:
REMARK  status: ('A' for Active; 'I' for Inactive)
REMARK    1  A    between atoms: C5_5  and  C9_9 
REMARK    2  A    between atoms: C5_5  and  O10_10 
ROOT
HETATM    1  C1  UNL     1     -32.508   8.312   3.193  1.00 20.00     0.004 C 
HETATM    2  C2  UNL     1     -33.054   7.222   4.120  1.00 20.00     0.012 C 
HETATM    3  C3  UNL     1     -32.714   7.816   1.761  1.00 20.00     0.038 C 
HETATM    4  C4  UNL     1     -33.897   6.296   3.224  1.00 20.00    -0.017 C 
HETATM    5  C5  UNL     1     -33.113   6.337   1.881  1.00 20.00     0.064 C 
HETATM    6  C6  UNL     1     -35.327   6.866   3.081  1.00 20.00     0.018 C 
HETATM    7  C7  UNL     1     -34.017   4.894   3.838  1.00 20.00     0.018 C 
ENDROOT
BRANCH   5   8
HETATM    8  C9  UNL     1     -31.864   5.447   1.832  1.00 20.00     0.034 C 
HETATM    9  C8  UNL     1     -31.807   4.646   0.572  1.00 20.00     0.008 C 
ENDBRANCH   5   8
BRANCH   5  10
HETATM   10  O10 UNL     1     -33.936   5.983   0.775  1.00 20.00    -0.389 OA
HETATM   11  H28 UNL     1     -34.558   6.715   0.660  1.00 20.00     0.210 HD
ENDBRANCH   5  10
TORSDOF 2
ENDMDL
MODEL 3
REMARK VINA RESULT:       1.8      1.673      3.064
REMARK  2 active torsions:
REMARK  status: ('A' for Active; 'I' for Inactive)
REMARK    1  A    between atoms: C5_5  and  C9_9 
REMARK    2  A    between atoms: C5_5  and  O10_10 
ROOT
HETATM    1  C1  UNL     1     -32.672   6.680   1.634  1.00 20.00     0.004 C 
HETATM    2  C2  UNL     1     -32.351   7.613   2.804  1.00 20.00     0.012 C 
HETATM    3  C3  UNL     1     -33.916   5.885   2.032  1.00 20.00     0.038 C 
HETATM    4  C4  UNL     1     -33.610   7.619   3.691  1.00 20.00    -0.017 C 
HETATM    5  C5  UNL     1     -34.131   6.161   3.527  1.00 20.00     0.064 C 
HETATM    6  C6  UNL     1     -34.621   8.660   3.160  1.00 20.00     0.018 C 
HETATM    7  C7  UNL     1     -33.266   8.003   5.136  1.00 20.00     0.018 C 
ENDROOT
BRANCH   5   8
HETATM    8  C9  UNL     1     -33.395   5.111   4.370  1.00 20.00     0.034 C 
HETATM    9  C8  UNL     1     -33.866   3.727   4.063  1.00 20.00     0.008 C 
ENDBRANCH   5   8
BRANCH   5  10
HETATM   10  O10 UNL     1     -35.518   6.056   3.828  1.00 20.00    -0.389 OA
HETATM   11  H28 UNL     1     -35.614   6.336   4.749  1.00 20.00     0.210 HD
ENDBRANCH   5  10
TORSDOF 2
ENDMDL
MODEL 4
REMARK VINA RESULT:       1.9      1.372      2.884
REMARK  2 active torsions:
REMARK  status: ('A' for Active; 'I' for Inactive)
REMARK    1  A    between atoms: C5_5  and  C9_9 
REMARK    2  A    between atoms: C5_5  and  O10_10 
ROOT
HETATM    1  C1  UNL     1     -34.268   6.877   3.674  1.00 20.00     0.004 C 
HETATM    2  C2  UNL     1     -33.915   8.138   2.880  1.00 20.00     0.012 C 
HETATM    3  C3  UNL     1     -33.405   5.747   3.112  1.00 20.00     0.038 C 
HETATM    4  C4  UNL     1     -32.605   7.813   2.139  1.00 20.00    -0.017 C 
HETATM    5  C5  UNL     1     -32.776   6.299   1.823  1.00 20.00     0.064 C 
HETATM    6  C6  UNL     1     -31.398   8.081   3.067  1.00 20.00     0.018 C 
HETATM    7  C7  UNL     1     -32.439   8.698   0.896  1.00 20.00     0.018 C 
ENDROOT
BRANCH   5   8
HETATM    8  C9  UNL     1     -33.676   5.985   0.620  1.00 20.00     0.034 C 
HETATM    9  C8  UNL     1     -33.411   4.619   0.074  1.00 20.00     0.008 C 
ENDBRANCH   5   8
BRANCH   5  10
HETATM   10  O10 UNL     1     -31.525   5.658   1.601  1.00 20.00    -0.389 OA
HETATM   11  H28 UNL     1     -31.260   5.286   2.455  1.00 20.00     0.210 HD
ENDBRANCH   5  10
TORSDOF 2
ENDMDL
MODEL 5
REMARK VINA RESULT:       2.2      1.928      3.666
REMARK  2 active torsions:
REMARK  status: ('A' for Active; 'I' for Inactive)
REMARK    1  A    between atoms: C5_5  and  C9_9 
REMARK    2  A    between atoms: C5_5  and  O10_10 
ROOT
HETATM    1  C1  UNL     1     -32.809   5.623   1.818  1.00 20.00     0.004 C 
HETATM    2  C2  UNL     1     -33.992   6.356   2.454  1.00 20.00     0.012 C 
HETATM    3  C3  UNL     1     -31.678   6.644   1.683  1.00 20.00     0.038 C 
HETATM    4  C4  UNL     1     -33.416   7.668   3.018  1.00 20.00    -0.017 C 
HETATM    5  C5  UNL     1     -32.310   8.012   1.979  1.00 20.00     0.064 C 
HETATM    6  C6  UNL     1     -32.834   7.422   4.428  1.00 20.00     0.018 C 
HETATM    7  C7  UNL     1     -34.508   8.739   3.149  1.00 20.00     0.018 C 
ENDROOT
BRANCH   5   8
HETATM    8  C9  UNL     1     -32.817   8.652   0.679  1.00 20.00     0.034 C 
HETATM    9  C8  UNL     1     -32.323  10.054   0.525  1.00 20.00     0.008 C 
ENDBRANCH   5   8
BRANCH   5  10
HETATM   10  O10 UNL     1     -31.320   8.877   2.524  1.00 20.00    -0.389 OA
HETATM   11  H28 UNL     1     -31.520   9.760   2.184  1.00 20.00     0.210 HD
ENDBRANCH   5  10
TORSDOF 2
ENDMDL
MODEL 6
REMARK VINA RESULT:       2.3      1.636      2.828
REMARK  2 active torsions:
REMARK  status: ('A' for Active; 'I' for Inactive)
REMARK    1  A    between atoms: C5_5  and  C9_9 
REMARK    2  A    between atoms: C5_5  and  O10_10 
ROOT
HETATM    1  C1  UNL     1     -32.709   5.793   1.209  1.00 20.00     0.004 C 
HETATM    2  C2  UNL     1     -31.542   6.593   1.794  1.00 20.00     0.012 C 
HETATM    3  C3  UNL     1     -33.988   6.544   1.582  1.00 20.00     0.038 C 
HETATM    4  C4  UNL     1     -32.123   7.970   2.164  1.00 20.00    -0.017 C 
HETATM    5  C5  UNL     1     -33.569   7.605   2.610  1.00 20.00     0.064 C 
HETATM    6  C6  UNL     1     -32.113   8.894   0.924  1.00 20.00     0.018 C 
HETATM    7  C7  UNL     1     -31.283   8.650   3.255  1.00 20.00     0.018 C 
ENDROOT
BRANCH   5   8
HETATM    8  C9  UNL     1     -33.685   7.040   4.032  1.00 20.00     0.034 C 
HETATM    9  C8  UNL     1     -34.951   6.267   4.216  1.00 20.00     0.008 C 
ENDBRANCH   5   8
BRANCH   5  10
HETATM   10  O10 UNL     1     -34.450   8.719   2.518  1.00 20.00    -0.389 OA
HETATM   11  H28 UNL     1     -34.052   9.322   1.874  1.00 20.00     0.210 HD
ENDBRANCH   5  10
TORSDOF 2
ENDMDL
MODEL 7
REMARK VINA RESULT:       2.4      1.658      3.022
REMARK  2 active torsions:
REMARK  status: ('A' for Active; 'I' for Inactive)
REMARK    1  A    between atoms: C5_5  and  C9_9 
REMARK    2  A    between atoms: C5_5  and  O10_10 
ROOT
HETATM    1  C1  UNL     1     -34.320   6.544   3.583  1.00 20.00     0.004 C 
HETATM    2  C2  UNL     1     -33.426   5.459   2.976  1.00 20.00     0.012 C 
HETATM    3  C3  UNL     1     -33.983   7.848   2.860  1.00 20.00     0.038 C 
HETATM    4  C4  UNL     1     -32.866   6.060   1.673  1.00 20.00    -0.017 C 
HETATM    5  C5  UNL     1     -32.711   7.563   2.048  1.00 20.00     0.064 C 
HETATM    6  C6  UNL     1     -33.875   5.849   0.522  1.00 20.00     0.018 C 
HETATM    7  C7  UNL     1     -31.552   5.376   1.269  1.00 20.00     0.018 C 
ENDROOT
BRANCH   5   8
HETATM    8  C9  UNL     1     -31.466   7.899   2.880  1.00 20.00     0.034 C 
HETATM    9  C8  UNL     1     -31.773   8.886   3.959  1.00 20.00     0.008 C 
ENDBRANCH   5   8
BRANCH   5  10
HETATM   10  O10 UNL     1     -32.693   8.398   0.896  1.00 20.00    -0.389 OA
HETATM   11  H28 UNL     1     -31.979   9.035   1.038  1.00 20.00     0.210 HD
ENDBRANCH   5  10
TORSDOF 2
ENDMDL
MODEL 8
REMARK VINA RESULT:       2.5      1.555      3.240
REMARK  2 active torsions:
REMARK  status: ('A' for Active; 'I' for Inactive)
REMARK    1  A    between atoms: C5_5  and  C9_9 
REMARK    2  A    between atoms: C5_5  and  O10_10 
ROOT
HETATM    1  C1  UNL     1     -32.228   5.717   0.973  1.00 20.00     0.004 C 
HETATM    2  C2  UNL     1     -33.655   5.749   1.523  1.00 20.00     0.012 C 
HETATM    3  C3  UNL     1     -31.466   6.855   1.655  1.00 20.00     0.038 C 
HETATM    4  C4  UNL     1     -33.601   6.646   2.774  1.00 20.00    -0.017 C 
HETATM    5  C5  UNL     1     -32.529   7.701   2.373  1.00 20.00     0.064 C 
HETATM    6  C6  UNL     1     -33.166   5.811   4.000  1.00 20.00     0.018 C 
HETATM    7  C7  UNL     1     -34.980   7.243   3.087  1.00 20.00     0.018 C 
ENDROOT
BRANCH   5   8
HETATM    8  C9  UNL     1     -33.031   8.816   1.447  1.00 20.00     0.034 C 
HETATM    9  C8  UNL     1     -31.963   9.277   0.509  1.00 20.00     0.008 C 
ENDBRANCH   5   8
BRANCH   5  10
HETATM   10  O10 UNL     1     -31.943   8.320   3.512  1.00 20.00    -0.389 OA
HETATM   11  H28 UNL     1     -32.487   9.097   3.704  1.00 20.00     0.210 HD
ENDBRANCH   5  10
TORSDOF 2
ENDMDL
MODEL 9
REMARK VINA RESULT:       2.6      1.681      3.547
REMARK  2 active torsions:
REMARK  status: ('A' for Active; 'I' for Inactive)
REMARK    1  A    between atoms: C5_5  and  C9_9 
REMARK    2  A    between atoms: C5_5  and  O10_10 
ROOT
HETATM    1  C1  UNL     1     -33.790   4.279   4.219  1.00 20.00     0.004 C 
HETATM    2  C2  UNL     1     -35.066   5.120   4.142  1.00 20.00     0.012 C 
HETATM    3  C3  UNL     1     -32.721   5.026   3.420  1.00 20.00     0.038 C 
HETATM    4  C4  UNL     1     -34.624   6.503   3.629  1.00 20.00    -0.017 C 
HETATM    5  C5  UNL     1     -33.462   6.137   2.661  1.00 20.00     0.064 C 
HETATM    6  C6  UNL     1     -34.143   7.373   4.813  1.00 20.00     0.018 C 
HETATM    7  C7  UNL     1     -35.790   7.241   2.956  1.00 20.00     0.018 C 
ENDROOT
BRANCH   5   8
HETATM    8  C9  UNL     1     -33.902   5.631   1.281  1.00 20.00     0.034 C 
HETATM    9  C8  UNL     1     -32.768   5.007   0.535  1.00 20.00     0.008 C 
ENDBRANCH   5   8
BRANCH   5  10
HETATM   10  O10 UNL     1     -32.578   7.232   2.455  1.00 20.00    -0.389 OA
HETATM   11  H28 UNL     1     -32.683   7.490   1.528  1.00 20.00     0.210 HD
ENDBRANCH   5  10
TORSDOF 2
ENDMDL
