MODEL 1
REMARK VINA RESULT:       0.4      0.000      0.000
REMARK  2 active torsions:
REMARK  status: ('A' for Active; 'I' for Inactive)
REMARK    1  A    between atoms: C3_3  and  C9_9 
REMARK    2  A    between atoms: C7_7  and  C9_9 
ROOT
HETATM    1  C4  UNL     1     -35.188   6.479   4.022  1.00 20.00     0.006 C 
HETATM    2  C5  UNL     1     -35.185   5.046   4.563  1.00 20.00     0.020 C 
HETATM    3  C6  UNL     1     -33.078   5.395   3.500  1.00 20.00     0.025 C 
HETATM    4  C7  UNL     1     -33.938   6.607   3.136  1.00 20.00    -0.007 C 
HETATM    5  C8  UNL     1     -34.125   4.319   3.744  1.00 20.00     0.082 C 
HETATM    6 CL12 UNL     1     -33.463   2.914   4.589  1.00 20.00    -0.125 Cl
ENDROOT
BRANCH   4   7
HETATM    7  C9  UNL     1     -33.209   7.928   3.315  1.00 20.00     0.071 C 
BRANCH   7   8
HETATM    8  C3  UNL     1     -32.614   8.416   2.021  1.00 20.00     0.074 A 
HETATM    9  N10 UNL     1     -31.741   7.745   1.304  1.00 20.00    -0.258 NA
HETATM   10  C1  UNL     1     -31.415   8.489   0.186  1.00 20.00     0.124 A 
HETATM   11  C2  UNL     1     -32.044   9.711   0.071  1.00 20.00     0.070 A 
HETATM   12  S11 UNL     1     -33.090   9.948   1.410  1.00 20.00    -0.085 SA
ENDBRANCH   7   8
ENDBRANCH   4   7
TORSDOF 2
ENDMDL
MODEL 2
REMARK VINA RESULT:       0.7      1.396      1.720
REMARK  2 active torsions:
REMARK  status: ('A' for Active; 'I' for Inactive)
REMARK    1  A    between atoms: C3_3  and  C9_9 
REMARK    2  A    between atoms: C7_7  and  C9_9 
ROOT
HETATM    1  C4  UNL     1     -34.032   7.339   3.203  1.00 20.00     0.006 C 
HETATM    2  C5  UNL     1     -34.469   6.163   4.082  1.00 20.00     0.020 C 
HETATM    3  C6  UNL     1     -32.768   5.349   2.620  1.00 20.00     0.025 C 
HETATM    4  C7  UNL     1     -33.124   6.748   2.114  1.00 20.00    -0.007 C 
HETATM    5  C8  UNL     1     -34.056   4.918   3.305  1.00 20.00     0.082 C 
HETATM    6 CL12 UNL     1     -33.824   3.513   4.354  1.00 20.00    -0.125 Cl
ENDROOT
BRANCH   4   7
HETATM    7  C9  UNL     1     -31.901   7.603   1.823  1.00 20.00     0.071 C 
BRANCH   7   8
HETATM    8  C3  UNL     1     -32.259   8.843   1.048  1.00 20.00     0.074 A 
HETATM    9  N10 UNL     1     -32.541  10.005   1.593  1.00 20.00    -0.258 NA
HETATM   10  C1  UNL     1     -32.821  10.913   0.590  1.00 20.00     0.124 A 
HETATM   11  C2  UNL     1     -32.747  10.428  -0.699  1.00 20.00     0.070 A 
HETATM   12  S11 UNL     1     -32.309   8.770  -0.667  1.00 20.00    -0.085 SA
ENDBRANCH   7   8
ENDBRANCH   4   7
TORSDOF 2
ENDMDL
MODEL 3
REMARK VINA RESULT:       1.6      3.442      5.322
REMARK  2 active torsions:
REMARK  status: ('A' for Active; 'I' for Inactive)
REMARK    1  A    between atoms: C3_3  and  C9_9 
REMARK    2  A    between atoms: C7_7  and  C9_9 
ROOT
HETATM    1  C4  UNL     1     -32.313   7.977   2.786  1.00 20.00     0.006 C 
HETATM    2  C5  UNL     1     -32.555   9.347   2.144  1.00 20.00     0.020 C 
HETATM    3  C6  UNL     1     -32.333   7.771   0.367  1.00 20.00     0.025 C 
HETATM    4  C7  UNL     1     -31.931   7.026   1.641  1.00 20.00    -0.007 C 
HETATM    5  C8  UNL     1     -32.016   9.215   0.724  1.00 20.00     0.082 C 
HETATM    6 CL12 UNL     1     -32.764  10.366  -0.392  1.00 20.00    -0.125 Cl
ENDROOT
BRANCH   4   7
HETATM    7  C9  UNL     1     -32.579   5.657   1.757  1.00 20.00     0.071 C 
BRANCH   7   8
HETATM    8  C3  UNL     1     -33.651   5.635   2.814  1.00 20.00     0.074 A 
HETATM    9  N10 UNL     1     -34.493   6.618   3.039  1.00 20.00    -0.258 NA
HETATM   10  C1  UNL     1     -35.335   6.257   4.074  1.00 20.00     0.124 A 
HETATM   11  C2  UNL     1     -35.121   5.008   4.617  1.00 20.00     0.070 A 
HETATM   12  S11 UNL     1     -33.815   4.244   3.807  1.00 20.00    -0.085 SA
ENDBRANCH   7   8
ENDBRANCH   4   7
TORSDOF 2
ENDMDL
MODEL 4
REMARK VINA RESULT:       2.4      3.523      5.658
REMARK  2 active torsions:
REMARK  status: ('A' for Active; 'I' for Inactive)
REMARK    1  A    between atoms: C3_3  and  C9_9 
REMARK    2  A    between atoms: C7_7  and  C9_9 
ROOT
HETATM    1  C4  UNL     1     -31.584   7.628   1.406  1.00 20.00     0.006 C 
HETATM    2  C5  UNL     1     -31.116   8.659   0.374  1.00 20.00     0.020 C 
HETATM    3  C6  UNL     1     -33.084   9.538   1.397  1.00 20.00     0.025 C 
HETATM    4  C7  UNL     1     -32.973   8.090   1.876  1.00 20.00    -0.007 C 
HETATM    5  C8  UNL     1     -32.354   9.492   0.064  1.00 20.00     0.082 C 
HETATM    6 CL12 UNL     1     -31.948  11.105  -0.539  1.00 20.00    -0.125 Cl
ENDROOT
BRANCH   4   7
HETATM    7  C9  UNL     1     -33.179   7.943   3.375  1.00 20.00     0.071 C 
BRANCH   7   8
HETATM    8  C3  UNL     1     -33.892   6.662   3.716  1.00 20.00     0.074 A 
HETATM    9  N10 UNL     1     -35.082   6.599   4.273  1.00 20.00    -0.258 NA
HETATM   10  C1  UNL     1     -35.426   5.271   4.441  1.00 20.00     0.124 A 
HETATM   11  C2  UNL     1     -34.495   4.348   4.011  1.00 20.00     0.070 A 
HETATM   12  S11 UNL     1     -33.130   5.164   3.367  1.00 20.00    -0.085 SA
ENDBRANCH   7   8
ENDBRANCH   4   7
TORSDOF 2
ENDMDL
MODEL 5
REMARK VINA RESULT:       2.5      3.285      5.209
REMARK  2 active torsions:
REMARK  status: ('A' for Active; 'I' for Inactive)
REMARK    1  A    between atoms: C3_3  and  C9_9 
REMARK    2  A    between atoms: C7_7  and  C9_9 
ROOT
HETATM    1  C4  UNL     1     -32.261   7.756   2.800  1.00 20.00     0.006 C 
HETATM    2  C5  UNL     1     -32.421   9.205   2.329  1.00 20.00     0.020 C 
HETATM    3  C6  UNL     1     -32.337   7.839   0.374  1.00 20.00     0.025 C 
HETATM    4  C7  UNL     1     -31.964   6.925   1.542  1.00 20.00    -0.007 C 
HETATM    5  C8  UNL     1     -31.917   9.207   0.890  1.00 20.00     0.082 C 
HETATM    6 CL12 UNL     1     -32.604  10.528  -0.065  1.00 20.00    -0.125 Cl
ENDROOT
BRANCH   4   7
HETATM    7  C9  UNL     1     -32.701   5.596   1.514  1.00 20.00     0.071 C 
BRANCH   7   8
HETATM    8  C3  UNL     1     -33.601   5.432   2.710  1.00 20.00     0.074 A 
HETATM    9  N10 UNL     1     -33.557   4.413   3.540  1.00 20.00    -0.258 NA
HETATM   10  C1  UNL     1     -34.519   4.590   4.515  1.00 20.00     0.124 A 
HETATM   11  C2  UNL     1     -35.278   5.737   4.412  1.00 20.00     0.070 A 
HETATM   12  S11 UNL     1     -34.774   6.640   3.043  1.00 20.00    -0.085 SA
ENDBRANCH   7   8
ENDBRANCH   4   7
TORSDOF 2
ENDMDL
MODEL 6
REMARK VINA RESULT:       2.8      1.758      2.388
REMARK  2 active torsions:
REMARK  status: ('A' for Active; 'I' for Inactive)
REMARK    1  A    between atoms: C3_3  and  C9_9 
REMARK    2  A    between atoms: C7_7  and  C9_9 
ROOT
HETATM    1  C4  UNL     1     -32.348   6.481   1.690  1.00 20.00     0.006 C 
HETATM    2  C5  UNL     1     -33.735   5.897   1.979  1.00 20.00     0.020 C 
HETATM    3  C6  UNL     1     -33.346   7.611   3.594  1.00 20.00     0.025 C 
HETATM    4  C7  UNL     1     -32.013   7.402   2.874  1.00 20.00    -0.007 C 
HETATM    5  C8  UNL     1     -34.013   6.254   3.435  1.00 20.00     0.082 C 
HETATM    6 CL12 UNL     1     -35.744   6.306   3.798  1.00 20.00    -0.125 Cl
ENDROOT
BRANCH   4   7
HETATM    7  C9  UNL     1     -31.355   8.706   2.453  1.00 20.00     0.071 C 
BRANCH   7   8
HETATM    8  C3  UNL     1     -31.906   9.211   1.146  1.00 20.00     0.074 A 
HETATM    9  N10 UNL     1     -31.658   8.669  -0.026  1.00 20.00    -0.258 NA
HETATM   10  C1  UNL     1     -32.324   9.388  -1.000  1.00 20.00     0.124 A 
HETATM   11  C2  UNL     1     -33.067  10.461  -0.556  1.00 20.00     0.070 A 
HETATM   12  S11 UNL     1     -32.934  10.586   1.150  1.00 20.00    -0.085 SA
ENDBRANCH   7   8
ENDBRANCH   4   7
TORSDOF 2
ENDMDL
MODEL 7
REMARK VINA RESULT:       3.0      2.029      2.686
REMARK  2 active torsions:
REMARK  status: ('A' for Active; 'I' for Inactive)
REMARK    1  A    between atoms: C3_3  and  C9_9 
REMARK    2  A    between atoms: C7_7  and  C9_9 
ROOT
HETATM    1  C4  UNL     1     -32.342   6.465   1.567  1.00 20.00     0.006 C 
HETATM    2  C5  UNL     1     -33.738   5.925   1.893  1.00 20.00     0.020 C 
HETATM    3  C6  UNL     1     -33.236   7.598   3.520  1.00 20.00     0.025 C 
HETATM    4  C7  UNL     1     -31.936   7.354   2.752  1.00 20.00    -0.007 C 
HETATM    5  C8  UNL     1     -33.956   6.267   3.363  1.00 20.00     0.082 C 
HETATM    6 CL12 UNL     1     -35.670   6.373   3.785  1.00 20.00    -0.125 Cl
ENDROOT
BRANCH   4   7
HETATM    7  C9  UNL     1     -31.247   8.641   2.330  1.00 20.00     0.071 C 
BRANCH   7   8
HETATM    8  C3  UNL     1     -31.959   9.303   1.180  1.00 20.00     0.074 A 
HETATM    9  N10 UNL     1     -32.895  10.217   1.312  1.00 20.00    -0.258 NA
HETATM   10  C1  UNL     1     -33.323  10.601   0.055  1.00 20.00     0.124 A 
HETATM   11  C2  UNL     1     -32.709   9.975  -1.009  1.00 20.00     0.070 A 
HETATM   12  S11 UNL     1     -31.544   8.859  -0.426  1.00 20.00    -0.085 SA
ENDBRANCH   7   8
ENDBRANCH   4   7
TORSDOF 2
ENDMDL
MODEL 8
REMARK VINA RESULT:       3.0      1.395      1.515
REMARK  2 active torsions:
REMARK  status: ('A' for Active; 'I' for Inactive)
REMARK    1  A    between atoms: C3_3  and  C9_9 
REMARK    2  A    between atoms: C7_7  and  C9_9 
ROOT
HETATM    1  C4  UNL     1     -35.563   5.607   4.552  1.00 20.00     0.006 C 
HETATM    2  C5  UNL     1     -35.091   4.251   5.085  1.00 20.00     0.020 C 
HETATM    3  C6  UNL     1     -33.352   5.095   3.687  1.00 20.00     0.025 C 
HETATM    4  C7  UNL     1     -34.551   6.020   3.471  1.00 20.00    -0.007 C 
HETATM    5  C8  UNL     1     -34.021   3.793   4.101  1.00 20.00     0.082 C 
HETATM    6 CL12 UNL     1     -32.881   2.651   4.826  1.00 20.00    -0.125 Cl
ENDROOT
BRANCH   4   7
HETATM    7  C9  UNL     1     -34.182   7.493   3.526  1.00 20.00     0.071 C 
BRANCH   7   8
HETATM    8  C3  UNL     1     -32.953   7.790   2.709  1.00 20.00     0.074 A 
HETATM    9  N10 UNL     1     -31.991   8.605   3.082  1.00 20.00    -0.258 NA
HETATM   10  C1  UNL     1     -31.025   8.638   2.094  1.00 20.00     0.124 A 
HETATM   11  C2  UNL     1     -31.267   7.850   0.989  1.00 20.00     0.070 A 
HETATM   12  S11 UNL     1     -32.761   7.028   1.183  1.00 20.00    -0.085 SA
ENDBRANCH   7   8
ENDBRANCH   4   7
TORSDOF 2
ENDMDL
MODEL 9
REMARK VINA RESULT:       3.3      3.325      5.597
REMARK  2 active torsions:
REMARK  status: ('A' for Active; 'I' for Inactive)
REMARK    1  A    between atoms: C3_3  and  C9_9 
REMARK    2  A    between atoms: C7_7  and  C9_9 
ROOT
HETATM    1  C4  UNL     1     -32.243   8.450  -0.201  1.00 20.00     0.006 C 
HETATM    2  C5  UNL     1     -32.020   9.961  -0.319  1.00 20.00     0.020 C 
HETATM    3  C6  UNL     1     -32.538   9.508   1.966  1.00 20.00     0.025 C 
HETATM    4  C7  UNL     1     -32.811   8.208   1.207  1.00 20.00    -0.007 C 
HETATM    5  C8  UNL     1     -32.738  10.559   0.885  1.00 20.00     0.082 C 
HETATM    6 CL12 UNL     1     -32.084  12.136   1.348  1.00 20.00    -0.125 Cl
ENDROOT
BRANCH   4   7
HETATM    7  C9  UNL     1     -32.220   6.987   1.891  1.00 20.00     0.071 C 
BRANCH   7   8
HETATM    8  C3  UNL     1     -33.231   6.292   2.763  1.00 20.00     0.074 A 
HETATM    9  N10 UNL     1     -33.324   4.988   2.901  1.00 20.00    -0.258 NA
HETATM   10  C1  UNL     1     -34.357   4.704   3.773  1.00 20.00     0.124 A 
HETATM   11  C2  UNL     1     -35.031   5.793   4.285  1.00 20.00     0.070 A 
HETATM   12  S11 UNL     1     -34.353   7.237   3.655  1.00 20.00    -0.085 SA
ENDBRANCH   7   8
ENDBRANCH   4   7
TORSDOF 2
ENDMDL
