MODEL 1
REMARK VINA RESULT:      -0.8      0.000      0.000
REMARK  1 active torsions:
REMARK  status: ('A' for Active; 'I' for Inactive)
REMARK    1  A    between atoms: C4_4  and  C9_9 
ROOT
HETATM    1  C1  UNL     1     -32.402   8.338   2.347  1.00 20.00     0.001 C 
HETATM    2  C2  UNL     1     -33.353   7.594   3.286  1.00 20.00     0.007 C 
HETATM    3  C3  UNL     1     -31.727   7.272   1.485  1.00 20.00     0.009 C 
HETATM    4  C4  UNL     1     -33.129   6.102   3.012  1.00 20.00     0.011 C 
HETATM    5  C5  UNL     1     -32.665   6.053   1.537  1.00 20.00    -0.043 C 
HETATM    6  C6  UNL     1     -33.813   6.214   0.524  1.00 20.00     0.015 C 
HETATM    7  C7  UNL     1     -31.901   4.762   1.220  1.00 20.00     0.015 C 
ENDROOT
BRANCH   4   8
HETATM    8  C9  UNL     1     -34.346   5.258   3.364  1.00 20.00     0.083 C 
HETATM    9  C8  UNL     1     -35.345   6.038   4.203  1.00 20.00     0.027 C 
HETATM   10 CL10 UNL     1     -33.825   3.800   4.254  1.00 20.00    -0.125 Cl
ENDBRANCH   4   8
TORSDOF 1
ENDMDL
MODEL 2
REMARK VINA RESULT:       0.6      1.991      3.954
REMARK  1 active torsions:
REMARK  status: ('A' for Active; 'I' for Inactive)
REMARK    1  A    between atoms: C4_4  and  C9_9 
ROOT
HETATM    1  C1  UNL     1     -34.634   4.310   4.370  1.00 20.00     0.001 C 
HETATM    2  C2  UNL     1     -33.694   4.483   3.177  1.00 20.00     0.007 C 
HETATM    3  C3  UNL     1     -34.887   5.711   4.925  1.00 20.00     0.009 C 
HETATM    4  C4  UNL     1     -33.345   5.976   3.132  1.00 20.00     0.011 C 
HETATM    5  C5  UNL     1     -34.573   6.672   3.765  1.00 20.00    -0.043 C 
HETATM    6  C6  UNL     1     -35.779   6.778   2.814  1.00 20.00     0.015 C 
HETATM    7  C7  UNL     1     -34.232   8.070   4.290  1.00 20.00     0.015 C 
ENDROOT
BRANCH   4   8
HETATM    8  C9  UNL     1     -32.953   6.439   1.736  1.00 20.00     0.083 C 
HETATM    9  C8  UNL     1     -32.237   5.343   0.962  1.00 20.00     0.027 C 
HETATM   10 CL10 UNL     1     -31.896   7.874   1.857  1.00 20.00    -0.125 Cl
ENDBRANCH   4   8
TORSDOF 1
ENDMDL
MODEL 3
REMARK VINA RESULT:       1.0      1.538      2.801
REMARK  1 active torsions:
REMARK  status: ('A' for Active; 'I' for Inactive)
REMARK    1  A    between atoms: C4_4  and  C9_9 
ROOT
HETATM    1  C1  UNL     1     -31.837   5.585   1.457  1.00 20.00     0.001 C 
HETATM    2  C2  UNL     1     -33.008   5.676   2.438  1.00 20.00     0.007 C 
HETATM    3  C3  UNL     1     -31.673   6.980   0.855  1.00 20.00     0.009 C 
HETATM    4  C4  UNL     1     -33.557   7.101   2.303  1.00 20.00     0.011 C 
HETATM    5  C5  UNL     1     -32.335   7.939   1.861  1.00 20.00    -0.043 C 
HETATM    6  C6  UNL     1     -31.364   8.267   3.009  1.00 20.00     0.015 C 
HETATM    7  C7  UNL     1     -32.753   9.245   1.176  1.00 20.00     0.015 C 
ENDROOT
BRANCH   4   8
HETATM    8  C9  UNL     1     -34.274   7.568   3.563  1.00 20.00     0.083 C 
HETATM    9  C8  UNL     1     -33.294   7.869   4.686  1.00 20.00     0.027 C 
HETATM   10 CL10 UNL     1     -35.429   6.313   4.094  1.00 20.00    -0.125 Cl
ENDBRANCH   4   8
TORSDOF 1
ENDMDL
MODEL 4
REMARK VINA RESULT:       1.1      2.409      3.612
REMARK  1 active torsions:
REMARK  status: ('A' for Active; 'I' for Inactive)
REMARK    1  A    between atoms: C4_4  and  C9_9 
ROOT
HETATM    1  C1  UNL     1     -34.140   6.379   3.942  1.00 20.00     0.001 C 
HETATM    2  C2  UNL     1     -33.366   7.609   3.464  1.00 20.00     0.007 C 
HETATM    3  C3  UNL     1     -34.252   5.447   2.736  1.00 20.00     0.009 C 
HETATM    4  C4  UNL     1     -33.137   7.401   1.962  1.00 20.00     0.011 C 
HETATM    5  C5  UNL     1     -33.111   5.864   1.791  1.00 20.00    -0.043 C 
HETATM    6  C6  UNL     1     -31.785   5.216   2.230  1.00 20.00     0.015 C 
HETATM    7  C7  UNL     1     -33.415   5.443   0.349  1.00 20.00     0.015 C 
ENDROOT
BRANCH   4   8
HETATM    8  C9  UNL     1     -31.917   8.156   1.451  1.00 20.00     0.083 C 
HETATM    9  C8  UNL     1     -31.070   8.691   2.595  1.00 20.00     0.027 C 
HETATM   10 CL10 UNL     1     -32.445   9.510   0.412  1.00 20.00    -0.125 Cl
ENDBRANCH   4   8
TORSDOF 1
ENDMDL
MODEL 5
REMARK VINA RESULT:       1.4      1.333      2.781
REMARK  1 active torsions:
REMARK  status: ('A' for Active; 'I' for Inactive)
REMARK    1  A    between atoms: C4_4  and  C9_9 
ROOT
HETATM    1  C1  UNL     1     -32.028   6.862   1.483  1.00 20.00     0.001 C 
HETATM    2  C2  UNL     1     -32.438   5.577   2.203  1.00 20.00     0.007 C 
HETATM    3  C3  UNL     1     -33.036   7.931   1.904  1.00 20.00     0.009 C 
HETATM    4  C4  UNL     1     -33.737   5.910   2.946  1.00 20.00     0.011 C 
HETATM    5  C5  UNL     1     -33.634   7.427   3.229  1.00 20.00    -0.043 C 
HETATM    6  C6  UNL     1     -32.703   7.773   4.405  1.00 20.00     0.015 C 
HETATM    7  C7  UNL     1     -35.008   8.057   3.483  1.00 20.00     0.015 C 
ENDROOT
BRANCH   4   8
HETATM    8  C9  UNL     1     -33.961   5.012   4.155  1.00 20.00     0.083 C 
HETATM    9  C8  UNL     1     -33.580   3.570   3.860  1.00 20.00     0.027 C 
HETATM   10 CL10 UNL     1     -35.676   5.091   4.649  1.00 20.00    -0.125 Cl
ENDBRANCH   4   8
TORSDOF 1
ENDMDL
MODEL 6
REMARK VINA RESULT:       1.5      1.826      3.354
REMARK  1 active torsions:
REMARK  status: ('A' for Active; 'I' for Inactive)
REMARK    1  A    between atoms: C4_4  and  C9_9 
ROOT
HETATM    1  C1  UNL     1     -32.481   8.240   3.644  1.00 20.00     0.001 C 
HETATM    2  C2  UNL     1     -32.259   7.451   2.352  1.00 20.00     0.007 C 
HETATM    3  C3  UNL     1     -33.868   7.850   4.152  1.00 20.00     0.009 C 
HETATM    4  C4  UNL     1     -33.568   6.698   2.091  1.00 20.00     0.011 C 
HETATM    5  C5  UNL     1     -34.174   6.489   3.499  1.00 20.00    -0.043 C 
HETATM    6  C6  UNL     1     -33.509   5.351   4.294  1.00 20.00     0.015 C 
HETATM    7  C7  UNL     1     -35.684   6.238   3.442  1.00 20.00     0.015 C 
ENDROOT
BRANCH   4   8
HETATM    8  C9  UNL     1     -33.360   5.442   1.255  1.00 20.00     0.083 C 
HETATM    9  C8  UNL     1     -31.891   5.225   0.927  1.00 20.00     0.027 C 
HETATM   10 CL10 UNL     1     -34.300   5.569  -0.258  1.00 20.00    -0.125 Cl
ENDBRANCH   4   8
TORSDOF 1
ENDMDL
MODEL 7
REMARK VINA RESULT:       1.9      1.701      2.993
REMARK  1 active torsions:
REMARK  status: ('A' for Active; 'I' for Inactive)
REMARK    1  A    between atoms: C4_4  and  C9_9 
ROOT
HETATM    1  C1  UNL     1     -34.246   7.344   3.829  1.00 20.00     0.001 C 
HETATM    2  C2  UNL     1     -34.039   6.200   2.836  1.00 20.00     0.007 C 
HETATM    3  C3  UNL     1     -32.982   8.200   3.769  1.00 20.00     0.009 C 
HETATM    4  C4  UNL     1     -32.612   6.365   2.299  1.00 20.00     0.011 C 
HETATM    5  C5  UNL     1     -32.341   7.884   2.406  1.00 20.00    -0.043 C 
HETATM    6  C6  UNL     1     -33.011   8.711   1.293  1.00 20.00     0.015 C 
HETATM    7  C7  UNL     1     -30.841   8.198   2.421  1.00 20.00     0.015 C 
ENDROOT
BRANCH   4   8
HETATM    8  C9  UNL     1     -32.435   5.745   0.919  1.00 20.00     0.083 C 
HETATM    9  C8  UNL     1     -33.733   5.138   0.408  1.00 20.00     0.027 C 
HETATM   10 CL10 UNL     1     -31.171   4.486   0.988  1.00 20.00    -0.125 Cl
ENDBRANCH   4   8
TORSDOF 1
ENDMDL
MODEL 8
REMARK VINA RESULT:       1.9      1.962      2.991
REMARK  1 active torsions:
REMARK  status: ('A' for Active; 'I' for Inactive)
REMARK    1  A    between atoms: C4_4  and  C9_9 
ROOT
HETATM    1  C1  UNL     1     -31.819   5.543   1.177  1.00 20.00     0.001 C 
HETATM    2  C2  UNL     1     -32.897   5.539   2.262  1.00 20.00     0.007 C 
HETATM    3  C3  UNL     1     -31.710   6.985   0.685  1.00 20.00     0.009 C 
HETATM    4  C4  UNL     1     -33.458   6.965   2.300  1.00 20.00     0.011 C 
HETATM    5  C5  UNL     1     -32.281   7.849   1.824  1.00 20.00    -0.043 C 
HETATM    6  C6  UNL     1     -31.211   8.086   2.906  1.00 20.00     0.015 C 
HETATM    7  C7  UNL     1     -32.760   9.205   1.295  1.00 20.00     0.015 C 
ENDROOT
BRANCH   4   8
HETATM    8  C9  UNL     1     -34.060   7.317   3.654  1.00 20.00     0.083 C 
HETATM    9  C8  UNL     1     -35.130   6.319   4.067  1.00 20.00     0.027 C 
HETATM   10 CL10 UNL     1     -34.764   8.957   3.587  1.00 20.00    -0.125 Cl
ENDBRANCH   4   8
TORSDOF 1
ENDMDL
