MODEL 1
REMARK VINA RESULT:       1.5      0.000      0.000
REMARK  2 active torsions:
REMARK  status: ('A' for Active; 'I' for Inactive)
REMARK    1  A    between atoms: C5_5  and  C10_10 
REMARK    2  A    between atoms: C5_5  and  O11_11 
ROOT
HETATM    1  C1  UNL     1     -34.151   7.182   3.658  1.00 20.00     0.004 C 
HETATM    2  C2  UNL     1     -33.406   5.963   3.112  1.00 20.00     0.012 C 
HETATM    3  C3  UNL     1     -33.706   8.387   2.822  1.00 20.00     0.039 C 
HETATM    4  C4  UNL     1     -32.898   6.376   1.715  1.00 20.00    -0.016 C 
HETATM    5  C5  UNL     1     -32.561   7.878   1.934  1.00 20.00     0.068 C 
HETATM    6  C6  UNL     1     -34.013   6.151   0.675  1.00 20.00     0.018 C 
HETATM    7  C7  UNL     1     -31.681   5.530   1.314  1.00 20.00     0.018 C 
ENDROOT
BRANCH   5   8
HETATM    8  C10 UNL     1     -32.406   8.710   0.665  1.00 20.00     0.012 C 
HETATM    9  C8  UNL     1     -32.833  10.156   0.915  1.00 20.00     0.012 C 
HETATM   10  C9  UNL     1     -30.966   8.658   0.160  1.00 20.00     0.012 C 
ENDBRANCH   5   8
BRANCH   5  11
HETATM   11  O11 UNL     1     -31.332   8.023   2.658  1.00 20.00    -0.389 OA
HETATM   12  H31 UNL     1     -30.627   7.990   1.996  1.00 20.00     0.210 HD
ENDBRANCH   5  11
TORSDOF 2
ENDMDL
MODEL 2
REMARK VINA RESULT:       2.2      1.667      3.312
REMARK  2 active torsions:
REMARK  status: ('A' for Active; 'I' for Inactive)
REMARK    1  A    between atoms: C5_5  and  C10_10 
REMARK    2  A    between atoms: C5_5  and  O11_11 
ROOT
HETATM    1  C1  UNL     1     -34.783   4.974   4.256  1.00 20.00     0.004 C 
HETATM    2  C2  UNL     1     -35.283   6.419   4.264  1.00 20.00     0.012 C 
HETATM    3  C3  UNL     1     -33.573   4.926   3.316  1.00 20.00     0.039 C 
HETATM    4  C4  UNL     1     -34.121   7.265   3.705  1.00 20.00    -0.016 C 
HETATM    5  C5  UNL     1     -33.515   6.305   2.642  1.00 20.00     0.068 C 
HETATM    6  C6  UNL     1     -33.138   7.606   4.842  1.00 20.00     0.018 C 
HETATM    7  C7  UNL     1     -34.649   8.577   3.109  1.00 20.00     0.018 C 
ENDROOT
BRANCH   5   8
HETATM    8  C10 UNL     1     -32.108   6.652   2.167  1.00 20.00     0.012 C 
HETATM    9  C8  UNL     1     -31.588   5.587   1.202  1.00 20.00     0.012 C 
HETATM   10  C9  UNL     1     -32.086   8.029   1.507  1.00 20.00     0.012 C 
ENDBRANCH   5   8
BRANCH   5  11
HETATM   11  O11 UNL     1     -34.333   6.266   1.466  1.00 20.00    -0.389 OA
HETATM   12  H31 UNL     1     -35.235   6.451   1.762  1.00 20.00     0.210 HD
ENDBRANCH   5  11
TORSDOF 2
ENDMDL
MODEL 3
REMARK VINA RESULT:       3.0      1.736      3.900
REMARK  2 active torsions:
REMARK  status: ('A' for Active; 'I' for Inactive)
REMARK    1  A    between atoms: C5_5  and  C10_10 
REMARK    2  A    between atoms: C5_5  and  O11_11 
ROOT
HETATM    1  C1  UNL     1     -32.178   8.139   2.998  1.00 20.00     0.004 C 
HETATM    2  C2  UNL     1     -32.419   7.701   1.552  1.00 20.00     0.012 C 
HETATM    3  C3  UNL     1     -33.019   7.218   3.888  1.00 20.00     0.039 C 
HETATM    4  C4  UNL     1     -33.021   6.284   1.641  1.00 20.00    -0.016 C 
HETATM    5  C5  UNL     1     -33.886   6.389   2.929  1.00 20.00     0.068 C 
HETATM    6  C6  UNL     1     -31.886   5.248   1.758  1.00 20.00     0.018 C 
HETATM    7  C7  UNL     1     -33.840   5.968   0.382  1.00 20.00     0.018 C 
ENDROOT
BRANCH   5   8
HETATM    8  C10 UNL     1     -34.315   5.062   3.546  1.00 20.00     0.012 C 
HETATM    9  C8  UNL     1     -33.124   4.365   4.204  1.00 20.00     0.012 C 
HETATM   10  C9  UNL     1     -35.437   5.276   4.560  1.00 20.00     0.012 C 
ENDBRANCH   5   8
BRANCH   5  11
HETATM   11  O11 UNL     1     -35.095   7.117   2.673  1.00 20.00    -0.389 OA
HETATM   12  H31 UNL     1     -35.625   7.045   3.478  1.00 20.00     0.210 HD
ENDBRANCH   5  11
TORSDOF 2
ENDMDL
MODEL 4
REMARK VINA RESULT:       3.0      1.416      3.499
REMARK  2 active torsions:
REMARK  status: ('A' for Active; 'I' for Inactive)
REMARK    1  A    between atoms: C5_5  and  C10_10 
REMARK    2  A    between atoms: C5_5  and  O11_11 
ROOT
HETATM    1  C1  UNL     1     -32.590   5.551   0.735  1.00 20.00     0.004 C 
HETATM    2  C2  UNL     1     -31.520   6.557   1.161  1.00 20.00     0.012 C 
HETATM    3  C3  UNL     1     -33.757   5.699   1.718  1.00 20.00     0.039 C 
HETATM    4  C4  UNL     1     -32.239   7.566   2.081  1.00 20.00    -0.016 C 
HETATM    5  C5  UNL     1     -33.259   6.650   2.815  1.00 20.00     0.068 C 
HETATM    6  C6  UNL     1     -32.911   8.655   1.223  1.00 20.00     0.018 C 
HETATM    7  C7  UNL     1     -31.235   8.241   3.026  1.00 20.00     0.018 C 
ENDROOT
BRANCH   5   8
HETATM    8  C10 UNL     1     -34.407   7.371   3.513  1.00 20.00     0.012 C 
HETATM    9  C8  UNL     1     -35.524   6.390   3.866  1.00 20.00     0.012 C 
HETATM   10  C9  UNL     1     -33.911   8.090   4.766  1.00 20.00     0.012 C 
ENDBRANCH   5   8
BRANCH   5  11
HETATM   11  O11 UNL     1     -32.607   5.870   3.826  1.00 20.00    -0.389 OA
HETATM   12  H31 UNL     1     -31.674   5.830   3.572  1.00 20.00     0.210 HD
ENDBRANCH   5  11
TORSDOF 2
ENDMDL
MODEL 5
REMARK VINA RESULT:       3.7      1.493      3.401
REMARK  2 active torsions:
REMARK  status: ('A' for Active; 'I' for Inactive)
REMARK    1  A    between atoms: C5_5  and  C10_10 
REMARK    2  A    between atoms: C5_5  and  O11_11 
ROOT
HETATM    1  C1  UNL     1     -31.173   8.394   1.712  1.00 20.00     0.004 C 
HETATM    2  C2  UNL     1     -31.907   7.481   0.729  1.00 20.00     0.012 C 
HETATM    3  C3  UNL     1     -31.936   8.326   3.039  1.00 20.00     0.039 C 
HETATM    4  C4  UNL     1     -32.796   6.565   1.596  1.00 20.00    -0.016 C 
HETATM    5  C5  UNL     1     -33.213   7.526   2.745  1.00 20.00     0.068 C 
HETATM    6  C6  UNL     1     -31.968   5.360   2.087  1.00 20.00     0.018 C 
HETATM    7  C7  UNL     1     -33.984   6.039   0.780  1.00 20.00     0.018 C 
ENDROOT
BRANCH   5   8
HETATM    8  C10 UNL     1     -33.771   6.855   3.996  1.00 20.00     0.012 C 
HETATM    9  C8  UNL     1     -33.694   7.801   5.193  1.00 20.00     0.012 C 
HETATM   10  C9  UNL     1     -35.210   6.399   3.766  1.00 20.00     0.012 C 
ENDBRANCH   5   8
BRANCH   5  11
HETATM   11  O11 UNL     1     -34.224   8.441   2.300  1.00 20.00    -0.389 OA
HETATM   12  H31 UNL     1     -35.056   8.123   2.677  1.00 20.00     0.210 HD
ENDBRANCH   5  11
TORSDOF 2
ENDMDL
MODEL 6
REMARK VINA RESULT:       3.8      1.396      3.341
REMARK  2 active torsions:
REMARK  status: ('A' for Active; 'I' for Inactive)
REMARK    1  A    between atoms: C5_5  and  C10_10 
REMARK    2  A    between atoms: C5_5  and  O11_11 
ROOT
HETATM    1  C1  UNL     1     -34.214   7.281   3.805  1.00 20.00     0.004 C 
HETATM    2  C2  UNL     1     -33.761   8.434   2.908  1.00 20.00     0.012 C 
HETATM    3  C3  UNL     1     -33.636   5.995   3.206  1.00 20.00     0.039 C 
HETATM    4  C4  UNL     1     -32.583   7.879   2.081  1.00 20.00    -0.016 C 
HETATM    5  C5  UNL     1     -33.021   6.404   1.859  1.00 20.00     0.068 C 
HETATM    6  C6  UNL     1     -31.279   8.007   2.893  1.00 20.00     0.018 C 
HETATM    7  C7  UNL     1     -32.423   8.670   0.776  1.00 20.00     0.018 C 
ENDROOT
BRANCH   5   8
HETATM    8  C10 UNL     1     -31.917   5.447   1.420  1.00 20.00     0.012 C 
HETATM    9  C8  UNL     1     -31.556   4.486   2.551  1.00 20.00     0.012 C 
HETATM   10  C9  UNL     1     -32.340   4.672   0.174  1.00 20.00     0.012 C 
ENDBRANCH   5   8
BRANCH   5  11
HETATM   11  O11 UNL     1     -34.041   6.321   0.856  1.00 20.00    -0.389 OA
HETATM   12  H31 UNL     1     -33.919   7.094   0.287  1.00 20.00     0.210 HD
ENDBRANCH   5  11
TORSDOF 2
ENDMDL
MODEL 7
REMARK VINA RESULT:       4.0      1.188      3.347
REMARK  2 active torsions:
REMARK  status: ('A' for Active; 'I' for Inactive)
REMARK    1  A    between atoms: C5_5  and  C10_10 
REMARK    2  A    between atoms: C5_5  and  O11_11 
ROOT
HETATM    1  C1  UNL     1     -32.124   4.590   2.224  1.00 20.00     0.004 C 
HETATM    2  C2  UNL     1     -31.702   5.795   1.382  1.00 20.00     0.012 C 
HETATM    3  C3  UNL     1     -33.203   5.081   3.195  1.00 20.00     0.039 C 
HETATM    4  C4  UNL     1     -32.826   6.838   1.554  1.00 20.00    -0.016 C 
HETATM    5  C5  UNL     1     -33.246   6.608   3.033  1.00 20.00     0.068 C 
HETATM    6  C6  UNL     1     -33.958   6.544   0.550  1.00 20.00     0.018 C 
HETATM    7  C7  UNL     1     -32.293   8.252   1.285  1.00 20.00     0.018 C 
ENDROOT
BRANCH   5   8
HETATM    8  C10 UNL     1     -34.598   7.189   3.432  1.00 20.00     0.012 C 
HETATM    9  C8  UNL     1     -35.509   6.097   3.992  1.00 20.00     0.012 C 
HETATM   10  C9  UNL     1     -34.422   8.313   4.451  1.00 20.00     0.012 C 
ENDBRANCH   5   8
BRANCH   5  11
HETATM   11  O11 UNL     1     -32.286   7.182   3.930  1.00 20.00    -0.389 OA
HETATM   12  H31 UNL     1     -31.565   7.510   3.375  1.00 20.00     0.210 HD
ENDBRANCH   5  11
TORSDOF 2
ENDMDL
MODEL 8
REMARK VINA RESULT:       4.1      1.482      3.406
REMARK  2 active torsions:
REMARK  status: ('A' for Active; 'I' for Inactive)
REMARK    1  A    between atoms: C5_5  and  C10_10 
REMARK    2  A    between atoms: C5_5  and  O11_11 
ROOT
HETATM    1  C1  UNL     1     -32.669   9.494   0.838  1.00 20.00     0.004 C 
HETATM    2  C2  UNL     1     -31.760   8.307   0.514  1.00 20.00     0.012 C 
HETATM    3  C3  UNL     1     -33.525   9.085   2.041  1.00 20.00     0.039 C 
HETATM    4  C4  UNL     1     -31.773   7.417   1.774  1.00 20.00    -0.016 C 
HETATM    5  C5  UNL     1     -33.236   7.594   2.270  1.00 20.00     0.068 C 
HETATM    6  C6  UNL     1     -30.727   7.935   2.781  1.00 20.00     0.018 C 
HETATM    7  C7  UNL     1     -31.424   5.967   1.412  1.00 20.00     0.018 C 
ENDROOT
BRANCH   5   8
HETATM    8  C10 UNL     1     -33.499   7.175   3.713  1.00 20.00     0.012 C 
HETATM    9  C8  UNL     1     -33.475   8.390   4.639  1.00 20.00     0.012 C 
HETATM   10  C9  UNL     1     -34.834   6.442   3.827  1.00 20.00     0.012 C 
ENDBRANCH   5   8
BRANCH   5  11
HETATM   11  O11 UNL     1     -34.143   6.831   1.463  1.00 20.00    -0.389 OA
HETATM   12  H31 UNL     1     -34.719   6.361   2.081  1.00 20.00     0.210 HD
ENDBRANCH   5  11
TORSDOF 2
ENDMDL
MODEL 9
REMARK VINA RESULT:       4.2      1.610      2.909
REMARK  2 active torsions:
REMARK  status: ('A' for Active; 'I' for Inactive)
REMARK    1  A    between atoms: C5_5  and  C10_10 
REMARK    2  A    between atoms: C5_5  and  O11_11 
ROOT
HETATM    1  C1  UNL     1     -32.661   8.446   5.118  1.00 20.00     0.004 C 
HETATM    2  C2  UNL     1     -34.034   7.783   5.239  1.00 20.00     0.012 C 
HETATM    3  C3  UNL     1     -32.107   8.076   3.738  1.00 20.00     0.039 C 
HETATM    4  C4  UNL     1     -34.451   7.423   3.798  1.00 20.00    -0.016 C 
HETATM    5  C5  UNL     1     -33.084   7.042   3.161  1.00 20.00     0.068 C 
HETATM    6  C6  UNL     1     -35.108   8.647   3.131  1.00 20.00     0.018 C 
HETATM    7  C7  UNL     1     -35.463   6.269   3.803  1.00 20.00     0.018 C 
ENDROOT
BRANCH   5   8
HETATM    8  C10 UNL     1     -33.053   7.012   1.636  1.00 20.00     0.012 C 
HETATM    9  C8  UNL     1     -32.049   8.032   1.099  1.00 20.00     0.012 C 
HETATM   10  C9  UNL     1     -32.715   5.611   1.131  1.00 20.00     0.012 C 
ENDBRANCH   5   8
BRANCH   5  11
HETATM   11  O11 UNL     1     -32.667   5.740   3.592  1.00 20.00    -0.389 OA
HETATM   12  H31 UNL     1     -31.772   5.618   3.246  1.00 20.00     0.210 HD
ENDBRANCH   5  11
TORSDOF 2
ENDMDL
