MODEL 1
REMARK VINA RESULT:       0.3      0.000      0.000
REMARK  2 active torsions:
REMARK  status: ('A' for Active; 'I' for Inactive)
REMARK    1  A    between atoms: C2_2  and  C6_6 
REMARK    2  A    between atoms: C6_6  and  O10_10 
ROOT
HETATM    1  C3  UNL     1     -34.102   7.244   3.559  1.00 20.00     0.004 C 
HETATM    2  C4  UNL     1     -33.575   8.405   2.706  1.00 20.00     0.043 C 
HETATM    3  C5  UNL     1     -33.379   5.984   3.082  1.00 20.00     0.012 C 
HETATM    4  C6  UNL     1     -32.409   7.823   1.893  1.00 20.00     0.082 C 
HETATM    5  C7  UNL     1     -32.817   6.334   1.689  1.00 20.00    -0.013 C 
HETATM    6  C8  UNL     1     -31.642   5.412   1.334  1.00 20.00     0.018 C 
HETATM    7  C9  UNL     1     -33.920   6.142   0.625  1.00 20.00     0.018 C 
ENDROOT
BRANCH   4   8
HETATM    8  C2  UNL     1     -32.135   8.614   0.653  1.00 20.00     0.001 C 
HETATM    9  C1  UNL     1     -32.536   9.875   0.467  1.00 20.00     0.010 C 
ENDBRANCH   4   8
BRANCH   4  10
HETATM   10  O10 UNL     1     -31.250   7.902   2.737  1.00 20.00    -0.385 OA
HETATM   11  H26 UNL     1     -30.659   7.192   2.448  1.00 20.00     0.211 HD
ENDBRANCH   4  10
TORSDOF 2
ENDMDL
MODEL 2
REMARK VINA RESULT:       1.4      1.625      3.460
REMARK  2 active torsions:
REMARK  status: ('A' for Active; 'I' for Inactive)
REMARK    1  A    between atoms: C2_2  and  C6_6 
REMARK    2  A    between atoms: C6_6  and  O10_10 
ROOT
HETATM    1  C3  UNL     1     -32.273   8.316   2.804  1.00 20.00     0.004 C 
HETATM    2  C4  UNL     1     -32.936   7.382   3.826  1.00 20.00     0.043 C 
HETATM    3  C5  UNL     1     -32.564   7.731   1.421  1.00 20.00     0.012 C 
HETATM    4  C6  UNL     1     -33.768   6.391   2.999  1.00 20.00     0.082 C 
HETATM    5  C7  UNL     1     -32.965   6.263   1.671  1.00 20.00    -0.013 C 
HETATM    6  C8  UNL     1     -33.793   5.723   0.496  1.00 20.00     0.018 C 
HETATM    7  C9  UNL     1     -31.694   5.397   1.805  1.00 20.00     0.018 C 
ENDROOT
BRANCH   4   8
HETATM    8  C2  UNL     1     -34.033   5.119   3.742  1.00 20.00     0.001 C 
HETATM    9  C1  UNL     1     -35.103   4.915   4.517  1.00 20.00     0.010 C 
ENDBRANCH   4   8
BRANCH   4  10
HETATM   10  O10 UNL     1     -35.028   7.032   2.750  1.00 20.00    -0.385 OA
HETATM   11  H26 UNL     1     -34.836   7.976   2.660  1.00 20.00     0.211 HD
ENDBRANCH   4  10
TORSDOF 2
ENDMDL
MODEL 3
REMARK VINA RESULT:       1.4      1.339      3.116
REMARK  2 active torsions:
REMARK  status: ('A' for Active; 'I' for Inactive)
REMARK    1  A    between atoms: C2_2  and  C6_6 
REMARK    2  A    between atoms: C6_6  and  O10_10 
ROOT
HETATM    1  C3  UNL     1     -34.251   7.144   3.791  1.00 20.00     0.004 C 
HETATM    2  C4  UNL     1     -33.524   5.928   3.203  1.00 20.00     0.043 C 
HETATM    3  C5  UNL     1     -33.868   8.346   2.927  1.00 20.00     0.012 C 
HETATM    4  C6  UNL     1     -32.899   6.417   1.888  1.00 20.00     0.082 C 
HETATM    5  C7  UNL     1     -32.595   7.918   2.169  1.00 20.00    -0.013 C 
HETATM    6  C8  UNL     1     -32.414   8.762   0.899  1.00 20.00     0.018 C 
HETATM    7  C9  UNL     1     -31.361   8.135   3.072  1.00 20.00     0.018 C 
ENDROOT
BRANCH   4   8
HETATM    8  C2  UNL     1     -31.740   5.571   1.465  1.00 20.00     0.001 C 
HETATM    9  C1  UNL     1     -31.808   4.629   0.519  1.00 20.00     0.010 C 
ENDBRANCH   4   8
BRANCH   4  10
HETATM   10  O10 UNL     1     -33.923   6.304   0.888  1.00 20.00    -0.385 OA
HETATM   11  H26 UNL     1     -34.403   5.488   1.087  1.00 20.00     0.211 HD
ENDBRANCH   4  10
TORSDOF 2
ENDMDL
MODEL 4
REMARK VINA RESULT:       1.4      1.705      3.073
REMARK  2 active torsions:
REMARK  status: ('A' for Active; 'I' for Inactive)
REMARK    1  A    between atoms: C2_2  and  C6_6 
REMARK    2  A    between atoms: C6_6  and  O10_10 
ROOT
HETATM    1  C3  UNL     1     -34.339   4.897   3.936  1.00 20.00     0.004 C 
HETATM    2  C4  UNL     1     -33.096   5.195   3.088  1.00 20.00     0.043 C 
HETATM    3  C5  UNL     1     -35.124   6.205   4.041  1.00 20.00     0.012 C 
HETATM    4  C6  UNL     1     -33.295   6.620   2.551  1.00 20.00     0.082 C 
HETATM    5  C7  UNL     1     -34.120   7.317   3.673  1.00 20.00    -0.013 C 
HETATM    6  C8  UNL     1     -34.861   8.578   3.204  1.00 20.00     0.018 C 
HETATM    7  C9  UNL     1     -33.279   7.685   4.914  1.00 20.00     0.018 C 
ENDROOT
BRANCH   4   8
HETATM    8  C2  UNL     1     -31.999   7.269   2.178  1.00 20.00     0.001 C 
HETATM    9  C1  UNL     1     -31.895   8.295   1.328  1.00 20.00     0.010 C 
ENDBRANCH   4   8
BRANCH   4  10
HETATM   10  O10 UNL     1     -34.090   6.496   1.363  1.00 20.00    -0.385 OA
HETATM   11  H26 UNL     1     -34.930   6.936   1.555  1.00 20.00     0.211 HD
ENDBRANCH   4  10
TORSDOF 2
ENDMDL
MODEL 5
REMARK VINA RESULT:       2.2      1.457      2.870
REMARK  2 active torsions:
REMARK  status: ('A' for Active; 'I' for Inactive)
REMARK    1  A    between atoms: C2_2  and  C6_6 
REMARK    2  A    between atoms: C6_6  and  O10_10 
ROOT
HETATM    1  C3  UNL     1     -32.557   8.270   3.134  1.00 20.00     0.004 C 
HETATM    2  C4  UNL     1     -32.648   7.693   1.716  1.00 20.00     0.043 C 
HETATM    3  C5  UNL     1     -33.087   7.194   4.082  1.00 20.00     0.012 C 
HETATM    4  C6  UNL     1     -33.037   6.218   1.895  1.00 20.00     0.082 C 
HETATM    5  C7  UNL     1     -33.896   6.226   3.195  1.00 20.00    -0.013 C 
HETATM    6  C8  UNL     1     -34.016   4.851   3.867  1.00 20.00     0.018 C 
HETATM    7  C9  UNL     1     -35.319   6.787   2.985  1.00 20.00     0.018 C 
ENDROOT
BRANCH   4   8
HETATM    8  C2  UNL     1     -33.687   5.653   0.672  1.00 20.00     0.001 C 
HETATM    9  C1  UNL     1     -33.311   4.513   0.084  1.00 20.00     0.010 C 
ENDBRANCH   4   8
BRANCH   4  10
HETATM   10  O10 UNL     1     -31.814   5.502   2.121  1.00 20.00    -0.385 OA
HETATM   11  H26 UNL     1     -31.260   6.082   2.663  1.00 20.00     0.211 HD
ENDBRANCH   4  10
TORSDOF 2
ENDMDL
MODEL 6
REMARK VINA RESULT:       2.3      1.425      3.390
REMARK  2 active torsions:
REMARK  status: ('A' for Active; 'I' for Inactive)
REMARK    1  A    between atoms: C2_2  and  C6_6 
REMARK    2  A    between atoms: C6_6  and  O10_10 
ROOT
HETATM    1  C3  UNL     1     -31.975   5.720   0.886  1.00 20.00     0.004 C 
HETATM    2  C4  UNL     1     -33.383   5.615   1.486  1.00 20.00     0.043 C 
HETATM    3  C5  UNL     1     -31.264   6.854   1.625  1.00 20.00     0.012 C 
HETATM    4  C6  UNL     1     -33.385   6.556   2.699  1.00 20.00     0.082 C 
HETATM    5  C7  UNL     1     -32.387   7.679   2.289  1.00 20.00    -0.013 C 
HETATM    6  C8  UNL     1     -31.836   8.483   3.475  1.00 20.00     0.018 C 
HETATM    7  C9  UNL     1     -32.971   8.673   1.262  1.00 20.00     0.018 C 
ENDROOT
BRANCH   4   8
HETATM    8  C2  UNL     1     -34.766   6.997   3.071  1.00 20.00     0.001 C 
HETATM    9  C1  UNL     1     -35.513   6.405   4.007  1.00 20.00     0.010 C 
ENDBRANCH   4   8
BRANCH   4  10
HETATM   10  O10 UNL     1     -32.848   5.801   3.796  1.00 20.00    -0.385 OA
HETATM   11  H26 UNL     1     -32.391   5.044   3.403  1.00 20.00     0.211 HD
ENDBRANCH   4  10
TORSDOF 2
ENDMDL
MODEL 7
REMARK VINA RESULT:       2.4      1.715      3.882
REMARK  2 active torsions:
REMARK  status: ('A' for Active; 'I' for Inactive)
REMARK    1  A    between atoms: C2_2  and  C6_6 
REMARK    2  A    between atoms: C6_6  and  O10_10 
ROOT
HETATM    1  C3  UNL     1     -32.320   7.199   1.462  1.00 20.00     0.004 C 
HETATM    2  C4  UNL     1     -33.514   6.273   1.727  1.00 20.00     0.043 C 
HETATM    3  C5  UNL     1     -32.058   7.961   2.761  1.00 20.00     0.012 C 
HETATM    4  C6  UNL     1     -33.785   6.371   3.235  1.00 20.00     0.082 C 
HETATM    5  C7  UNL     1     -33.354   7.826   3.587  1.00 20.00    -0.013 C 
HETATM    6  C8  UNL     1     -33.068   8.045   5.079  1.00 20.00     0.018 C 
HETATM    7  C9  UNL     1     -34.370   8.894   3.128  1.00 20.00     0.018 C 
ENDROOT
BRANCH   4   8
HETATM    8  C2  UNL     1     -35.190   5.992   3.583  1.00 20.00     0.001 C 
HETATM    9  C1  UNL     1     -35.517   5.169   4.584  1.00 20.00     0.010 C 
ENDBRANCH   4   8
BRANCH   4  10
HETATM   10  O10 UNL     1     -32.901   5.433   3.867  1.00 20.00    -0.385 OA
HETATM   11  H26 UNL     1     -33.463   4.850   4.397  1.00 20.00     0.211 HD
ENDBRANCH   4  10
TORSDOF 2
ENDMDL
MODEL 8
REMARK VINA RESULT:       2.9      1.727      3.283
REMARK  2 active torsions:
REMARK  status: ('A' for Active; 'I' for Inactive)
REMARK    1  A    between atoms: C2_2  and  C6_6 
REMARK    2  A    between atoms: C6_6  and  O10_10 
ROOT
HETATM    1  C3  UNL     1     -32.599   6.189   1.187  1.00 20.00     0.004 C 
HETATM    2  C4  UNL     1     -32.064   7.167   2.241  1.00 20.00     0.043 C 
HETATM    3  C5  UNL     1     -33.975   5.731   1.672  1.00 20.00     0.012 C 
HETATM    4  C6  UNL     1     -33.230   7.409   3.210  1.00 20.00     0.082 C 
HETATM    5  C7  UNL     1     -34.013   6.063   3.178  1.00 20.00    -0.013 C 
HETATM    6  C8  UNL     1     -35.463   6.178   3.669  1.00 20.00     0.018 C 
HETATM    7  C9  UNL     1     -33.322   4.934   3.972  1.00 20.00     0.018 C 
ENDROOT
BRANCH   4   8
HETATM    8  C2  UNL     1     -32.762   7.875   4.552  1.00 20.00     0.001 C 
HETATM    9  C1  UNL     1     -33.559   8.425   5.473  1.00 20.00     0.010 C 
ENDBRANCH   4   8
BRANCH   4  10
HETATM   10  O10 UNL     1     -34.027   8.453   2.629  1.00 20.00    -0.385 OA
HETATM   11  H26 UNL     1     -33.615   9.286   2.898  1.00 20.00     0.211 HD
ENDBRANCH   4  10
TORSDOF 2
ENDMDL
MODEL 9
REMARK VINA RESULT:       3.1      2.222      4.017
REMARK  2 active torsions:
REMARK  status: ('A' for Active; 'I' for Inactive)
REMARK    1  A    between atoms: C2_2  and  C6_6 
REMARK    2  A    between atoms: C6_6  and  O10_10 
ROOT
HETATM    1  C3  UNL     1     -35.898   6.967   3.557  1.00 20.00     0.004 C 
HETATM    2  C4  UNL     1     -35.279   5.600   3.873  1.00 20.00     0.043 C 
HETATM    3  C5  UNL     1     -34.767   7.851   3.032  1.00 20.00     0.012 C 
HETATM    4  C6  UNL     1     -33.843   5.661   3.331  1.00 20.00     0.082 C 
HETATM    5  C7  UNL     1     -33.463   7.164   3.485  1.00 20.00    -0.013 C 
HETATM    6  C8  UNL     1     -32.287   7.599   2.599  1.00 20.00     0.018 C 
HETATM    7  C9  UNL     1     -33.146   7.569   4.941  1.00 20.00     0.018 C 
ENDROOT
BRANCH   4   8
HETATM    8  C2  UNL     1     -32.942   4.674   4.004  1.00 20.00     0.001 C 
HETATM    9  C1  UNL     1     -33.344   3.483   4.457  1.00 20.00     0.010 C 
ENDBRANCH   4   8
BRANCH   4  10
HETATM   10  O10 UNL     1     -33.923   5.317   1.940  1.00 20.00    -0.385 OA
HETATM   11  H26 UNL     1     -34.385   4.468   1.900  1.00 20.00     0.211 HD
ENDBRANCH   4  10
TORSDOF 2
ENDMDL
