MODEL 1
REMARK VINA RESULT:      -1.1      0.000      0.000
REMARK  3 active torsions:
REMARK  status: ('A' for Active; 'I' for Inactive)
REMARK    1  A    between atoms: C1_1  and  C6_6 
REMARK    2  A    between atoms: C2_2  and  C7_7 
REMARK    3  A    between atoms: C5_5  and  C6_6 
ROOT
HETATM    1  C3  UNL     1     -35.352   6.290   4.215  1.00 20.00     0.124 A 
HETATM    2  C4  UNL     1     -35.241   4.975   4.619  1.00 20.00     0.070 A 
HETATM    3  C5  UNL     1     -33.639   5.708   2.976  1.00 20.00     0.085 A 
HETATM    4  N8  UNL     1     -34.435   6.712   3.274  1.00 20.00    -0.257 NA
HETATM    5  S9  UNL     1     -33.939   4.228   3.791  1.00 20.00    -0.084 SA
ENDROOT
BRANCH   3   6
HETATM    6  C6  UNL     1     -32.508   5.782   1.983  1.00 20.00     0.161 C 
BRANCH   6   7
HETATM    7  C1  UNL     1     -32.272   7.156   1.524  1.00 20.00    -0.099 C 
HETATM    8  C2  UNL     1     -32.081   8.281   1.147  1.00 20.00    -0.091 C 
BRANCH   8   9
HETATM    9  C7  UNL     1     -31.851   9.648   0.689  1.00 20.00     0.208 C 
HETATM   10 CL10 UNL     1     -32.953   9.996  -0.657  1.00 20.00    -0.117 Cl
ENDBRANCH   8   9
ENDBRANCH   6   7
ENDBRANCH   3   6
TORSDOF 3
ENDMDL
MODEL 2
REMARK VINA RESULT:      -0.9      1.186      1.322
REMARK  3 active torsions:
REMARK  status: ('A' for Active; 'I' for Inactive)
REMARK    1  A    between atoms: C1_1  and  C6_6 
REMARK    2  A    between atoms: C2_2  and  C7_7 
REMARK    3  A    between atoms: C5_5  and  C6_6 
ROOT
HETATM    1  C3  UNL     1     -34.802   4.640   4.446  1.00 20.00     0.124 A 
HETATM    2  C4  UNL     1     -35.308   5.921   4.515  1.00 20.00     0.070 A 
HETATM    3  C5  UNL     1     -33.516   5.584   2.941  1.00 20.00     0.085 A 
HETATM    4  N8  UNL     1     -33.775   4.444   3.544  1.00 20.00    -0.257 NA
HETATM    5  S9  UNL     1     -34.470   6.930   3.411  1.00 20.00    -0.084 SA
ENDROOT
BRANCH   3   6
HETATM    6  C6  UNL     1     -32.455   5.768   1.888  1.00 20.00     0.161 C 
BRANCH   6   7
HETATM    7  C1  UNL     1     -32.298   7.176   1.507  1.00 20.00    -0.099 C 
HETATM    8  C2  UNL     1     -32.174   8.330   1.194  1.00 20.00    -0.091 C 
BRANCH   8   9
HETATM    9  C7  UNL     1     -32.024   9.732   0.812  1.00 20.00     0.208 C 
HETATM   10 CL10 UNL     1     -32.891  10.008  -0.710  1.00 20.00    -0.117 Cl
ENDBRANCH   8   9
ENDBRANCH   6   7
ENDBRANCH   3   6
TORSDOF 3
ENDMDL
MODEL 3
REMARK VINA RESULT:      -0.2      3.672      5.408
REMARK  3 active torsions:
REMARK  status: ('A' for Active; 'I' for Inactive)
REMARK    1  A    between atoms: C1_1  and  C6_6 
REMARK    2  A    between atoms: C2_2  and  C7_7 
REMARK    3  A    between atoms: C5_5  and  C6_6 
ROOT
HETATM    1  C3  UNL     1     -32.088   8.515   2.177  1.00 20.00     0.124 A 
HETATM    2  C4  UNL     1     -31.689   7.555   1.269  1.00 20.00     0.070 A 
HETATM    3  C5  UNL     1     -33.501   6.931   2.728  1.00 20.00     0.085 A 
HETATM    4  N8  UNL     1     -33.127   8.159   3.014  1.00 20.00    -0.257 NA
HETATM    5  S9  UNL     1     -32.646   6.146   1.465  1.00 20.00    -0.084 SA
ENDROOT
BRANCH   3   6
HETATM    6  C6  UNL     1     -34.610   6.193   3.432  1.00 20.00     0.161 C 
BRANCH   6   7
HETATM    7  C1  UNL     1     -34.159   4.903   3.966  1.00 20.00    -0.099 C 
HETATM    8  C2  UNL     1     -33.785   3.848   4.403  1.00 20.00    -0.091 C 
BRANCH   8   9
HETATM    9  C7  UNL     1     -33.330   2.566   4.934  1.00 20.00     0.208 C 
HETATM   10 CL10 UNL     1     -32.385   2.857   6.406  1.00 20.00    -0.117 Cl
ENDBRANCH   8   9
ENDBRANCH   6   7
ENDBRANCH   3   6
TORSDOF 3
ENDMDL
MODEL 4
REMARK VINA RESULT:       0.2      3.597      5.398
REMARK  3 active torsions:
REMARK  status: ('A' for Active; 'I' for Inactive)
REMARK    1  A    between atoms: C1_1  and  C6_6 
REMARK    2  A    between atoms: C2_2  and  C7_7 
REMARK    3  A    between atoms: C5_5  and  C6_6 
ROOT
HETATM    1  C3  UNL     1     -32.875  10.775   0.457  1.00 20.00     0.124 A 
HETATM    2  C4  UNL     1     -32.321  10.315  -0.720  1.00 20.00     0.070 A 
HETATM    3  C5  UNL     1     -32.152   8.831   1.170  1.00 20.00     0.085 A 
HETATM    4  N8  UNL     1     -32.780   9.926   1.541  1.00 20.00    -0.257 NA
HETATM    5  S9  UNL     1     -31.649   8.758  -0.469  1.00 20.00    -0.084 SA
ENDROOT
BRANCH   3   6
HETATM    6  C6  UNL     1     -31.857   7.668   2.081  1.00 20.00     0.161 C 
BRANCH   6   7
HETATM    7  C1  UNL     1     -33.060   7.198   2.778  1.00 20.00    -0.099 C 
HETATM    8  C2  UNL     1     -34.044   6.814   3.352  1.00 20.00    -0.091 C 
BRANCH   8   9
HETATM    9  C7  UNL     1     -35.238   6.346   4.050  1.00 20.00     0.208 C 
HETATM   10 CL10 UNL     1     -34.997   4.656   4.531  1.00 20.00    -0.117 Cl
ENDBRANCH   8   9
ENDBRANCH   6   7
ENDBRANCH   3   6
TORSDOF 3
ENDMDL
MODEL 5
REMARK VINA RESULT:       0.3      3.703      5.477
REMARK  3 active torsions:
REMARK  status: ('A' for Active; 'I' for Inactive)
REMARK    1  A    between atoms: C1_1  and  C6_6 
REMARK    2  A    between atoms: C2_2  and  C7_7 
REMARK    3  A    between atoms: C5_5  and  C6_6 
ROOT
HETATM    1  C3  UNL     1     -31.936   9.156  -0.723  1.00 20.00     0.124 A 
HETATM    2  C4  UNL     1     -32.659  10.288  -0.407  1.00 20.00     0.070 A 
HETATM    3  C5  UNL     1     -32.098   8.851   1.442  1.00 20.00     0.085 A 
HETATM    4  N8  UNL     1     -31.613   8.331   0.336  1.00 20.00    -0.257 NA
HETATM    5  S9  UNL     1     -32.953  10.330   1.281  1.00 20.00    -0.084 SA
ENDROOT
BRANCH   3   6
HETATM    6  C6  UNL     1     -31.949   8.235   2.809  1.00 20.00     0.161 C 
BRANCH   6   7
HETATM    7  C1  UNL     1     -33.166   7.529   3.228  1.00 20.00    -0.099 C 
HETATM    8  C2  UNL     1     -34.161   6.951   3.575  1.00 20.00    -0.091 C 
BRANCH   8   9
HETATM    9  C7  UNL     1     -35.369   6.249   3.998  1.00 20.00     0.208 C 
HETATM   10 CL10 UNL     1     -34.934   4.602   4.490  1.00 20.00    -0.117 Cl
ENDBRANCH   8   9
ENDBRANCH   6   7
ENDBRANCH   3   6
TORSDOF 3
ENDMDL
MODEL 6
REMARK VINA RESULT:       0.3      3.789      5.489
REMARK  3 active torsions:
REMARK  status: ('A' for Active; 'I' for Inactive)
REMARK    1  A    between atoms: C1_1  and  C6_6 
REMARK    2  A    between atoms: C2_2  and  C7_7 
REMARK    3  A    between atoms: C5_5  and  C6_6 
ROOT
HETATM    1  C3  UNL     1     -31.964   7.601   1.369  1.00 20.00     0.124 A 
HETATM    2  C4  UNL     1     -31.827   8.587   2.325  1.00 20.00     0.070 A 
HETATM    3  C5  UNL     1     -33.525   6.935   2.758  1.00 20.00     0.085 A 
HETATM    4  N8  UNL     1     -32.936   6.653   1.616  1.00 20.00    -0.257 NA
HETATM    5  S9  UNL     1     -32.958   8.326   3.586  1.00 20.00    -0.084 SA
ENDROOT
BRANCH   3   6
HETATM    6  C6  UNL     1     -34.641   6.124   3.364  1.00 20.00     0.161 C 
BRANCH   6   7
HETATM    7  C1  UNL     1     -34.158   4.856   3.922  1.00 20.00    -0.099 C 
HETATM    8  C2  UNL     1     -33.758   3.819   4.380  1.00 20.00    -0.091 C 
BRANCH   8   9
HETATM    9  C7  UNL     1     -33.271   2.559   4.935  1.00 20.00     0.208 C 
HETATM   10 CL10 UNL     1     -32.386   2.897   6.435  1.00 20.00    -0.117 Cl
ENDBRANCH   8   9
ENDBRANCH   6   7
ENDBRANCH   3   6
TORSDOF 3
ENDMDL
MODEL 7
REMARK VINA RESULT:       0.8      1.380      1.597
REMARK  3 active torsions:
REMARK  status: ('A' for Active; 'I' for Inactive)
REMARK    1  A    between atoms: C1_1  and  C6_6 
REMARK    2  A    between atoms: C2_2  and  C7_7 
REMARK    3  A    between atoms: C5_5  and  C6_6 
ROOT
HETATM    1  C3  UNL     1     -35.257   4.768   4.428  1.00 20.00     0.124 A 
HETATM    2  C4  UNL     1     -34.183   4.166   3.805  1.00 20.00     0.070 A 
HETATM    3  C5  UNL     1     -34.119   6.571   3.917  1.00 20.00     0.085 A 
HETATM    4  N8  UNL     1     -35.222   6.146   4.494  1.00 20.00    -0.257 NA
HETATM    5  S9  UNL     1     -33.080   5.366   3.274  1.00 20.00    -0.084 SA
ENDROOT
BRANCH   3   6
HETATM    6  C6  UNL     1     -33.728   8.021   3.791  1.00 20.00     0.161 C 
BRANCH   6   7
HETATM    7  C1  UNL     1     -32.977   8.281   2.558  1.00 20.00    -0.099 C 
HETATM    8  C2  UNL     1     -32.363   8.498   1.547  1.00 20.00    -0.091 C 
BRANCH   8   9
HETATM    9  C7  UNL     1     -31.617   8.762   0.320  1.00 20.00     0.208 C 
HETATM   10 CL10 UNL     1     -32.471  10.005  -0.614  1.00 20.00    -0.117 Cl
ENDBRANCH   8   9
ENDBRANCH   6   7
ENDBRANCH   3   6
TORSDOF 3
ENDMDL
MODEL 8
REMARK VINA RESULT:       1.2      1.622      2.004
REMARK  3 active torsions:
REMARK  status: ('A' for Active; 'I' for Inactive)
REMARK    1  A    between atoms: C1_1  and  C6_6 
REMARK    2  A    between atoms: C2_2  and  C7_7 
REMARK    3  A    between atoms: C5_5  and  C6_6 
ROOT
HETATM    1  C3  UNL     1     -34.305   3.462   4.729  1.00 20.00     0.124 A 
HETATM    2  C4  UNL     1     -33.198   3.278   3.927  1.00 20.00     0.070 A 
HETATM    3  C5  UNL     1     -34.191   5.471   3.857  1.00 20.00     0.085 A 
HETATM    4  N8  UNL     1     -34.876   4.719   4.690  1.00 20.00    -0.257 NA
HETATM    5  S9  UNL     1     -32.850   4.731   3.085  1.00 20.00    -0.084 SA
ENDROOT
BRANCH   3   6
HETATM    6  C6  UNL     1     -34.512   6.911   3.549  1.00 20.00     0.161 C 
BRANCH   6   7
HETATM    7  C1  UNL     1     -33.492   7.530   2.695  1.00 20.00    -0.099 C 
HETATM    8  C2  UNL     1     -32.658   8.035   1.993  1.00 20.00    -0.091 C 
BRANCH   8   9
HETATM    9  C7  UNL     1     -31.645   8.648   1.138  1.00 20.00     0.208 C 
HETATM   10 CL10 UNL     1     -32.417   9.885   0.128  1.00 20.00    -0.117 Cl
ENDBRANCH   8   9
ENDBRANCH   6   7
ENDBRANCH   3   6
TORSDOF 3
ENDMDL
MODEL 9
REMARK VINA RESULT:       1.3      1.539      1.725
REMARK  3 active torsions:
REMARK  status: ('A' for Active; 'I' for Inactive)
REMARK    1  A    between atoms: C1_1  and  C6_6 
REMARK    2  A    between atoms: C2_2  and  C7_7 
REMARK    3  A    between atoms: C5_5  and  C6_6 
ROOT
HETATM    1  C3  UNL     1     -33.707   3.613   4.759  1.00 20.00     0.124 A 
HETATM    2  C4  UNL     1     -34.550   4.680   4.996  1.00 20.00     0.070 A 
HETATM    3  C5  UNL     1     -33.325   4.750   2.923  1.00 20.00     0.085 A 
HETATM    4  N8  UNL     1     -33.005   3.651   3.571  1.00 20.00    -0.257 NA
HETATM    5  S9  UNL     1     -34.465   5.781   3.685  1.00 20.00    -0.084 SA
ENDROOT
BRANCH   3   6
HETATM    6  C6  UNL     1     -32.760   5.143   1.583  1.00 20.00     0.161 C 
BRANCH   6   7
HETATM    7  C1  UNL     1     -32.327   6.545   1.561  1.00 20.00    -0.099 C 
HETATM    8  C2  UNL     1     -31.971   7.693   1.539  1.00 20.00    -0.091 C 
BRANCH   8   9
HETATM    9  C7  UNL     1     -31.538   9.087   1.511  1.00 20.00     0.208 C 
HETATM   10 CL10 UNL     1     -32.404   9.932   0.213  1.00 20.00    -0.117 Cl
ENDBRANCH   8   9
ENDBRANCH   6   7
ENDBRANCH   3   6
TORSDOF 3
ENDMDL
