MODEL 1
REMARK VINA RESULT:      -2.4      0.000      0.000
REMARK  3 active torsions:
REMARK  status: ('A' for Active; 'I' for Inactive)
REMARK    1  A    between atoms: C1_1  and  C2_2 
REMARK    2  A    between atoms: C1_1  and  C3_3 
REMARK    3  A    between atoms: C3_3  and  O4_4 
ROOT
HETATM    1  C3  UNL     1     -34.466   4.492   3.868  1.00 20.00     0.216 C 
HETATM    2 CL6  UNL     1     -33.367   3.372   4.703  1.00 20.00    -0.096 Cl
ENDROOT
BRANCH   1   3
HETATM    3  C1  UNL     1     -33.785   5.810   3.521  1.00 20.00     0.079 C 
BRANCH   3   4
HETATM    4  C2  UNL     1     -34.613   7.039   3.855  1.00 20.00     0.226 C 
HETATM    5  F5  UNL     1     -33.876   7.847   4.665  1.00 20.00    -0.255 F 
ENDBRANCH   3   4
ENDBRANCH   1   3
BRANCH   1   6
HETATM    6  O4  UNL     1     -35.569   4.759   4.725  1.00 20.00    -0.380 OA
HETATM    7  H12 UNL     1     -35.200   5.113   5.551  1.00 20.00     0.211 HD
ENDBRANCH   1   6
TORSDOF 3
ENDMDL
MODEL 2
REMARK VINA RESULT:      -2.4      3.292      3.447
REMARK  3 active torsions:
REMARK  status: ('A' for Active; 'I' for Inactive)
REMARK    1  A    between atoms: C1_1  and  C2_2 
REMARK    2  A    between atoms: C1_1  and  C3_3 
REMARK    3  A    between atoms: C3_3  and  O4_4 
ROOT
HETATM    1  C3  UNL     1     -32.972   6.419   1.776  1.00 20.00     0.216 C 
HETATM    2 CL6  UNL     1     -32.116   7.962   1.993  1.00 20.00    -0.096 Cl
ENDROOT
BRANCH   1   3
HETATM    3  C1  UNL     1     -33.579   5.915   3.080  1.00 20.00     0.079 C 
BRANCH   3   4
HETATM    4  C2  UNL     1     -34.492   6.919   3.763  1.00 20.00     0.226 C 
HETATM    5  F5  UNL     1     -35.685   6.313   4.014  1.00 20.00    -0.255 F 
ENDBRANCH   3   4
ENDBRANCH   1   3
BRANCH   1   6
HETATM    6  O4  UNL     1     -32.042   5.454   1.302  1.00 20.00    -0.380 OA
HETATM    7  H12 UNL     1     -31.843   4.868   2.051  1.00 20.00     0.211 HD
ENDBRANCH   1   6
TORSDOF 3
ENDMDL
MODEL 3
REMARK VINA RESULT:      -2.4      3.278      3.530
REMARK  3 active torsions:
REMARK  status: ('A' for Active; 'I' for Inactive)
REMARK    1  A    between atoms: C1_1  and  C2_2 
REMARK    2  A    between atoms: C1_1  and  C3_3 
REMARK    3  A    between atoms: C3_3  and  O4_4 
ROOT
HETATM    1  C3  UNL     1     -32.502   7.285   2.440  1.00 20.00     0.216 C 
HETATM    2 CL6  UNL     1     -32.737   5.866   1.396  1.00 20.00    -0.096 Cl
ENDROOT
BRANCH   1   3
HETATM    3  C1  UNL     1     -33.688   7.512   3.371  1.00 20.00     0.079 C 
BRANCH   3   4
HETATM    4  C2  UNL     1     -34.454   6.246   3.713  1.00 20.00     0.226 C 
HETATM    5  F5  UNL     1     -35.786   6.527   3.680  1.00 20.00    -0.255 F 
ENDBRANCH   3   4
ENDBRANCH   1   3
BRANCH   1   6
HETATM    6  O4  UNL     1     -32.346   8.430   1.612  1.00 20.00    -0.380 OA
HETATM    7  H12 UNL     1     -32.824   9.156   2.047  1.00 20.00     0.211 HD
ENDBRANCH   1   6
TORSDOF 3
ENDMDL
MODEL 4
REMARK VINA RESULT:      -2.4      3.161      3.347
REMARK  3 active torsions:
REMARK  status: ('A' for Active; 'I' for Inactive)
REMARK    1  A    between atoms: C1_1  and  C2_2 
REMARK    2  A    between atoms: C1_1  and  C3_3 
REMARK    3  A    between atoms: C3_3  and  O4_4 
ROOT
HETATM    1  C3  UNL     1     -33.378   7.047   2.260  1.00 20.00     0.216 C 
HETATM    2 CL6  UNL     1     -31.937   8.038   1.942  1.00 20.00    -0.096 Cl
ENDROOT
BRANCH   1   3
HETATM    3  C1  UNL     1     -33.900   7.236   3.679  1.00 20.00     0.079 C 
BRANCH   3   4
HETATM    4  C2  UNL     1     -34.986   6.250   4.073  1.00 20.00     0.226 C 
HETATM    5  F5  UNL     1     -36.121   6.565   3.390  1.00 20.00    -0.255 F 
ENDBRANCH   3   4
ENDBRANCH   1   3
BRANCH   1   6
HETATM    6  O4  UNL     1     -33.030   5.680   2.079  1.00 20.00    -0.380 OA
HETATM    7  H12 UNL     1     -32.090   5.662   1.833  1.00 20.00     0.211 HD
ENDBRANCH   1   6
TORSDOF 3
ENDMDL
MODEL 5
REMARK VINA RESULT:      -2.2      2.961      3.188
REMARK  3 active torsions:
REMARK  status: ('A' for Active; 'I' for Inactive)
REMARK    1  A    between atoms: C1_1  and  C2_2 
REMARK    2  A    between atoms: C1_1  and  C3_3 
REMARK    3  A    between atoms: C3_3  and  O4_4 
ROOT
HETATM    1  C3  UNL     1     -34.291   7.323   3.642  1.00 20.00     0.216 C 
HETATM    2 CL6  UNL     1     -35.374   6.021   4.182  1.00 20.00    -0.096 Cl
ENDROOT
BRANCH   1   3
HETATM    3  C1  UNL     1     -33.229   6.818   2.672  1.00 20.00     0.079 C 
BRANCH   3   4
HETATM    4  C2  UNL     1     -32.339   7.912   2.108  1.00 20.00     0.226 C 
HETATM    5  F5  UNL     1     -31.281   7.326   1.483  1.00 20.00    -0.255 F 
ENDBRANCH   3   4
ENDBRANCH   1   3
BRANCH   1   6
HETATM    6  O4  UNL     1     -33.644   7.870   4.784  1.00 20.00    -0.380 OA
HETATM    7  H12 UNL     1     -32.843   7.339   4.931  1.00 20.00     0.211 HD
ENDBRANCH   1   6
TORSDOF 3
ENDMDL
MODEL 6
REMARK VINA RESULT:      -2.2      3.009      3.379
REMARK  3 active torsions:
REMARK  status: ('A' for Active; 'I' for Inactive)
REMARK    1  A    between atoms: C1_1  and  C2_2 
REMARK    2  A    between atoms: C1_1  and  C3_3 
REMARK    3  A    between atoms: C3_3  and  O4_4 
ROOT
HETATM    1  C3  UNL     1     -34.492   6.226   3.446  1.00 20.00     0.216 C 
HETATM    2 CL6  UNL     1     -34.053   7.657   4.407  1.00 20.00    -0.096 Cl
ENDROOT
BRANCH   1   3
HETATM    3  C1  UNL     1     -34.687   4.991   4.317  1.00 20.00     0.079 C 
BRANCH   3   4
HETATM    4  C2  UNL     1     -33.771   3.834   3.959  1.00 20.00     0.226 C 
HETATM    5  F5  UNL     1     -33.483   3.145   5.098  1.00 20.00    -0.255 F 
ENDBRANCH   3   4
ENDBRANCH   1   3
BRANCH   1   6
HETATM    6  O4  UNL     1     -33.445   5.971   2.519  1.00 20.00    -0.380 OA
HETATM    7  H12 UNL     1     -32.670   5.702   3.041  1.00 20.00     0.211 HD
ENDBRANCH   1   6
TORSDOF 3
ENDMDL
MODEL 7
REMARK VINA RESULT:      -2.1      2.667      3.208
REMARK  3 active torsions:
REMARK  status: ('A' for Active; 'I' for Inactive)
REMARK    1  A    between atoms: C1_1  and  C2_2 
REMARK    2  A    between atoms: C1_1  and  C3_3 
REMARK    3  A    between atoms: C3_3  and  O4_4 
ROOT
HETATM    1  C3  UNL     1     -34.325   5.013   4.446  1.00 20.00     0.216 C 
HETATM    2 CL6  UNL     1     -34.159   6.481   3.456  1.00 20.00    -0.096 Cl
ENDROOT
BRANCH   1   3
HETATM    3  C1  UNL     1     -33.732   3.790   3.757  1.00 20.00     0.079 C 
BRANCH   3   4
HETATM    4  C2  UNL     1     -33.275   2.704   4.715  1.00 20.00     0.226 C 
HETATM    5  F5  UNL     1     -32.498   3.277   5.675  1.00 20.00    -0.255 F 
ENDBRANCH   3   4
ENDBRANCH   1   3
BRANCH   1   6
HETATM    6  O4  UNL     1     -35.709   4.783   4.676  1.00 20.00    -0.380 OA
HETATM    7  H12 UNL     1     -36.098   5.642   4.912  1.00 20.00     0.211 HD
ENDBRANCH   1   6
TORSDOF 3
ENDMDL
MODEL 8
REMARK VINA RESULT:      -2.1      4.843      5.029
REMARK  3 active torsions:
REMARK  status: ('A' for Active; 'I' for Inactive)
REMARK    1  A    between atoms: C1_1  and  C2_2 
REMARK    2  A    between atoms: C1_1  and  C3_3 
REMARK    3  A    between atoms: C3_3  and  O4_4 
ROOT
HETATM    1  C3  UNL     1     -32.474   7.982   1.781  1.00 20.00     0.216 C 
HETATM    2 CL6  UNL     1     -32.437   6.227   1.500  1.00 20.00    -0.096 Cl
ENDROOT
BRANCH   1   3
HETATM    3  C1  UNL     1     -31.810   8.756   0.648  1.00 20.00     0.079 C 
BRANCH   3   4
HETATM    4  C2  UNL     1     -32.473  10.088   0.341  1.00 20.00     0.226 C 
HETATM    5  F5  UNL     1     -33.147   9.972  -0.836  1.00 20.00    -0.255 F 
ENDBRANCH   3   4
ENDBRANCH   1   3
BRANCH   1   6
HETATM    6  O4  UNL     1     -31.779   8.256   2.991  1.00 20.00    -0.380 OA
HETATM    7  H12 UNL     1     -31.982   9.178   3.225  1.00 20.00     0.211 HD
ENDBRANCH   1   6
TORSDOF 3
ENDMDL
MODEL 9
REMARK VINA RESULT:      -2.1      4.131      4.307
REMARK  3 active torsions:
REMARK  status: ('A' for Active; 'I' for Inactive)
REMARK    1  A    between atoms: C1_1  and  C2_2 
REMARK    2  A    between atoms: C1_1  and  C3_3 
REMARK    3  A    between atoms: C3_3  and  O4_4 
ROOT
HETATM    1  C3  UNL     1     -32.882   7.379   1.804  1.00 20.00     0.216 C 
HETATM    2 CL6  UNL     1     -32.222   5.757   1.498  1.00 20.00    -0.096 Cl
ENDROOT
BRANCH   1   3
HETATM    3  C1  UNL     1     -31.888   8.478   1.448  1.00 20.00     0.079 C 
BRANCH   3   4
HETATM    4  C2  UNL     1     -32.330   9.358   0.291  1.00 20.00     0.226 C 
HETATM    5  F5  UNL     1     -32.445  10.637   0.743  1.00 20.00    -0.255 F 
ENDBRANCH   3   4
ENDBRANCH   1   3
BRANCH   1   6
HETATM    6  O4  UNL     1     -33.200   7.480   3.186  1.00 20.00    -0.380 OA
HETATM    7  H12 UNL     1     -34.092   7.109   3.294  1.00 20.00     0.211 HD
ENDBRANCH   1   6
TORSDOF 3
ENDMDL
