MODEL 1
REMARK VINA RESULT:      -0.1      0.000      0.000
REMARK  0 active torsions:
REMARK  status: ('A' for Active; 'I' for Inactive)
ROOT
HETATM    1  C1  UNL     1     -32.573   8.131   2.881  1.00 20.00     0.035 C 
HETATM    2  C2  UNL     1     -33.083   7.225   4.015  1.00 20.00     0.014 C 
HETATM    3  C3  UNL     1     -32.612   7.267   1.659  1.00 20.00     0.152 A 
HETATM    4  C4  UNL     1     -33.498   6.102   1.922  1.00 20.00     0.158 A 
HETATM    5  C5  UNL     1     -34.045   6.216   3.328  1.00 20.00    -0.019 C 
HETATM    6  C6  UNL     1     -35.474   6.776   3.290  1.00 20.00     0.017 C 
HETATM    7  C7  UNL     1     -34.035   4.863   4.040  1.00 20.00     0.017 C 
HETATM    8  O8  UNL     1     -32.075   5.948   1.803  1.00 20.00    -0.375 OA
ENDROOT
TORSDOF 0
ENDMDL
MODEL 2
REMARK VINA RESULT:       0.1      1.219      3.007
REMARK  0 active torsions:
REMARK  status: ('A' for Active; 'I' for Inactive)
ROOT
HETATM    1  C1  UNL     1     -33.817   6.519   3.339  1.00 20.00     0.035 C 
HETATM    2  C2  UNL     1     -33.710   7.941   2.763  1.00 20.00     0.014 C 
HETATM    3  C3  UNL     1     -33.008   5.671   2.408  1.00 20.00     0.152 A 
HETATM    4  C4  UNL     1     -32.111   6.550   1.614  1.00 20.00     0.158 A 
HETATM    5  C5  UNL     1     -32.335   7.985   2.040  1.00 20.00    -0.019 C 
HETATM    6  C6  UNL     1     -31.229   8.421   3.011  1.00 20.00     0.017 C 
HETATM    7  C7  UNL     1     -32.368   8.924   0.834  1.00 20.00     0.017 C 
HETATM    8  O8  UNL     1     -33.230   5.883   1.010  1.00 20.00    -0.375 OA
ENDROOT
TORSDOF 0
ENDMDL
MODEL 3
REMARK VINA RESULT:       0.3      1.599      2.983
REMARK  0 active torsions:
REMARK  status: ('A' for Active; 'I' for Inactive)
ROOT
HETATM    1  C1  UNL     1     -34.347   5.035   3.905  1.00 20.00     0.035 C 
HETATM    2  C2  UNL     1     -32.987   5.227   3.212  1.00 20.00     0.014 C 
HETATM    3  C3  UNL     1     -34.989   6.386   3.862  1.00 20.00     0.152 A 
HETATM    4  C4  UNL     1     -34.303   7.211   2.834  1.00 20.00     0.158 A 
HETATM    5  C5  UNL     1     -33.207   6.383   2.198  1.00 20.00    -0.019 C 
HETATM    6  C6  UNL     1     -33.686   5.831   0.847  1.00 20.00     0.017 C 
HETATM    7  C7  UNL     1     -31.932   7.204   2.001  1.00 20.00     0.017 C 
HETATM    8  O8  UNL     1     -34.158   7.491   4.235  1.00 20.00    -0.375 OA
ENDROOT
TORSDOF 0
ENDMDL
MODEL 4
REMARK VINA RESULT:       0.4      1.459      2.610
REMARK  0 active torsions:
REMARK  status: ('A' for Active; 'I' for Inactive)
ROOT
HETATM    1  C1  UNL     1     -34.713   6.238   3.839  1.00 20.00     0.035 C 
HETATM    2  C2  UNL     1     -33.747   5.266   3.138  1.00 20.00     0.014 C 
HETATM    3  C3  UNL     1     -34.105   7.590   3.634  1.00 20.00     0.152 A 
HETATM    4  C4  UNL     1     -33.121   7.511   2.523  1.00 20.00     0.158 A 
HETATM    5  C5  UNL     1     -33.096   6.093   1.995  1.00 20.00    -0.019 C 
HETATM    6  C6  UNL     1     -33.937   5.996   0.714  1.00 20.00     0.017 C 
HETATM    7  C7  UNL     1     -31.667   5.629   1.715  1.00 20.00     0.017 C 
HETATM    8  O8  UNL     1     -32.699   7.692   3.883  1.00 20.00    -0.375 OA
ENDROOT
TORSDOF 0
ENDMDL
MODEL 5
REMARK VINA RESULT:       0.4      1.370      2.402
REMARK  0 active torsions:
REMARK  status: ('A' for Active; 'I' for Inactive)
ROOT
HETATM    1  C1  UNL     1     -33.964   7.185   3.399  1.00 20.00     0.035 C 
HETATM    2  C2  UNL     1     -33.400   5.810   2.998  1.00 20.00     0.014 C 
HETATM    3  C3  UNL     1     -33.090   8.174   2.694  1.00 20.00     0.152 A 
HETATM    4  C4  UNL     1     -32.362   7.479   1.600  1.00 20.00     0.158 A 
HETATM    5  C5  UNL     1     -32.775   6.022   1.591  1.00 20.00    -0.019 C 
HETATM    6  C6  UNL     1     -33.822   5.782   0.495  1.00 20.00     0.017 C 
HETATM    7  C7  UNL     1     -31.572   5.105   1.371  1.00 20.00     0.017 C 
HETATM    8  O8  UNL     1     -31.680   7.940   2.776  1.00 20.00    -0.375 OA
ENDROOT
TORSDOF 0
ENDMDL
MODEL 6
REMARK VINA RESULT:       0.4      1.539      3.152
REMARK  0 active torsions:
REMARK  status: ('A' for Active; 'I' for Inactive)
ROOT
HETATM    1  C1  UNL     1     -33.021   5.739   1.487  1.00 20.00     0.035 C 
HETATM    2  C2  UNL     1     -31.730   6.559   1.657  1.00 20.00     0.014 C 
HETATM    3  C3  UNL     1     -33.990   6.354   2.447  1.00 20.00     0.152 A 
HETATM    4  C4  UNL     1     -33.500   7.705   2.826  1.00 20.00     0.158 A 
HETATM    5  C5  UNL     1     -32.201   7.973   2.097  1.00 20.00    -0.019 C 
HETATM    6  C6  UNL     1     -32.462   8.859   0.871  1.00 20.00     0.017 C 
HETATM    7  C7  UNL     1     -31.176   8.642   3.013  1.00 20.00     0.017 C 
HETATM    8  O8  UNL     1     -33.492   6.617   3.763  1.00 20.00    -0.375 OA
ENDROOT
TORSDOF 0
ENDMDL
MODEL 7
REMARK VINA RESULT:       0.6      1.497      2.738
REMARK  0 active torsions:
REMARK  status: ('A' for Active; 'I' for Inactive)
ROOT
HETATM    1  C1  UNL     1     -32.267   8.186   2.884  1.00 20.00     0.035 C 
HETATM    2  C2  UNL     1     -32.421   7.642   1.453  1.00 20.00     0.014 C 
HETATM    3  C3  UNL     1     -33.213   7.367   3.705  1.00 20.00     0.152 A 
HETATM    4  C4  UNL     1     -33.563   6.136   2.950  1.00 20.00     0.158 A 
HETATM    5  C5  UNL     1     -32.829   6.153   1.626  1.00 20.00    -0.019 C 
HETATM    6  C6  UNL     1     -31.583   5.259   1.707  1.00 20.00     0.017 C 
HETATM    7  C7  UNL     1     -33.731   5.685   0.484  1.00 20.00     0.017 C 
HETATM    8  O8  UNL     1     -34.524   7.182   3.158  1.00 20.00    -0.375 OA
ENDROOT
TORSDOF 0
ENDMDL
MODEL 8
REMARK VINA RESULT:       0.6      1.119      2.195
REMARK  0 active torsions:
REMARK  status: ('A' for Active; 'I' for Inactive)
ROOT
HETATM    1  C1  UNL     1     -32.432   6.205   1.206  1.00 20.00     0.035 C 
HETATM    2  C2  UNL     1     -33.864   5.832   1.627  1.00 20.00     0.014 C 
HETATM    3  C3  UNL     1     -32.018   7.269   2.173  1.00 20.00     0.152 A 
HETATM    4  C4  UNL     1     -32.919   7.224   3.354  1.00 20.00     0.158 A 
HETATM    5  C5  UNL     1     -33.925   6.111   3.154  1.00 20.00    -0.019 C 
HETATM    6  C6  UNL     1     -33.495   4.868   3.946  1.00 20.00     0.017 C 
HETATM    7  C7  UNL     1     -35.326   6.543   3.587  1.00 20.00     0.017 C 
HETATM    8  O8  UNL     1     -32.974   8.308   2.414  1.00 20.00    -0.375 OA
ENDROOT
TORSDOF 0
ENDMDL
MODEL 9
REMARK VINA RESULT:       0.8      1.198      2.861
REMARK  0 active torsions:
REMARK  status: ('A' for Active; 'I' for Inactive)
ROOT
HETATM    1  C1  UNL     1     -35.535   5.965   4.118  1.00 20.00     0.035 C 
HETATM    2  C2  UNL     1     -35.074   7.225   3.365  1.00 20.00     0.014 C 
HETATM    3  C3  UNL     1     -34.375   5.023   4.028  1.00 20.00     0.152 A 
HETATM    4  C4  UNL     1     -33.156   5.794   3.668  1.00 20.00     0.158 A 
HETATM    5  C5  UNL     1     -33.529   7.255   3.531  1.00 20.00    -0.019 C 
HETATM    6  C6  UNL     1     -33.139   8.016   4.805  1.00 20.00     0.017 C 
HETATM    7  C7  UNL     1     -32.850   7.890   2.317  1.00 20.00     0.017 C 
HETATM    8  O8  UNL     1     -33.770   4.890   2.737  1.00 20.00    -0.375 OA
ENDROOT
TORSDOF 0
ENDMDL
