MODEL 1
REMARK VINA RESULT:      -0.1      0.000      0.000
REMARK  2 active torsions:
REMARK  status: ('A' for Active; 'I' for Inactive)
REMARK    1  A    between atoms: C1_1  and  C5_5 
REMARK    2  A    between atoms: C1_1  and  C10_10 
ROOT
HETATM    1  C2  UNL     1     -32.705   8.552   2.421  1.00 20.00     0.002 C 
HETATM    2  C3  UNL     1     -33.378   7.792   3.564  1.00 20.00     0.013 C 
HETATM    3  C4  UNL     1     -31.969   7.499   1.599  1.00 20.00     0.010 C 
HETATM    4  C5  UNL     1     -33.138   6.304   3.290  1.00 20.00     0.063 C 
HETATM    5  C6  UNL     1     -32.792   6.214   1.789  1.00 20.00    -0.037 C 
HETATM    6  C7  UNL     1     -34.029   6.230   0.871  1.00 20.00     0.015 C 
HETATM    7  C8  UNL     1     -31.952   4.972   1.471  1.00 20.00     0.015 C 
ENDROOT
BRANCH   4   8
HETATM    8  C1  UNL     1     -34.308   5.461   3.695  1.00 20.00     0.131 C 
HETATM    9  O11 UNL     1     -35.373   5.976   4.032  1.00 20.00    -0.298 OA
BRANCH   8  10
HETATM   10  C10 UNL     1     -34.092   3.958   3.663  1.00 20.00     0.074 C 
HETATM   11  C9  UNL     1     -33.330   3.451   4.873  1.00 20.00     0.013 C 
ENDBRANCH   8  10
ENDBRANCH   4   8
TORSDOF 2
ENDMDL
MODEL 2
REMARK VINA RESULT:       0.2      0.989      2.368
REMARK  2 active torsions:
REMARK  status: ('A' for Active; 'I' for Inactive)
REMARK    1  A    between atoms: C1_1  and  C5_5 
REMARK    2  A    between atoms: C1_1  and  C10_10 
ROOT
HETATM    1  C2  UNL     1     -31.980   7.047   1.725  1.00 20.00     0.002 C 
HETATM    2  C3  UNL     1     -32.571   5.657   1.965  1.00 20.00     0.013 C 
HETATM    3  C4  UNL     1     -33.038   8.035   2.206  1.00 20.00     0.010 C 
HETATM    4  C5  UNL     1     -33.890   5.874   2.714  1.00 20.00     0.063 C 
HETATM    5  C6  UNL     1     -33.788   7.289   3.322  1.00 20.00    -0.037 C 
HETATM    6  C7  UNL     1     -32.983   7.338   4.634  1.00 20.00     0.015 C 
HETATM    7  C8  UNL     1     -35.170   7.905   3.562  1.00 20.00     0.015 C 
ENDROOT
BRANCH   4   8
HETATM    8  C1  UNL     1     -34.148   4.796   3.722  1.00 20.00     0.131 C 
HETATM    9  O11 UNL     1     -35.149   4.823   4.435  1.00 20.00    -0.298 OA
BRANCH   8  10
HETATM   10  C10 UNL     1     -33.108   3.692   3.801  1.00 20.00     0.074 C 
HETATM   11  C9  UNL     1     -33.160   2.934   5.114  1.00 20.00     0.013 C 
ENDBRANCH   8  10
ENDBRANCH   4   8
TORSDOF 2
ENDMDL
MODEL 3
REMARK VINA RESULT:       0.3      2.017      4.120
REMARK  2 active torsions:
REMARK  status: ('A' for Active; 'I' for Inactive)
REMARK    1  A    between atoms: C1_1  and  C5_5 
REMARK    2  A    between atoms: C1_1  and  C10_10 
ROOT
HETATM    1  C2  UNL     1     -34.099   6.255   4.021  1.00 20.00     0.002 C 
HETATM    2  C3  UNL     1     -33.543   7.615   3.599  1.00 20.00     0.013 C 
HETATM    3  C4  UNL     1     -34.242   5.449   2.734  1.00 20.00     0.010 C 
HETATM    4  C5  UNL     1     -33.239   7.510   2.101  1.00 20.00     0.063 C 
HETATM    5  C6  UNL     1     -33.144   5.998   1.807  1.00 20.00    -0.037 C 
HETATM    6  C7  UNL     1     -31.779   5.385   2.174  1.00 20.00     0.015 C 
HETATM    7  C8  UNL     1     -33.454   5.683   0.340  1.00 20.00     0.015 C 
ENDROOT
BRANCH   4   8
HETATM    8  C1  UNL     1     -32.013   8.281   1.721  1.00 20.00     0.131 C 
HETATM    9  O11 UNL     1     -31.082   8.423   2.512  1.00 20.00    -0.298 OA
BRANCH   8  10
HETATM   10  C10 UNL     1     -31.999   8.864   0.318  1.00 20.00     0.074 C 
HETATM   11  C9  UNL     1     -32.598  10.257   0.259  1.00 20.00     0.013 C 
ENDBRANCH   8  10
ENDBRANCH   4   8
TORSDOF 2
ENDMDL
MODEL 4
REMARK VINA RESULT:       0.7      1.636      4.092
REMARK  2 active torsions:
REMARK  status: ('A' for Active; 'I' for Inactive)
REMARK    1  A    between atoms: C1_1  and  C5_5 
REMARK    2  A    between atoms: C1_1  and  C10_10 
ROOT
HETATM    1  C2  UNL     1     -34.662   4.290   4.210  1.00 20.00     0.002 C 
HETATM    2  C3  UNL     1     -33.491   4.485   3.246  1.00 20.00     0.013 C 
HETATM    3  C4  UNL     1     -34.900   5.651   4.855  1.00 20.00     0.010 C 
HETATM    4  C5  UNL     1     -33.179   5.985   3.248  1.00 20.00     0.063 C 
HETATM    5  C6  UNL     1     -34.452   6.668   3.792  1.00 20.00    -0.037 C 
HETATM    6  C7  UNL     1     -35.552   6.853   2.730  1.00 20.00     0.015 C 
HETATM    7  C8  UNL     1     -34.140   8.027   4.428  1.00 20.00     0.015 C 
ENDROOT
BRANCH   4   8
HETATM    8  C1  UNL     1     -32.758   6.474   1.896  1.00 20.00     0.131 C 
HETATM    9  O11 UNL     1     -33.097   5.880   0.874  1.00 20.00    -0.298 OA
BRANCH   8  10
HETATM   10  C10 UNL     1     -31.900   7.727   1.877  1.00 20.00     0.074 C 
HETATM   11  C9  UNL     1     -32.345   8.722   0.821  1.00 20.00     0.013 C 
ENDBRANCH   8  10
ENDBRANCH   4   8
TORSDOF 2
ENDMDL
MODEL 5
REMARK VINA RESULT:       0.7      1.542      2.772
REMARK  2 active torsions:
REMARK  status: ('A' for Active; 'I' for Inactive)
REMARK    1  A    between atoms: C1_1  and  C5_5 
REMARK    2  A    between atoms: C1_1  and  C10_10 
ROOT
HETATM    1  C2  UNL     1     -31.686   5.767   1.195  1.00 20.00     0.002 C 
HETATM    2  C3  UNL     1     -32.932   5.624   2.070  1.00 20.00     0.013 C 
HETATM    3  C4  UNL     1     -31.649   7.229   0.763  1.00 20.00     0.010 C 
HETATM    4  C5  UNL     1     -33.500   7.036   2.243  1.00 20.00     0.063 C 
HETATM    5  C6  UNL     1     -32.334   7.991   1.910  1.00 20.00    -0.037 C 
HETATM    6  C7  UNL     1     -31.352   8.194   3.080  1.00 20.00     0.015 C 
HETATM    7  C8  UNL     1     -32.837   9.359   1.439  1.00 20.00     0.015 C 
ENDROOT
BRANCH   4   8
HETATM    8  C1  UNL     1     -34.085   7.243   3.606  1.00 20.00     0.131 C 
HETATM    9  O11 UNL     1     -33.535   7.976   4.427  1.00 20.00    -0.298 OA
BRANCH   8  10
HETATM   10  C10 UNL     1     -35.377   6.501   3.899  1.00 20.00     0.074 C 
HETATM   11  C9  UNL     1     -35.139   5.126   4.494  1.00 20.00     0.013 C 
ENDBRANCH   8  10
ENDBRANCH   4   8
TORSDOF 2
ENDMDL
MODEL 6
REMARK VINA RESULT:       1.2      1.261      1.827
REMARK  2 active torsions:
REMARK  status: ('A' for Active; 'I' for Inactive)
REMARK    1  A    between atoms: C1_1  and  C5_5 
REMARK    2  A    between atoms: C1_1  and  C10_10 
ROOT
HETATM    1  C2  UNL     1     -32.356   8.534   1.695  1.00 20.00     0.002 C 
HETATM    2  C3  UNL     1     -32.987   7.993   2.979  1.00 20.00     0.013 C 
HETATM    3  C4  UNL     1     -31.677   7.340   1.032  1.00 20.00     0.010 C 
HETATM    4  C5  UNL     1     -32.785   6.475   2.950  1.00 20.00     0.063 C 
HETATM    5  C6  UNL     1     -32.511   6.126   1.472  1.00 20.00    -0.037 C 
HETATM    6  C7  UNL     1     -33.790   6.017   0.619  1.00 20.00     0.015 C 
HETATM    7  C8  UNL     1     -31.708   4.828   1.333  1.00 20.00     0.015 C 
ENDROOT
BRANCH   4   8
HETATM    8  C1  UNL     1     -33.948   5.741   3.543  1.00 20.00     0.131 C 
HETATM    9  O11 UNL     1     -33.964   4.512   3.592  1.00 20.00    -0.298 OA
BRANCH   8  10
HETATM   10  C10 UNL     1     -35.083   6.602   4.068  1.00 20.00     0.074 C 
HETATM   11  C9  UNL     1     -36.289   6.605   3.146  1.00 20.00     0.013 C 
ENDBRANCH   8  10
ENDBRANCH   4   8
TORSDOF 2
ENDMDL
MODEL 7
REMARK VINA RESULT:       1.3      2.101      4.407
REMARK  2 active torsions:
REMARK  status: ('A' for Active; 'I' for Inactive)
REMARK    1  A    between atoms: C1_1  and  C5_5 
REMARK    2  A    between atoms: C1_1  and  C10_10 
ROOT
HETATM    1  C2  UNL     1     -34.046   5.362   2.318  1.00 20.00     0.002 C 
HETATM    2  C3  UNL     1     -32.829   6.089   1.746  1.00 20.00     0.013 C 
HETATM    3  C4  UNL     1     -34.232   5.909   3.729  1.00 20.00     0.010 C 
HETATM    4  C5  UNL     1     -32.433   7.145   2.784  1.00 20.00     0.063 C 
HETATM    5  C6  UNL     1     -33.685   7.345   3.663  1.00 20.00    -0.037 C 
HETATM    6  C7  UNL     1     -34.731   8.288   3.037  1.00 20.00     0.015 C 
HETATM    7  C8  UNL     1     -33.323   7.861   5.060  1.00 20.00     0.015 C 
ENDROOT
BRANCH   4   8
HETATM    8  C1  UNL     1     -31.931   8.403   2.144  1.00 20.00     0.131 C 
HETATM    9  O11 UNL     1     -31.348   9.261   2.804  1.00 20.00    -0.298 OA
BRANCH   8  10
HETATM   10  C10 UNL     1     -32.189   8.542   0.654  1.00 20.00     0.074 C 
HETATM   11  C9  UNL     1     -32.520   9.967   0.249  1.00 20.00     0.013 C 
ENDBRANCH   8  10
ENDBRANCH   4   8
TORSDOF 2
ENDMDL
MODEL 8
REMARK VINA RESULT:       1.4      1.766      3.956
REMARK  2 active torsions:
REMARK  status: ('A' for Active; 'I' for Inactive)
REMARK    1  A    between atoms: C1_1  and  C5_5 
REMARK    2  A    between atoms: C1_1  and  C10_10 
ROOT
HETATM    1  C2  UNL     1     -33.008   8.115   5.277  1.00 20.00     0.002 C 
HETATM    2  C3  UNL     1     -32.362   8.335   3.909  1.00 20.00     0.013 C 
HETATM    3  C4  UNL     1     -34.418   7.607   4.994  1.00 20.00     0.010 C 
HETATM    4  C5  UNL     1     -33.361   7.808   2.873  1.00 20.00     0.063 C 
HETATM    5  C6  UNL     1     -34.301   6.864   3.653  1.00 20.00    -0.037 C 
HETATM    6  C7  UNL     1     -33.714   5.456   3.870  1.00 20.00     0.015 C 
HETATM    7  C8  UNL     1     -35.668   6.735   2.974  1.00 20.00     0.015 C 
ENDROOT
BRANCH   4   8
HETATM    8  C1  UNL     1     -32.676   7.160   1.710  1.00 20.00     0.131 C 
HETATM    9  O11 UNL     1     -32.887   5.982   1.427  1.00 20.00    -0.298 OA
BRANCH   8  10
HETATM   10  C10 UNL     1     -31.722   8.040   0.921  1.00 20.00     0.074 C 
HETATM   11  C9  UNL     1     -32.351   9.357   0.506  1.00 20.00     0.013 C 
ENDBRANCH   8  10
ENDBRANCH   4   8
TORSDOF 2
ENDMDL
MODEL 9
REMARK VINA RESULT:       1.5      1.192      1.479
REMARK  2 active torsions:
REMARK  status: ('A' for Active; 'I' for Inactive)
REMARK    1  A    between atoms: C1_1  and  C5_5 
REMARK    2  A    between atoms: C1_1  and  C10_10 
ROOT
HETATM    1  C2  UNL     1     -32.062   8.924   1.006  1.00 20.00     0.002 C 
HETATM    2  C3  UNL     1     -32.707   8.834   2.389  1.00 20.00     0.013 C 
HETATM    3  C4  UNL     1     -31.516   7.531   0.711  1.00 20.00     0.010 C 
HETATM    4  C5  UNL     1     -32.650   7.358   2.795  1.00 20.00     0.063 C 
HETATM    5  C6  UNL     1     -32.449   6.579   1.478  1.00 20.00    -0.037 C 
HETATM    6  C7  UNL     1     -33.754   6.358   0.689  1.00 20.00     0.015 C 
HETATM    7  C8  UNL     1     -31.775   5.223   1.716  1.00 20.00     0.015 C 
ENDROOT
BRANCH   4   8
HETATM    8  C1  UNL     1     -33.861   6.940   3.570  1.00 20.00     0.131 C 
HETATM    9  O11 UNL     1     -34.621   7.775   4.058  1.00 20.00    -0.298 OA
BRANCH   8  10
HETATM   10  C10 UNL     1     -34.082   5.444   3.709  1.00 20.00     0.074 C 
HETATM   11  C9  UNL     1     -35.342   5.109   4.484  1.00 20.00     0.013 C 
ENDBRANCH   8  10
ENDBRANCH   4   8
TORSDOF 2
ENDMDL
