MODEL 1
REMARK VINA RESULT:      -1.7      0.000      0.000
REMARK  0 active torsions:
REMARK  status: ('A' for Active; 'I' for Inactive)
ROOT
HETATM    1  C1  UNL     1     -34.598   6.315   3.650  1.00 20.00     0.098 C 
HETATM    2  C2  UNL     1     -32.871   7.886   2.909  1.00 20.00     0.160 A 
HETATM    3  C3  UNL     1     -33.517   6.726   2.845  1.00 20.00     0.063 A 
HETATM    4  C4  UNL     1     -32.858   5.970   1.758  1.00 20.00     0.225 A 
HETATM    5  N5  UNL     1     -35.489   5.977   4.312  1.00 20.00    -0.192 NA
HETATM    6  N6  UNL     1     -31.863   7.981   1.987  1.00 20.00    -0.166 NA
HETATM    7  N7  UNL     1     -31.806   6.918   1.302  1.00 20.00    -0.188 NA
ENDROOT
TORSDOF 0
ENDMDL
MODEL 2
REMARK VINA RESULT:      -1.7      0.185      1.378
REMARK  0 active torsions:
REMARK  status: ('A' for Active; 'I' for Inactive)
ROOT
HETATM    1  C1  UNL     1     -34.578   6.310   3.630  1.00 20.00     0.098 C 
HETATM    2  C2  UNL     1     -32.913   5.971   1.867  1.00 20.00     0.160 A 
HETATM    3  C3  UNL     1     -33.499   6.699   2.812  1.00 20.00     0.063 A 
HETATM    4  C4  UNL     1     -32.779   7.990   2.816  1.00 20.00     0.225 A 
HETATM    5  N5  UNL     1     -35.466   5.990   4.305  1.00 20.00    -0.192 NA
HETATM    6  N6  UNL     1     -31.888   6.636   1.248  1.00 20.00    -0.166 NA
HETATM    7  N7  UNL     1     -31.764   7.793   1.745  1.00 20.00    -0.188 NA
ENDROOT
TORSDOF 0
ENDMDL
MODEL 3
REMARK VINA RESULT:      -1.5      0.946      3.458
REMARK  0 active torsions:
REMARK  status: ('A' for Active; 'I' for Inactive)
ROOT
HETATM    1  C1  UNL     1     -32.834   7.223   2.435  1.00 20.00     0.098 C 
HETATM    2  C2  UNL     1     -34.831   6.806   3.791  1.00 20.00     0.160 A 
HETATM    3  C3  UNL     1     -33.724   6.413   3.167  1.00 20.00     0.063 A 
HETATM    4  C4  UNL     1     -33.635   4.957   3.408  1.00 20.00     0.225 A 
HETATM    5  N5  UNL     1     -32.100   7.889   1.833  1.00 20.00    -0.192 NA
HETATM    6  N6  UNL     1     -35.480   5.775   4.415  1.00 20.00    -0.166 NA
HETATM    7  N7  UNL     1     -34.846   4.694   4.232  1.00 20.00    -0.188 NA
ENDROOT
TORSDOF 0
ENDMDL
MODEL 4
REMARK VINA RESULT:      -1.5      1.127      3.699
REMARK  0 active torsions:
REMARK  status: ('A' for Active; 'I' for Inactive)
ROOT
HETATM    1  C1  UNL     1     -33.006   7.145   2.573  1.00 20.00     0.098 C 
HETATM    2  C2  UNL     1     -33.580   4.940   3.472  1.00 20.00     0.160 A 
HETATM    3  C3  UNL     1     -33.817   6.234   3.277  1.00 20.00     0.063 A 
HETATM    4  C4  UNL     1     -35.103   6.503   3.956  1.00 20.00     0.225 A 
HETATM    5  N5  UNL     1     -32.338   7.895   1.993  1.00 20.00    -0.192 NA
HETATM    6  N6  UNL     1     -34.564   4.327   4.200  1.00 20.00    -0.166 NA
HETATM    7  N7  UNL     1     -35.460   5.167   4.506  1.00 20.00    -0.188 NA
ENDROOT
TORSDOF 0
ENDMDL
MODEL 5
REMARK VINA RESULT:      -1.3      1.000      3.574
REMARK  0 active torsions:
REMARK  status: ('A' for Active; 'I' for Inactive)
ROOT
HETATM    1  C1  UNL     1     -32.422   7.668   2.107  1.00 20.00     0.098 C 
HETATM    2  C2  UNL     1     -33.617   5.669   2.866  1.00 20.00     0.160 A 
HETATM    3  C3  UNL     1     -33.374   6.977   2.881  1.00 20.00     0.063 A 
HETATM    4  C4  UNL     1     -34.312   7.538   3.877  1.00 20.00     0.225 A 
HETATM    5  N5  UNL     1     -31.638   8.237   1.469  1.00 20.00    -0.192 NA
HETATM    6  N6  UNL     1     -34.608   5.307   3.739  1.00 20.00    -0.166 NA
HETATM    7  N7  UNL     1     -35.043   6.330   4.344  1.00 20.00    -0.188 NA
ENDROOT
TORSDOF 0
ENDMDL
MODEL 6
REMARK VINA RESULT:      -0.9      2.380      3.429
REMARK  0 active torsions:
REMARK  status: ('A' for Active; 'I' for Inactive)
ROOT
HETATM    1  C1  UNL     1     -33.621   3.386   4.362  1.00 20.00     0.098 C 
HETATM    2  C2  UNL     1     -33.506   5.591   3.303  1.00 20.00     0.160 A 
HETATM    3  C3  UNL     1     -34.103   4.674   4.059  1.00 20.00     0.063 A 
HETATM    4  C4  UNL     1     -35.368   5.296   4.504  1.00 20.00     0.225 A 
HETATM    5  N5  UNL     1     -33.223   2.325   4.612  1.00 20.00    -0.192 NA
HETATM    6  N6  UNL     1     -34.235   6.746   3.201  1.00 20.00    -0.166 NA
HETATM    7  N7  UNL     1     -35.308   6.638   3.864  1.00 20.00    -0.188 NA
ENDROOT
TORSDOF 0
ENDMDL
MODEL 7
REMARK VINA RESULT:      -0.9      1.402      3.350
REMARK  0 active torsions:
REMARK  status: ('A' for Active; 'I' for Inactive)
ROOT
HETATM    1  C1  UNL     1     -32.590   5.707   1.697  1.00 20.00     0.098 C 
HETATM    2  C2  UNL     1     -34.390   5.732   3.356  1.00 20.00     0.160 A 
HETATM    3  C3  UNL     1     -33.389   6.302   2.692  1.00 20.00     0.063 A 
HETATM    4  C4  UNL     1     -33.301   7.680   3.221  1.00 20.00     0.225 A 
HETATM    5  N5  UNL     1     -31.931   5.217   0.877  1.00 20.00    -0.192 NA
HETATM    6  N6  UNL     1     -34.971   6.579   4.263  1.00 20.00    -0.166 NA
HETATM    7  N7  UNL     1     -34.393   7.704   4.232  1.00 20.00    -0.188 NA
ENDROOT
TORSDOF 0
ENDMDL
MODEL 8
REMARK VINA RESULT:      -0.8      1.414      3.125
REMARK  0 active torsions:
REMARK  status: ('A' for Active; 'I' for Inactive)
ROOT
HETATM    1  C1  UNL     1     -32.625   5.731   1.682  1.00 20.00     0.098 C 
HETATM    2  C2  UNL     1     -33.257   7.553   3.192  1.00 20.00     0.160 A 
HETATM    3  C3  UNL     1     -33.393   6.324   2.702  1.00 20.00     0.063 A 
HETATM    4  C4  UNL     1     -34.517   5.725   3.455  1.00 20.00     0.225 A 
HETATM    5  N5  UNL     1     -31.991   5.242   0.842  1.00 20.00    -0.192 NA
HETATM    6  N6  UNL     1     -34.162   7.830   4.181  1.00 20.00    -0.166 NA
HETATM    7  N7  UNL     1     -34.908   6.826   4.376  1.00 20.00    -0.188 NA
ENDROOT
TORSDOF 0
ENDMDL
MODEL 9
REMARK VINA RESULT:       0.0      1.600      3.209
REMARK  0 active torsions:
REMARK  status: ('A' for Active; 'I' for Inactive)
ROOT
HETATM    1  C1  UNL     1     -32.081   5.224   1.076  1.00 20.00     0.098 C 
HETATM    2  C2  UNL     1     -33.630   5.860   2.863  1.00 20.00     0.160 A 
HETATM    3  C3  UNL     1     -32.703   6.136   1.950  1.00 20.00     0.063 A 
HETATM    4  C4  UNL     1     -32.471   7.593   2.055  1.00 20.00     0.225 A 
HETATM    5  N5  UNL     1     -31.569   4.473   0.355  1.00 20.00    -0.192 NA
HETATM    6  N6  UNL     1     -34.035   6.969   3.556  1.00 20.00    -0.166 NA
HETATM    7  N7  UNL     1     -33.409   7.988   3.140  1.00 20.00    -0.188 NA
ENDROOT
TORSDOF 0
ENDMDL
