MODEL 1
REMARK VINA RESULT:       1.1      0.000      0.000
REMARK  2 active torsions:
REMARK  status: ('A' for Active; 'I' for Inactive)
REMARK    1  A    between atoms: C3_3  and  C9_9 
REMARK    2  A    between atoms: C7_7  and  C9_9 
ROOT
HETATM    1  C4  UNL     1     -34.011   7.387   3.347  1.00 20.00     0.006 C 
HETATM    2  C5  UNL     1     -34.630   6.149   3.977  1.00 20.00     0.020 C 
HETATM    3  C6  UNL     1     -32.881   5.376   2.515  1.00 20.00     0.025 C 
HETATM    4  C7  UNL     1     -33.206   6.840   2.161  1.00 20.00    -0.007 C 
HETATM    5  C8  UNL     1     -33.486   5.151   3.900  1.00 20.00     0.082 C 
HETATM    6 CL12 UNL     1     -34.030   3.484   4.140  1.00 20.00    -0.125 Cl
ENDROOT
BRANCH   4   7
HETATM    7  C9  UNL     1     -31.967   7.671   1.867  1.00 20.00     0.071 C 
BRANCH   7   8
HETATM    8  C3  UNL     1     -32.292   8.895   1.054  1.00 20.00     0.074 A 
HETATM    9  N10 UNL     1     -32.569  10.077   1.563  1.00 20.00    -0.258 NA
HETATM   10  C1  UNL     1     -32.816  10.961   0.532  1.00 20.00     0.124 A 
HETATM   11  C2  UNL     1     -32.726  10.441  -0.742  1.00 20.00     0.070 A 
HETATM   12  S11 UNL     1     -32.312   8.779  -0.658  1.00 20.00    -0.085 SA
ENDBRANCH   7   8
ENDBRANCH   4   7
TORSDOF 2
ENDMDL
MODEL 2
REMARK VINA RESULT:       1.2      1.303      1.542
REMARK  2 active torsions:
REMARK  status: ('A' for Active; 'I' for Inactive)
REMARK    1  A    between atoms: C3_3  and  C9_9 
REMARK    2  A    between atoms: C7_7  and  C9_9 
ROOT
HETATM    1  C4  UNL     1     -34.949   6.776   4.026  1.00 20.00     0.006 C 
HETATM    2  C5  UNL     1     -35.181   5.292   4.263  1.00 20.00     0.020 C 
HETATM    3  C6  UNL     1     -33.069   5.485   3.126  1.00 20.00     0.025 C 
HETATM    4  C7  UNL     1     -33.830   6.815   2.978  1.00 20.00    -0.007 C 
HETATM    5  C8  UNL     1     -33.762   4.747   4.271  1.00 20.00     0.082 C 
HETATM    6 CL12 UNL     1     -33.713   2.990   4.074  1.00 20.00    -0.125 Cl
ENDROOT
BRANCH   4   7
HETATM    7  C9  UNL     1     -32.934   8.035   3.131  1.00 20.00     0.071 C 
BRANCH   7   8
HETATM    8  C3  UNL     1     -32.465   8.558   1.799  1.00 20.00     0.074 A 
HETATM    9  N10 UNL     1     -31.615   7.936   1.012  1.00 20.00    -0.258 NA
HETATM   10  C1  UNL     1     -31.414   8.700  -0.122  1.00 20.00     0.124 A 
HETATM   11  C2  UNL     1     -32.111   9.888  -0.178  1.00 20.00     0.070 A 
HETATM   12  S11 UNL     1     -33.063  10.066   1.238  1.00 20.00    -0.085 SA
ENDBRANCH   7   8
ENDBRANCH   4   7
TORSDOF 2
ENDMDL
MODEL 3
REMARK VINA RESULT:       1.8      3.492      5.120
REMARK  2 active torsions:
REMARK  status: ('A' for Active; 'I' for Inactive)
REMARK    1  A    between atoms: C3_3  and  C9_9 
REMARK    2  A    between atoms: C7_7  and  C9_9 
ROOT
HETATM    1  C4  UNL     1     -32.130   7.891   2.830  1.00 20.00     0.006 C 
HETATM    2  C5  UNL     1     -31.992   9.304   2.285  1.00 20.00     0.020 C 
HETATM    3  C6  UNL     1     -32.149   7.843   0.379  1.00 20.00     0.025 C 
HETATM    4  C7  UNL     1     -31.828   6.994   1.623  1.00 20.00    -0.007 C 
HETATM    5  C8  UNL     1     -32.650   9.181   0.920  1.00 20.00     0.082 C 
HETATM    6 CL12 UNL     1     -32.250  10.537  -0.144  1.00 20.00    -0.125 Cl
ENDROOT
BRANCH   4   7
HETATM    7  C9  UNL     1     -32.598   5.684   1.665  1.00 20.00     0.071 C 
BRANCH   7   8
HETATM    8  C3  UNL     1     -33.650   5.686   2.743  1.00 20.00     0.074 A 
HETATM    9  N10 UNL     1     -34.452   6.697   2.999  1.00 20.00    -0.258 NA
HETATM   10  C1  UNL     1     -35.285   6.352   4.046  1.00 20.00     0.124 A 
HETATM   11  C2  UNL     1     -35.104   5.090   4.569  1.00 20.00     0.070 A 
HETATM   12  S11 UNL     1     -33.845   4.291   3.723  1.00 20.00    -0.085 SA
ENDBRANCH   7   8
ENDBRANCH   4   7
TORSDOF 2
ENDMDL
MODEL 4
REMARK VINA RESULT:       2.5      3.518      5.226
REMARK  2 active torsions:
REMARK  status: ('A' for Active; 'I' for Inactive)
REMARK    1  A    between atoms: C3_3  and  C9_9 
REMARK    2  A    between atoms: C7_7  and  C9_9 
ROOT
HETATM    1  C4  UNL     1     -32.332   7.881   2.815  1.00 20.00     0.006 C 
HETATM    2  C5  UNL     1     -32.139   9.314   2.343  1.00 20.00     0.020 C 
HETATM    3  C6  UNL     1     -32.094   7.929   0.375  1.00 20.00     0.025 C 
HETATM    4  C7  UNL     1     -31.904   7.031   1.611  1.00 20.00    -0.007 C 
HETATM    5  C8  UNL     1     -32.651   9.247   0.913  1.00 20.00     0.082 C 
HETATM    6 CL12 UNL     1     -32.144  10.642  -0.050  1.00 20.00    -0.125 Cl
ENDROOT
BRANCH   4   7
HETATM    7  C9  UNL     1     -32.673   5.723   1.521  1.00 20.00     0.071 C 
BRANCH   7   8
HETATM    8  C3  UNL     1     -33.592   5.530   2.698  1.00 20.00     0.074 A 
HETATM    9  N10 UNL     1     -33.579   4.479   3.489  1.00 20.00    -0.258 NA
HETATM   10  C1  UNL     1     -34.551   4.637   4.458  1.00 20.00     0.124 A 
HETATM   11  C2  UNL     1     -35.286   5.801   4.390  1.00 20.00     0.070 A 
HETATM   12  S11 UNL     1     -34.746   6.746   3.064  1.00 20.00    -0.085 SA
ENDBRANCH   7   8
ENDBRANCH   4   7
TORSDOF 2
ENDMDL
MODEL 5
REMARK VINA RESULT:       2.7      3.546      5.546
REMARK  2 active torsions:
REMARK  status: ('A' for Active; 'I' for Inactive)
REMARK    1  A    between atoms: C3_3  and  C9_9 
REMARK    2  A    between atoms: C7_7  and  C9_9 
ROOT
HETATM    1  C4  UNL     1     -31.245   7.934   1.594  1.00 20.00     0.006 C 
HETATM    2  C5  UNL     1     -31.137   8.727   0.301  1.00 20.00     0.020 C 
HETATM    3  C6  UNL     1     -33.372   9.062   1.130  1.00 20.00     0.025 C 
HETATM    4  C7  UNL     1     -32.755   7.854   1.858  1.00 20.00    -0.007 C 
HETATM    5  C8  UNL     1     -32.192   9.803   0.502  1.00 20.00     0.082 C 
HETATM    6 CL12 UNL     1     -32.626  10.612  -1.011  1.00 20.00    -0.125 Cl
ENDROOT
BRANCH   4   7
HETATM    7  C9  UNL     1     -33.084   7.821   3.342  1.00 20.00     0.071 C 
BRANCH   7   8
HETATM    8  C3  UNL     1     -33.853   6.583   3.719  1.00 20.00     0.074 A 
HETATM    9  N10 UNL     1     -35.056   6.588   4.253  1.00 20.00    -0.258 NA
HETATM   10  C1  UNL     1     -35.455   5.282   4.466  1.00 20.00     0.124 A 
HETATM   11  C2  UNL     1     -34.552   4.309   4.094  1.00 20.00     0.070 A 
HETATM   12  S11 UNL     1     -33.145   5.044   3.447  1.00 20.00    -0.085 SA
ENDBRANCH   7   8
ENDBRANCH   4   7
TORSDOF 2
ENDMDL
MODEL 6
REMARK VINA RESULT:       2.9      1.573      2.046
REMARK  2 active torsions:
REMARK  status: ('A' for Active; 'I' for Inactive)
REMARK    1  A    between atoms: C3_3  and  C9_9 
REMARK    2  A    between atoms: C7_7  and  C9_9 
ROOT
HETATM    1  C4  UNL     1     -32.525   6.626   1.796  1.00 20.00     0.006 C 
HETATM    2  C5  UNL     1     -33.669   5.765   2.308  1.00 20.00     0.020 C 
HETATM    3  C6  UNL     1     -33.344   7.514   3.929  1.00 20.00     0.025 C 
HETATM    4  C7  UNL     1     -32.105   7.453   3.017  1.00 20.00    -0.007 C 
HETATM    5  C8  UNL     1     -34.434   6.745   3.183  1.00 20.00     0.082 C 
HETATM    6 CL12 UNL     1     -35.562   5.932   4.278  1.00 20.00    -0.125 Cl
ENDROOT
BRANCH   4   7
HETATM    7  C9  UNL     1     -31.579   8.828   2.634  1.00 20.00     0.071 C 
BRANCH   7   8
HETATM    8  C3  UNL     1     -32.000   9.222   1.243  1.00 20.00     0.074 A 
HETATM    9  N10 UNL     1     -31.689   8.553   0.153  1.00 20.00    -0.258 NA
HETATM   10  C1  UNL     1     -32.240   9.197  -0.938  1.00 20.00     0.124 A 
HETATM   11  C2  UNL     1     -32.957  10.342  -0.662  1.00 20.00     0.070 A 
HETATM   12  S11 UNL     1     -32.951  10.634   1.027  1.00 20.00    -0.085 SA
ENDBRANCH   7   8
ENDBRANCH   4   7
TORSDOF 2
ENDMDL
MODEL 7
REMARK VINA RESULT:       3.2      1.297      1.763
REMARK  2 active torsions:
REMARK  status: ('A' for Active; 'I' for Inactive)
REMARK    1  A    between atoms: C3_3  and  C9_9 
REMARK    2  A    between atoms: C7_7  and  C9_9 
ROOT
HETATM    1  C4  UNL     1     -32.422   6.587   1.637  1.00 20.00     0.006 C 
HETATM    2  C5  UNL     1     -33.628   5.818   2.153  1.00 20.00     0.020 C 
HETATM    3  C6  UNL     1     -33.171   7.545   3.766  1.00 20.00     0.025 C 
HETATM    4  C7  UNL     1     -31.940   7.386   2.855  1.00 20.00    -0.007 C 
HETATM    5  C8  UNL     1     -34.316   6.857   3.024  1.00 20.00     0.082 C 
HETATM    6 CL12 UNL     1     -35.502   6.137   4.122  1.00 20.00    -0.125 Cl
ENDROOT
BRANCH   4   7
HETATM    7  C9  UNL     1     -31.312   8.715   2.465  1.00 20.00     0.071 C 
BRANCH   7   8
HETATM    8  C3  UNL     1     -31.969   9.312   1.249  1.00 20.00     0.074 A 
HETATM    9  N10 UNL     1     -32.946  10.192   1.286  1.00 20.00    -0.258 NA
HETATM   10  C1  UNL     1     -33.303  10.518  -0.008  1.00 20.00     0.124 A 
HETATM   11  C2  UNL     1     -32.595   9.884  -1.006  1.00 20.00     0.070 A 
HETATM   12  S11 UNL     1     -31.431   8.835  -0.309  1.00 20.00    -0.085 SA
ENDBRANCH   7   8
ENDBRANCH   4   7
TORSDOF 2
ENDMDL
MODEL 8
REMARK VINA RESULT:       3.5      1.922      2.428
REMARK  2 active torsions:
REMARK  status: ('A' for Active; 'I' for Inactive)
REMARK    1  A    between atoms: C3_3  and  C9_9 
REMARK    2  A    between atoms: C7_7  and  C9_9 
ROOT
HETATM    1  C4  UNL     1     -35.537   5.634   4.712  1.00 20.00     0.006 C 
HETATM    2  C5  UNL     1     -35.289   4.145   4.904  1.00 20.00     0.020 C 
HETATM    3  C6  UNL     1     -33.482   4.975   3.547  1.00 20.00     0.025 C 
HETATM    4  C7  UNL     1     -34.615   6.018   3.547  1.00 20.00    -0.007 C 
HETATM    5  C8  UNL     1     -33.782   4.051   4.727  1.00 20.00     0.082 C 
HETATM    6 CL12 UNL     1     -33.240   2.391   4.445  1.00 20.00    -0.125 Cl
ENDROOT
BRANCH   4   7
HETATM    7  C9  UNL     1     -34.109   7.448   3.656  1.00 20.00     0.071 C 
BRANCH   7   8
HETATM    8  C3  UNL     1     -32.943   7.701   2.736  1.00 20.00     0.074 A 
HETATM    9  N10 UNL     1     -31.982   8.567   2.974  1.00 20.00    -0.258 NA
HETATM   10  C1  UNL     1     -31.084   8.537   1.924  1.00 20.00     0.124 A 
HETATM   11  C2  UNL     1     -31.376   7.652   0.908  1.00 20.00     0.070 A 
HETATM   12  S11 UNL     1     -32.829   6.818   1.270  1.00 20.00    -0.085 SA
ENDBRANCH   7   8
ENDBRANCH   4   7
TORSDOF 2
ENDMDL
MODEL 9
REMARK VINA RESULT:       3.5      1.274      1.766
REMARK  2 active torsions:
REMARK  status: ('A' for Active; 'I' for Inactive)
REMARK    1  A    between atoms: C3_3  and  C9_9 
REMARK    2  A    between atoms: C7_7  and  C9_9 
ROOT
HETATM    1  C4  UNL     1     -32.377   5.321   1.783  1.00 20.00     0.006 C 
HETATM    2  C5  UNL     1     -33.484   5.070   2.795  1.00 20.00     0.020 C 
HETATM    3  C6  UNL     1     -33.112   7.447   2.759  1.00 20.00     0.025 C 
HETATM    4  C7  UNL     1     -31.914   6.752   2.085  1.00 20.00    -0.007 C 
HETATM    5  C8  UNL     1     -34.223   6.399   2.792  1.00 20.00     0.082 C 
HETATM    6 CL12 UNL     1     -35.287   6.581   4.194  1.00 20.00    -0.125 Cl
ENDROOT
BRANCH   4   7
HETATM    7  C9  UNL     1     -31.427   7.479   0.841  1.00 20.00     0.071 C 
BRANCH   7   8
HETATM    8  C3  UNL     1     -32.037   8.850   0.717  1.00 20.00     0.074 A 
HETATM    9  N10 UNL     1     -32.213   9.681   1.722  1.00 20.00    -0.258 NA
HETATM   10  C1  UNL     1     -32.794  10.841   1.246  1.00 20.00     0.124 A 
HETATM   11  C2  UNL     1     -33.051  10.874  -0.108  1.00 20.00     0.070 A 
HETATM   12  S11 UNL     1     -32.547   9.401  -0.826  1.00 20.00    -0.085 SA
ENDBRANCH   7   8
ENDBRANCH   4   7
TORSDOF 2
ENDMDL
