MODEL 1
REMARK VINA RESULT:      -0.3      0.000      0.000
REMARK  2 active torsions:
REMARK  status: ('A' for Active; 'I' for Inactive)
REMARK    1  A    between atoms: C6_6  and  N11_11 
REMARK    2  A    between atoms: C10_10  and  N11_11 
ROOT
HETATM    1  C1  UNL     1     -32.769  10.293  -0.833  1.00 20.00     0.013 C 
HETATM    2  C2  UNL     1     -32.588   9.857   0.270  1.00 20.00    -0.087 C 
HETATM    3  C10 UNL     1     -32.369   9.329   1.619  1.00 20.00     0.362 C 
ENDROOT
BRANCH   3   4
HETATM    4  N11 UNL     1     -31.704   8.033   1.563  1.00 20.00     0.099 N 
HETATM    5  H28 UNL     1     -30.727   8.147   1.833  1.00 20.00     0.317 HD
BRANCH   4   6
HETATM    6  C6  UNL     1     -32.343   7.081   2.458  1.00 20.00     0.229 C 
HETATM    7  C4  UNL     1     -33.542   7.682   3.192  1.00 20.00     0.036 C 
HETATM    8  C3  UNL     1     -34.395   6.482   3.611  1.00 20.00     0.003 C 
HETATM    9  C5  UNL     1     -33.793   5.255   2.916  1.00 20.00     0.011 C 
HETATM   10  C7  UNL     1     -32.914   5.814   1.782  1.00 20.00    -0.017 C 
HETATM   11  C8  UNL     1     -33.775   6.116   0.539  1.00 20.00     0.017 C 
HETATM   12  C9  UNL     1     -31.812   4.823   1.391  1.00 20.00     0.017 C 
ENDBRANCH   4   6
ENDBRANCH   3   4
TORSDOF 2
ENDMDL
MODEL 2
REMARK VINA RESULT:      -0.2      1.235      2.647
REMARK  2 active torsions:
REMARK  status: ('A' for Active; 'I' for Inactive)
REMARK    1  A    between atoms: C6_6  and  N11_11 
REMARK    2  A    between atoms: C10_10  and  N11_11 
ROOT
HETATM    1  C1  UNL     1     -32.692  10.576   0.350  1.00 20.00     0.013 C 
HETATM    2  C2  UNL     1     -32.334   9.453   0.574  1.00 20.00    -0.087 C 
HETATM    3  C10 UNL     1     -31.896   8.080   0.840  1.00 20.00     0.362 C 
ENDROOT
BRANCH   3   4
HETATM    4  N11 UNL     1     -32.019   7.767   2.258  1.00 20.00     0.099 N 
HETATM    5  H28 UNL     1     -32.006   8.635   2.794  1.00 20.00     0.317 HD
BRANCH   4   6
HETATM    6  C6  UNL     1     -33.258   7.054   2.528  1.00 20.00     0.229 C 
HETATM    7  C4  UNL     1     -33.024   5.579   2.857  1.00 20.00     0.036 C 
HETATM    8  C3  UNL     1     -34.268   5.142   3.634  1.00 20.00     0.003 C 
HETATM    9  C5  UNL     1     -35.068   6.417   3.930  1.00 20.00     0.011 C 
HETATM   10  C7  UNL     1     -34.080   7.580   3.727  1.00 20.00    -0.017 C 
HETATM   11  C8  UNL     1     -33.239   7.793   5.001  1.00 20.00     0.017 C 
HETATM   12  C9  UNL     1     -34.814   8.884   3.395  1.00 20.00     0.017 C 
ENDBRANCH   4   6
ENDBRANCH   3   4
TORSDOF 2
ENDMDL
MODEL 3
REMARK VINA RESULT:       0.2      2.261      4.926
REMARK  2 active torsions:
REMARK  status: ('A' for Active; 'I' for Inactive)
REMARK    1  A    between atoms: C6_6  and  N11_11 
REMARK    2  A    between atoms: C10_10  and  N11_11 
ROOT
HETATM    1  C1  UNL     1     -33.125   2.975   4.452  1.00 20.00     0.013 C 
HETATM    2  C2  UNL     1     -33.951   3.841   4.526  1.00 20.00    -0.087 C 
HETATM    3  C10 UNL     1     -34.962   4.898   4.621  1.00 20.00     0.362 C 
ENDROOT
BRANCH   3   4
HETATM    4  N11 UNL     1     -34.923   5.755   3.444  1.00 20.00     0.099 N 
HETATM    5  H28 UNL     1     -35.572   6.531   3.573  1.00 20.00     0.317 HD
BRANCH   4   6
HETATM    6  C6  UNL     1     -33.584   6.281   3.228  1.00 20.00     0.229 C 
HETATM    7  C4  UNL     1     -33.146   6.183   1.765  1.00 20.00     0.036 C 
HETATM    8  C3  UNL     1     -32.043   7.232   1.608  1.00 20.00     0.003 C 
HETATM    9  C5  UNL     1     -32.035   8.054   2.903  1.00 20.00     0.011 C 
HETATM   10  C7  UNL     1     -33.391   7.774   3.577  1.00 20.00    -0.017 C 
HETATM   11  C8  UNL     1     -34.480   8.689   2.984  1.00 20.00     0.017 C 
HETATM   12  C9  UNL     1     -33.319   8.006   5.090  1.00 20.00     0.017 C 
ENDBRANCH   4   6
ENDBRANCH   3   4
TORSDOF 2
ENDMDL
MODEL 4
REMARK VINA RESULT:       1.1      1.673      4.411
REMARK  2 active torsions:
REMARK  status: ('A' for Active; 'I' for Inactive)
REMARK    1  A    between atoms: C6_6  and  N11_11 
REMARK    2  A    between atoms: C10_10  and  N11_11 
ROOT
HETATM    1  C1  UNL     1     -33.945   3.885   4.510  1.00 20.00     0.013 C 
HETATM    2  C2  UNL     1     -34.528   4.892   4.218  1.00 20.00    -0.087 C 
HETATM    3  C10 UNL     1     -35.246   6.119   3.862  1.00 20.00     0.362 C 
ENDROOT
BRANCH   3   4
HETATM    4  N11 UNL     1     -34.314   7.222   3.667  1.00 20.00     0.099 N 
HETATM    5  H28 UNL     1     -34.064   7.613   4.576  1.00 20.00     0.317 HD
BRANCH   4   6
HETATM    6  C6  UNL     1     -33.108   6.772   2.990  1.00 20.00     0.229 C 
HETATM    7  C4  UNL     1     -33.410   5.831   1.822  1.00 20.00     0.036 C 
HETATM    8  C3  UNL     1     -32.178   5.911   0.918  1.00 20.00     0.003 C 
HETATM    9  C5  UNL     1     -31.311   7.054   1.461  1.00 20.00     0.011 C 
HETATM   10  C7  UNL     1     -32.244   7.887   2.360  1.00 20.00    -0.017 C 
HETATM   11  C8  UNL     1     -33.054   8.884   1.508  1.00 20.00     0.017 C 
HETATM   12  C9  UNL     1     -31.451   8.666   3.414  1.00 20.00     0.017 C 
ENDBRANCH   4   6
ENDBRANCH   3   4
TORSDOF 2
ENDMDL
MODEL 5
REMARK VINA RESULT:       1.1      2.020      4.511
REMARK  2 active torsions:
REMARK  status: ('A' for Active; 'I' for Inactive)
REMARK    1  A    between atoms: C6_6  and  N11_11 
REMARK    2  A    between atoms: C10_10  and  N11_11 
ROOT
HETATM    1  C1  UNL     1     -33.325   2.748   4.555  1.00 20.00     0.013 C 
HETATM    2  C2  UNL     1     -33.786   3.855   4.508  1.00 20.00    -0.087 C 
HETATM    3  C10 UNL     1     -34.348   5.207   4.457  1.00 20.00     0.362 C 
ENDROOT
BRANCH   3   4
HETATM    4  N11 UNL     1     -34.709   5.562   3.091  1.00 20.00     0.099 N 
HETATM    5  H28 UNL     1     -35.713   5.734   3.044  1.00 20.00     0.317 HD
BRANCH   4   6
HETATM    6  C6  UNL     1     -33.997   6.754   2.657  1.00 20.00     0.229 C 
HETATM    7  C4  UNL     1     -33.265   7.449   3.807  1.00 20.00     0.036 C 
HETATM    8  C3  UNL     1     -32.169   8.281   3.137  1.00 20.00     0.003 C 
HETATM    9  C5  UNL     1     -32.150   7.869   1.660  1.00 20.00     0.011 C 
HETATM   10  C7  UNL     1     -32.896   6.523   1.598  1.00 20.00    -0.017 C 
HETATM   11  C8  UNL     1     -31.939   5.367   1.950  1.00 20.00     0.017 C 
HETATM   12  C9  UNL     1     -33.481   6.274   0.204  1.00 20.00     0.017 C 
ENDBRANCH   4   6
ENDBRANCH   3   4
TORSDOF 2
ENDMDL
MODEL 6
REMARK VINA RESULT:       1.3      1.471      2.852
REMARK  2 active torsions:
REMARK  status: ('A' for Active; 'I' for Inactive)
REMARK    1  A    between atoms: C6_6  and  N11_11 
REMARK    2  A    between atoms: C10_10  and  N11_11 
ROOT
HETATM    1  C1  UNL     1     -32.060   9.442   0.717  1.00 20.00     0.013 C 
HETATM    2  C2  UNL     1     -32.224   8.484   1.420  1.00 20.00    -0.087 C 
HETATM    3  C10 UNL     1     -32.421   7.317   2.284  1.00 20.00     0.362 C 
ENDROOT
BRANCH   3   4
HETATM    4  N11 UNL     1     -33.163   6.277   1.583  1.00 20.00     0.099 N 
HETATM    5  H28 UNL     1     -32.506   5.666   1.099  1.00 20.00     0.317 HD
BRANCH   4   6
HETATM    6  C6  UNL     1     -33.959   5.489   2.511  1.00 20.00     0.229 C 
HETATM    7  C4  UNL     1     -33.106   4.536   3.350  1.00 20.00     0.036 C 
HETATM    8  C3  UNL     1     -33.951   4.231   4.589  1.00 20.00     0.003 C 
HETATM    9  C5  UNL     1     -35.151   5.184   4.543  1.00 20.00     0.011 C 
HETATM   10  C7  UNL     1     -34.756   6.299   3.558  1.00 20.00    -0.017 C 
HETATM   11  C8  UNL     1     -33.912   7.371   4.276  1.00 20.00     0.017 C 
HETATM   12  C9  UNL     1     -35.992   6.969   2.949  1.00 20.00     0.017 C 
ENDBRANCH   4   6
ENDBRANCH   3   4
TORSDOF 2
ENDMDL
MODEL 7
REMARK VINA RESULT:       1.3      1.558      2.138
REMARK  2 active torsions:
REMARK  status: ('A' for Active; 'I' for Inactive)
REMARK    1  A    between atoms: C6_6  and  N11_11 
REMARK    2  A    between atoms: C10_10  and  N11_11 
ROOT
HETATM    1  C1  UNL     1     -32.469   9.889   0.015  1.00 20.00     0.013 C 
HETATM    2  C2  UNL     1     -32.125   8.900   0.601  1.00 20.00    -0.087 C 
HETATM    3  C10 UNL     1     -31.699   7.694   1.317  1.00 20.00     0.362 C 
ENDROOT
BRANCH   3   4
HETATM    4  N11 UNL     1     -32.853   6.900   1.719  1.00 20.00     0.099 N 
HETATM    5  H28 UNL     1     -32.705   5.930   1.440  1.00 20.00     0.317 HD
BRANCH   4   6
HETATM    6  C6  UNL     1     -33.052   6.962   3.158  1.00 20.00     0.229 C 
HETATM    7  C4  UNL     1     -33.098   8.399   3.681  1.00 20.00     0.036 C 
HETATM    8  C3  UNL     1     -33.844   8.314   5.014  1.00 20.00     0.003 C 
HETATM    9  C5  UNL     1     -34.405   6.890   5.111  1.00 20.00     0.011 C 
HETATM   10  C7  UNL     1     -34.366   6.333   3.676  1.00 20.00    -0.017 C 
HETATM   11  C8  UNL     1     -35.614   6.789   2.893  1.00 20.00     0.017 C 
HETATM   12  C9  UNL     1     -34.311   4.802   3.673  1.00 20.00     0.017 C 
ENDBRANCH   4   6
ENDBRANCH   3   4
TORSDOF 2
ENDMDL
MODEL 8
REMARK VINA RESULT:       1.5      1.418      4.181
REMARK  2 active torsions:
REMARK  status: ('A' for Active; 'I' for Inactive)
REMARK    1  A    between atoms: C6_6  and  N11_11 
REMARK    2  A    between atoms: C10_10  and  N11_11 
ROOT
HETATM    1  C1  UNL     1     -34.205   4.344   4.060  1.00 20.00     0.013 C 
HETATM    2  C2  UNL     1     -34.439   5.513   3.929  1.00 20.00    -0.087 C 
HETATM    3  C10 UNL     1     -34.730   6.941   3.770  1.00 20.00     0.362 C 
ENDROOT
BRANCH   3   4
HETATM    4  N11 UNL     1     -33.499   7.702   3.604  1.00 20.00     0.099 N 
HETATM    5  H28 UNL     1     -32.714   7.147   3.946  1.00 20.00     0.317 HD
BRANCH   4   6
HETATM    6  C6  UNL     1     -33.278   8.034   2.205  1.00 20.00     0.229 C 
HETATM    7  C4  UNL     1     -33.274   9.544   1.956  1.00 20.00     0.036 C 
HETATM    8  C3  UNL     1     -32.502   9.730   0.648  1.00 20.00     0.003 C 
HETATM    9  C5  UNL     1     -31.890   8.366   0.304  1.00 20.00     0.011 C 
HETATM   10  C7  UNL     1     -31.934   7.553   1.611  1.00 20.00    -0.017 C 
HETATM   11  C8  UNL     1     -30.717   7.895   2.493  1.00 20.00     0.017 C 
HETATM   12  C9  UNL     1     -31.935   6.047   1.332  1.00 20.00     0.017 C 
ENDBRANCH   4   6
ENDBRANCH   3   4
TORSDOF 2
ENDMDL
MODEL 9
REMARK VINA RESULT:       2.3      2.631      3.853
REMARK  2 active torsions:
REMARK  status: ('A' for Active; 'I' for Inactive)
REMARK    1  A    between atoms: C6_6  and  N11_11 
REMARK    2  A    between atoms: C10_10  and  N11_11 
ROOT
HETATM    1  C1  UNL     1     -33.830   4.034  -0.473  1.00 20.00     0.013 C 
HETATM    2  C2  UNL     1     -33.111   4.718   0.201  1.00 20.00    -0.087 C 
HETATM    3  C10 UNL     1     -32.227   5.552   1.021  1.00 20.00     0.362 C 
ENDROOT
BRANCH   3   4
HETATM    4  N11 UNL     1     -33.004   6.387   1.928  1.00 20.00     0.099 N 
HETATM    5  H28 UNL     1     -33.529   7.072   1.385  1.00 20.00     0.317 HD
BRANCH   4   6
HETATM    6  C6  UNL     1     -33.930   5.583   2.711  1.00 20.00     0.229 C 
HETATM    7  C4  UNL     1     -33.214   4.548   3.581  1.00 20.00     0.036 C 
HETATM    8  C3  UNL     1     -34.206   4.212   4.697  1.00 20.00     0.003 C 
HETATM    9  C5  UNL     1     -35.358   5.217   4.575  1.00 20.00     0.011 C 
HETATM   10  C7  UNL     1     -34.811   6.368   3.709  1.00 20.00    -0.017 C 
HETATM   11  C8  UNL     1     -34.016   7.359   4.581  1.00 20.00     0.017 C 
HETATM   12  C9  UNL     1     -35.943   7.124   3.007  1.00 20.00     0.017 C 
ENDBRANCH   4   6
ENDBRANCH   3   4
TORSDOF 2
ENDMDL
