MODEL 1
REMARK VINA RESULT:       1.5      0.000      0.000
REMARK  0 active torsions:
REMARK  status: ('A' for Active; 'I' for Inactive)
ROOT
HETATM    1  C1  UNL     1     -32.462   8.722   1.015  1.00 20.00     0.086 C 
HETATM    2  C2  UNL     1     -34.378   7.456   4.097  1.00 20.00     0.003 C 
HETATM    3  C3  UNL     1     -34.499   5.988   3.707  1.00 20.00     0.001 C 
HETATM    4  C4  UNL     1     -33.986   8.339   2.913  1.00 20.00     0.042 C 
HETATM    5  C5  UNL     1     -33.250   5.476   2.990  1.00 20.00     0.012 C 
HETATM    6  C6  UNL     1     -32.723   7.845   2.174  1.00 20.00     0.132 C 
HETATM    7  C7  UNL     1     -32.847   6.333   1.757  1.00 20.00    -0.013 C 
HETATM    8  C8  UNL     1     -33.918   6.140   0.649  1.00 20.00     0.018 C 
HETATM    9  C9  UNL     1     -31.525   5.759   1.190  1.00 20.00     0.018 C 
HETATM   10  N10 UNL     1     -32.256   9.411   0.104  1.00 20.00    -0.195 NA
HETATM   11 CL11 UNL     1     -31.304   8.114   3.272  1.00 20.00    -0.102 Cl
ENDROOT
TORSDOF 0
ENDMDL
MODEL 2
REMARK VINA RESULT:       2.3      2.711      3.619
REMARK  0 active torsions:
REMARK  status: ('A' for Active; 'I' for Inactive)
ROOT
HETATM    1  C1  UNL     1     -33.899   4.789   3.721  1.00 20.00     0.086 C 
HETATM    2  C2  UNL     1     -32.729   8.442   3.472  1.00 20.00     0.003 C 
HETATM    3  C3  UNL     1     -32.031   8.369   2.121  1.00 20.00     0.001 C 
HETATM    4  C4  UNL     1     -32.997   7.057   4.060  1.00 20.00     0.042 C 
HETATM    5  C5  UNL     1     -32.763   7.455   1.140  1.00 20.00     0.012 C 
HETATM    6  C6  UNL     1     -33.742   6.115   3.089  1.00 20.00     0.132 C 
HETATM    7  C7  UNL     1     -33.018   6.026   1.695  1.00 20.00    -0.013 C 
HETATM    8  C8  UNL     1     -31.655   5.291   1.815  1.00 20.00     0.018 C 
HETATM    9  C9  UNL     1     -33.843   5.245   0.642  1.00 20.00     0.018 C 
HETATM   10  N10 UNL     1     -34.022   3.747   4.217  1.00 20.00    -0.195 NA
HETATM   11 CL11 UNL     1     -35.439   6.735   2.915  1.00 20.00    -0.102 Cl
ENDROOT
TORSDOF 0
ENDMDL
MODEL 3
REMARK VINA RESULT:       2.8      1.867      3.150
REMARK  0 active torsions:
REMARK  status: ('A' for Active; 'I' for Inactive)
ROOT
HETATM    1  C1  UNL     1     -32.224   7.325   2.105  1.00 20.00     0.086 C 
HETATM    2  C2  UNL     1     -33.866   4.155   3.531  1.00 20.00     0.003 C 
HETATM    3  C3  UNL     1     -34.753   4.808   4.582  1.00 20.00     0.001 C 
HETATM    4  C4  UNL     1     -32.785   5.105   3.016  1.00 20.00     0.042 C 
HETATM    5  C5  UNL     1     -35.331   6.139   4.105  1.00 20.00     0.012 C 
HETATM    6  C6  UNL     1     -33.344   6.457   2.522  1.00 20.00     0.132 C 
HETATM    7  C7  UNL     1     -34.252   7.142   3.609  1.00 20.00    -0.013 C 
HETATM    8  C8  UNL     1     -33.414   7.610   4.830  1.00 20.00     0.018 C 
HETATM    9  C9  UNL     1     -34.981   8.400   3.073  1.00 20.00     0.018 C 
HETATM   10  N10 UNL     1     -31.345   8.007   1.777  1.00 20.00    -0.195 NA
HETATM   11 CL11 UNL     1     -34.267   6.144   0.991  1.00 20.00    -0.102 Cl
ENDROOT
TORSDOF 0
ENDMDL
MODEL 4
REMARK VINA RESULT:       3.1      2.075      3.087
REMARK  0 active torsions:
REMARK  status: ('A' for Active; 'I' for Inactive)
ROOT
HETATM    1  C1  UNL     1     -31.973   5.423   1.203  1.00 20.00     0.086 C 
HETATM    2  C2  UNL     1     -34.648   6.340   3.807  1.00 20.00     0.003 C 
HETATM    3  C3  UNL     1     -34.231   7.782   4.068  1.00 20.00     0.001 C 
HETATM    4  C4  UNL     1     -33.561   5.546   3.083  1.00 20.00     0.042 C 
HETATM    5  C5  UNL     1     -33.747   8.483   2.800  1.00 20.00     0.012 C 
HETATM    6  C6  UNL     1     -33.059   6.231   1.794  1.00 20.00     0.132 C 
HETATM    7  C7  UNL     1     -32.614   7.717   2.060  1.00 20.00    -0.013 C 
HETATM    8  C8  UNL     1     -31.330   7.772   2.931  1.00 20.00     0.018 C 
HETATM    9  C9  UNL     1     -32.290   8.487   0.756  1.00 20.00     0.018 C 
HETATM   10  N10 UNL     1     -31.120   4.787   0.739  1.00 20.00    -0.195 NA
HETATM   11 CL11 UNL     1     -34.397   6.151   0.571  1.00 20.00    -0.102 Cl
ENDROOT
TORSDOF 0
ENDMDL
MODEL 5
REMARK VINA RESULT:       4.2      2.009      2.987
REMARK  0 active torsions:
REMARK  status: ('A' for Active; 'I' for Inactive)
ROOT
HETATM    1  C1  UNL     1     -33.691   5.535   0.697  1.00 20.00     0.086 C 
HETATM    2  C2  UNL     1     -31.927   8.373   2.597  1.00 20.00     0.003 C 
HETATM    3  C3  UNL     1     -32.742   8.330   3.883  1.00 20.00     0.001 C 
HETATM    4  C4  UNL     1     -32.605   7.612   1.458  1.00 20.00     0.042 C 
HETATM    5  C5  UNL     1     -33.118   6.904   4.282  1.00 20.00     0.012 C 
HETATM    6  C6  UNL     1     -32.990   6.164   1.834  1.00 20.00     0.132 C 
HETATM    7  C7  UNL     1     -33.843   6.115   3.156  1.00 20.00    -0.013 C 
HETATM    8  C8  UNL     1     -35.249   6.738   2.943  1.00 20.00     0.018 C 
HETATM    9  C9  UNL     1     -34.078   4.670   3.662  1.00 20.00     0.018 C 
HETATM   10  N10 UNL     1     -34.241   5.040  -0.197  1.00 20.00    -0.195 NA
HETATM   11 CL11 UNL     1     -31.455   5.213   2.002  1.00 20.00    -0.102 Cl
ENDROOT
TORSDOF 0
ENDMDL
MODEL 6
REMARK VINA RESULT:       4.4      2.285      3.488
REMARK  0 active torsions:
REMARK  status: ('A' for Active; 'I' for Inactive)
ROOT
HETATM    1  C1  UNL     1     -33.182   8.066   4.841  1.00 20.00     0.086 C 
HETATM    2  C2  UNL     1     -31.951   7.258   1.290  1.00 20.00     0.003 C 
HETATM    3  C3  UNL     1     -32.617   5.899   1.119  1.00 20.00     0.001 C 
HETATM    4  C4  UNL     1     -31.928   7.711   2.750  1.00 20.00     0.042 C 
HETATM    5  C5  UNL     1     -34.001   5.848   1.765  1.00 20.00     0.012 C 
HETATM    6  C6  UNL     1     -33.317   7.674   3.424  1.00 20.00     0.132 C 
HETATM    7  C7  UNL     1     -34.004   6.267   3.261  1.00 20.00    -0.013 C 
HETATM    8  C8  UNL     1     -33.260   5.178   4.082  1.00 20.00     0.018 C 
HETATM    9  C9  UNL     1     -35.472   6.258   3.756  1.00 20.00     0.018 C 
HETATM   10  N10 UNL     1     -33.076   8.375   5.955  1.00 20.00    -0.195 NA
HETATM   11 CL11 UNL     1     -34.322   8.991   2.685  1.00 20.00    -0.102 Cl
ENDROOT
TORSDOF 0
ENDMDL
