MODEL 1
REMARK VINA RESULT:      -0.5      0.000      0.000
REMARK  0 active torsions:
REMARK  status: ('A' for Active; 'I' for Inactive)
ROOT
HETATM    1  C1  UNL     1     -32.883   6.380   2.020  1.00 20.00    -0.081 C 
HETATM    2  C2  UNL     1     -32.563   5.530   1.035  1.00 20.00     0.015 C 
HETATM    3  C3  UNL     1     -33.866   6.042   3.110  1.00 20.00     0.034 C 
HETATM    4  C4  UNL     1     -34.194   7.397   3.720  1.00 20.00     0.005 C 
HETATM    5  C5  UNL     1     -32.892   8.177   3.585  1.00 20.00     0.013 C 
HETATM    6  C6  UNL     1     -32.350   7.794   2.192  1.00 20.00    -0.025 C 
HETATM    7  C7  UNL     1     -32.922   8.726   1.112  1.00 20.00     0.019 C 
HETATM    8  C8  UNL     1     -30.818   7.870   2.180  1.00 20.00     0.019 C 
ENDROOT
TORSDOF 0
ENDMDL
MODEL 2
REMARK VINA RESULT:      -0.3      1.159      2.992
REMARK  0 active torsions:
REMARK  status: ('A' for Active; 'I' for Inactive)
ROOT
HETATM    1  C1  UNL     1     -33.492   5.518   3.103  1.00 20.00    -0.081 C 
HETATM    2  C2  UNL     1     -33.753   4.387   3.772  1.00 20.00     0.015 C 
HETATM    3  C3  UNL     1     -32.551   5.580   1.929  1.00 20.00     0.034 C 
HETATM    4  C4  UNL     1     -32.276   7.069   1.777  1.00 20.00     0.005 C 
HETATM    5  C5  UNL     1     -33.586   7.721   2.201  1.00 20.00     0.013 C 
HETATM    6  C6  UNL     1     -34.060   6.894   3.414  1.00 20.00    -0.025 C 
HETATM    7  C7  UNL     1     -33.459   7.447   4.717  1.00 20.00     0.019 C 
HETATM    8  C8  UNL     1     -35.591   6.913   3.503  1.00 20.00     0.019 C 
ENDROOT
TORSDOF 0
ENDMDL
MODEL 3
REMARK VINA RESULT:      -0.3      1.178      3.455
REMARK  0 active torsions:
REMARK  status: ('A' for Active; 'I' for Inactive)
ROOT
HETATM    1  C1  UNL     1     -33.433   7.450   3.866  1.00 20.00    -0.081 C 
HETATM    2  C2  UNL     1     -33.598   8.084   5.034  1.00 20.00     0.015 C 
HETATM    3  C3  UNL     1     -32.402   7.858   2.848  1.00 20.00     0.034 C 
HETATM    4  C4  UNL     1     -32.853   7.141   1.584  1.00 20.00     0.005 C 
HETATM    5  C5  UNL     1     -33.467   5.847   2.103  1.00 20.00     0.013 C 
HETATM    6  C6  UNL     1     -34.245   6.265   3.368  1.00 20.00    -0.025 C 
HETATM    7  C7  UNL     1     -35.676   6.699   3.006  1.00 20.00     0.019 C 
HETATM    8  C8  UNL     1     -34.298   5.102   4.367  1.00 20.00     0.019 C 
ENDROOT
TORSDOF 0
ENDMDL
MODEL 4
REMARK VINA RESULT:      -0.3      0.837      2.551
REMARK  0 active torsions:
REMARK  status: ('A' for Active; 'I' for Inactive)
ROOT
HETATM    1  C1  UNL     1     -33.329   7.290   2.911  1.00 20.00    -0.081 C 
HETATM    2  C2  UNL     1     -33.994   7.886   3.909  1.00 20.00     0.015 C 
HETATM    3  C3  UNL     1     -33.506   5.837   2.559  1.00 20.00     0.034 C 
HETATM    4  C4  UNL     1     -32.301   5.539   1.678  1.00 20.00     0.005 C 
HETATM    5  C5  UNL     1     -32.062   6.851   0.942  1.00 20.00     0.013 C 
HETATM    6  C6  UNL     1     -32.299   7.945   2.004  1.00 20.00    -0.025 C 
HETATM    7  C7  UNL     1     -31.004   8.240   2.778  1.00 20.00     0.019 C 
HETATM    8  C8  UNL     1     -32.805   9.230   1.338  1.00 20.00     0.019 C 
ENDROOT
TORSDOF 0
ENDMDL
MODEL 5
REMARK VINA RESULT:      -0.1      0.912      2.355
REMARK  0 active torsions:
REMARK  status: ('A' for Active; 'I' for Inactive)
ROOT
HETATM    1  C1  UNL     1     -33.517   6.218   2.987  1.00 20.00    -0.081 C 
HETATM    2  C2  UNL     1     -34.251   5.246   3.544  1.00 20.00     0.015 C 
HETATM    3  C3  UNL     1     -33.367   7.586   3.598  1.00 20.00     0.034 C 
HETATM    4  C4  UNL     1     -32.811   8.422   2.453  1.00 20.00     0.005 C 
HETATM    5  C5  UNL     1     -31.946   7.438   1.677  1.00 20.00     0.013 C 
HETATM    6  C6  UNL     1     -32.753   6.123   1.676  1.00 20.00    -0.025 C 
HETATM    7  C7  UNL     1     -33.723   6.082   0.484  1.00 20.00     0.019 C 
HETATM    8  C8  UNL     1     -31.804   4.919   1.611  1.00 20.00     0.019 C 
ENDROOT
TORSDOF 0
ENDMDL
MODEL 6
REMARK VINA RESULT:      -0.0      1.152      3.026
REMARK  0 active torsions:
REMARK  status: ('A' for Active; 'I' for Inactive)
ROOT
HETATM    1  C1  UNL     1     -33.413   6.633   2.467  1.00 20.00    -0.081 C 
HETATM    2  C2  UNL     1     -33.317   5.890   1.356  1.00 20.00     0.015 C 
HETATM    3  C3  UNL     1     -32.466   7.760   2.786  1.00 20.00     0.034 C 
HETATM    4  C4  UNL     1     -32.711   8.016   4.266  1.00 20.00     0.005 C 
HETATM    5  C5  UNL     1     -34.193   7.711   4.443  1.00 20.00     0.013 C 
HETATM    6  C6  UNL     1     -34.442   6.461   3.573  1.00 20.00    -0.025 C 
HETATM    7  C7  UNL     1     -34.168   5.178   4.375  1.00 20.00     0.019 C 
HETATM    8  C8  UNL     1     -35.888   6.450   3.062  1.00 20.00     0.019 C 
ENDROOT
TORSDOF 0
ENDMDL
MODEL 7
REMARK VINA RESULT:       0.2      0.870      2.630
REMARK  0 active torsions:
REMARK  status: ('A' for Active; 'I' for Inactive)
ROOT
HETATM    1  C1  UNL     1     -32.688   7.556   2.071  1.00 20.00    -0.081 C 
HETATM    2  C2  UNL     1     -31.888   8.353   1.349  1.00 20.00     0.015 C 
HETATM    3  C3  UNL     1     -33.360   8.001   3.342  1.00 20.00     0.034 C 
HETATM    4  C4  UNL     1     -33.803   6.692   3.981  1.00 20.00     0.005 C 
HETATM    5  C5  UNL     1     -34.134   5.804   2.789  1.00 20.00     0.013 C 
HETATM    6  C6  UNL     1     -33.027   6.107   1.757  1.00 20.00    -0.025 C 
HETATM    7  C7  UNL     1     -31.806   5.201   1.987  1.00 20.00     0.019 C 
HETATM    8  C8  UNL     1     -33.560   5.902   0.333  1.00 20.00     0.019 C 
ENDROOT
TORSDOF 0
ENDMDL
MODEL 8
REMARK VINA RESULT:       0.2      0.940      2.559
REMARK  0 active torsions:
REMARK  status: ('A' for Active; 'I' for Inactive)
ROOT
HETATM    1  C1  UNL     1     -32.760   7.321   2.304  1.00 20.00    -0.081 C 
HETATM    2  C2  UNL     1     -32.190   8.417   1.786  1.00 20.00     0.015 C 
HETATM    3  C3  UNL     1     -32.600   5.950   1.703  1.00 20.00     0.034 C 
HETATM    4  C4  UNL     1     -33.708   5.144   2.366  1.00 20.00     0.005 C 
HETATM    5  C5  UNL     1     -33.813   5.754   3.757  1.00 20.00     0.013 C 
HETATM    6  C6  UNL     1     -33.655   7.272   3.532  1.00 20.00    -0.025 C 
HETATM    7  C7  UNL     1     -35.018   7.922   3.236  1.00 20.00     0.019 C 
HETATM    8  C8  UNL     1     -33.028   7.930   4.768  1.00 20.00     0.019 C 
ENDROOT
TORSDOF 0
ENDMDL
MODEL 9
REMARK VINA RESULT:       0.3      1.085      2.960
REMARK  0 active torsions:
REMARK  status: ('A' for Active; 'I' for Inactive)
ROOT
HETATM    1  C1  UNL     1     -33.491   7.170   3.053  1.00 20.00    -0.081 C 
HETATM    2  C2  UNL     1     -34.546   7.164   3.878  1.00 20.00     0.015 C 
HETATM    3  C3  UNL     1     -32.550   8.340   2.930  1.00 20.00     0.034 C 
HETATM    4  C4  UNL     1     -31.799   8.052   1.638  1.00 20.00     0.005 C 
HETATM    5  C5  UNL     1     -31.709   6.532   1.605  1.00 20.00     0.013 C 
HETATM    6  C6  UNL     1     -33.085   6.048   2.110  1.00 20.00    -0.025 C 
HETATM    7  C7  UNL     1     -34.080   5.932   0.944  1.00 20.00     0.019 C 
HETATM    8  C8  UNL     1     -32.946   4.689   2.807  1.00 20.00     0.019 C 
ENDROOT
TORSDOF 0
ENDMDL
