MODEL 1
REMARK VINA RESULT:       1.6      0.000      0.000
REMARK  0 active torsions:
REMARK  status: ('A' for Active; 'I' for Inactive)
ROOT
HETATM    1  C1  UNL     1     -33.689   5.264   3.603  1.00 20.00    -0.053 C 
HETATM    2  C2  UNL     1     -34.149   4.166   4.213  1.00 20.00     0.017 C 
HETATM    3  C3  UNL     1     -32.475   5.310   2.738  1.00 20.00     0.073 C 
HETATM    4  C4  UNL     1     -34.322   6.628   3.566  1.00 20.00     0.077 C 
HETATM    5  C5  UNL     1     -32.881   6.369   1.717  1.00 20.00     0.059 C 
HETATM    6  C6  UNL     1     -35.841   6.620   3.377  1.00 20.00     0.051 C 
HETATM    7  C7  UNL     1     -33.945   7.450   4.800  1.00 20.00     0.051 C 
HETATM    8  C8  UNL     1     -31.672   7.143   1.196  1.00 20.00     0.046 C 
HETATM    9  C9  UNL     1     -33.663   5.776   0.538  1.00 20.00     0.046 C 
HETATM   10  O10 UNL     1     -33.737   7.293   2.420  1.00 20.00    -0.366 OA
ENDROOT
TORSDOF 0
ENDMDL
MODEL 2
REMARK VINA RESULT:       1.7      1.616      2.653
REMARK  0 active torsions:
REMARK  status: ('A' for Active; 'I' for Inactive)
ROOT
HETATM    1  C1  UNL     1     -33.286   7.247   3.017  1.00 20.00    -0.053 C 
HETATM    2  C2  UNL     1     -34.250   7.777   3.778  1.00 20.00     0.017 C 
HETATM    3  C3  UNL     1     -33.089   5.787   2.789  1.00 20.00     0.073 C 
HETATM    4  C4  UNL     1     -32.284   7.978   2.165  1.00 20.00     0.077 C 
HETATM    5  C5  UNL     1     -32.566   5.781   1.354  1.00 20.00     0.059 C 
HETATM    6  C6  UNL     1     -32.851   9.172   1.395  1.00 20.00     0.051 C 
HETATM    7  C7  UNL     1     -31.065   8.406   2.985  1.00 20.00     0.051 C 
HETATM    8  C8  UNL     1     -31.618   4.610   1.105  1.00 20.00     0.046 C 
HETATM    9  C9  UNL     1     -33.698   5.760   0.320  1.00 20.00     0.046 C 
HETATM   10  O10 UNL     1     -31.820   7.005   1.197  1.00 20.00    -0.366 OA
ENDROOT
TORSDOF 0
ENDMDL
MODEL 3
REMARK VINA RESULT:       1.7      1.552      3.163
REMARK  0 active torsions:
REMARK  status: ('A' for Active; 'I' for Inactive)
ROOT
HETATM    1  C1  UNL     1     -33.546   6.439   2.642  1.00 20.00    -0.053 C 
HETATM    2  C2  UNL     1     -34.092   5.780   3.669  1.00 20.00     0.017 C 
HETATM    3  C3  UNL     1     -33.600   7.917   2.455  1.00 20.00     0.073 C 
HETATM    4  C4  UNL     1     -32.695   5.874   1.537  1.00 20.00     0.077 C 
HETATM    5  C5  UNL     1     -32.255   8.178   1.781  1.00 20.00     0.059 C 
HETATM    6  C6  UNL     1     -31.671   4.833   1.990  1.00 20.00     0.051 C 
HETATM    7  C7  UNL     1     -33.557   5.313   0.404  1.00 20.00     0.051 C 
HETATM    8  C8  UNL     1     -32.320   9.378   0.839  1.00 20.00     0.046 C 
HETATM    9  C9  UNL     1     -31.121   8.377   2.795  1.00 20.00     0.046 C 
HETATM   10  O10 UNL     1     -31.969   7.004   0.994  1.00 20.00    -0.366 OA
ENDROOT
TORSDOF 0
ENDMDL
MODEL 4
REMARK VINA RESULT:       2.0      1.175      3.570
REMARK  0 active torsions:
REMARK  status: ('A' for Active; 'I' for Inactive)
ROOT
HETATM    1  C1  UNL     1     -32.769   7.373   2.366  1.00 20.00    -0.053 C 
HETATM    2  C2  UNL     1     -32.277   8.518   1.880  1.00 20.00     0.017 C 
HETATM    3  C3  UNL     1     -33.314   7.197   3.742  1.00 20.00     0.073 C 
HETATM    4  C4  UNL     1     -32.974   6.076   1.629  1.00 20.00     0.077 C 
HETATM    5  C5  UNL     1     -34.415   6.169   3.494  1.00 20.00     0.059 C 
HETATM    6  C6  UNL     1     -33.525   6.230   0.210  1.00 20.00     0.051 C 
HETATM    7  C7  UNL     1     -31.694   5.238   1.614  1.00 20.00     0.051 C 
HETATM    8  C8  UNL     1     -34.636   5.275   4.712  1.00 20.00     0.046 C 
HETATM    9  C9  UNL     1     -35.742   6.820   3.083  1.00 20.00     0.046 C 
HETATM   10  O10 UNL     1     -33.951   5.342   2.407  1.00 20.00    -0.366 OA
ENDROOT
TORSDOF 0
ENDMDL
MODEL 5
REMARK VINA RESULT:       2.6      1.053      2.266
REMARK  0 active torsions:
REMARK  status: ('A' for Active; 'I' for Inactive)
ROOT
HETATM    1  C1  UNL     1     -33.493   7.280   3.731  1.00 20.00    -0.053 C 
HETATM    2  C2  UNL     1     -33.108   7.835   4.885  1.00 20.00     0.017 C 
HETATM    3  C3  UNL     1     -33.006   7.695   2.385  1.00 20.00     0.073 C 
HETATM    4  C4  UNL     1     -34.391   6.088   3.540  1.00 20.00     0.077 C 
HETATM    5  C5  UNL     1     -33.014   6.361   1.644  1.00 20.00     0.059 C 
HETATM    6  C6  UNL     1     -34.145   4.942   4.523  1.00 20.00     0.051 C 
HETATM    7  C7  UNL     1     -35.865   6.495   3.556  1.00 20.00     0.051 C 
HETATM    8  C8  UNL     1     -33.284   6.545   0.152  1.00 20.00     0.046 C 
HETATM    9  C9  UNL     1     -31.712   5.574   1.840  1.00 20.00     0.046 C 
HETATM   10  O10 UNL     1     -34.102   5.599   2.207  1.00 20.00    -0.366 OA
ENDROOT
TORSDOF 0
ENDMDL
MODEL 6
REMARK VINA RESULT:       2.8      1.263      2.257
REMARK  0 active torsions:
REMARK  status: ('A' for Active; 'I' for Inactive)
ROOT
HETATM    1  C1  UNL     1     -33.145   5.942   1.574  1.00 20.00    -0.053 C 
HETATM    2  C2  UNL     1     -33.643   5.123   0.641  1.00 20.00     0.017 C 
HETATM    3  C3  UNL     1     -31.836   6.649   1.472  1.00 20.00     0.073 C 
HETATM    4  C4  UNL     1     -33.810   6.401   2.843  1.00 20.00     0.077 C 
HETATM    5  C5  UNL     1     -32.146   7.949   2.212  1.00 20.00     0.059 C 
HETATM    6  C6  UNL     1     -35.293   6.748   2.695  1.00 20.00     0.051 C 
HETATM    7  C7  UNL     1     -33.612   5.388   3.972  1.00 20.00     0.051 C 
HETATM    8  C8  UNL     1     -30.906   8.515   2.900  1.00 20.00     0.046 C 
HETATM    9  C9  UNL     1     -32.760   9.013   1.293  1.00 20.00     0.046 C 
HETATM   10  O10 UNL     1     -33.109   7.608   3.230  1.00 20.00    -0.366 OA
ENDROOT
TORSDOF 0
ENDMDL
MODEL 7
REMARK VINA RESULT:       2.8      0.998      3.119
REMARK  0 active torsions:
REMARK  status: ('A' for Active; 'I' for Inactive)
ROOT
HETATM    1  C1  UNL     1     -33.854   5.218   3.277  1.00 20.00    -0.053 C 
HETATM    2  C2  UNL     1     -33.729   3.979   3.766  1.00 20.00     0.017 C 
HETATM    3  C3  UNL     1     -34.710   6.284   3.870  1.00 20.00     0.073 C 
HETATM    4  C4  UNL     1     -33.109   5.827   2.120  1.00 20.00     0.077 C 
HETATM    5  C5  UNL     1     -33.891   7.532   3.551  1.00 20.00     0.059 C 
HETATM    6  C6  UNL     1     -31.621   5.477   2.066  1.00 20.00     0.051 C 
HETATM    7  C7  UNL     1     -33.782   5.494   0.787  1.00 20.00     0.051 C 
HETATM    8  C8  UNL     1     -34.781   8.757   3.357  1.00 20.00     0.046 C 
HETATM    9  C9  UNL     1     -32.832   7.826   4.622  1.00 20.00     0.046 C 
HETATM   10  O10 UNL     1     -33.221   7.260   2.303  1.00 20.00    -0.366 OA
ENDROOT
TORSDOF 0
ENDMDL
MODEL 8
REMARK VINA RESULT:       2.8      1.236      3.460
REMARK  0 active torsions:
REMARK  status: ('A' for Active; 'I' for Inactive)
ROOT
HETATM    1  C1  UNL     1     -32.474   6.329   1.580  1.00 20.00    -0.053 C 
HETATM    2  C2  UNL     1     -31.512   5.626   0.971  1.00 20.00     0.017 C 
HETATM    3  C3  UNL     1     -33.811   5.789   1.957  1.00 20.00     0.073 C 
HETATM    4  C4  UNL     1     -32.393   7.739   2.098  1.00 20.00     0.077 C 
HETATM    5  C5  UNL     1     -34.093   6.569   3.239  1.00 20.00     0.059 C 
HETATM    6  C6  UNL     1     -31.079   8.086   2.800  1.00 20.00     0.051 C 
HETATM    7  C7  UNL     1     -32.688   8.755   0.992  1.00 20.00     0.051 C 
HETATM    8  C8  UNL     1     -35.589   6.798   3.442  1.00 20.00     0.046 C 
HETATM    9  C9  UNL     1     -33.501   5.888   4.480  1.00 20.00     0.046 C 
HETATM   10  O10 UNL     1     -33.460   7.854   3.071  1.00 20.00    -0.366 OA
ENDROOT
TORSDOF 0
ENDMDL
MODEL 9
REMARK VINA RESULT:       3.9      1.550      3.006
REMARK  0 active torsions:
REMARK  status: ('A' for Active; 'I' for Inactive)
ROOT
HETATM    1  C1  UNL     1     -35.223   6.352   3.703  1.00 20.00    -0.053 C 
HETATM    2  C2  UNL     1     -36.285   6.935   3.135  1.00 20.00     0.017 C 
HETATM    3  C3  UNL     1     -35.237   5.013   4.357  1.00 20.00     0.073 C 
HETATM    4  C4  UNL     1     -33.803   6.850   3.720  1.00 20.00     0.077 C 
HETATM    5  C5  UNL     1     -33.832   4.512   4.032  1.00 20.00     0.059 C 
HETATM    6  C6  UNL     1     -33.324   7.454   2.399  1.00 20.00     0.051 C 
HETATM    7  C7  UNL     1     -33.573   7.834   4.868  1.00 20.00     0.051 C 
HETATM    8  C8  UNL     1     -33.301   3.579   5.118  1.00 20.00     0.046 C 
HETATM    9  C9  UNL     1     -33.761   3.813   2.668  1.00 20.00     0.046 C 
HETATM   10  O10 UNL     1     -32.990   5.683   3.995  1.00 20.00    -0.366 OA
ENDROOT
TORSDOF 0
ENDMDL
