MODEL 1
REMARK VINA RESULT:       1.8      0.000      0.000
REMARK  0 active torsions:
REMARK  status: ('A' for Active; 'I' for Inactive)
ROOT
HETATM    1  C1  UNL     1     -34.509   6.152   3.622  1.00 20.00     0.067 C 
HETATM    2  C2  UNL     1     -33.297   8.134   2.743  1.00 20.00     0.059 C 
HETATM    3  C3  UNL     1     -33.244   6.657   3.082  1.00 20.00     0.129 C 
HETATM    4  C4  UNL     1     -32.125   8.296   1.774  1.00 20.00     0.056 C 
HETATM    5  C5  UNL     1     -32.809   6.036   1.746  1.00 20.00     0.071 C 
HETATM    6  C6  UNL     1     -32.407   9.351   0.709  1.00 20.00     0.045 C 
HETATM    7  C7  UNL     1     -30.820   8.623   2.505  1.00 20.00     0.045 C 
HETATM    8  C8  UNL     1     -31.993   4.760   1.948  1.00 20.00     0.047 C 
HETATM    9  C9  UNL     1     -33.953   5.768   0.758  1.00 20.00     0.047 C 
HETATM   10  N10 UNL     1     -35.511   5.751   4.050  1.00 20.00    -0.197 NA
HETATM   11  O11 UNL     1     -31.952   7.021   1.125  1.00 20.00    -0.369 OA
ENDROOT
TORSDOF 0
ENDMDL
MODEL 2
REMARK VINA RESULT:       2.2      1.242      3.266
REMARK  0 active torsions:
REMARK  status: ('A' for Active; 'I' for Inactive)
ROOT
HETATM    1  C1  UNL     1     -33.721   7.836   4.017  1.00 20.00     0.067 C 
HETATM    2  C2  UNL     1     -33.157   5.837   2.654  1.00 20.00     0.059 C 
HETATM    3  C3  UNL     1     -33.504   7.314   2.665  1.00 20.00     0.129 C 
HETATM    4  C4  UNL     1     -32.502   5.660   1.283  1.00 20.00     0.056 C 
HETATM    5  C5  UNL     1     -32.316   7.929   1.911  1.00 20.00     0.071 C 
HETATM    6  C6  UNL     1     -31.396   4.609   1.312  1.00 20.00     0.045 C 
HETATM    7  C7  UNL     1     -33.527   5.315   0.200  1.00 20.00     0.045 C 
HETATM    8  C8  UNL     1     -32.715   9.194   1.151  1.00 20.00     0.047 C 
HETATM    9  C9  UNL     1     -31.080   8.213   2.776  1.00 20.00     0.047 C 
HETATM   10  N10 UNL     1     -33.894   8.250   5.088  1.00 20.00    -0.197 NA
HETATM   11  O11 UNL     1     -31.919   6.932   0.941  1.00 20.00    -0.369 OA
ENDROOT
TORSDOF 0
ENDMDL
MODEL 3
REMARK VINA RESULT:       2.6      1.718      3.036
REMARK  0 active torsions:
REMARK  status: ('A' for Active; 'I' for Inactive)
ROOT
HETATM    1  C1  UNL     1     -33.564   4.036   4.090  1.00 20.00     0.067 C 
HETATM    2  C2  UNL     1     -32.514   5.368   2.274  1.00 20.00     0.059 C 
HETATM    3  C3  UNL     1     -33.782   5.031   3.036  1.00 20.00     0.129 C 
HETATM    4  C4  UNL     1     -32.859   6.714   1.634  1.00 20.00     0.056 C 
HETATM    5  C5  UNL     1     -34.240   6.413   3.526  1.00 20.00     0.071 C 
HETATM    6  C6  UNL     1     -31.639   7.623   1.528  1.00 20.00     0.045 C 
HETATM    7  C7  UNL     1     -33.509   6.544   0.258  1.00 20.00     0.045 C 
HETATM    8  C8  UNL     1     -35.760   6.498   3.656  1.00 20.00     0.047 C 
HETATM    9  C9  UNL     1     -33.582   6.884   4.830  1.00 20.00     0.047 C 
HETATM   10  N10 UNL     1     -33.392   3.248   4.924  1.00 20.00    -0.197 NA
HETATM   11  O11 UNL     1     -33.827   7.341   2.497  1.00 20.00    -0.369 OA
ENDROOT
TORSDOF 0
ENDMDL
MODEL 4
REMARK VINA RESULT:       3.2      2.426      3.729
REMARK  0 active torsions:
REMARK  status: ('A' for Active; 'I' for Inactive)
ROOT
HETATM    1  C1  UNL     1     -32.757   9.276   0.610  1.00 20.00     0.067 C 
HETATM    2  C2  UNL     1     -33.816   8.789   2.804  1.00 20.00     0.059 C 
HETATM    3  C3  UNL     1     -33.267   8.233   1.504  1.00 20.00     0.129 C 
HETATM    4  C4  UNL     1     -33.801   7.566   3.722  1.00 20.00     0.056 C 
HETATM    5  C5  UNL     1     -32.218   7.228   2.002  1.00 20.00     0.071 C 
HETATM    6  C6  UNL     1     -33.509   7.945   5.171  1.00 20.00     0.045 C 
HETATM    7  C7  UNL     1     -35.106   6.770   3.639  1.00 20.00     0.045 C 
HETATM    8  C8  UNL     1     -32.051   6.053   1.039  1.00 20.00     0.047 C 
HETATM    9  C9  UNL     1     -30.845   7.835   2.321  1.00 20.00     0.047 C 
HETATM   10  N10 UNL     1     -32.353  10.103  -0.098  1.00 20.00    -0.197 NA
HETATM   11  O11 UNL     1     -32.741   6.713   3.248  1.00 20.00    -0.369 OA
ENDROOT
TORSDOF 0
ENDMDL
MODEL 5
REMARK VINA RESULT:       3.3      2.193      3.833
REMARK  0 active torsions:
REMARK  status: ('A' for Active; 'I' for Inactive)
ROOT
HETATM    1  C1  UNL     1     -32.022   8.018   1.831  1.00 20.00     0.067 C 
HETATM    2  C2  UNL     1     -33.234   6.796   3.622  1.00 20.00     0.059 C 
HETATM    3  C3  UNL     1     -33.179   7.179   2.155  1.00 20.00     0.129 C 
HETATM    4  C4  UNL     1     -34.158   5.577   3.614  1.00 20.00     0.056 C 
HETATM    5  C5  UNL     1     -33.206   5.808   1.464  1.00 20.00     0.071 C 
HETATM    6  C6  UNL     1     -33.768   4.560   4.681  1.00 20.00     0.045 C 
HETATM    7  C7  UNL     1     -35.628   5.971   3.774  1.00 20.00     0.045 C 
HETATM    8  C8  UNL     1     -33.880   5.872   0.094  1.00 20.00     0.047 C 
HETATM    9  C9  UNL     1     -31.838   5.123   1.336  1.00 20.00     0.047 C 
HETATM   10  N10 UNL     1     -31.107   8.683   1.573  1.00 20.00    -0.197 NA
HETATM   11  O11 UNL     1     -34.012   4.963   2.318  1.00 20.00    -0.369 OA
ENDROOT
TORSDOF 0
ENDMDL
MODEL 6
REMARK VINA RESULT:       4.0      1.915      2.775
REMARK  0 active torsions:
REMARK  status: ('A' for Active; 'I' for Inactive)
ROOT
HETATM    1  C1  UNL     1     -33.513   7.847   4.750  1.00 20.00     0.067 C 
HETATM    2  C2  UNL     1     -32.871   7.340   2.405  1.00 20.00     0.059 C 
HETATM    3  C3  UNL     1     -33.154   6.797   3.793  1.00 20.00     0.129 C 
HETATM    4  C4  UNL     1     -33.028   6.100   1.524  1.00 20.00     0.056 C 
HETATM    5  C5  UNL     1     -34.252   5.761   3.515  1.00 20.00     0.071 C 
HETATM    6  C6  UNL     1     -33.594   6.445   0.150  1.00 20.00     0.045 C 
HETATM    7  C7  UNL     1     -31.711   5.334   1.373  1.00 20.00     0.045 C 
HETATM    8  C8  UNL     1     -34.209   4.601   4.509  1.00 20.00     0.047 C 
HETATM    9  C9  UNL     1     -35.676   6.333   3.449  1.00 20.00     0.047 C 
HETATM   10  N10 UNL     1     -33.798   8.677   5.510  1.00 20.00    -0.197 NA
HETATM   11  O11 UNL     1     -33.959   5.233   2.201  1.00 20.00    -0.369 OA
ENDROOT
TORSDOF 0
ENDMDL
MODEL 7
REMARK VINA RESULT:       4.3      2.257      3.672
REMARK  0 active torsions:
REMARK  status: ('A' for Active; 'I' for Inactive)
ROOT
HETATM    1  C1  UNL     1     -32.458   9.430   1.293  1.00 20.00     0.067 C 
HETATM    2  C2  UNL     1     -32.430   7.032   0.647  1.00 20.00     0.059 C 
HETATM    3  C3  UNL     1     -32.205   8.058   1.741  1.00 20.00     0.129 C 
HETATM    4  C4  UNL     1     -32.607   5.735   1.438  1.00 20.00     0.056 C 
HETATM    5  C5  UNL     1     -33.134   7.552   2.853  1.00 20.00     0.071 C 
HETATM    6  C6  UNL     1     -33.593   4.786   0.764  1.00 20.00     0.045 C 
HETATM    7  C7  UNL     1     -31.273   5.024   1.680  1.00 20.00     0.045 C 
HETATM    8  C8  UNL     1     -32.604   7.899   4.244  1.00 20.00     0.047 C 
HETATM    9  C9  UNL     1     -34.595   8.005   2.729  1.00 20.00     0.047 C 
HETATM   10  N10 UNL     1     -32.658  10.518   0.939  1.00 20.00    -0.197 NA
HETATM   11  O11 UNL     1     -33.138   6.111   2.725  1.00 20.00    -0.369 OA
ENDROOT
TORSDOF 0
ENDMDL
MODEL 8
REMARK VINA RESULT:       4.4      2.508      4.247
REMARK  0 active torsions:
REMARK  status: ('A' for Active; 'I' for Inactive)
ROOT
HETATM    1  C1  UNL     1     -32.146   7.824   1.830  1.00 20.00     0.067 C 
HETATM    2  C2  UNL     1     -33.924   6.192   2.420  1.00 20.00     0.059 C 
HETATM    3  C3  UNL     1     -32.810   7.095   2.914  1.00 20.00     0.129 C 
HETATM    4  C4  UNL     1     -34.753   5.963   3.684  1.00 20.00     0.056 C 
HETATM    5  C5  UNL     1     -33.541   7.974   3.940  1.00 20.00     0.071 C 
HETATM    6  C6  UNL     1     -36.240   5.825   3.373  1.00 20.00     0.045 C 
HETATM    7  C7  UNL     1     -34.266   4.746   4.476  1.00 20.00     0.045 C 
HETATM    8  C8  UNL     1     -32.615   8.425   5.069  1.00 20.00     0.047 C 
HETATM    9  C9  UNL     1     -34.265   9.191   3.348  1.00 20.00     0.047 C 
HETATM   10  N10 UNL     1     -31.620   8.402   0.971  1.00 20.00    -0.197 NA
HETATM   11  O11 UNL     1     -34.563   7.126   4.514  1.00 20.00    -0.369 OA
ENDROOT
TORSDOF 0
ENDMDL
MODEL 9
REMARK VINA RESULT:       4.5      2.136      3.396
REMARK  0 active torsions:
REMARK  status: ('A' for Active; 'I' for Inactive)
ROOT
HETATM    1  C1  UNL     1     -31.657   5.048   1.293  1.00 20.00     0.067 C 
HETATM    2  C2  UNL     1     -33.271   5.559   3.111  1.00 20.00     0.059 C 
HETATM    3  C3  UNL     1     -32.178   6.078   2.195  1.00 20.00     0.129 C 
HETATM    4  C4  UNL     1     -33.972   6.845   3.553  1.00 20.00     0.056 C 
HETATM    5  C5  UNL     1     -32.872   7.261   1.505  1.00 20.00     0.071 C 
HETATM    6  C6  UNL     1     -35.469   6.634   3.761  1.00 20.00     0.045 C 
HETATM    7  C7  UNL     1     -33.344   7.435   4.818  1.00 20.00     0.045 C 
HETATM    8  C8  UNL     1     -31.883   8.363   1.128  1.00 20.00     0.047 C 
HETATM    9  C9  UNL     1     -33.720   6.887   0.281  1.00 20.00     0.047 C 
HETATM   10  N10 UNL     1     -31.244   4.232   0.578  1.00 20.00    -0.197 NA
HETATM   11  O11 UNL     1     -33.785   7.799   2.490  1.00 20.00    -0.369 OA
ENDROOT
TORSDOF 0
ENDMDL
