MODEL 1
REMARK VINA RESULT:       1.4      0.000      0.000
REMARK  2 active torsions:
REMARK  status: ('A' for Active; 'I' for Inactive)
REMARK    1  A    between atoms: C2_2  and  C3_3 
REMARK    2  A    between atoms: C3_3  and  C7_7 
ROOT
HETATM    1  C4  UNL     1     -34.124   4.953   3.800  1.00 20.00     0.084 C 
HETATM    2  C5  UNL     1     -33.686   4.701   2.365  1.00 20.00     0.085 C 
HETATM    3  C6  UNL     1     -33.536   7.643   3.511  1.00 20.00     0.097 C 
HETATM    4  C7  UNL     1     -33.101   7.392   2.072  1.00 20.00     0.131 C 
HETATM    5  S10 UNL     1     -34.916   6.574   4.021  1.00 20.00    -0.167 SA
HETATM    6  S11 UNL     1     -32.308   5.769   1.851  1.00 20.00    -0.155 SA
ENDROOT
BRANCH   4   7
HETATM    7  C3  UNL     1     -32.087   8.415   1.671  1.00 20.00     0.169 C 
HETATM    8  O9  UNL     1     -30.990   8.458   2.233  1.00 20.00    -0.291 OA
BRANCH   7   9
HETATM    9  C2  UNL     1     -32.408   9.394   0.580  1.00 20.00    -0.024 C 
HETATM   10  C1  UNL     1     -32.331   9.049  -0.713  1.00 20.00     0.022 C 
HETATM   11  C8  UNL     1     -32.817  10.771   1.013  1.00 20.00     0.051 C 
ENDBRANCH   7   9
ENDBRANCH   4   7
TORSDOF 2
ENDMDL
MODEL 2
REMARK VINA RESULT:       2.7      2.565      5.495
REMARK  2 active torsions:
REMARK  status: ('A' for Active; 'I' for Inactive)
REMARK    1  A    between atoms: C2_2  and  C3_3 
REMARK    2  A    between atoms: C3_3  and  C7_7 
ROOT
HETATM    1  C4  UNL     1     -31.999   7.588   1.921  1.00 20.00     0.084 C 
HETATM    2  C5  UNL     1     -33.283   8.086   2.567  1.00 20.00     0.085 C 
HETATM    3  C6  UNL     1     -32.678   4.984   2.572  1.00 20.00     0.097 C 
HETATM    4  C7  UNL     1     -33.968   5.482   3.214  1.00 20.00     0.131 C 
HETATM    5  S10 UNL     1     -32.194   5.968   1.120  1.00 20.00    -0.167 SA
HETATM    6  S11 UNL     1     -33.772   7.104   4.016  1.00 20.00    -0.155 SA
ENDROOT
BRANCH   4   7
HETATM    7  C3  UNL     1     -34.391   4.529   4.286  1.00 20.00     0.169 C 
HETATM    8  O9  UNL     1     -35.505   4.632   4.806  1.00 20.00    -0.291 OA
BRANCH   7   9
HETATM    9  C2  UNL     1     -33.456   3.444   4.730  1.00 20.00    -0.024 C 
HETATM   10  C1  UNL     1     -33.430   2.251   4.119  1.00 20.00     0.022 C 
HETATM   11  C8  UNL     1     -32.556   3.765   5.886  1.00 20.00     0.051 C 
ENDBRANCH   7   9
ENDBRANCH   4   7
TORSDOF 2
ENDMDL
MODEL 3
REMARK VINA RESULT:       2.9      2.590      5.303
REMARK  2 active torsions:
REMARK  status: ('A' for Active; 'I' for Inactive)
REMARK    1  A    between atoms: C2_2  and  C3_3 
REMARK    2  A    between atoms: C3_3  and  C7_7 
ROOT
HETATM    1  C4  UNL     1     -32.746   7.995   1.647  1.00 20.00     0.084 C 
HETATM    2  C5  UNL     1     -32.011   6.681   1.432  1.00 20.00     0.085 C 
HETATM    3  C6  UNL     1     -33.984   6.942   3.888  1.00 20.00     0.097 C 
HETATM    4  C7  UNL     1     -33.243   5.626   3.676  1.00 20.00     0.131 C 
HETATM    5  S10 UNL     1     -32.991   8.388   3.405  1.00 20.00    -0.167 SA
HETATM    6  S11 UNL     1     -32.998   5.234   1.916  1.00 20.00    -0.155 SA
ENDROOT
BRANCH   4   7
HETATM    7  C3  UNL     1     -34.047   4.503   4.250  1.00 20.00     0.169 C 
HETATM    8  O9  UNL     1     -35.277   4.577   4.293  1.00 20.00    -0.291 OA
BRANCH   7   9
HETATM    9  C2  UNL     1     -33.351   3.282   4.776  1.00 20.00    -0.024 C 
HETATM   10  C1  UNL     1     -33.422   2.107   4.135  1.00 20.00     0.022 C 
HETATM   11  C8  UNL     1     -32.577   3.448   6.050  1.00 20.00     0.051 C 
ENDBRANCH   7   9
ENDBRANCH   4   7
TORSDOF 2
ENDMDL
MODEL 4
REMARK VINA RESULT:       3.0      1.703      2.498
REMARK  2 active torsions:
REMARK  status: ('A' for Active; 'I' for Inactive)
REMARK    1  A    between atoms: C2_2  and  C3_3 
REMARK    2  A    between atoms: C3_3  and  C7_7 
ROOT
HETATM    1  C4  UNL     1     -35.393   4.806   4.575  1.00 20.00     0.084 C 
HETATM    2  C5  UNL     1     -35.225   6.313   4.690  1.00 20.00     0.085 C 
HETATM    3  C6  UNL     1     -33.232   4.693   2.848  1.00 20.00     0.097 C 
HETATM    4  C7  UNL     1     -33.061   6.203   2.967  1.00 20.00     0.131 C 
HETATM    5  S10 UNL     1     -33.810   3.931   4.396  1.00 20.00    -0.167 SA
HETATM    6  S11 UNL     1     -34.646   7.078   3.146  1.00 20.00    -0.155 SA
ENDROOT
BRANCH   4   7
HETATM    7  C3  UNL     1     -32.425   6.732   1.720  1.00 20.00     0.169 C 
HETATM    8  O9  UNL     1     -32.269   5.999   0.742  1.00 20.00    -0.291 OA
BRANCH   7   9
HETATM    9  C2  UNL     1     -31.977   8.162   1.663  1.00 20.00    -0.024 C 
HETATM   10  C1  UNL     1     -32.138   8.902   0.556  1.00 20.00     0.022 C 
HETATM   11  C8  UNL     1     -31.342   8.717   2.904  1.00 20.00     0.051 C 
ENDBRANCH   7   9
ENDBRANCH   4   7
TORSDOF 2
ENDMDL
MODEL 5
REMARK VINA RESULT:       3.2      1.434      1.991
REMARK  2 active torsions:
REMARK  status: ('A' for Active; 'I' for Inactive)
REMARK    1  A    between atoms: C2_2  and  C3_3 
REMARK    2  A    between atoms: C3_3  and  C7_7 
ROOT
HETATM    1  C4  UNL     1     -34.754   4.751   4.848  1.00 20.00     0.084 C 
HETATM    2  C5  UNL     1     -34.072   3.801   3.877  1.00 20.00     0.085 C 
HETATM    3  C6  UNL     1     -33.991   6.905   3.284  1.00 20.00     0.097 C 
HETATM    4  C7  UNL     1     -33.311   5.951   2.307  1.00 20.00     0.131 C 
HETATM    5  S10 UNL     1     -35.493   6.193   4.024  1.00 20.00    -0.167 SA
HETATM    6  S11 UNL     1     -32.572   4.508   3.133  1.00 20.00    -0.155 SA
ENDROOT
BRANCH   4   7
HETATM    7  C3  UNL     1     -32.191   6.662   1.615  1.00 20.00     0.169 C 
HETATM    8  O9  UNL     1     -31.431   6.044   0.867  1.00 20.00    -0.291 OA
BRANCH   7   9
HETATM    9  C2  UNL     1     -31.995   8.133   1.834  1.00 20.00    -0.024 C 
HETATM   10  C1  UNL     1     -31.467   8.606   2.971  1.00 20.00     0.022 C 
HETATM   11  C8  UNL     1     -32.419   9.039   0.716  1.00 20.00     0.051 C 
ENDBRANCH   7   9
ENDBRANCH   4   7
TORSDOF 2
ENDMDL
MODEL 6
REMARK VINA RESULT:       3.5      1.360      2.191
REMARK  2 active torsions:
REMARK  status: ('A' for Active; 'I' for Inactive)
REMARK    1  A    between atoms: C2_2  and  C3_3 
REMARK    2  A    between atoms: C3_3  and  C7_7 
ROOT
HETATM    1  C4  UNL     1     -34.758   6.250   3.717  1.00 20.00     0.084 C 
HETATM    2  C5  UNL     1     -34.243   7.582   4.240  1.00 20.00     0.085 C 
HETATM    3  C6  UNL     1     -32.904   6.335   1.662  1.00 20.00     0.097 C 
HETATM    4  C7  UNL     1     -32.384   7.667   2.190  1.00 20.00     0.131 C 
HETATM    5  S10 UNL     1     -33.447   5.220   2.994  1.00 20.00    -0.167 SA
HETATM    6  S11 UNL     1     -33.697   8.698   2.914  1.00 20.00    -0.155 SA
ENDROOT
BRANCH   4   7
HETATM    7  C3  UNL     1     -31.801   8.457   1.061  1.00 20.00     0.169 C 
HETATM    8  O9  UNL     1     -30.772   8.074   0.500  1.00 20.00    -0.291 OA
BRANCH   7   9
HETATM    9  C2  UNL     1     -32.473   9.720   0.611  1.00 20.00    -0.024 C 
HETATM   10  C1  UNL     1     -32.617  10.767   1.435  1.00 20.00     0.022 C 
HETATM   11  C8  UNL     1     -32.973   9.747  -0.803  1.00 20.00     0.051 C 
ENDBRANCH   7   9
ENDBRANCH   4   7
TORSDOF 2
ENDMDL
MODEL 7
REMARK VINA RESULT:       3.6      2.386      4.999
REMARK  2 active torsions:
REMARK  status: ('A' for Active; 'I' for Inactive)
REMARK    1  A    between atoms: C2_2  and  C3_3 
REMARK    2  A    between atoms: C3_3  and  C7_7 
ROOT
HETATM    1  C4  UNL     1     -31.686   8.247   1.358  1.00 20.00     0.084 C 
HETATM    2  C5  UNL     1     -31.699   6.737   1.177  1.00 20.00     0.085 C 
HETATM    3  C6  UNL     1     -33.458   8.013   3.472  1.00 20.00     0.097 C 
HETATM    4  C7  UNL     1     -33.468   6.499   3.294  1.00 20.00     0.131 C 
HETATM    5  S10 UNL     1     -31.838   8.750   3.098  1.00 20.00    -0.167 SA
HETATM    6  S11 UNL     1     -33.316   5.996   1.552  1.00 20.00    -0.155 SA
ENDROOT
BRANCH   4   7
HETATM    7  C3  UNL     1     -34.771   5.948   3.780  1.00 20.00     0.169 C 
HETATM    8  O9  UNL     1     -35.828   6.527   3.519  1.00 20.00    -0.291 OA
BRANCH   7   9
HETATM    9  C2  UNL     1     -34.789   4.686   4.590  1.00 20.00    -0.024 C 
HETATM   10  C1  UNL     1     -35.689   4.494   5.565  1.00 20.00     0.022 C 
HETATM   11  C8  UNL     1     -33.752   3.656   4.251  1.00 20.00     0.051 C 
ENDBRANCH   7   9
ENDBRANCH   4   7
TORSDOF 2
ENDMDL
MODEL 8
REMARK VINA RESULT:       3.7      1.411      2.003
REMARK  2 active torsions:
REMARK  status: ('A' for Active; 'I' for Inactive)
REMARK    1  A    between atoms: C2_2  and  C3_3 
REMARK    2  A    between atoms: C3_3  and  C7_7 
ROOT
HETATM    1  C4  UNL     1     -34.518   6.252   3.569  1.00 20.00     0.084 C 
HETATM    2  C5  UNL     1     -33.998   7.565   4.134  1.00 20.00     0.085 C 
HETATM    3  C6  UNL     1     -32.750   6.458   1.449  1.00 20.00     0.097 C 
HETATM    4  C7  UNL     1     -32.224   7.772   2.018  1.00 20.00     0.131 C 
HETATM    5  S10 UNL     1     -33.225   5.276   2.747  1.00 20.00    -0.167 SA
HETATM    6  S11 UNL     1     -33.520   8.749   2.841  1.00 20.00    -0.155 SA
ENDROOT
BRANCH   4   7
HETATM    7  C3  UNL     1     -31.697   8.621   0.905  1.00 20.00     0.169 C 
HETATM    8  O9  UNL     1     -30.621   8.348   0.370  1.00 20.00    -0.291 OA
BRANCH   7   9
HETATM    9  C2  UNL     1     -32.484   9.811   0.440  1.00 20.00    -0.024 C 
HETATM   10  C1  UNL     1     -33.147   9.798  -0.725  1.00 20.00     0.022 C 
HETATM   11  C8  UNL     1     -32.488  11.008   1.344  1.00 20.00     0.051 C 
ENDBRANCH   7   9
ENDBRANCH   4   7
TORSDOF 2
ENDMDL
MODEL 9
REMARK VINA RESULT:       3.7      2.236      4.492
REMARK  2 active torsions:
REMARK  status: ('A' for Active; 'I' for Inactive)
REMARK    1  A    between atoms: C2_2  and  C3_3 
REMARK    2  A    between atoms: C3_3  and  C7_7 
ROOT
HETATM    1  C4  UNL     1     -32.009   9.909  -0.410  1.00 20.00     0.084 C 
HETATM    2  C5  UNL     1     -30.978   8.843  -0.072  1.00 20.00     0.085 C 
HETATM    3  C6  UNL     1     -33.565   9.088   1.727  1.00 20.00     0.097 C 
HETATM    4  C7  UNL     1     -32.529   8.023   2.070  1.00 20.00     0.131 C 
HETATM    5  S10 UNL     1     -32.813  10.606   1.063  1.00 20.00    -0.167 SA
HETATM    6  S11 UNL     1     -31.724   7.326   0.594  1.00 20.00    -0.155 SA
ENDROOT
BRANCH   4   7
HETATM    7  C3  UNL     1     -33.200   6.880   2.765  1.00 20.00     0.169 C 
HETATM    8  O9  UNL     1     -33.034   5.726   2.366  1.00 20.00    -0.291 OA
BRANCH   7   9
HETATM    9  C2  UNL     1     -34.079   7.144   3.952  1.00 20.00    -0.024 C 
HETATM   10  C1  UNL     1     -33.724   8.018   4.904  1.00 20.00     0.022 C 
HETATM   11  C8  UNL     1     -35.368   6.380   4.014  1.00 20.00     0.051 C 
ENDBRANCH   7   9
ENDBRANCH   4   7
TORSDOF 2
ENDMDL
