MODEL 1
REMARK VINA RESULT:      -0.7      0.000      0.000
REMARK  2 active torsions:
REMARK  status: ('A' for Active; 'I' for Inactive)
REMARK    1  A    between atoms: C5_5  and  N9_9 
REMARK    2  A    between atoms: C8_8  and  N9_9 
ROOT
HETATM    1  C1  UNL     1     -33.141   3.184   4.859  1.00 20.00     0.013 C 
HETATM    2  C2  UNL     1     -33.987   3.956   4.500  1.00 20.00    -0.087 C 
HETATM    3  C8  UNL     1     -35.023   4.895   4.061  1.00 20.00     0.362 C 
ENDROOT
BRANCH   3   4
HETATM    4  N9  UNL     1     -34.541   6.268   4.140  1.00 20.00     0.099 N 
HETATM    5  H23 UNL     1     -35.271   6.900   3.813  1.00 20.00     0.317 HD
BRANCH   4   6
HETATM    6  C5  UNL     1     -33.364   6.446   3.331  1.00 20.00     0.232 C 
HETATM    7  C3  UNL     1     -33.219   7.886   2.846  1.00 20.00     0.051 C 
HETATM    8  C6  UNL     1     -32.041   7.894   1.876  1.00 20.00     0.045 C 
HETATM    9  C7  UNL     1     -32.051   9.098   0.950  1.00 20.00     0.021 C 
HETATM   10  S10 UNL     1     -32.202   6.335   0.946  1.00 20.00    -0.162 SA
HETATM   11  C4  UNL     1     -33.404   5.580   2.078  1.00 20.00     0.109 C 
ENDBRANCH   4   6
ENDBRANCH   3   4
TORSDOF 2
ENDMDL
MODEL 2
REMARK VINA RESULT:      -0.5      2.162      4.967
REMARK  2 active torsions:
REMARK  status: ('A' for Active; 'I' for Inactive)
REMARK    1  A    between atoms: C5_5  and  N9_9 
REMARK    2  A    between atoms: C8_8  and  N9_9 
ROOT
HETATM    1  C1  UNL     1     -33.051  10.570  -0.195  1.00 20.00     0.013 C 
HETATM    2  C2  UNL     1     -32.282   9.733   0.193  1.00 20.00    -0.087 C 
HETATM    3  C8  UNL     1     -31.341   8.713   0.662  1.00 20.00     0.362 C 
ENDROOT
BRANCH   3   4
HETATM    4  N9  UNL     1     -31.677   8.285   2.014  1.00 20.00     0.099 N 
HETATM    5  H23 UNL     1     -30.865   7.833   2.435  1.00 20.00     0.317 HD
BRANCH   4   6
HETATM    6  C5  UNL     1     -32.780   7.360   2.001  1.00 20.00     0.232 C 
HETATM    7  C3  UNL     1     -33.610   7.446   3.278  1.00 20.00     0.051 C 
HETATM    8  C6  UNL     1     -34.629   6.312   3.204  1.00 20.00     0.045 C 
HETATM    9  C7  UNL     1     -35.202   5.948   4.562  1.00 20.00     0.021 C 
HETATM   10  S10 UNL     1     -33.710   4.918   2.471  1.00 20.00    -0.162 SA
HETATM   11  C4  UNL     1     -32.305   5.917   1.901  1.00 20.00     0.109 C 
ENDBRANCH   4   6
ENDBRANCH   3   4
TORSDOF 2
ENDMDL
MODEL 3
REMARK VINA RESULT:      -0.4      1.975      5.042
REMARK  2 active torsions:
REMARK  status: ('A' for Active; 'I' for Inactive)
REMARK    1  A    between atoms: C5_5  and  N9_9 
REMARK    2  A    between atoms: C8_8  and  N9_9 
ROOT
HETATM    1  C1  UNL     1     -32.420   9.978   0.009  1.00 20.00     0.013 C 
HETATM    2  C2  UNL     1     -32.267   9.102   0.815  1.00 20.00    -0.087 C 
HETATM    3  C8  UNL     1     -32.076   8.035   1.802  1.00 20.00     0.362 C 
ENDROOT
BRANCH   3   4
HETATM    4  N9  UNL     1     -33.127   7.032   1.685  1.00 20.00     0.099 N 
HETATM    5  H23 UNL     1     -33.972   7.472   1.321  1.00 20.00     0.317 HD
BRANCH   4   6
HETATM    6  C5  UNL     1     -33.416   6.439   2.965  1.00 20.00     0.232 C 
HETATM    7  C3  UNL     1     -32.991   4.975   3.023  1.00 20.00     0.051 C 
HETATM    8  C6  UNL     1     -33.501   4.433   4.355  1.00 20.00     0.045 C 
HETATM    9  C7  UNL     1     -33.596   2.917   4.375  1.00 20.00     0.021 C 
HETATM   10  S10 UNL     1     -35.137   5.208   4.568  1.00 20.00    -0.162 SA
HETATM   11  C4  UNL     1     -34.907   6.459   3.273  1.00 20.00     0.109 C 
ENDBRANCH   4   6
ENDBRANCH   3   4
TORSDOF 2
ENDMDL
MODEL 4
REMARK VINA RESULT:      -0.3      1.275      1.866
REMARK  2 active torsions:
REMARK  status: ('A' for Active; 'I' for Inactive)
REMARK    1  A    between atoms: C5_5  and  N9_9 
REMARK    2  A    between atoms: C8_8  and  N9_9 
ROOT
HETATM    1  C1  UNL     1     -33.366   3.267   4.806  1.00 20.00     0.013 C 
HETATM    2  C2  UNL     1     -34.217   4.084   4.584  1.00 20.00    -0.087 C 
HETATM    3  C8  UNL     1     -35.260   5.077   4.313  1.00 20.00     0.362 C 
ENDROOT
BRANCH   3   4
HETATM    4  N9  UNL     1     -34.721   6.428   4.408  1.00 20.00     0.099 N 
HETATM    5  H23 UNL     1     -35.477   7.076   4.626  1.00 20.00     0.317 HD
BRANCH   4   6
HETATM    6  C5  UNL     1     -34.102   6.822   3.170  1.00 20.00     0.232 C 
HETATM    7  C3  UNL     1     -33.463   5.638   2.450  1.00 20.00     0.051 C 
HETATM    8  C6  UNL     1     -32.710   6.218   1.257  1.00 20.00     0.045 C 
HETATM    9  C7  UNL     1     -31.644   5.277   0.721  1.00 20.00     0.021 C 
HETATM   10  S10 UNL     1     -31.979   7.765   1.885  1.00 20.00    -0.162 SA
HETATM   11  C4  UNL     1     -32.985   7.833   3.394  1.00 20.00     0.109 C 
ENDBRANCH   4   6
ENDBRANCH   3   4
TORSDOF 2
ENDMDL
MODEL 5
REMARK VINA RESULT:      -0.3      1.453      1.781
REMARK  2 active torsions:
REMARK  status: ('A' for Active; 'I' for Inactive)
REMARK    1  A    between atoms: C5_5  and  N9_9 
REMARK    2  A    between atoms: C8_8  and  N9_9 
ROOT
HETATM    1  C1  UNL     1     -33.000   2.804   5.208  1.00 20.00     0.013 C 
HETATM    2  C2  UNL     1     -33.575   3.520   4.434  1.00 20.00    -0.087 C 
HETATM    3  C8  UNL     1     -34.275   4.390   3.485  1.00 20.00     0.362 C 
ENDROOT
BRANCH   3   4
HETATM    4  N9  UNL     1     -34.806   5.566   4.161  1.00 20.00     0.099 N 
HETATM    5  H23 UNL     1     -35.821   5.582   4.060  1.00 20.00     0.317 HD
BRANCH   4   6
HETATM    6  C5  UNL     1     -34.256   6.773   3.602  1.00 20.00     0.232 C 
HETATM    7  C3  UNL     1     -33.305   6.483   2.445  1.00 20.00     0.051 C 
HETATM    8  C6  UNL     1     -32.674   7.818   2.063  1.00 20.00     0.045 C 
HETATM    9  C7  UNL     1     -31.382   7.656   1.281  1.00 20.00     0.021 C 
HETATM   10  S10 UNL     1     -32.391   8.662   3.653  1.00 20.00    -0.162 SA
HETATM   11  C4  UNL     1     -33.445   7.552   4.629  1.00 20.00     0.109 C 
ENDBRANCH   4   6
ENDBRANCH   3   4
TORSDOF 2
ENDMDL
MODEL 6
REMARK VINA RESULT:       0.5      1.717      2.244
REMARK  2 active torsions:
REMARK  status: ('A' for Active; 'I' for Inactive)
REMARK    1  A    between atoms: C5_5  and  N9_9 
REMARK    2  A    between atoms: C8_8  and  N9_9 
ROOT
HETATM    1  C1  UNL     1     -35.348   5.239   4.410  1.00 20.00     0.013 C 
HETATM    2  C2  UNL     1     -34.927   6.291   4.015  1.00 20.00    -0.087 C 
HETATM    3  C8  UNL     1     -34.419   7.577   3.530  1.00 20.00     0.362 C 
ENDROOT
BRANCH   3   4
HETATM    4  N9  UNL     1     -33.022   7.753   3.908  1.00 20.00     0.099 N 
HETATM    5  H23 UNL     1     -32.959   8.459   4.641  1.00 20.00     0.317 HD
BRANCH   4   6
HETATM    6  C5  UNL     1     -32.233   8.170   2.779  1.00 20.00     0.232 C 
HETATM    7  C3  UNL     1     -32.922   9.270   1.977  1.00 20.00     0.051 C 
HETATM    8  C6  UNL     1     -32.067   9.495   0.734  1.00 20.00     0.045 C 
HETATM    9  C7  UNL     1     -32.827  10.184  -0.386  1.00 20.00     0.021 C 
HETATM   10  S10 UNL     1     -31.525   7.825   0.243  1.00 20.00    -0.162 SA
HETATM   11  C4  UNL     1     -31.992   7.025   1.804  1.00 20.00     0.109 C 
ENDBRANCH   4   6
ENDBRANCH   3   4
TORSDOF 2
ENDMDL
MODEL 7
REMARK VINA RESULT:       0.6      1.519      4.856
REMARK  2 active torsions:
REMARK  status: ('A' for Active; 'I' for Inactive)
REMARK    1  A    between atoms: C5_5  and  N9_9 
REMARK    2  A    between atoms: C8_8  and  N9_9 
ROOT
HETATM    1  C1  UNL     1     -32.352  10.185  -0.327  1.00 20.00     0.013 C 
HETATM    2  C2  UNL     1     -32.028   9.430   0.548  1.00 20.00    -0.087 C 
HETATM    3  C8  UNL     1     -31.626   8.509   1.615  1.00 20.00     0.362 C 
ENDROOT
BRANCH   3   4
HETATM    4  N9  UNL     1     -32.715   8.316   2.564  1.00 20.00     0.099 N 
HETATM    5  H23 UNL     1     -32.344   8.362   3.514  1.00 20.00     0.317 HD
BRANCH   4   6
HETATM    6  C5  UNL     1     -33.349   7.040   2.365  1.00 20.00     0.232 C 
HETATM    7  C3  UNL     1     -33.607   6.319   3.686  1.00 20.00     0.051 C 
HETATM    8  C6  UNL     1     -34.121   4.930   3.322  1.00 20.00     0.045 C 
HETATM    9  C7  UNL     1     -33.973   3.933   4.459  1.00 20.00     0.021 C 
HETATM   10  S10 UNL     1     -33.131   4.440   1.872  1.00 20.00    -0.162 SA
HETATM   11  C4  UNL     1     -32.484   6.102   1.534  1.00 20.00     0.109 C 
ENDBRANCH   4   6
ENDBRANCH   3   4
TORSDOF 2
ENDMDL
MODEL 8
REMARK VINA RESULT:       0.8      1.471      1.680
REMARK  2 active torsions:
REMARK  status: ('A' for Active; 'I' for Inactive)
REMARK    1  A    between atoms: C5_5  and  N9_9 
REMARK    2  A    between atoms: C8_8  and  N9_9 
ROOT
HETATM    1  C1  UNL     1     -33.096   2.489   5.005  1.00 20.00     0.013 C 
HETATM    2  C2  UNL     1     -33.600   3.482   4.556  1.00 20.00    -0.087 C 
HETATM    3  C8  UNL     1     -34.217   4.695   4.013  1.00 20.00     0.362 C 
ENDROOT
BRANCH   3   4
HETATM    4  N9  UNL     1     -33.736   4.956   2.662  1.00 20.00     0.099 N 
HETATM    5  H23 UNL     1     -32.819   4.525   2.542  1.00 20.00     0.317 HD
BRANCH   4   6
HETATM    6  C5  UNL     1     -33.631   6.370   2.418  1.00 20.00     0.232 C 
HETATM    7  C3  UNL     1     -32.532   6.694   1.410  1.00 20.00     0.051 C 
HETATM    8  C6  UNL     1     -32.419   8.215   1.374  1.00 20.00     0.045 C 
HETATM    9  C7  UNL     1     -31.091   8.692   0.811  1.00 20.00     0.021 C 
HETATM   10  S10 UNL     1     -32.633   8.732   3.109  1.00 20.00    -0.162 SA
HETATM   11  C4  UNL     1     -33.279   7.137   3.686  1.00 20.00     0.109 C 
ENDBRANCH   4   6
ENDBRANCH   3   4
TORSDOF 2
ENDMDL
MODEL 9
REMARK VINA RESULT:       0.9      2.515      5.013
REMARK  2 active torsions:
REMARK  status: ('A' for Active; 'I' for Inactive)
REMARK    1  A    between atoms: C5_5  and  N9_9 
REMARK    2  A    between atoms: C8_8  and  N9_9 
ROOT
HETATM    1  C1  UNL     1     -33.170  10.672  -0.525  1.00 20.00     0.013 C 
HETATM    2  C2  UNL     1     -32.424   9.966   0.096  1.00 20.00    -0.087 C 
HETATM    3  C8  UNL     1     -31.509   9.104   0.849  1.00 20.00     0.362 C 
ENDROOT
BRANCH   3   4
HETATM    4  N9  UNL     1     -31.965   8.947   2.224  1.00 20.00     0.099 N 
HETATM    5  H23 UNL     1     -31.247   9.297   2.858  1.00 20.00     0.317 HD
BRANCH   4   6
HETATM    6  C5  UNL     1     -32.228   7.564   2.523  1.00 20.00     0.232 C 
HETATM    7  C3  UNL     1     -32.285   6.708   1.261  1.00 20.00     0.051 C 
HETATM    8  C6  UNL     1     -32.730   5.318   1.705  1.00 20.00     0.045 C 
HETATM    9  C7  UNL     1     -33.296   4.491   0.564  1.00 20.00     0.021 C 
HETATM   10  S10 UNL     1     -33.984   5.629   2.991  1.00 20.00    -0.162 SA
HETATM   11  C4  UNL     1     -33.571   7.381   3.218  1.00 20.00     0.109 C 
ENDBRANCH   4   6
ENDBRANCH   3   4
TORSDOF 2
ENDMDL
