MODEL 1
REMARK VINA RESULT:      -0.1      0.000      0.000
REMARK  3 active torsions:
REMARK  status: ('A' for Active; 'I' for Inactive)
REMARK    1  A    between atoms: C4_4  and  C7_7 
REMARK    2  A    between atoms: C4_4  and  O9_9 
REMARK    3  A    between atoms: C7_7  and  C8_8 
ROOT
HETATM    1  C1  UNL     1     -33.306   6.394   2.507  1.00 20.00     0.053 C 
HETATM    2  C2  UNL     1     -32.166   8.269   3.585  1.00 20.00     0.112 C 
HETATM    3  C3  UNL     1     -34.442   6.826   3.427  1.00 20.00     0.046 C 
HETATM    4  C4  UNL     1     -32.435   7.623   2.225  1.00 20.00     0.067 C 
HETATM    5  C5  UNL     1     -35.067   5.660   4.173  1.00 20.00     0.021 C 
HETATM    6  S10 UNL     1     -33.668   8.009   4.576  1.00 20.00    -0.162 SA
ENDROOT
BRANCH   4   7
HETATM    7  C7  UNL     1     -33.085   8.595   1.237  1.00 20.00     0.038 C 
BRANCH   7   8
HETATM    8  C8  UNL     1     -32.034   9.408   0.490  1.00 20.00    -0.002 C 
HETATM    9  C6  UNL     1     -32.677  10.498  -0.354  1.00 20.00     0.005 C 
ENDBRANCH   7   8
ENDBRANCH   4   7
BRANCH   4  10
HETATM   10  O9  UNL     1     -31.203   7.203   1.641  1.00 20.00    -0.389 OA
HETATM   11  H26 UNL     1     -30.765   6.641   2.300  1.00 20.00     0.210 HD
ENDBRANCH   4  10
TORSDOF 3
ENDMDL
MODEL 2
REMARK VINA RESULT:       0.2      2.140      4.653
REMARK  3 active torsions:
REMARK  status: ('A' for Active; 'I' for Inactive)
REMARK    1  A    between atoms: C4_4  and  C7_7 
REMARK    2  A    between atoms: C4_4  and  O9_9 
REMARK    3  A    between atoms: C7_7  and  C8_8 
ROOT
HETATM    1  C1  UNL     1     -33.780   7.165   2.009  1.00 20.00     0.053 C 
HETATM    2  C2  UNL     1     -33.572   7.583   4.409  1.00 20.00     0.112 C 
HETATM    3  C3  UNL     1     -32.373   7.752   1.996  1.00 20.00     0.046 C 
HETATM    4  C4  UNL     1     -34.015   6.535   3.386  1.00 20.00     0.067 C 
HETATM    5  C5  UNL     1     -32.191   8.812   0.923  1.00 20.00     0.021 C 
HETATM    6  S10 UNL     1     -32.161   8.454   3.664  1.00 20.00    -0.162 SA
ENDROOT
BRANCH   4   7
HETATM    7  C7  UNL     1     -33.281   5.204   3.561  1.00 20.00     0.038 C 
BRANCH   7   8
HETATM    8  C8  UNL     1     -34.157   4.179   4.274  1.00 20.00    -0.002 C 
HETATM    9  C6  UNL     1     -33.346   2.969   4.709  1.00 20.00     0.005 C 
ENDBRANCH   7   8
ENDBRANCH   4   7
BRANCH   4  10
HETATM   10  O9  UNL     1     -35.406   6.265   3.549  1.00 20.00    -0.389 OA
HETATM   11  H26 UNL     1     -35.468   5.479   4.114  1.00 20.00     0.210 HD
ENDBRANCH   4  10
TORSDOF 3
ENDMDL
MODEL 3
REMARK VINA RESULT:       0.7      1.597      2.146
REMARK  3 active torsions:
REMARK  status: ('A' for Active; 'I' for Inactive)
REMARK    1  A    between atoms: C4_4  and  C7_7 
REMARK    2  A    between atoms: C4_4  and  O9_9 
REMARK    3  A    between atoms: C7_7  and  C8_8 
ROOT
HETATM    1  C1  UNL     1     -31.620   6.948   1.836  1.00 20.00     0.053 C 
HETATM    2  C2  UNL     1     -33.242   7.463   3.591  1.00 20.00     0.112 C 
HETATM    3  C3  UNL     1     -32.744   6.038   1.353  1.00 20.00     0.046 C 
HETATM    4  C4  UNL     1     -32.253   8.105   2.616  1.00 20.00     0.067 C 
HETATM    5  C5  UNL     1     -32.260   4.637   1.018  1.00 20.00     0.021 C 
HETATM    6  S10 UNL     1     -33.932   6.016   2.733  1.00 20.00    -0.162 SA
ENDROOT
BRANCH   4   7
HETATM    7  C7  UNL     1     -32.920   9.138   1.705  1.00 20.00     0.038 C 
BRANCH   7   8
HETATM    8  C8  UNL     1     -32.026   9.489   0.520  1.00 20.00    -0.002 C 
HETATM    9  C6  UNL     1     -32.805  10.228  -0.556  1.00 20.00     0.005 C 
ENDBRANCH   7   8
ENDBRANCH   4   7
BRANCH   4  10
HETATM   10  O9  UNL     1     -31.238   8.792   3.346  1.00 20.00    -0.389 OA
HETATM   11  H26 UNL     1     -30.464   8.836   2.764  1.00 20.00     0.210 HD
ENDBRANCH   4  10
TORSDOF 3
ENDMDL
MODEL 4
REMARK VINA RESULT:       1.0      1.345      1.401
REMARK  3 active torsions:
REMARK  status: ('A' for Active; 'I' for Inactive)
REMARK    1  A    between atoms: C4_4  and  C7_7 
REMARK    2  A    between atoms: C4_4  and  O9_9 
REMARK    3  A    between atoms: C7_7  and  C8_8 
ROOT
HETATM    1  C1  UNL     1     -32.599   6.110   3.071  1.00 20.00     0.053 C 
HETATM    2  C2  UNL     1     -33.858   8.028   3.916  1.00 20.00     0.112 C 
HETATM    3  C3  UNL     1     -33.979   5.463   3.081  1.00 20.00     0.046 C 
HETATM    4  C4  UNL     1     -32.788   7.621   2.902  1.00 20.00     0.067 C 
HETATM    5  C5  UNL     1     -33.977   4.088   3.727  1.00 20.00     0.021 C 
HETATM    6  S10 UNL     1     -35.019   6.632   4.015  1.00 20.00    -0.162 SA
ENDROOT
BRANCH   4   7
HETATM    7  C7  UNL     1     -33.162   8.014   1.471  1.00 20.00     0.038 C 
BRANCH   7   8
HETATM    8  C8  UNL     1     -32.036   8.791   0.798  1.00 20.00    -0.002 C 
HETATM    9  C6  UNL     1     -32.573   9.999   0.046  1.00 20.00     0.005 C 
ENDBRANCH   7   8
ENDBRANCH   4   7
BRANCH   4  10
HETATM   10  O9  UNL     1     -31.562   8.286   3.205  1.00 20.00    -0.389 OA
HETATM   11  H26 UNL     1     -31.798   9.190   3.464  1.00 20.00     0.210 HD
ENDBRANCH   4  10
TORSDOF 3
ENDMDL
MODEL 5
REMARK VINA RESULT:       1.4      1.973      4.338
REMARK  3 active torsions:
REMARK  status: ('A' for Active; 'I' for Inactive)
REMARK    1  A    between atoms: C4_4  and  C7_7 
REMARK    2  A    between atoms: C4_4  and  O9_9 
REMARK    3  A    between atoms: C7_7  and  C8_8 
ROOT
HETATM    1  C1  UNL     1     -32.677   9.572   1.987  1.00 20.00     0.053 C 
HETATM    2  C2  UNL     1     -31.156   7.669   1.776  1.00 20.00     0.112 C 
HETATM    3  C3  UNL     1     -32.762   9.405   0.474  1.00 20.00     0.046 C 
HETATM    4  C4  UNL     1     -32.332   8.207   2.592  1.00 20.00     0.067 C 
HETATM    5  C5  UNL     1     -32.597  10.720  -0.271  1.00 20.00     0.021 C 
HETATM    6  S10 UNL     1     -31.418   8.243   0.070  1.00 20.00    -0.162 SA
ENDROOT
BRANCH   4   7
HETATM    7  C7  UNL     1     -33.524   7.246   2.600  1.00 20.00     0.038 C 
BRANCH   7   8
HETATM    8  C8  UNL     1     -34.260   7.290   3.935  1.00 20.00    -0.002 C 
HETATM    9  C6  UNL     1     -35.294   6.179   4.031  1.00 20.00     0.005 C 
ENDBRANCH   7   8
ENDBRANCH   4   7
BRANCH   4  10
HETATM   10  O9  UNL     1     -31.933   8.381   3.950  1.00 20.00    -0.389 OA
HETATM   11  H26 UNL     1     -31.520   7.548   4.224  1.00 20.00     0.210 HD
ENDBRANCH   4  10
TORSDOF 3
ENDMDL
MODEL 6
REMARK VINA RESULT:       2.1      1.650      1.959
REMARK  3 active torsions:
REMARK  status: ('A' for Active; 'I' for Inactive)
REMARK    1  A    between atoms: C4_4  and  C7_7 
REMARK    2  A    between atoms: C4_4  and  O9_9 
REMARK    3  A    between atoms: C7_7  and  C8_8 
ROOT
HETATM    1  C1  UNL     1     -34.392   6.857   2.267  1.00 20.00     0.053 C 
HETATM    2  C2  UNL     1     -32.565   5.308   1.777  1.00 20.00     0.112 C 
HETATM    3  C3  UNL     1     -34.170   6.344   3.685  1.00 20.00     0.046 C 
HETATM    4  C4  UNL     1     -33.068   6.726   1.506  1.00 20.00     0.067 C 
HETATM    5  C5  UNL     1     -35.465   5.950   4.375  1.00 20.00     0.021 C 
HETATM    6  S10 UNL     1     -33.067   4.909   3.479  1.00 20.00    -0.162 SA
ENDROOT
BRANCH   4   7
HETATM    7  C7  UNL     1     -32.048   7.794   1.907  1.00 20.00     0.038 C 
BRANCH   7   8
HETATM    8  C8  UNL     1     -31.644   8.650   0.712  1.00 20.00    -0.002 C 
HETATM    9  C6  UNL     1     -32.471   9.924   0.643  1.00 20.00     0.005 C 
ENDBRANCH   7   8
ENDBRANCH   4   7
BRANCH   4  10
HETATM   10  O9  UNL     1     -33.310   6.890   0.109  1.00 20.00    -0.389 OA
HETATM   11  H26 UNL     1     -34.271   6.966   0.004  1.00 20.00     0.210 HD
ENDBRANCH   4  10
TORSDOF 3
ENDMDL
MODEL 7
REMARK VINA RESULT:       2.4      2.909      3.760
REMARK  3 active torsions:
REMARK  status: ('A' for Active; 'I' for Inactive)
REMARK    1  A    between atoms: C4_4  and  C7_7 
REMARK    2  A    between atoms: C4_4  and  O9_9 
REMARK    3  A    between atoms: C7_7  and  C8_8 
ROOT
HETATM    1  C1  UNL     1     -34.790   4.760   4.418  1.00 20.00     0.053 C 
HETATM    2  C2  UNL     1     -34.119   5.867   2.344  1.00 20.00     0.112 C 
HETATM    3  C3  UNL     1     -33.368   4.216   4.344  1.00 20.00     0.046 C 
HETATM    4  C4  UNL     1     -34.819   6.104   3.683  1.00 20.00     0.067 C 
HETATM    5  C5  UNL     1     -33.302   2.716   4.573  1.00 20.00     0.021 C 
HETATM    6  S10 UNL     1     -32.803   4.654   2.668  1.00 20.00    -0.162 SA
ENDROOT
BRANCH   4   7
HETATM    7  C7  UNL     1     -34.170   7.233   4.488  1.00 20.00     0.038 C 
BRANCH   7   8
HETATM    8  C8  UNL     1     -33.663   8.343   3.574  1.00 20.00    -0.002 C 
HETATM    9  C6  UNL     1     -32.143   8.358   3.517  1.00 20.00     0.005 C 
ENDBRANCH   7   8
ENDBRANCH   4   7
BRANCH   4  10
HETATM   10  O9  UNL     1     -36.174   6.487   3.454  1.00 20.00    -0.389 OA
HETATM   11  H26 UNL     1     -36.606   5.728   3.033  1.00 20.00     0.210 HD
ENDBRANCH   4  10
TORSDOF 3
ENDMDL
MODEL 8
REMARK VINA RESULT:       2.4      2.535      3.195
REMARK  3 active torsions:
REMARK  status: ('A' for Active; 'I' for Inactive)
REMARK    1  A    between atoms: C4_4  and  C7_7 
REMARK    2  A    between atoms: C4_4  and  O9_9 
REMARK    3  A    between atoms: C7_7  and  C8_8 
ROOT
HETATM    1  C1  UNL     1     -32.793   5.280   3.463  1.00 20.00     0.053 C 
HETATM    2  C2  UNL     1     -34.620   6.882   3.736  1.00 20.00     0.112 C 
HETATM    3  C3  UNL     1     -33.908   4.278   3.742  1.00 20.00     0.046 C 
HETATM    4  C4  UNL     1     -33.428   6.530   2.845  1.00 20.00     0.067 C 
HETATM    5  C5  UNL     1     -33.517   3.241   4.781  1.00 20.00     0.021 C 
HETATM    6  S10 UNL     1     -35.301   5.301   4.321  1.00 20.00    -0.162 SA
ENDROOT
BRANCH   4   7
HETATM    7  C7  UNL     1     -33.834   6.326   1.383  1.00 20.00     0.038 C 
BRANCH   7   8
HETATM    8  C8  UNL     1     -32.810   5.476   0.639  1.00 20.00    -0.002 C 
HETATM    9  C6  UNL     1     -33.485   4.352  -0.132  1.00 20.00     0.005 C 
ENDBRANCH   7   8
ENDBRANCH   4   7
BRANCH   4  10
HETATM   10  O9  UNL     1     -32.482   7.598   2.866  1.00 20.00    -0.389 OA
HETATM   11  H26 UNL     1     -32.903   8.328   3.345  1.00 20.00     0.210 HD
ENDBRANCH   4  10
TORSDOF 3
ENDMDL
MODEL 9
REMARK VINA RESULT:       2.4      1.999      4.543
REMARK  3 active torsions:
REMARK  status: ('A' for Active; 'I' for Inactive)
REMARK    1  A    between atoms: C4_4  and  C7_7 
REMARK    2  A    between atoms: C4_4  and  O9_9 
REMARK    3  A    between atoms: C7_7  and  C8_8 
ROOT
HETATM    1  C1  UNL     1     -32.355   6.852   1.816  1.00 20.00     0.053 C 
HETATM    2  C2  UNL     1     -34.541   6.415   2.820  1.00 20.00     0.112 C 
HETATM    3  C3  UNL     1     -32.172   7.682   3.081  1.00 20.00     0.046 C 
HETATM    4  C4  UNL     1     -33.359   5.737   2.127  1.00 20.00     0.067 C 
HETATM    5  C5  UNL     1     -31.622   9.070   2.796  1.00 20.00     0.021 C 
HETATM    6  S10 UNL     1     -33.839   7.769   3.811  1.00 20.00    -0.162 SA
ENDROOT
BRANCH   4   7
HETATM    7  C7  UNL     1     -32.754   4.614   2.973  1.00 20.00     0.038 C 
BRANCH   7   8
HETATM    8  C8  UNL     1     -33.791   4.009   3.913  1.00 20.00    -0.002 C 
HETATM    9  C6  UNL     1     -33.189   2.894   4.753  1.00 20.00     0.005 C 
ENDBRANCH   7   8
ENDBRANCH   4   7
BRANCH   4  10
HETATM   10  O9  UNL     1     -33.796   5.143   0.905  1.00 20.00    -0.389 OA
HETATM   11  H26 UNL     1     -33.734   4.183   1.029  1.00 20.00     0.210 HD
ENDBRANCH   4  10
TORSDOF 3
ENDMDL
