MODEL 1
REMARK VINA RESULT:       1.7      0.000      0.000
REMARK  3 active torsions:
REMARK  status: ('A' for Active; 'I' for Inactive)
REMARK    1  A    between atoms: C6_6  and  C9_9 
REMARK    2  A    between atoms: C6_6  and  O10_10 
REMARK    3  A    between atoms: C8_8  and  C9_9 
ROOT
HETATM    1  C1  UNL     1     -33.101   2.445   5.143  1.00 20.00     0.012 C 
HETATM    2  C2  UNL     1     -33.443   3.345   4.427  1.00 20.00    -0.117 C 
HETATM    3  C8  UNL     1     -33.866   4.447   3.552  1.00 20.00     0.096 C 
ENDROOT
BRANCH   3   4
HETATM    4  C9  UNL     1     -32.671   5.018   2.811  1.00 20.00     0.050 C 
BRANCH   4   5
HETATM    5  C6  UNL     1     -33.106   6.121   1.846  1.00 20.00     0.068 C 
HETATM    6  C3  UNL     1     -34.241   7.007   2.374  1.00 20.00     0.053 C 
HETATM    7  C5  UNL     1     -33.683   8.085   3.301  1.00 20.00     0.046 C 
HETATM    8  C7  UNL     1     -33.737   7.724   4.779  1.00 20.00     0.021 C 
HETATM    9  S11 UNL     1     -31.968   8.362   2.754  1.00 20.00    -0.162 SA
HETATM   10  C4  UNL     1     -31.964   7.066   1.485  1.00 20.00     0.112 C 
BRANCH   5  11
HETATM   11  O10 UNL     1     -33.553   5.483   0.647  1.00 20.00    -0.389 OA
HETATM   12  H25 UNL     1     -32.842   5.589  -0.000  1.00 20.00     0.210 HD
ENDBRANCH   5  11
ENDBRANCH   4   5
ENDBRANCH   3   4
TORSDOF 3
ENDMDL
MODEL 2
REMARK VINA RESULT:       1.9      1.910      2.841
REMARK  3 active torsions:
REMARK  status: ('A' for Active; 'I' for Inactive)
REMARK    1  A    between atoms: C6_6  and  C9_9 
REMARK    2  A    between atoms: C6_6  and  O10_10 
REMARK    3  A    between atoms: C8_8  and  C9_9 
ROOT
HETATM    1  C1  UNL     1     -33.758   3.609   4.249  1.00 20.00     0.012 C 
HETATM    2  C2  UNL     1     -34.441   4.596   4.275  1.00 20.00    -0.117 C 
HETATM    3  C8  UNL     1     -35.279   5.802   4.313  1.00 20.00     0.096 C 
ENDROOT
BRANCH   3   4
HETATM    4  C9  UNL     1     -34.925   6.723   3.159  1.00 20.00     0.050 C 
BRANCH   4   5
HETATM    5  C6  UNL     1     -33.751   7.630   3.528  1.00 20.00     0.068 C 
HETATM    6  C3  UNL     1     -32.376   6.971   3.371  1.00 20.00     0.053 C 
HETATM    7  C5  UNL     1     -31.922   7.033   1.914  1.00 20.00     0.046 C 
HETATM    8  C7  UNL     1     -32.234   5.777   1.112  1.00 20.00     0.021 C 
HETATM    9  S11 UNL     1     -32.751   8.491   1.204  1.00 20.00    -0.162 SA
HETATM   10  C4  UNL     1     -33.710   8.903   2.687  1.00 20.00     0.112 C 
BRANCH   5  11
HETATM   11  O10 UNL     1     -33.919   8.005   4.897  1.00 20.00    -0.389 OA
HETATM   12  H25 UNL     1     -33.095   7.770   5.347  1.00 20.00     0.210 HD
ENDBRANCH   5  11
ENDBRANCH   4   5
ENDBRANCH   3   4
TORSDOF 3
ENDMDL
MODEL 3
REMARK VINA RESULT:       2.0      2.593      4.714
REMARK  3 active torsions:
REMARK  status: ('A' for Active; 'I' for Inactive)
REMARK    1  A    between atoms: C6_6  and  C9_9 
REMARK    2  A    between atoms: C6_6  and  O10_10 
REMARK    3  A    between atoms: C8_8  and  C9_9 
ROOT
HETATM    1  C1  UNL     1     -32.669  10.488  -0.043  1.00 20.00     0.012 C 
HETATM    2  C2  UNL     1     -32.358   9.491   0.548  1.00 20.00    -0.117 C 
HETATM    3  C8  UNL     1     -31.971   8.272   1.272  1.00 20.00     0.096 C 
ENDROOT
BRANCH   3   4
HETATM    4  C9  UNL     1     -33.204   7.560   1.797  1.00 20.00     0.050 C 
BRANCH   4   5
HETATM    5  C6  UNL     1     -33.057   7.244   3.285  1.00 20.00     0.068 C 
HETATM    6  C3  UNL     1     -34.292   7.592   4.126  1.00 20.00     0.053 C 
HETATM    7  C5  UNL     1     -35.331   6.477   4.027  1.00 20.00     0.046 C 
HETATM    8  C7  UNL     1     -36.404   6.720   2.974  1.00 20.00     0.021 C 
HETATM    9  S11 UNL     1     -34.390   4.960   3.670  1.00 20.00    -0.162 SA
HETATM   10  C4  UNL     1     -32.771   5.767   3.543  1.00 20.00     0.112 C 
BRANCH   5  11
HETATM   11  O10 UNL     1     -31.950   8.006   3.772  1.00 20.00    -0.389 OA
HETATM   12  H25 UNL     1     -32.273   8.910   3.893  1.00 20.00     0.210 HD
ENDBRANCH   5  11
ENDBRANCH   4   5
ENDBRANCH   3   4
TORSDOF 3
ENDMDL
MODEL 4
REMARK VINA RESULT:       2.1      2.551      4.785
REMARK  3 active torsions:
REMARK  status: ('A' for Active; 'I' for Inactive)
REMARK    1  A    between atoms: C6_6  and  C9_9 
REMARK    2  A    between atoms: C6_6  and  O10_10 
REMARK    3  A    between atoms: C8_8  and  C9_9 
ROOT
HETATM    1  C1  UNL     1     -32.681  11.342   0.724  1.00 20.00     0.012 C 
HETATM    2  C2  UNL     1     -32.487  10.203   0.402  1.00 20.00    -0.117 C 
HETATM    3  C8  UNL     1     -32.244   8.809   0.004  1.00 20.00     0.096 C 
ENDROOT
BRANCH   3   4
HETATM    4  C9  UNL     1     -33.105   7.870   0.828  1.00 20.00     0.050 C 
BRANCH   4   5
HETATM    5  C6  UNL     1     -32.306   7.278   1.989  1.00 20.00     0.068 C 
HETATM    6  C3  UNL     1     -32.911   7.551   3.372  1.00 20.00     0.053 C 
HETATM    7  C5  UNL     1     -34.024   6.548   3.671  1.00 20.00     0.046 C 
HETATM    8  C7  UNL     1     -35.421   7.052   3.338  1.00 20.00     0.021 C 
HETATM    9  S11 UNL     1     -33.614   5.059   2.704  1.00 20.00    -0.162 SA
HETATM   10  C4  UNL     1     -32.158   5.763   1.883  1.00 20.00     0.112 C 
BRANCH   5  11
HETATM   11  O10 UNL     1     -31.001   7.859   1.945  1.00 20.00    -0.389 OA
HETATM   12  H25 UNL     1     -30.588   7.669   2.800  1.00 20.00     0.210 HD
ENDBRANCH   5  11
ENDBRANCH   4   5
ENDBRANCH   3   4
TORSDOF 3
ENDMDL
MODEL 5
REMARK VINA RESULT:       2.5      2.074      4.401
REMARK  3 active torsions:
REMARK  status: ('A' for Active; 'I' for Inactive)
REMARK    1  A    between atoms: C6_6  and  C9_9 
REMARK    2  A    between atoms: C6_6  and  O10_10 
REMARK    3  A    between atoms: C8_8  and  C9_9 
ROOT
HETATM    1  C1  UNL     1     -32.703  10.676   0.261  1.00 20.00     0.012 C 
HETATM    2  C2  UNL     1     -32.283   9.558   0.382  1.00 20.00    -0.117 C 
HETATM    3  C8  UNL     1     -31.766   8.190   0.524  1.00 20.00     0.096 C 
ENDROOT
BRANCH   3   4
HETATM    4  C9  UNL     1     -31.988   7.690   1.940  1.00 20.00     0.050 C 
BRANCH   4   5
HETATM    5  C6  UNL     1     -32.704   6.339   1.933  1.00 20.00     0.068 C 
HETATM    6  C3  UNL     1     -33.028   5.793   3.329  1.00 20.00     0.053 C 
HETATM    7  C5  UNL     1     -34.310   6.431   3.862  1.00 20.00     0.046 C 
HETATM    8  C7  UNL     1     -34.077   7.637   4.762  1.00 20.00     0.021 C 
HETATM    9  S11 UNL     1     -35.279   6.888   2.389  1.00 20.00    -0.162 SA
HETATM   10  C4  UNL     1     -34.028   6.383   1.176  1.00 20.00     0.112 C 
BRANCH   5  11
HETATM   11  O10 UNL     1     -31.843   5.407   1.273  1.00 20.00    -0.389 OA
HETATM   12  H25 UNL     1     -32.385   4.960   0.607  1.00 20.00     0.210 HD
ENDBRANCH   5  11
ENDBRANCH   4   5
ENDBRANCH   3   4
TORSDOF 3
ENDMDL
MODEL 6
REMARK VINA RESULT:       2.5      2.202      3.024
REMARK  3 active torsions:
REMARK  status: ('A' for Active; 'I' for Inactive)
REMARK    1  A    between atoms: C6_6  and  C9_9 
REMARK    2  A    between atoms: C6_6  and  O10_10 
REMARK    3  A    between atoms: C8_8  and  C9_9 
ROOT
HETATM    1  C1  UNL     1     -31.197   3.879  -0.052  1.00 20.00     0.012 C 
HETATM    2  C2  UNL     1     -31.876   4.700   0.501  1.00 20.00    -0.117 C 
HETATM    3  C8  UNL     1     -32.712   5.702   1.176  1.00 20.00     0.096 C 
ENDROOT
BRANCH   3   4
HETATM    4  C9  UNL     1     -31.855   6.594   2.056  1.00 20.00     0.050 C 
BRANCH   4   5
HETATM    5  C6  UNL     1     -32.545   7.935   2.305  1.00 20.00     0.068 C 
HETATM    6  C3  UNL     1     -34.066   7.838   2.468  1.00 20.00     0.053 C 
HETATM    7  C5  UNL     1     -34.421   7.429   3.897  1.00 20.00     0.046 C 
HETATM    8  C7  UNL     1     -34.650   5.934   4.076  1.00 20.00     0.021 C 
HETATM    9  S11 UNL     1     -33.039   8.011   4.931  1.00 20.00    -0.162 SA
HETATM   10  C4  UNL     1     -32.027   8.633   3.560  1.00 20.00     0.112 C 
BRANCH   5  11
HETATM   11  O10 UNL     1     -32.264   8.772   1.181  1.00 20.00    -0.389 OA
HETATM   12  H25 UNL     1     -31.702   8.252   0.588  1.00 20.00     0.210 HD
ENDBRANCH   5  11
ENDBRANCH   4   5
ENDBRANCH   3   4
TORSDOF 3
ENDMDL
MODEL 7
REMARK VINA RESULT:       2.7      2.243      4.501
REMARK  3 active torsions:
REMARK  status: ('A' for Active; 'I' for Inactive)
REMARK    1  A    between atoms: C6_6  and  C9_9 
REMARK    2  A    between atoms: C6_6  and  O10_10 
REMARK    3  A    between atoms: C8_8  and  C9_9 
ROOT
HETATM    1  C1  UNL     1     -32.746  10.664  -0.053  1.00 20.00     0.012 C 
HETATM    2  C2  UNL     1     -32.361   9.599   0.344  1.00 20.00    -0.117 C 
HETATM    3  C8  UNL     1     -31.883   8.298   0.831  1.00 20.00     0.096 C 
ENDROOT
BRANCH   3   4
HETATM    4  C9  UNL     1     -33.056   7.364   1.071  1.00 20.00     0.050 C 
BRANCH   4   5
HETATM    5  C6  UNL     1     -32.771   6.424   2.242  1.00 20.00     0.068 C 
HETATM    6  C3  UNL     1     -32.566   7.137   3.584  1.00 20.00     0.053 C 
HETATM    7  C5  UNL     1     -33.915   7.466   4.221  1.00 20.00     0.046 C 
HETATM    8  C7  UNL     1     -34.408   8.878   3.937  1.00 20.00     0.021 C 
HETATM    9  S11 UNL     1     -35.078   6.221   3.577  1.00 20.00    -0.162 SA
HETATM   10  C4  UNL     1     -33.893   5.414   2.466  1.00 20.00     0.112 C 
BRANCH   5  11
HETATM   11  O10 UNL     1     -31.578   5.703   1.926  1.00 20.00    -0.389 OA
HETATM   12  H25 UNL     1     -31.653   4.845   2.368  1.00 20.00     0.210 HD
ENDBRANCH   5  11
ENDBRANCH   4   5
ENDBRANCH   3   4
TORSDOF 3
ENDMDL
MODEL 8
REMARK VINA RESULT:       2.7      1.599      1.890
REMARK  3 active torsions:
REMARK  status: ('A' for Active; 'I' for Inactive)
REMARK    1  A    between atoms: C6_6  and  C9_9 
REMARK    2  A    between atoms: C6_6  and  O10_10 
REMARK    3  A    between atoms: C8_8  and  C9_9 
ROOT
HETATM    1  C1  UNL     1     -33.008   2.533   4.569  1.00 20.00     0.012 C 
HETATM    2  C2  UNL     1     -33.715   3.502   4.567  1.00 20.00    -0.117 C 
HETATM    3  C8  UNL     1     -34.586   4.685   4.567  1.00 20.00     0.096 C 
ENDROOT
BRANCH   3   4
HETATM    4  C9  UNL     1     -33.772   5.936   4.289  1.00 20.00     0.050 C 
BRANCH   4   5
HETATM    5  C6  UNL     1     -34.257   6.629   3.015  1.00 20.00     0.068 C 
HETATM    6  C3  UNL     1     -33.921   8.123   2.946  1.00 20.00     0.053 C 
HETATM    7  C5  UNL     1     -32.484   8.320   2.465  1.00 20.00     0.046 C 
HETATM    8  C7  UNL     1     -31.471   8.495   3.589  1.00 20.00     0.021 C 
HETATM    9  S11 UNL     1     -32.100   6.855   1.454  1.00 20.00    -0.162 SA
HETATM   10  C4  UNL     1     -33.673   6.003   1.751  1.00 20.00     0.112 C 
BRANCH   5  11
HETATM   11  O10 UNL     1     -35.679   6.483   2.969  1.00 20.00    -0.389 OA
HETATM   12  H25 UNL     1     -35.994   7.100   2.293  1.00 20.00     0.210 HD
ENDBRANCH   5  11
ENDBRANCH   4   5
ENDBRANCH   3   4
TORSDOF 3
ENDMDL
MODEL 9
REMARK VINA RESULT:       2.7      2.045      2.918
REMARK  3 active torsions:
REMARK  status: ('A' for Active; 'I' for Inactive)
REMARK    1  A    between atoms: C6_6  and  C9_9 
REMARK    2  A    between atoms: C6_6  and  O10_10 
REMARK    3  A    between atoms: C8_8  and  C9_9 
ROOT
HETATM    1  C1  UNL     1     -35.312   5.478   4.386  1.00 20.00     0.012 C 
HETATM    2  C2  UNL     1     -34.893   6.518   3.958  1.00 20.00    -0.117 C 
HETATM    3  C8  UNL     1     -34.387   7.794   3.434  1.00 20.00     0.096 C 
ENDROOT
BRANCH   3   4
HETATM    4  C9  UNL     1     -32.890   7.707   3.196  1.00 20.00     0.050 C 
BRANCH   4   5
HETATM    5  C6  UNL     1     -32.592   7.201   1.785  1.00 20.00     0.068 C 
HETATM    6  C3  UNL     1     -33.280   8.002   0.673  1.00 20.00     0.053 C 
HETATM    7  C5  UNL     1     -32.477   9.261   0.353  1.00 20.00     0.046 C 
HETATM    8  C7  UNL     1     -32.962  10.508   1.080  1.00 20.00     0.021 C 
HETATM    9  S11 UNL     1     -30.754   8.870   0.796  1.00 20.00    -0.162 SA
HETATM   10  C4  UNL     1     -31.101   7.218   1.461  1.00 20.00     0.112 C 
BRANCH   5  11
HETATM   11  O10 UNL     1     -33.049   5.848   1.715  1.00 20.00    -0.389 OA
HETATM   12  H25 UNL     1     -33.348   5.707   0.806  1.00 20.00     0.210 HD
ENDBRANCH   5  11
ENDBRANCH   4   5
ENDBRANCH   3   4
TORSDOF 3
ENDMDL
