MODEL 1
REMARK VINA RESULT:       2.6      0.000      0.000
REMARK  0 active torsions:
REMARK  status: ('A' for Active; 'I' for Inactive)
ROOT
HETATM    1  C1  UNL     1     -34.349   5.090   4.057  1.00 20.00     0.086 C 
HETATM    2  C2  UNL     1     -32.694   6.581   0.920  1.00 20.00     0.013 C 
HETATM    3  C3  UNL     1     -33.208   5.573   1.947  1.00 20.00     0.043 C 
HETATM    4  C4  UNL     1     -31.734   7.597   1.517  1.00 20.00     0.074 C 
HETATM    5  C5  UNL     1     -33.121   7.245   3.895  1.00 20.00     0.081 C 
HETATM    6  C6  UNL     1     -33.970   6.187   3.141  1.00 20.00     0.137 C 
HETATM    7  C7  UNL     1     -33.824   7.902   5.090  1.00 20.00     0.024 C 
HETATM    8  N8  UNL     1     -34.647   4.228   4.776  1.00 20.00    -0.195 NA
HETATM    9  S9  UNL     1     -32.534   8.596   2.799  1.00 20.00    -0.162 SA
HETATM   10 CL10 UNL     1     -35.532   6.877   2.559  1.00 20.00    -0.102 Cl
ENDROOT
TORSDOF 0
ENDMDL
MODEL 2
REMARK VINA RESULT:       3.1      2.756      4.013
REMARK  0 active torsions:
REMARK  status: ('A' for Active; 'I' for Inactive)
ROOT
HETATM    1  C1  UNL     1     -32.334   7.674   1.800  1.00 20.00     0.086 C 
HETATM    2  C2  UNL     1     -35.214   6.205   3.886  1.00 20.00     0.013 C 
HETATM    3  C3  UNL     1     -34.185   7.185   3.323  1.00 20.00     0.043 C 
HETATM    4  C4  UNL     1     -34.580   4.951   4.467  1.00 20.00     0.074 C 
HETATM    5  C5  UNL     1     -32.547   5.336   2.618  1.00 20.00     0.081 C 
HETATM    6  C6  UNL     1     -33.299   6.624   2.190  1.00 20.00     0.137 C 
HETATM    7  C7  UNL     1     -31.654   4.721   1.533  1.00 20.00     0.024 C 
HETATM    8  N8  UNL     1     -31.577   8.498   1.493  1.00 20.00    -0.195 NA
HETATM    9  S9  UNL     1     -33.678   4.015   3.206  1.00 20.00    -0.162 SA
HETATM   10 CL10 UNL     1     -34.313   6.347   0.724  1.00 20.00    -0.102 Cl
ENDROOT
TORSDOF 0
ENDMDL
MODEL 3
REMARK VINA RESULT:       3.3      3.206      3.808
REMARK  0 active torsions:
REMARK  status: ('A' for Active; 'I' for Inactive)
ROOT
HETATM    1  C1  UNL     1     -32.533   9.224   1.166  1.00 20.00     0.086 C 
HETATM    2  C2  UNL     1     -31.822   5.449   1.386  1.00 20.00     0.013 C 
HETATM    3  C3  UNL     1     -31.977   6.865   0.832  1.00 20.00     0.043 C 
HETATM    4  C4  UNL     1     -33.096   4.921   2.024  1.00 20.00     0.074 C 
HETATM    5  C5  UNL     1     -33.687   7.567   2.615  1.00 20.00     0.081 C 
HETATM    6  C6  UNL     1     -32.376   7.934   1.871  1.00 20.00     0.137 C 
HETATM    7  C7  UNL     1     -34.136   8.586   3.670  1.00 20.00     0.024 C 
HETATM    8  N8  UNL     1     -32.655  10.237   0.612  1.00 20.00    -0.195 NA
HETATM    9  S9  UNL     1     -33.601   5.930   3.440  1.00 20.00    -0.162 SA
HETATM   10 CL10 UNL     1     -31.007   8.188   3.019  1.00 20.00    -0.102 Cl
ENDROOT
TORSDOF 0
ENDMDL
MODEL 4
REMARK VINA RESULT:       3.6      2.282      3.131
REMARK  0 active torsions:
REMARK  status: ('A' for Active; 'I' for Inactive)
ROOT
HETATM    1  C1  UNL     1     -31.826   4.945   1.139  1.00 20.00     0.086 C 
HETATM    2  C2  UNL     1     -32.731   8.537   2.181  1.00 20.00     0.013 C 
HETATM    3  C3  UNL     1     -31.964   7.340   1.621  1.00 20.00     0.043 C 
HETATM    4  C4  UNL     1     -33.128   8.357   3.637  1.00 20.00     0.074 C 
HETATM    5  C5  UNL     1     -33.190   5.635   3.100  1.00 20.00     0.081 C 
HETATM    6  C6  UNL     1     -32.723   5.997   1.665  1.00 20.00     0.137 C 
HETATM    7  C7  UNL     1     -33.961   4.313   3.212  1.00 20.00     0.024 C 
HETATM    8  N8  UNL     1     -31.122   4.120   0.726  1.00 20.00    -0.195 NA
HETATM    9  S9  UNL     1     -34.235   6.941   3.856  1.00 20.00    -0.162 SA
HETATM   10 CL10 UNL     1     -34.107   6.058   0.509  1.00 20.00    -0.102 Cl
ENDROOT
TORSDOF 0
ENDMDL
MODEL 5
REMARK VINA RESULT:       3.7      2.616      3.427
REMARK  0 active torsions:
REMARK  status: ('A' for Active; 'I' for Inactive)
ROOT
HETATM    1  C1  UNL     1     -33.769   7.552   3.380  1.00 20.00     0.086 C 
HETATM    2  C2  UNL     1     -32.692  10.440   1.076  1.00 20.00     0.013 C 
HETATM    3  C3  UNL     1     -33.500   9.594   2.060  1.00 20.00     0.043 C 
HETATM    4  C4  UNL     1     -32.410   9.718  -0.231  1.00 20.00     0.074 C 
HETATM    5  C5  UNL     1     -32.498   7.373   1.251  1.00 20.00     0.081 C 
HETATM    6  C6  UNL     1     -32.840   8.263   2.475  1.00 20.00     0.137 C 
HETATM    7  C7  UNL     1     -31.830   6.035   1.593  1.00 20.00     0.024 C 
HETATM    8  N8  UNL     1     -34.498   6.994   4.090  1.00 20.00    -0.195 NA
HETATM    9  S9  UNL     1     -31.420   8.224   0.033  1.00 20.00    -0.162 SA
HETATM   10 CL10 UNL     1     -31.379   8.609   3.476  1.00 20.00    -0.102 Cl
ENDROOT
TORSDOF 0
ENDMDL
MODEL 6
REMARK VINA RESULT:       4.7      2.308      3.441
REMARK  0 active torsions:
REMARK  status: ('A' for Active; 'I' for Inactive)
ROOT
HETATM    1  C1  UNL     1     -33.707   5.738   0.524  1.00 20.00     0.086 C 
HETATM    2  C2  UNL     1     -34.037   6.481   4.285  1.00 20.00     0.013 C 
HETATM    3  C3  UNL     1     -34.349   5.991   2.871  1.00 20.00     0.043 C 
HETATM    4  C4  UNL     1     -33.746   7.972   4.342  1.00 20.00     0.074 C 
HETATM    5  C5  UNL     1     -32.810   7.710   1.743  1.00 20.00     0.081 C 
HETATM    6  C6  UNL     1     -33.226   6.218   1.837  1.00 20.00     0.137 C 
HETATM    7  C7  UNL     1     -31.690   8.004   0.737  1.00 20.00     0.024 C 
HETATM    8  N8  UNL     1     -34.085   5.361  -0.507  1.00 20.00    -0.195 NA
HETATM    9  S9  UNL     1     -32.287   8.405   3.360  1.00 20.00    -0.162 SA
HETATM   10 CL10 UNL     1     -31.822   5.159   2.241  1.00 20.00    -0.102 Cl
ENDROOT
TORSDOF 0
ENDMDL
MODEL 7
REMARK VINA RESULT:       5.1      2.046      3.000
REMARK  0 active torsions:
REMARK  status: ('A' for Active; 'I' for Inactive)
ROOT
HETATM    1  C1  UNL     1     -33.777   7.859   4.695  1.00 20.00     0.086 C 
HETATM    2  C2  UNL     1     -34.043   4.225   3.459  1.00 20.00     0.013 C 
HETATM    3  C3  UNL     1     -33.947   5.439   4.383  1.00 20.00     0.043 C 
HETATM    4  C4  UNL     1     -32.886   4.136   2.478  1.00 20.00     0.074 C 
HETATM    5  C5  UNL     1     -32.775   6.904   2.630  1.00 20.00     0.081 C 
HETATM    6  C6  UNL     1     -33.925   6.805   3.668  1.00 20.00     0.137 C 
HETATM    7  C7  UNL     1     -32.702   8.238   1.875  1.00 20.00     0.024 C 
HETATM    8  N8  UNL     1     -33.662   8.686   5.501  1.00 20.00    -0.195 NA
HETATM    9  S9  UNL     1     -32.838   5.569   1.372  1.00 20.00    -0.162 SA
HETATM   10 CL10 UNL     1     -35.534   7.107   2.910  1.00 20.00    -0.102 Cl
ENDROOT
TORSDOF 0
ENDMDL
MODEL 8
REMARK VINA RESULT:       5.4      1.887      2.891
REMARK  0 active torsions:
REMARK  status: ('A' for Active; 'I' for Inactive)
ROOT
HETATM    1  C1  UNL     1     -35.500   6.427   3.332  1.00 20.00     0.086 C 
HETATM    2  C2  UNL     1     -32.351   8.335   4.451  1.00 20.00     0.013 C 
HETATM    3  C3  UNL     1     -33.810   7.897   4.315  1.00 20.00     0.043 C 
HETATM    4  C4  UNL     1     -31.725   8.724   3.122  1.00 20.00     0.074 C 
HETATM    5  C5  UNL     1     -33.482   6.915   1.965  1.00 20.00     0.081 C 
HETATM    6  C6  UNL     1     -34.045   6.683   3.392  1.00 20.00     0.137 C 
HETATM    7  C7  UNL     1     -33.676   5.740   0.997  1.00 20.00     0.024 C 
HETATM    8  N8  UNL     1     -36.642   6.227   3.285  1.00 20.00    -0.195 NA
HETATM    9  S9  UNL     1     -31.694   7.331   1.965  1.00 20.00    -0.162 SA
HETATM   10 CL10 UNL     1     -33.338   5.209   4.156  1.00 20.00    -0.102 Cl
ENDROOT
TORSDOF 0
ENDMDL
