MODEL 1
REMARK VINA RESULT:       1.1      0.000      0.000
REMARK  1 active torsions:
REMARK  status: ('A' for Active; 'I' for Inactive)
REMARK    1  A    between atoms: C5_5  and  O9_9 
ROOT
HETATM    1  C1  UNL     1     -32.410   8.997   0.915  1.00 20.00     0.098 C 
HETATM    2  C2  UNL     1     -33.773   7.935   2.695  1.00 20.00     0.069 C 
HETATM    3  C3  UNL     1     -32.400   6.545   1.222  1.00 20.00     0.128 C 
HETATM    4  C4  UNL     1     -33.827   6.644   3.510  1.00 20.00     0.047 C 
HETATM    5  C5  UNL     1     -32.463   7.912   1.904  1.00 20.00     0.157 C 
HETATM    6  C6  UNL     1     -35.235   6.295   3.963  1.00 20.00     0.021 C 
HETATM    7  N8  UNL     1     -32.369   9.855   0.135  1.00 20.00    -0.194 NA
HETATM    8  S10 UNL     1     -33.152   5.373   2.396  1.00 20.00    -0.161 SA
ENDROOT
BRANCH   5   9
HETATM    9  O9  UNL     1     -31.350   8.036   2.790  1.00 20.00    -0.369 OA
HETATM   10  C7  UNL     1     -31.594   9.012   3.792  1.00 20.00     0.204 C 
ENDBRANCH   5   9
TORSDOF 1
ENDMDL
MODEL 2
REMARK VINA RESULT:       1.6      2.357      3.186
REMARK  1 active torsions:
REMARK  status: ('A' for Active; 'I' for Inactive)
REMARK    1  A    between atoms: C5_5  and  O9_9 
ROOT
HETATM    1  C1  UNL     1     -32.380   7.361   2.218  1.00 20.00     0.098 C 
HETATM    2  C2  UNL     1     -32.759   5.114   3.198  1.00 20.00     0.069 C 
HETATM    3  C3  UNL     1     -34.425   6.877   3.518  1.00 20.00     0.128 C 
HETATM    4  C4  UNL     1     -33.906   4.235   3.692  1.00 20.00     0.047 C 
HETATM    5  C5  UNL     1     -33.389   6.340   2.531  1.00 20.00     0.157 C 
HETATM    6  C6  UNL     1     -33.471   3.251   4.766  1.00 20.00     0.021 C 
HETATM    7  N8  UNL     1     -31.582   8.167   1.971  1.00 20.00    -0.194 NA
HETATM    8  S10 UNL     1     -35.141   5.412   4.329  1.00 20.00    -0.161 SA
ENDROOT
BRANCH   5   9
HETATM    9  O9  UNL     1     -34.053   5.959   1.327  1.00 20.00    -0.369 OA
HETATM   10  C7  UNL     1     -33.168   5.301   0.434  1.00 20.00     0.204 C 
ENDBRANCH   5   9
TORSDOF 1
ENDMDL
MODEL 3
REMARK VINA RESULT:       2.6      3.022      4.137
REMARK  1 active torsions:
REMARK  status: ('A' for Active; 'I' for Inactive)
REMARK    1  A    between atoms: C5_5  and  O9_9 
ROOT
HETATM    1  C1  UNL     1     -33.773   4.576   3.763  1.00 20.00     0.098 C 
HETATM    2  C2  UNL     1     -32.907   6.898   3.869  1.00 20.00     0.069 C 
HETATM    3  C3  UNL     1     -32.891   5.691   1.742  1.00 20.00     0.128 C 
HETATM    4  C4  UNL     1     -32.649   8.091   2.950  1.00 20.00     0.047 C 
HETATM    5  C5  UNL     1     -33.668   5.855   3.047  1.00 20.00     0.157 C 
HETATM    6  C6  UNL     1     -31.522   8.982   3.447  1.00 20.00     0.021 C 
HETATM    7  N8  UNL     1     -33.855   3.567   4.329  1.00 20.00    -0.194 NA
HETATM    8  S10 UNL     1     -32.246   7.346   1.338  1.00 20.00    -0.161 SA
ENDROOT
BRANCH   5   9
HETATM    9  O9  UNL     1     -34.981   6.328   2.746  1.00 20.00    -0.369 OA
HETATM   10  C7  UNL     1     -35.763   6.467   3.922  1.00 20.00     0.204 C 
ENDBRANCH   5   9
TORSDOF 1
ENDMDL
MODEL 4
REMARK VINA RESULT:       2.7      2.596      3.941
REMARK  1 active torsions:
REMARK  status: ('A' for Active; 'I' for Inactive)
REMARK    1  A    between atoms: C5_5  and  O9_9 
ROOT
HETATM    1  C1  UNL     1     -34.507   6.569   3.504  1.00 20.00     0.098 C 
HETATM    2  C2  UNL     1     -33.509   7.902   1.665  1.00 20.00     0.069 C 
HETATM    3  C3  UNL     1     -32.427   7.855   3.859  1.00 20.00     0.128 C 
HETATM    4  C4  UNL     1     -32.164   8.496   1.251  1.00 20.00     0.047 C 
HETATM    5  C5  UNL     1     -33.251   7.014   2.885  1.00 20.00     0.157 C 
HETATM    6  C6  UNL     1     -32.312   9.737   0.387  1.00 20.00     0.021 C 
HETATM    7  N8  UNL     1     -35.499   6.218   3.992  1.00 20.00    -0.194 NA
HETATM    8  S10 UNL     1     -31.330   8.876   2.824  1.00 20.00    -0.161 SA
ENDROOT
BRANCH   5   9
HETATM    9  O9  UNL     1     -32.488   5.868   2.507  1.00 20.00    -0.369 OA
HETATM   10  C7  UNL     1     -32.968   5.304   1.295  1.00 20.00     0.204 C 
ENDBRANCH   5   9
TORSDOF 1
ENDMDL
MODEL 5
REMARK VINA RESULT:       2.7      1.421      2.061
REMARK  1 active torsions:
REMARK  status: ('A' for Active; 'I' for Inactive)
REMARK    1  A    between atoms: C5_5  and  O9_9 
ROOT
HETATM    1  C1  UNL     1     -32.298   8.780   0.713  1.00 20.00     0.098 C 
HETATM    2  C2  UNL     1     -32.432   8.597   3.183  1.00 20.00     0.069 C 
HETATM    3  C3  UNL     1     -33.839   7.170   1.779  1.00 20.00     0.128 C 
HETATM    4  C4  UNL     1     -32.863   7.601   4.258  1.00 20.00     0.047 C 
HETATM    5  C5  UNL     1     -32.476   7.858   1.843  1.00 20.00     0.157 C 
HETATM    6  C6  UNL     1     -33.325   8.280   5.536  1.00 20.00     0.021 C 
HETATM    7  N8  UNL     1     -32.156   9.509  -0.179  1.00 20.00    -0.194 NA
HETATM    8  S10 UNL     1     -34.210   6.651   3.485  1.00 20.00    -0.161 SA
ENDROOT
BRANCH   5   9
HETATM    9  O9  UNL     1     -31.454   6.863   1.796  1.00 20.00    -0.369 OA
HETATM   10  C7  UNL     1     -31.926   5.667   1.193  1.00 20.00     0.204 C 
ENDBRANCH   5   9
TORSDOF 1
ENDMDL
MODEL 6
REMARK VINA RESULT:       2.9      2.585      3.907
REMARK  1 active torsions:
REMARK  status: ('A' for Active; 'I' for Inactive)
REMARK    1  A    between atoms: C5_5  and  O9_9 
ROOT
HETATM    1  C1  UNL     1     -33.660   7.473   3.459  1.00 20.00     0.098 C 
HETATM    2  C2  UNL     1     -33.443   9.001   1.516  1.00 20.00     0.069 C 
HETATM    3  C3  UNL     1     -31.485   7.777   2.327  1.00 20.00     0.128 C 
HETATM    4  C4  UNL     1     -32.533   9.236   0.312  1.00 20.00     0.047 C 
HETATM    5  C5  UNL     1     -33.002   7.685   2.162  1.00 20.00     0.157 C 
HETATM    6  C6  UNL     1     -32.519  10.687  -0.139  1.00 20.00     0.021 C 
HETATM    7  N8  UNL     1     -34.182   7.306   4.482  1.00 20.00    -0.194 NA
HETATM    8  S10 UNL     1     -30.886   8.698   0.874  1.00 20.00    -0.161 SA
ENDROOT
BRANCH   5   9
HETATM    9  O9  UNL     1     -33.306   6.587   1.302  1.00 20.00    -0.369 OA
HETATM   10  C7  UNL     1     -32.486   5.464   1.587  1.00 20.00     0.204 C 
ENDBRANCH   5   9
TORSDOF 1
ENDMDL
MODEL 7
REMARK VINA RESULT:       3.3      2.701      4.035
REMARK  1 active torsions:
REMARK  status: ('A' for Active; 'I' for Inactive)
REMARK    1  A    between atoms: C5_5  and  O9_9 
ROOT
HETATM    1  C1  UNL     1     -35.022   6.434   3.634  1.00 20.00     0.098 C 
HETATM    2  C2  UNL     1     -33.553   7.379   1.872  1.00 20.00     0.069 C 
HETATM    3  C3  UNL     1     -33.031   7.770   4.230  1.00 20.00     0.128 C 
HETATM    4  C4  UNL     1     -32.122   7.883   1.691  1.00 20.00     0.047 C 
HETATM    5  C5  UNL     1     -33.635   6.750   3.265  1.00 20.00     0.157 C 
HETATM    6  C6  UNL     1     -32.002   8.928   0.595  1.00 20.00     0.021 C 
HETATM    7  N8  UNL     1     -36.117   6.184   3.924  1.00 20.00    -0.194 NA
HETATM    8  S10 UNL     1     -31.672   8.569   3.317  1.00 20.00    -0.161 SA
ENDROOT
BRANCH   5   9
HETATM    9  O9  UNL     1     -32.858   5.554   3.312  1.00 20.00    -0.369 OA
HETATM   10  C7  UNL     1     -33.650   4.437   3.686  1.00 20.00     0.204 C 
ENDBRANCH   5   9
TORSDOF 1
ENDMDL
MODEL 8
REMARK VINA RESULT:       3.5      2.276      2.721
REMARK  1 active torsions:
REMARK  status: ('A' for Active; 'I' for Inactive)
REMARK    1  A    between atoms: C5_5  and  O9_9 
ROOT
HETATM    1  C1  UNL     1     -31.839   5.756   1.277  1.00 20.00     0.098 C 
HETATM    2  C2  UNL     1     -33.938   5.874   2.593  1.00 20.00     0.069 C 
HETATM    3  C3  UNL     1     -32.104   7.416   3.088  1.00 20.00     0.128 C 
HETATM    4  C4  UNL     1     -34.719   6.861   3.460  1.00 20.00     0.047 C 
HETATM    5  C5  UNL     1     -32.786   6.653   1.953  1.00 20.00     0.157 C 
HETATM    6  C6  UNL     1     -35.574   6.170   4.509  1.00 20.00     0.021 C 
HETATM    7  N8  UNL     1     -31.092   5.047   0.743  1.00 20.00    -0.194 NA
HETATM    8  S10 UNL     1     -33.439   7.905   4.227  1.00 20.00    -0.161 SA
ENDROOT
BRANCH   5   9
HETATM    9  O9  UNL     1     -33.293   7.593   1.006  1.00 20.00    -0.369 OA
HETATM   10  C7  UNL     1     -32.422   8.704   0.864  1.00 20.00     0.204 C 
ENDBRANCH   5   9
TORSDOF 1
ENDMDL
MODEL 9
REMARK VINA RESULT:       3.9      2.584      3.581
REMARK  1 active torsions:
REMARK  status: ('A' for Active; 'I' for Inactive)
REMARK    1  A    between atoms: C5_5  and  O9_9 
ROOT
HETATM    1  C1  UNL     1     -35.018   6.575   3.616  1.00 20.00     0.098 C 
HETATM    2  C2  UNL     1     -33.131   5.523   2.397  1.00 20.00     0.069 C 
HETATM    3  C3  UNL     1     -33.504   7.934   2.214  1.00 20.00     0.128 C 
HETATM    4  C4  UNL     1     -31.784   5.900   1.781  1.00 20.00     0.047 C 
HETATM    5  C5  UNL     1     -33.629   6.747   3.169  1.00 20.00     0.157 C 
HETATM    6  C6  UNL     1     -31.395   4.995   0.624  1.00 20.00     0.021 C 
HETATM    7  N8  UNL     1     -36.115   6.437   3.968  1.00 20.00    -0.194 NA
HETATM    8  S10 UNL     1     -32.000   7.623   1.235  1.00 20.00    -0.161 SA
ENDROOT
BRANCH   5   9
HETATM    9  O9  UNL     1     -32.801   6.983   4.308  1.00 20.00    -0.369 OA
HETATM   10  C7  UNL     1     -33.163   8.186   4.970  1.00 20.00     0.204 C 
ENDBRANCH   5   9
TORSDOF 1
ENDMDL
