MODEL 1
REMARK VINA RESULT:       1.9      0.000      0.000
REMARK  0 active torsions:
REMARK  status: ('A' for Active; 'I' for Inactive)
ROOT
HETATM    1  C1  UNL     1     -32.415   9.792   0.405  1.00 20.00     0.088 C 
HETATM    2  C2  UNL     1     -32.554   7.636   1.470  1.00 20.00    -0.057 C 
HETATM    3  C3  UNL     1     -32.583   8.387   0.357  1.00 20.00     0.097 C 
HETATM    4  C4  UNL     1     -32.339   8.261   2.826  1.00 20.00     0.037 C 
HETATM    5  C5  UNL     1     -33.498   7.975   3.782  1.00 20.00     0.014 C 
HETATM    6  C6  UNL     1     -33.750   6.486   3.993  1.00 20.00     0.075 C 
HETATM    7  C7  UNL     1     -32.739   6.137   1.412  1.00 20.00     0.072 C 
HETATM    8  C8  UNL     1     -31.482   5.364   1.808  1.00 20.00     0.026 C 
HETATM    9  N9  UNL     1     -32.279  10.944   0.435  1.00 20.00    -0.192 NA
HETATM   10  S10 UNL     1     -34.170   5.640   2.438  1.00 20.00    -0.160 SA
ENDROOT
TORSDOF 0
ENDMDL
MODEL 2
REMARK VINA RESULT:       2.1      3.064      4.371
REMARK  0 active torsions:
REMARK  status: ('A' for Active; 'I' for Inactive)
ROOT
HETATM    1  C1  UNL     1     -35.205   5.988   4.259  1.00 20.00     0.088 C 
HETATM    2  C2  UNL     1     -33.415   7.212   3.211  1.00 20.00    -0.057 C 
HETATM    3  C3  UNL     1     -34.559   7.199   3.913  1.00 20.00     0.097 C 
HETATM    4  C4  UNL     1     -32.764   5.928   2.759  1.00 20.00     0.037 C 
HETATM    5  C5  UNL     1     -32.608   5.865   1.239  1.00 20.00     0.014 C 
HETATM    6  C6  UNL     1     -31.794   7.023   0.669  1.00 20.00     0.075 C 
HETATM    7  C7  UNL     1     -32.733   8.510   2.841  1.00 20.00     0.072 C 
HETATM    8  C8  UNL     1     -31.384   8.696   3.534  1.00 20.00     0.026 C 
HETATM    9  N9  UNL     1     -35.741   5.000   4.547  1.00 20.00    -0.192 NA
HETATM   10  S10 UNL     1     -32.562   8.633   1.022  1.00 20.00    -0.160 SA
ENDROOT
TORSDOF 0
ENDMDL
MODEL 3
REMARK VINA RESULT:       2.2      3.459      4.549
REMARK  0 active torsions:
REMARK  status: ('A' for Active; 'I' for Inactive)
ROOT
HETATM    1  C1  UNL     1     -33.375   3.504   4.187  1.00 20.00     0.088 C 
HETATM    2  C2  UNL     1     -33.295   5.391   2.693  1.00 20.00    -0.057 C 
HETATM    3  C3  UNL     1     -32.847   4.180   3.062  1.00 20.00     0.097 C 
HETATM    4  C4  UNL     1     -34.387   6.087   3.468  1.00 20.00     0.037 C 
HETATM    5  C5  UNL     1     -33.935   7.445   4.005  1.00 20.00     0.014 C 
HETATM    6  C6  UNL     1     -33.463   8.398   2.912  1.00 20.00     0.075 C 
HETATM    7  C7  UNL     1     -32.722   6.109   1.492  1.00 20.00     0.072 C 
HETATM    8  C8  UNL     1     -33.728   6.264   0.352  1.00 20.00     0.026 C 
HETATM    9  N9  UNL     1     -33.802   2.943   5.109  1.00 20.00    -0.192 NA
HETATM   10  S10 UNL     1     -32.040   7.731   1.996  1.00 20.00    -0.160 SA
ENDROOT
TORSDOF 0
ENDMDL
MODEL 4
REMARK VINA RESULT:       3.5      1.440      1.674
REMARK  0 active torsions:
REMARK  status: ('A' for Active; 'I' for Inactive)
ROOT
HETATM    1  C1  UNL     1     -31.981   8.174   0.739  1.00 20.00     0.088 C 
HETATM    2  C2  UNL     1     -33.045   6.792   2.400  1.00 20.00    -0.057 C 
HETATM    3  C3  UNL     1     -32.752   7.048   1.115  1.00 20.00     0.097 C 
HETATM    4  C4  UNL     1     -32.561   7.699   3.505  1.00 20.00     0.037 C 
HETATM    5  C5  UNL     1     -33.716   8.274   4.325  1.00 20.00     0.014 C 
HETATM    6  C6  UNL     1     -34.598   7.203   4.958  1.00 20.00     0.075 C 
HETATM    7  C7  UNL     1     -33.873   5.590   2.794  1.00 20.00     0.072 C 
HETATM    8  C8  UNL     1     -33.083   4.554   3.591  1.00 20.00     0.026 C 
HETATM    9  N9  UNL     1     -31.350   9.095   0.423  1.00 20.00    -0.192 NA
HETATM   10  S10 UNL     1     -35.366   6.128   3.708  1.00 20.00    -0.160 SA
ENDROOT
TORSDOF 0
ENDMDL
MODEL 5
REMARK VINA RESULT:       3.5      1.664      2.857
REMARK  0 active torsions:
REMARK  status: ('A' for Active; 'I' for Inactive)
ROOT
HETATM    1  C1  UNL     1     -31.938   8.540   1.485  1.00 20.00     0.088 C 
HETATM    2  C2  UNL     1     -33.357   6.954   2.614  1.00 20.00    -0.057 C 
HETATM    3  C3  UNL     1     -32.678   8.113   2.614  1.00 20.00     0.097 C 
HETATM    4  C4  UNL     1     -33.359   6.053   1.404  1.00 20.00     0.037 C 
HETATM    5  C5  UNL     1     -32.815   4.660   1.722  1.00 20.00     0.014 C 
HETATM    6  C6  UNL     1     -33.587   3.950   2.830  1.00 20.00     0.075 C 
HETATM    7  C7  UNL     1     -34.141   6.502   3.825  1.00 20.00     0.072 C 
HETATM    8  C8  UNL     1     -35.649   6.472   3.584  1.00 20.00     0.026 C 
HETATM    9  N9  UNL     1     -31.329   8.897   0.564  1.00 20.00    -0.192 NA
HETATM   10  S10 UNL     1     -33.531   4.874   4.397  1.00 20.00    -0.160 SA
ENDROOT
TORSDOF 0
ENDMDL
MODEL 6
REMARK VINA RESULT:       3.8      2.671      3.587
REMARK  0 active torsions:
REMARK  status: ('A' for Active; 'I' for Inactive)
ROOT
HETATM    1  C1  UNL     1     -31.594   5.032   0.659  1.00 20.00     0.088 C 
HETATM    2  C2  UNL     1     -32.399   6.974   1.833  1.00 20.00    -0.057 C 
HETATM    3  C3  UNL     1     -31.398   6.310   1.234  1.00 20.00     0.097 C 
HETATM    4  C4  UNL     1     -33.784   6.381   1.921  1.00 20.00     0.037 C 
HETATM    5  C5  UNL     1     -34.257   6.235   3.368  1.00 20.00     0.014 C 
HETATM    6  C6  UNL     1     -34.269   7.554   4.134  1.00 20.00     0.075 C 
HETATM    7  C7  UNL     1     -32.181   8.338   2.449  1.00 20.00     0.072 C 
HETATM    8  C8  UNL     1     -32.937   9.449   1.723  1.00 20.00     0.026 C 
HETATM    9  N9  UNL     1     -31.746   3.983   0.186  1.00 20.00    -0.192 NA
HETATM   10  S10 UNL     1     -32.612   8.300   4.228  1.00 20.00    -0.160 SA
ENDROOT
TORSDOF 0
ENDMDL
MODEL 7
REMARK VINA RESULT:       4.7      3.548      5.214
REMARK  0 active torsions:
REMARK  status: ('A' for Active; 'I' for Inactive)
ROOT
HETATM    1  C1  UNL     1     -33.616   3.010   4.542  1.00 20.00     0.088 C 
HETATM    2  C2  UNL     1     -33.835   5.318   3.893  1.00 20.00    -0.057 C 
HETATM    3  C3  UNL     1     -34.295   4.252   4.567  1.00 20.00     0.097 C 
HETATM    4  C4  UNL     1     -32.569   5.238   3.076  1.00 20.00     0.037 C 
HETATM    5  C5  UNL     1     -32.810   5.580   1.606  1.00 20.00     0.014 C 
HETATM    6  C6  UNL     1     -33.407   6.968   1.400  1.00 20.00     0.075 C 
HETATM    7  C7  UNL     1     -34.568   6.641   3.920  1.00 20.00     0.072 C 
HETATM    8  C8  UNL     1     -33.785   7.744   4.630  1.00 20.00     0.026 C 
HETATM    9  N9  UNL     1     -33.067   1.988   4.527  1.00 20.00    -0.192 NA
HETATM   10  S10 UNL     1     -35.021   7.143   2.219  1.00 20.00    -0.160 SA
ENDROOT
TORSDOF 0
ENDMDL
MODEL 8
REMARK VINA RESULT:       4.9      2.181      3.329
REMARK  0 active torsions:
REMARK  status: ('A' for Active; 'I' for Inactive)
ROOT
HETATM    1  C1  UNL     1     -32.075   8.565   3.266  1.00 20.00     0.088 C 
HETATM    2  C2  UNL     1     -33.881   6.985   3.474  1.00 20.00    -0.057 C 
HETATM    3  C3  UNL     1     -33.314   8.154   3.813  1.00 20.00     0.097 C 
HETATM    4  C4  UNL     1     -33.217   6.053   2.490  1.00 20.00     0.037 C 
HETATM    5  C5  UNL     1     -32.938   4.678   3.098  1.00 20.00     0.014 C 
HETATM    6  C6  UNL     1     -34.193   3.984   3.618  1.00 20.00     0.075 C 
HETATM    7  C7  UNL     1     -35.203   6.551   4.066  1.00 20.00     0.072 C 
HETATM    8  C8  UNL     1     -36.328   6.490   3.035  1.00 20.00     0.026 C 
HETATM    9  N9  UNL     1     -31.059   8.908   2.823  1.00 20.00    -0.192 NA
HETATM   10  S10 UNL     1     -35.010   4.948   4.928  1.00 20.00    -0.160 SA
ENDROOT
TORSDOF 0
ENDMDL
