MODEL 1
REMARK VINA RESULT:       2.6      0.000      0.000
REMARK  1 active torsions:
REMARK  status: ('A' for Active; 'I' for Inactive)
REMARK    1  A    between atoms: C5_5  and  O9_9 
ROOT
HETATM    1  C1  UNL     1     -33.827   8.333   2.789  1.00 20.00     0.022 C 
HETATM    2  C2  UNL     1     -34.255   7.644   4.082  1.00 20.00     0.075 C 
HETATM    3  C3  UNL     1     -33.157   5.363   2.992  1.00 20.00     0.112 C 
HETATM    4  C4  UNL     1     -32.581   7.724   2.093  1.00 20.00    -0.015 C 
HETATM    5  C5  UNL     1     -32.793   6.202   1.752  1.00 20.00     0.069 C 
HETATM    6  C6  UNL     1     -32.309   8.550   0.811  1.00 20.00     0.018 C 
HETATM    7  C7  UNL     1     -31.338   7.922   2.999  1.00 20.00     0.018 C 
HETATM    8  C8  UNL     1     -33.824   5.966   0.630  1.00 20.00     0.047 C 
HETATM    9  S10 UNL     1     -34.672   5.899   3.833  1.00 20.00    -0.166 SA
ENDROOT
BRANCH   5  10
HETATM   10  O9  UNL     1     -31.547   5.682   1.254  1.00 20.00    -0.389 OA
HETATM   11  H26 UNL     1     -31.335   6.209   0.473  1.00 20.00     0.210 HD
ENDBRANCH   5  10
TORSDOF 1
ENDMDL
MODEL 2
REMARK VINA RESULT:       3.1      1.283      2.819
REMARK  1 active torsions:
REMARK  status: ('A' for Active; 'I' for Inactive)
REMARK    1  A    between atoms: C5_5  and  O9_9 
ROOT
HETATM    1  C1  UNL     1     -33.208   5.374   2.920  1.00 20.00     0.022 C 
HETATM    2  C2  UNL     1     -34.444   5.897   3.647  1.00 20.00     0.075 C 
HETATM    3  C3  UNL     1     -33.730   8.370   2.659  1.00 20.00     0.112 C 
HETATM    4  C4  UNL     1     -32.795   6.172   1.653  1.00 20.00    -0.015 C 
HETATM    5  C5  UNL     1     -32.524   7.686   1.984  1.00 20.00     0.069 C 
HETATM    6  C6  UNL     1     -31.533   5.495   1.063  1.00 20.00     0.018 C 
HETATM    7  C7  UNL     1     -33.900   6.028   0.574  1.00 20.00     0.018 C 
HETATM    8  C8  UNL     1     -31.250   7.908   2.825  1.00 20.00     0.047 C 
HETATM    9  S10 UNL     1     -34.240   7.603   4.222  1.00 20.00    -0.166 SA
ENDROOT
BRANCH   5  10
HETATM   10  O9  UNL     1     -32.301   8.378   0.743  1.00 20.00    -0.389 OA
HETATM   11  H26 UNL     1     -33.067   8.180   0.189  1.00 20.00     0.210 HD
ENDBRANCH   5  10
TORSDOF 1
ENDMDL
MODEL 3
REMARK VINA RESULT:       3.3      2.342      3.687
REMARK  1 active torsions:
REMARK  status: ('A' for Active; 'I' for Inactive)
REMARK    1  A    between atoms: C5_5  and  O9_9 
ROOT
HETATM    1  C1  UNL     1     -33.989   5.959   1.907  1.00 20.00     0.022 C 
HETATM    2  C2  UNL     1     -32.581   6.093   1.333  1.00 20.00     0.075 C 
HETATM    3  C3  UNL     1     -32.162   7.948   3.328  1.00 20.00     0.112 C 
HETATM    4  C4  UNL     1     -34.117   6.250   3.427  1.00 20.00    -0.015 C 
HETATM    5  C5  UNL     1     -33.613   7.697   3.785  1.00 20.00     0.069 C 
HETATM    6  C6  UNL     1     -35.605   6.066   3.815  1.00 20.00     0.018 C 
HETATM    7  C7  UNL     1     -33.333   5.175   4.223  1.00 20.00     0.018 C 
HETATM    8  C8  UNL     1     -34.536   8.814   3.256  1.00 20.00     0.047 C 
HETATM    9  S10 UNL     1     -31.901   7.759   1.543  1.00 20.00    -0.166 SA
ENDROOT
BRANCH   5  10
HETATM   10  O9  UNL     1     -33.622   7.827   5.218  1.00 20.00    -0.389 OA
HETATM   11  H26 UNL     1     -33.373   6.960   5.563  1.00 20.00     0.210 HD
ENDBRANCH   5  10
TORSDOF 1
ENDMDL
MODEL 4
REMARK VINA RESULT:       3.5      2.110      3.253
REMARK  1 active torsions:
REMARK  status: ('A' for Active; 'I' for Inactive)
REMARK    1  A    between atoms: C5_5  and  O9_9 
ROOT
HETATM    1  C1  UNL     1     -32.165   7.844   3.219  1.00 20.00     0.022 C 
HETATM    2  C2  UNL     1     -31.955   7.625   1.723  1.00 20.00     0.075 C 
HETATM    3  C3  UNL     1     -34.123   5.930   1.872  1.00 20.00     0.112 C 
HETATM    4  C4  UNL     1     -33.627   7.683   3.715  1.00 20.00    -0.015 C 
HETATM    5  C5  UNL     1     -34.200   6.257   3.377  1.00 20.00     0.069 C 
HETATM    6  C6  UNL     1     -33.635   7.938   5.243  1.00 20.00     0.018 C 
HETATM    7  C7  UNL     1     -34.506   8.798   3.092  1.00 20.00     0.018 C 
HETATM    8  C8  UNL     1     -33.550   5.126   4.200  1.00 20.00     0.047 C 
HETATM    9  S10 UNL     1     -32.443   5.965   1.190  1.00 20.00    -0.166 SA
ENDROOT
BRANCH   5  10
HETATM   10  O9  UNL     1     -35.596   6.245   3.729  1.00 20.00    -0.389 OA
HETATM   11  H26 UNL     1     -36.078   6.255   2.892  1.00 20.00     0.210 HD
ENDBRANCH   5  10
TORSDOF 1
ENDMDL
MODEL 5
REMARK VINA RESULT:       3.6      1.742      3.075
REMARK  1 active torsions:
REMARK  status: ('A' for Active; 'I' for Inactive)
REMARK    1  A    between atoms: C5_5  and  O9_9 
ROOT
HETATM    1  C1  UNL     1     -32.559   5.294   2.797  1.00 20.00     0.022 C 
HETATM    2  C2  UNL     1     -33.607   4.242   3.148  1.00 20.00     0.075 C 
HETATM    3  C3  UNL     1     -35.194   6.366   3.900  1.00 20.00     0.112 C 
HETATM    4  C4  UNL     1     -33.122   6.678   2.376  1.00 20.00    -0.015 C 
HETATM    5  C5  UNL     1     -34.034   7.299   3.498  1.00 20.00     0.069 C 
HETATM    6  C6  UNL     1     -31.917   7.600   2.065  1.00 20.00     0.018 C 
HETATM    7  C7  UNL     1     -33.901   6.531   1.044  1.00 20.00     0.018 C 
HETATM    8  C8  UNL     1     -33.248   7.739   4.750  1.00 20.00     0.047 C 
HETATM    9  S10 UNL     1     -34.664   4.750   4.529  1.00 20.00    -0.166 SA
ENDROOT
BRANCH   5  10
HETATM   10  O9  UNL     1     -34.633   8.496   2.970  1.00 20.00    -0.389 OA
HETATM   11  H26 UNL     1     -35.582   8.317   2.922  1.00 20.00     0.210 HD
ENDBRANCH   5  10
TORSDOF 1
ENDMDL
MODEL 6
REMARK VINA RESULT:       3.9      1.901      3.056
REMARK  1 active torsions:
REMARK  status: ('A' for Active; 'I' for Inactive)
REMARK    1  A    between atoms: C5_5  and  O9_9 
ROOT
HETATM    1  C1  UNL     1     -33.151   6.878   4.360  1.00 20.00     0.022 C 
HETATM    2  C2  UNL     1     -32.855   8.351   4.087  1.00 20.00     0.075 C 
HETATM    3  C3  UNL     1     -32.786   7.633   1.426  1.00 20.00     0.112 C 
HETATM    4  C4  UNL     1     -33.891   6.126   3.222  1.00 20.00    -0.015 C 
HETATM    5  C5  UNL     1     -33.089   6.188   1.869  1.00 20.00     0.069 C 
HETATM    6  C6  UNL     1     -34.095   4.662   3.682  1.00 20.00     0.018 C 
HETATM    7  C7  UNL     1     -35.313   6.722   3.053  1.00 20.00     0.018 C 
HETATM    8  C8  UNL     1     -31.790   5.356   1.891  1.00 20.00     0.047 C 
HETATM    9  S10 UNL     1     -31.815   8.589   2.624  1.00 20.00    -0.166 SA
ENDROOT
BRANCH   5  10
HETATM   10  O9  UNL     1     -33.910   5.606   0.841  1.00 20.00    -0.389 OA
HETATM   11  H26 UNL     1     -34.814   5.886   1.035  1.00 20.00     0.210 HD
ENDBRANCH   5  10
TORSDOF 1
ENDMDL
MODEL 7
REMARK VINA RESULT:       4.2      1.797      2.694
REMARK  1 active torsions:
REMARK  status: ('A' for Active; 'I' for Inactive)
REMARK    1  A    between atoms: C5_5  and  O9_9 
ROOT
HETATM    1  C1  UNL     1     -32.704   7.645   1.469  1.00 20.00     0.022 C 
HETATM    2  C2  UNL     1     -31.869   8.384   2.511  1.00 20.00     0.075 C 
HETATM    3  C3  UNL     1     -33.065   6.720   4.354  1.00 20.00     0.112 C 
HETATM    4  C4  UNL     1     -33.056   6.175   1.821  1.00 20.00    -0.015 C 
HETATM    5  C5  UNL     1     -33.835   6.076   3.184  1.00 20.00     0.069 C 
HETATM    6  C6  UNL     1     -33.899   5.602   0.654  1.00 20.00     0.018 C 
HETATM    7  C7  UNL     1     -31.756   5.331   1.861  1.00 20.00     0.018 C 
HETATM    8  C8  UNL     1     -35.267   6.647   3.112  1.00 20.00     0.047 C 
HETATM    9  S10 UNL     1     -32.695   8.480   4.120  1.00 20.00    -0.166 SA
ENDROOT
BRANCH   5  10
HETATM   10  O9  UNL     1     -33.986   4.682   3.509  1.00 20.00    -0.389 OA
HETATM   11  H26 UNL     1     -34.294   4.657   4.424  1.00 20.00     0.210 HD
ENDBRANCH   5  10
TORSDOF 1
ENDMDL
MODEL 8
REMARK VINA RESULT:       4.2      1.613      2.195
REMARK  1 active torsions:
REMARK  status: ('A' for Active; 'I' for Inactive)
REMARK    1  A    between atoms: C5_5  and  O9_9 
ROOT
HETATM    1  C1  UNL     1     -35.310   6.367   3.988  1.00 20.00     0.022 C 
HETATM    2  C2  UNL     1     -34.933   5.032   4.625  1.00 20.00     0.075 C 
HETATM    3  C3  UNL     1     -32.620   5.205   3.135  1.00 20.00     0.112 C 
HETATM    4  C4  UNL     1     -34.115   7.273   3.587  1.00 20.00    -0.015 C 
HETATM    5  C5  UNL     1     -33.146   6.546   2.584  1.00 20.00     0.069 C 
HETATM    6  C6  UNL     1     -34.696   8.566   2.963  1.00 20.00     0.018 C 
HETATM    7  C7  UNL     1     -33.359   7.719   4.866  1.00 20.00     0.018 C 
HETATM    8  C8  UNL     1     -33.761   6.339   1.184  1.00 20.00     0.047 C 
HETATM    9  S10 UNL     1     -33.920   4.004   3.531  1.00 20.00    -0.166 SA
ENDROOT
BRANCH   5  10
HETATM   10  O9  UNL     1     -31.997   7.389   2.387  1.00 20.00    -0.389 OA
HETATM   11  H26 UNL     1     -32.325   8.180   1.939  1.00 20.00     0.210 HD
ENDBRANCH   5  10
TORSDOF 1
ENDMDL
MODEL 9
REMARK VINA RESULT:       5.2      1.912      2.750
REMARK  1 active torsions:
REMARK  status: ('A' for Active; 'I' for Inactive)
REMARK    1  A    between atoms: C5_5  and  O9_9 
ROOT
HETATM    1  C1  UNL     1     -34.415   6.606   2.872  1.00 20.00     0.022 C 
HETATM    2  C2  UNL     1     -33.695   5.282   2.630  1.00 20.00     0.075 C 
HETATM    3  C3  UNL     1     -31.486   6.823   2.045  1.00 20.00     0.112 C 
HETATM    4  C4  UNL     1     -33.513   7.776   3.349  1.00 20.00    -0.015 C 
HETATM    5  C5  UNL     1     -32.352   8.067   2.327  1.00 20.00     0.069 C 
HETATM    6  C6  UNL     1     -34.416   9.020   3.535  1.00 20.00     0.018 C 
HETATM    7  C7  UNL     1     -32.946   7.446   4.754  1.00 20.00     0.018 C 
HETATM    8  C8  UNL     1     -32.846   8.680   1.001  1.00 20.00     0.047 C 
HETATM    9  S10 UNL     1     -32.406   5.415   1.365  1.00 20.00    -0.166 SA
ENDROOT
BRANCH   5  10
HETATM   10  O9  UNL     1     -31.481   9.051   2.914  1.00 20.00    -0.389 OA
HETATM   11  H26 UNL     1     -30.718   8.561   3.247  1.00 20.00     0.210 HD
ENDBRANCH   5  10
TORSDOF 1
ENDMDL
