MODEL 1
REMARK VINA RESULT:       1.6      0.000      0.000
REMARK  2 active torsions:
REMARK  status: ('A' for Active; 'I' for Inactive)
REMARK    1  A    between atoms: C1_1  and  C5_5 
REMARK    2  A    between atoms: C1_1  and  C8_8 
ROOT
HETATM    1  C2  UNL     1     -34.923   6.100   3.911  1.00 20.00     0.084 C 
HETATM    2  C3  UNL     1     -33.825   5.204   3.363  1.00 20.00     0.085 C 
HETATM    3  C4  UNL     1     -32.860   7.980   3.629  1.00 20.00     0.096 C 
HETATM    4  C5  UNL     1     -33.096   7.635   2.166  1.00 20.00     0.126 C 
HETATM    5  S10 UNL     1     -34.298   7.623   4.689  1.00 20.00    -0.167 SA
HETATM    6  S11 UNL     1     -33.069   5.842   1.834  1.00 20.00    -0.155 SA
ENDROOT
BRANCH   4   7
HETATM    7  C1  UNL     1     -32.006   8.229   1.328  1.00 20.00     0.144 C 
HETATM    8  O9  UNL     1     -30.828   7.937   1.530  1.00 20.00    -0.296 OA
BRANCH   7   9
HETATM    9  C8  UNL     1     -32.429   9.226   0.253  1.00 20.00     0.048 C 
HETATM   10  C6  UNL     1     -32.763  10.569   0.891  1.00 20.00     0.017 C 
HETATM   11  C7  UNL     1     -31.339   9.384  -0.805  1.00 20.00     0.017 C 
ENDBRANCH   7   9
ENDBRANCH   4   7
TORSDOF 2
ENDMDL
MODEL 2
REMARK VINA RESULT:       2.5      1.122      2.001
REMARK  2 active torsions:
REMARK  status: ('A' for Active; 'I' for Inactive)
REMARK    1  A    between atoms: C1_1  and  C5_5 
REMARK    2  A    between atoms: C1_1  and  C8_8 
ROOT
HETATM    1  C2  UNL     1     -34.392   4.944   3.929  1.00 20.00     0.084 C 
HETATM    2  C3  UNL     1     -35.158   6.256   3.907  1.00 20.00     0.085 C 
HETATM    3  C4  UNL     1     -33.089   6.230   1.802  1.00 20.00     0.096 C 
HETATM    4  C5  UNL     1     -32.673   7.141   2.948  1.00 20.00     0.126 C 
HETATM    5  S10 UNL     1     -33.565   4.560   2.353  1.00 20.00    -0.167 SA
HETATM    6  S11 UNL     1     -34.078   7.722   3.954  1.00 20.00    -0.155 SA
ENDROOT
BRANCH   4   7
HETATM    7  C1  UNL     1     -32.018   8.371   2.399  1.00 20.00     0.144 C 
HETATM    8  O9  UNL     1     -31.256   9.040   3.095  1.00 20.00    -0.296 OA
BRANCH   7   9
HETATM    9  C8  UNL     1     -32.372   8.760   0.967  1.00 20.00     0.048 C 
HETATM   10  C6  UNL     1     -32.808  10.219   0.917  1.00 20.00     0.017 C 
HETATM   11  C7  UNL     1     -31.195   8.511   0.026  1.00 20.00     0.017 C 
ENDBRANCH   7   9
ENDBRANCH   4   7
TORSDOF 2
ENDMDL
MODEL 3
REMARK VINA RESULT:       2.9      2.741      5.481
REMARK  2 active torsions:
REMARK  status: ('A' for Active; 'I' for Inactive)
REMARK    1  A    between atoms: C1_1  and  C5_5 
REMARK    2  A    between atoms: C1_1  and  C8_8 
ROOT
HETATM    1  C2  UNL     1     -32.259   7.789   2.063  1.00 20.00     0.084 C 
HETATM    2  C3  UNL     1     -32.722   6.662   1.155  1.00 20.00     0.085 C 
HETATM    3  C4  UNL     1     -34.234   6.640   3.690  1.00 20.00     0.096 C 
HETATM    4  C5  UNL     1     -33.230   5.497   3.657  1.00 20.00     0.126 C 
HETATM    5  S10 UNL     1     -33.487   8.260   3.322  1.00 20.00    -0.167 SA
HETATM    6  S11 UNL     1     -32.718   5.034   1.970  1.00 20.00    -0.155 SA
ENDROOT
BRANCH   4   7
HETATM    7  C1  UNL     1     -33.845   4.270   4.257  1.00 20.00     0.144 C 
HETATM    8  O9  UNL     1     -35.063   4.187   4.408  1.00 20.00    -0.296 OA
BRANCH   7   9
HETATM    9  C8  UNL     1     -32.889   3.164   4.695  1.00 20.00     0.048 C 
HETATM   10  C6  UNL     1     -32.560   3.316   6.175  1.00 20.00     0.017 C 
HETATM   11  C7  UNL     1     -33.480   1.786   4.409  1.00 20.00     0.017 C 
ENDBRANCH   7   9
ENDBRANCH   4   7
TORSDOF 2
ENDMDL
MODEL 4
REMARK VINA RESULT:       3.1      1.579      2.445
REMARK  2 active torsions:
REMARK  status: ('A' for Active; 'I' for Inactive)
REMARK    1  A    between atoms: C1_1  and  C5_5 
REMARK    2  A    between atoms: C1_1  and  C8_8 
ROOT
HETATM    1  C2  UNL     1     -34.848   4.856   4.944  1.00 20.00     0.084 C 
HETATM    2  C3  UNL     1     -35.620   5.857   4.100  1.00 20.00     0.085 C 
HETATM    3  C4  UNL     1     -33.351   4.749   2.573  1.00 20.00     0.096 C 
HETATM    4  C5  UNL     1     -33.061   6.181   2.996  1.00 20.00     0.126 C 
HETATM    5  S10 UNL     1     -33.864   3.683   3.959  1.00 20.00    -0.167 SA
HETATM    6  S11 UNL     1     -34.565   7.144   3.363  1.00 20.00    -0.155 SA
ENDROOT
BRANCH   4   7
HETATM    7  C1  UNL     1     -32.366   6.903   1.883  1.00 20.00     0.144 C 
HETATM    8  O9  UNL     1     -31.825   6.280   0.971  1.00 20.00    -0.296 OA
BRANCH   7   9
HETATM    9  C8  UNL     1     -32.335   8.427   1.963  1.00 20.00     0.048 C 
HETATM   10  C6  UNL     1     -31.316   8.873   3.004  1.00 20.00     0.017 C 
HETATM   11  C7  UNL     1     -32.024   9.039   0.600  1.00 20.00     0.017 C 
ENDBRANCH   7   9
ENDBRANCH   4   7
TORSDOF 2
ENDMDL
MODEL 5
REMARK VINA RESULT:       3.2      1.477      1.837
REMARK  2 active torsions:
REMARK  status: ('A' for Active; 'I' for Inactive)
REMARK    1  A    between atoms: C1_1  and  C5_5 
REMARK    2  A    between atoms: C1_1  and  C8_8 
ROOT
HETATM    1  C2  UNL     1     -35.279   4.692   4.280  1.00 20.00     0.084 C 
HETATM    2  C3  UNL     1     -33.859   4.172   4.428  1.00 20.00     0.085 C 
HETATM    3  C4  UNL     1     -33.843   6.992   3.560  1.00 20.00     0.096 C 
HETATM    4  C5  UNL     1     -33.459   6.077   2.407  1.00 20.00     0.126 C 
HETATM    5  S10 UNL     1     -35.401   6.507   4.370  1.00 20.00    -0.167 SA
HETATM    6  S11 UNL     1     -32.831   4.454   2.953  1.00 20.00    -0.155 SA
ENDROOT
BRANCH   4   7
HETATM    7  C1  UNL     1     -32.354   6.704   1.613  1.00 20.00     0.144 C 
HETATM    8  O9  UNL     1     -31.590   6.012   0.943  1.00 20.00    -0.296 OA
BRANCH   7   9
HETATM    9  C8  UNL     1     -32.211   8.221   1.711  1.00 20.00     0.048 C 
HETATM   10  C6  UNL     1     -31.047   8.575   2.628  1.00 20.00     0.017 C 
HETATM   11  C7  UNL     1     -32.023   8.842   0.329  1.00 20.00     0.017 C 
ENDBRANCH   7   9
ENDBRANCH   4   7
TORSDOF 2
ENDMDL
MODEL 6
REMARK VINA RESULT:       3.2      2.721      5.700
REMARK  2 active torsions:
REMARK  status: ('A' for Active; 'I' for Inactive)
REMARK    1  A    between atoms: C1_1  and  C5_5 
REMARK    2  A    between atoms: C1_1  and  C8_8 
ROOT
HETATM    1  C2  UNL     1     -32.906   7.464   1.394  1.00 20.00     0.084 C 
HETATM    2  C3  UNL     1     -32.806   7.881   2.852  1.00 20.00     0.085 C 
HETATM    3  C4  UNL     1     -32.444   4.965   2.581  1.00 20.00     0.096 C 
HETATM    4  C5  UNL     1     -33.811   5.280   3.169  1.00 20.00     0.126 C 
HETATM    5  S10 UNL     1     -32.102   5.870   1.038  1.00 20.00    -0.167 SA
HETATM    6  S11 UNL     1     -33.899   6.925   3.951  1.00 20.00    -0.155 SA
ENDROOT
BRANCH   4   7
HETATM    7  C1  UNL     1     -34.137   4.290   4.245  1.00 20.00     0.144 C 
HETATM    8  O9  UNL     1     -35.224   4.320   4.818  1.00 20.00    -0.296 OA
BRANCH   7   9
HETATM    9  C8  UNL     1     -33.048   3.284   4.608  1.00 20.00     0.048 C 
HETATM   10  C6  UNL     1     -32.634   3.468   6.063  1.00 20.00     0.017 C 
HETATM   11  C7  UNL     1     -33.518   1.854   4.352  1.00 20.00     0.017 C 
ENDBRANCH   7   9
ENDBRANCH   4   7
TORSDOF 2
ENDMDL
MODEL 7
REMARK VINA RESULT:       3.9      2.746      5.392
REMARK  2 active torsions:
REMARK  status: ('A' for Active; 'I' for Inactive)
REMARK    1  A    between atoms: C1_1  and  C5_5 
REMARK    2  A    between atoms: C1_1  and  C8_8 
ROOT
HETATM    1  C2  UNL     1     -31.975   7.398   1.922  1.00 20.00     0.084 C 
HETATM    2  C3  UNL     1     -32.817   6.432   1.104  1.00 20.00     0.085 C 
HETATM    3  C4  UNL     1     -34.050   6.902   3.744  1.00 20.00     0.096 C 
HETATM    4  C5  UNL     1     -33.420   5.518   3.688  1.00 20.00     0.126 C 
HETATM    5  S10 UNL     1     -32.906   8.230   3.247  1.00 20.00    -0.167 SA
HETATM    6  S11 UNL     1     -33.208   4.890   1.989  1.00 20.00    -0.155 SA
ENDROOT
BRANCH   4   7
HETATM    7  C1  UNL     1     -34.306   4.534   4.388  1.00 20.00     0.144 C 
HETATM    8  O9  UNL     1     -35.523   4.710   4.439  1.00 20.00    -0.296 OA
BRANCH   7   9
HETATM    9  C8  UNL     1     -33.623   3.341   5.052  1.00 20.00     0.048 C 
HETATM   10  C6  UNL     1     -33.271   2.293   4.003  1.00 20.00     0.017 C 
HETATM   11  C7  UNL     1     -32.379   3.783   5.818  1.00 20.00     0.017 C 
ENDBRANCH   7   9
ENDBRANCH   4   7
TORSDOF 2
ENDMDL
MODEL 8
REMARK VINA RESULT:       4.0      2.008      4.694
REMARK  2 active torsions:
REMARK  status: ('A' for Active; 'I' for Inactive)
REMARK    1  A    between atoms: C1_1  and  C5_5 
REMARK    2  A    between atoms: C1_1  and  C8_8 
ROOT
HETATM    1  C2  UNL     1     -32.355  10.062  -0.229  1.00 20.00     0.084 C 
HETATM    2  C3  UNL     1     -32.732  10.566   1.153  1.00 20.00     0.085 C 
HETATM    3  C4  UNL     1     -31.568   7.859   1.320  1.00 20.00     0.096 C 
HETATM    4  C5  UNL     1     -33.072   7.808   1.544  1.00 20.00     0.126 C 
HETATM    5  S10 UNL     1     -31.102   8.741  -0.204  1.00 20.00    -0.167 SA
HETATM    6  S11 UNL     1     -33.776   9.401   2.085  1.00 20.00    -0.155 SA
ENDROOT
BRANCH   4   7
HETATM    7  C1  UNL     1     -33.385   6.825   2.630  1.00 20.00     0.144 C 
HETATM    8  O9  UNL     1     -32.953   5.675   2.580  1.00 20.00    -0.296 OA
BRANCH   7   9
HETATM    9  C8  UNL     1     -34.285   7.312   3.763  1.00 20.00     0.048 C 
HETATM   10  C6  UNL     1     -35.255   6.210   4.168  1.00 20.00     0.017 C 
HETATM   11  C7  UNL     1     -33.455   7.773   4.959  1.00 20.00     0.017 C 
ENDBRANCH   7   9
ENDBRANCH   4   7
TORSDOF 2
ENDMDL
MODEL 9
REMARK VINA RESULT:       4.1      1.932      4.868
REMARK  2 active torsions:
REMARK  status: ('A' for Active; 'I' for Inactive)
REMARK    1  A    between atoms: C1_1  and  C5_5 
REMARK    2  A    between atoms: C1_1  and  C8_8 
ROOT
HETATM    1  C2  UNL     1     -32.340   9.640  -0.310  1.00 20.00     0.084 C 
HETATM    2  C3  UNL     1     -32.662  10.506   0.897  1.00 20.00     0.085 C 
HETATM    3  C4  UNL     1     -31.619   7.882   1.755  1.00 20.00     0.096 C 
HETATM    4  C5  UNL     1     -33.118   7.966   2.000  1.00 20.00     0.126 C 
HETATM    5  S10 UNL     1     -31.148   8.311   0.048  1.00 20.00    -0.167 SA
HETATM    6  S11 UNL     1     -33.736   9.678   2.112  1.00 20.00    -0.155 SA
ENDROOT
BRANCH   4   7
HETATM    7  C1  UNL     1     -33.450   7.318   3.308  1.00 20.00     0.144 C 
HETATM    8  O9  UNL     1     -33.023   7.780   4.365  1.00 20.00    -0.296 OA
BRANCH   7   9
HETATM    9  C8  UNL     1     -34.304   6.054   3.254  1.00 20.00     0.048 C 
HETATM   10  C6  UNL     1     -33.438   4.829   3.520  1.00 20.00     0.017 C 
HETATM   11  C7  UNL     1     -35.458   6.131   4.252  1.00 20.00     0.017 C 
ENDBRANCH   7   9
ENDBRANCH   4   7
TORSDOF 2
ENDMDL
