MODEL 1
REMARK VINA RESULT:       2.0      0.000      0.000
REMARK  1 active torsions:
REMARK  status: ('A' for Active; 'I' for Inactive)
REMARK    1  A    between atoms: C2_2  and  C3_3 
ROOT
HETATM    1  C1  UNL     1     -32.620   8.207   2.096  1.00 20.00    -0.063 C 
HETATM    2  C2  UNL     1     -33.058   9.409   1.693  1.00 20.00     0.088 C 
HETATM    3  C4  UNL     1     -33.073   7.589   3.393  1.00 20.00     0.044 C 
HETATM    4  C5  UNL     1     -31.658   7.403   1.265  1.00 20.00     0.108 C 
HETATM    5  C6  UNL     1     -33.672   5.587   1.860  1.00 20.00     0.083 C 
HETATM    6  C7  UNL     1     -34.004   6.367   3.160  1.00 20.00    -0.036 C 
HETATM    7  C8  UNL     1     -35.469   6.843   3.069  1.00 20.00     0.016 C 
HETATM    8  C9  UNL     1     -33.888   5.427   4.377  1.00 20.00     0.016 C 
HETATM    9  S12 UNL     1     -31.903   5.604   1.426  1.00 20.00    -0.164 SA
ENDROOT
BRANCH   2  10
HETATM   10  C3  UNL     1     -32.594  10.035   0.374  1.00 20.00     0.198 C 
HETATM   11  O10 UNL     1     -31.927  11.101   0.521  1.00 20.00    -0.644 OA
HETATM   12  O11 UNL     1     -32.920   9.441  -0.692  1.00 20.00    -0.644 OA
ENDBRANCH   2  10
TORSDOF 1
ENDMDL
MODEL 2
REMARK VINA RESULT:       2.4      4.043      5.297
REMARK  1 active torsions:
REMARK  status: ('A' for Active; 'I' for Inactive)
REMARK    1  A    between atoms: C2_2  and  C3_3 
ROOT
HETATM    1  C1  UNL     1     -34.104   5.105   3.720  1.00 20.00    -0.063 C 
HETATM    2  C2  UNL     1     -34.074   4.279   4.777  1.00 20.00     0.088 C 
HETATM    3  C4  UNL     1     -34.901   6.383   3.731  1.00 20.00     0.044 C 
HETATM    4  C5  UNL     1     -33.329   4.804   2.466  1.00 20.00     0.108 C 
HETATM    5  C6  UNL     1     -32.634   7.430   3.040  1.00 20.00     0.083 C 
HETATM    6  C7  UNL     1     -33.987   7.638   3.770  1.00 20.00    -0.036 C 
HETATM    7  C8  UNL     1     -33.684   8.012   5.236  1.00 20.00     0.016 C 
HETATM    8  C9  UNL     1     -34.750   8.816   3.131  1.00 20.00     0.016 C 
HETATM    9  S12 UNL     1     -32.737   6.302   1.613  1.00 20.00    -0.164 SA
ENDROOT
BRANCH   2  10
HETATM   10  C3  UNL     1     -33.262   2.980   4.762  1.00 20.00     0.198 C 
HETATM   11  O10 UNL     1     -32.154   3.064   5.370  1.00 20.00    -0.644 OA
HETATM   12  O11 UNL     1     -33.767   1.992   4.161  1.00 20.00    -0.644 OA
ENDBRANCH   2  10
TORSDOF 1
ENDMDL
MODEL 3
REMARK VINA RESULT:       2.6      3.344      4.798
REMARK  1 active torsions:
REMARK  status: ('A' for Active; 'I' for Inactive)
REMARK    1  A    between atoms: C2_2  and  C3_3 
ROOT
HETATM    1  C1  UNL     1     -33.874   6.421   2.659  1.00 20.00    -0.063 C 
HETATM    2  C2  UNL     1     -34.381   6.203   3.882  1.00 20.00     0.088 C 
HETATM    3  C4  UNL     1     -33.638   7.812   2.133  1.00 20.00     0.044 C 
HETATM    4  C5  UNL     1     -33.501   5.283   1.749  1.00 20.00     0.108 C 
HETATM    5  C6  UNL     1     -31.247   6.904   1.713  1.00 20.00     0.083 C 
HETATM    6  C7  UNL     1     -32.124   8.145   2.028  1.00 20.00    -0.036 C 
HETATM    7  C8  UNL     1     -31.634   8.748   3.362  1.00 20.00     0.016 C 
HETATM    8  C9  UNL     1     -31.934   9.212   0.931  1.00 20.00     0.016 C 
HETATM    9  S12 UNL     1     -32.081   5.664   0.671  1.00 20.00    -0.164 SA
ENDROOT
BRANCH   2  10
HETATM   10  C3  UNL     1     -34.620   4.786   4.414  1.00 20.00     0.198 C 
HETATM   11  O10 UNL     1     -35.769   4.617   4.918  1.00 20.00    -0.644 OA
HETATM   12  O11 UNL     1     -33.672   3.960   4.299  1.00 20.00    -0.644 OA
ENDBRANCH   2  10
TORSDOF 1
ENDMDL
MODEL 4
REMARK VINA RESULT:       5.0      3.188      3.829
REMARK  1 active torsions:
REMARK  status: ('A' for Active; 'I' for Inactive)
REMARK    1  A    between atoms: C2_2  and  C3_3 
ROOT
HETATM    1  C1  UNL     1     -32.867   5.763   2.479  1.00 20.00    -0.063 C 
HETATM    2  C2  UNL     1     -32.552   5.878   1.181  1.00 20.00     0.088 C 
HETATM    3  C4  UNL     1     -32.737   6.920   3.435  1.00 20.00     0.044 C 
HETATM    4  C5  UNL     1     -33.381   4.469   3.051  1.00 20.00     0.108 C 
HETATM    5  C6  UNL     1     -35.210   6.350   3.959  1.00 20.00     0.083 C 
HETATM    6  C7  UNL     1     -34.123   7.455   3.891  1.00 20.00    -0.036 C 
HETATM    7  C8  UNL     1     -34.608   8.540   2.907  1.00 20.00     0.016 C 
HETATM    8  C9  UNL     1     -33.959   8.113   5.276  1.00 20.00     0.016 C 
HETATM    9  S12 UNL     1     -34.563   4.711   4.418  1.00 20.00    -0.164 SA
ENDROOT
BRANCH   2  10
HETATM   10  C3  UNL     1     -32.684   4.699   0.211  1.00 20.00     0.198 C 
HETATM   11  O10 UNL     1     -31.596   4.088  -0.002  1.00 20.00    -0.644 OA
HETATM   12  O11 UNL     1     -33.832   4.468  -0.261  1.00 20.00    -0.644 OA
ENDBRANCH   2  10
TORSDOF 1
ENDMDL
