MODEL 1
REMARK VINA RESULT:       0.2      0.000      0.000
REMARK  3 active torsions:
REMARK  status: ('A' for Active; 'I' for Inactive)
REMARK    1  A    between atoms: C6_6  and  C9_9 
REMARK    2  A    between atoms: C6_6  and  O10_10 
REMARK    3  A    between atoms: C8_8  and  C9_9 
ROOT
HETATM    1  C1  UNL     1     -32.702  10.037  -0.427  1.00 20.00     0.012 C 
HETATM    2  C2  UNL     1     -32.305   9.431   0.529  1.00 20.00    -0.117 C 
HETATM    3  C8  UNL     1     -31.819   8.691   1.702  1.00 20.00     0.096 C 
ENDROOT
BRANCH   3   4
HETATM    4  C9  UNL     1     -31.775   7.205   1.403  1.00 20.00     0.050 C 
BRANCH   4   5
HETATM    5  C6  UNL     1     -32.983   6.493   2.010  1.00 20.00     0.068 C 
HETATM    6  C3  UNL     1     -33.529   7.244   3.229  1.00 20.00     0.053 C 
HETATM    7  C5  UNL     1     -34.515   6.336   3.967  1.00 20.00     0.046 C 
HETATM    8  C7  UNL     1     -35.949   6.440   3.464  1.00 20.00     0.021 C 
HETATM    9  S11 UNL     1     -33.878   4.646   3.724  1.00 20.00    -0.162 SA
HETATM   10  C4  UNL     1     -32.619   5.091   2.488  1.00 20.00     0.112 C 
BRANCH   5  11
HETATM   11  O10 UNL     1     -33.978   6.392   0.992  1.00 20.00    -0.389 OA
HETATM   12  H25 UNL     1     -33.804   5.564   0.519  1.00 20.00     0.210 HD
ENDBRANCH   5  11
ENDBRANCH   4   5
ENDBRANCH   3   4
TORSDOF 3
ENDMDL
MODEL 2
REMARK VINA RESULT:       0.6      2.213      4.775
REMARK  3 active torsions:
REMARK  status: ('A' for Active; 'I' for Inactive)
REMARK    1  A    between atoms: C6_6  and  C9_9 
REMARK    2  A    between atoms: C6_6  and  O10_10 
REMARK    3  A    between atoms: C8_8  and  C9_9 
ROOT
HETATM    1  C1  UNL     1     -33.120   3.001   5.016  1.00 20.00     0.012 C 
HETATM    2  C2  UNL     1     -33.632   3.786   4.266  1.00 20.00    -0.117 C 
HETATM    3  C8  UNL     1     -34.259   4.744   3.345  1.00 20.00     0.096 C 
ENDROOT
BRANCH   3   4
HETATM    4  C9  UNL     1     -34.607   6.026   4.078  1.00 20.00     0.050 C 
BRANCH   4   5
HETATM    5  C6  UNL     1     -33.859   7.214   3.477  1.00 20.00     0.068 C 
HETATM    6  C3  UNL     1     -32.985   6.792   2.291  1.00 20.00     0.053 C 
HETATM    7  C5  UNL     1     -32.037   7.942   1.943  1.00 20.00     0.046 C 
HETATM    8  C7  UNL     1     -32.616   8.944   0.951  1.00 20.00     0.021 C 
HETATM    9  S11 UNL     1     -31.676   8.759   3.531  1.00 20.00    -0.162 SA
HETATM   10  C4  UNL     1     -32.926   7.857   4.499  1.00 20.00     0.112 C 
BRANCH   5  11
HETATM   11  O10 UNL     1     -34.833   8.174   3.069  1.00 20.00    -0.389 OA
HETATM   12  H25 UNL     1     -35.341   7.762   2.354  1.00 20.00     0.210 HD
ENDBRANCH   5  11
ENDBRANCH   4   5
ENDBRANCH   3   4
TORSDOF 3
ENDMDL
MODEL 3
REMARK VINA RESULT:       0.9      1.778      2.291
REMARK  3 active torsions:
REMARK  status: ('A' for Active; 'I' for Inactive)
REMARK    1  A    between atoms: C6_6  and  C9_9 
REMARK    2  A    between atoms: C6_6  and  O10_10 
REMARK    3  A    between atoms: C8_8  and  C9_9 
ROOT
HETATM    1  C1  UNL     1     -32.578  10.255  -0.137  1.00 20.00     0.012 C 
HETATM    2  C2  UNL     1     -32.345   9.313   0.570  1.00 20.00    -0.117 C 
HETATM    3  C8  UNL     1     -32.059   8.158   1.432  1.00 20.00     0.096 C 
ENDROOT
BRANCH   3   4
HETATM    4  C9  UNL     1     -32.358   8.497   2.879  1.00 20.00     0.050 C 
BRANCH   4   5
HETATM    5  C6  UNL     1     -33.156   7.377   3.545  1.00 20.00     0.068 C 
HETATM    6  C3  UNL     1     -33.113   6.085   2.722  1.00 20.00     0.053 C 
HETATM    7  C5  UNL     1     -34.169   5.119   3.264  1.00 20.00     0.046 C 
HETATM    8  C7  UNL     1     -33.670   4.225   4.392  1.00 20.00     0.021 C 
HETATM    9  S11 UNL     1     -35.528   6.181   3.850  1.00 20.00    -0.162 SA
HETATM   10  C4  UNL     1     -34.627   7.754   3.689  1.00 20.00     0.112 C 
BRANCH   5  11
HETATM   11  O10 UNL     1     -32.601   7.167   4.843  1.00 20.00    -0.389 OA
HETATM   12  H25 UNL     1     -33.173   7.642   5.465  1.00 20.00     0.210 HD
ENDBRANCH   5  11
ENDBRANCH   4   5
ENDBRANCH   3   4
TORSDOF 3
ENDMDL
MODEL 4
REMARK VINA RESULT:       1.0      1.461      1.686
REMARK  3 active torsions:
REMARK  status: ('A' for Active; 'I' for Inactive)
REMARK    1  A    between atoms: C6_6  and  C9_9 
REMARK    2  A    between atoms: C6_6  and  O10_10 
REMARK    3  A    between atoms: C8_8  and  C9_9 
ROOT
HETATM    1  C1  UNL     1     -32.743  10.255  -0.308  1.00 20.00     0.012 C 
HETATM    2  C2  UNL     1     -32.267   9.388   0.372  1.00 20.00    -0.117 C 
HETATM    3  C8  UNL     1     -31.680   8.330   1.206  1.00 20.00     0.096 C 
ENDROOT
BRANCH   3   4
HETATM    4  C9  UNL     1     -32.519   7.069   1.120  1.00 20.00     0.050 C 
BRANCH   4   5
HETATM    5  C6  UNL     1     -33.114   6.719   2.482  1.00 20.00     0.068 C 
HETATM    6  C3  UNL     1     -34.646   6.706   2.444  1.00 20.00     0.053 C 
HETATM    7  C5  UNL     1     -35.175   6.664   3.880  1.00 20.00     0.046 C 
HETATM    8  C7  UNL     1     -35.339   5.256   4.439  1.00 20.00     0.021 C 
HETATM    9  S11 UNL     1     -33.958   7.599   4.862  1.00 20.00    -0.162 SA
HETATM   10  C4  UNL     1     -32.713   7.739   3.542  1.00 20.00     0.112 C 
BRANCH   5  11
HETATM   11  O10 UNL     1     -32.608   5.437   2.855  1.00 20.00    -0.389 OA
HETATM   12  H25 UNL     1     -32.906   4.816   2.173  1.00 20.00     0.210 HD
ENDBRANCH   5  11
ENDBRANCH   4   5
ENDBRANCH   3   4
TORSDOF 3
ENDMDL
MODEL 5
REMARK VINA RESULT:       1.5      2.003      4.771
REMARK  3 active torsions:
REMARK  status: ('A' for Active; 'I' for Inactive)
REMARK    1  A    between atoms: C6_6  and  C9_9 
REMARK    2  A    between atoms: C6_6  and  O10_10 
REMARK    3  A    between atoms: C8_8  and  C9_9 
ROOT
HETATM    1  C1  UNL     1     -32.990   2.687   5.201  1.00 20.00     0.012 C 
HETATM    2  C2  UNL     1     -33.502   3.486   4.467  1.00 20.00    -0.117 C 
HETATM    3  C8  UNL     1     -34.132   4.466   3.571  1.00 20.00     0.096 C 
ENDROOT
BRANCH   3   4
HETATM    4  C9  UNL     1     -33.232   4.744   2.382  1.00 20.00     0.050 C 
BRANCH   4   5
HETATM    5  C6  UNL     1     -33.149   6.243   2.103  1.00 20.00     0.068 C 
HETATM    6  C3  UNL     1     -31.733   6.665   1.696  1.00 20.00     0.053 C 
HETATM    7  C5  UNL     1     -31.641   8.192   1.740  1.00 20.00     0.046 C 
HETATM    8  C7  UNL     1     -32.043   8.874   0.438  1.00 20.00     0.021 C 
HETATM    9  S11 UNL     1     -32.754   8.697   3.091  1.00 20.00    -0.162 SA
HETATM   10  C4  UNL     1     -33.508   7.059   3.340  1.00 20.00     0.112 C 
BRANCH   5  11
HETATM   11  O10 UNL     1     -34.081   6.539   1.064  1.00 20.00    -0.389 OA
HETATM   12  H25 UNL     1     -33.557   6.730   0.271  1.00 20.00     0.210 HD
ENDBRANCH   5  11
ENDBRANCH   4   5
ENDBRANCH   3   4
TORSDOF 3
ENDMDL
MODEL 6
REMARK VINA RESULT:       2.2      2.323      4.790
REMARK  3 active torsions:
REMARK  status: ('A' for Active; 'I' for Inactive)
REMARK    1  A    between atoms: C6_6  and  C9_9 
REMARK    2  A    between atoms: C6_6  and  O10_10 
REMARK    3  A    between atoms: C8_8  and  C9_9 
ROOT
HETATM    1  C1  UNL     1     -32.977   2.850   4.851  1.00 20.00     0.012 C 
HETATM    2  C2  UNL     1     -33.883   3.620   4.691  1.00 20.00    -0.117 C 
HETATM    3  C8  UNL     1     -34.994   4.560   4.495  1.00 20.00     0.096 C 
ENDROOT
BRANCH   3   4
HETATM    4  C9  UNL     1     -34.513   5.987   4.675  1.00 20.00     0.050 C 
BRANCH   4   5
HETATM    5  C6  UNL     1     -34.070   6.583   3.340  1.00 20.00     0.068 C 
HETATM    6  C3  UNL     1     -33.272   5.574   2.507  1.00 20.00     0.053 C 
HETATM    7  C5  UNL     1     -32.598   6.313   1.349  1.00 20.00     0.046 C 
HETATM    8  C7  UNL     1     -33.459   6.420   0.097  1.00 20.00     0.021 C 
HETATM    9  S11 UNL     1     -32.218   7.971   2.001  1.00 20.00    -0.162 SA
HETATM   10  C4  UNL     1     -33.163   7.792   3.546  1.00 20.00     0.112 C 
BRANCH   5  11
HETATM   11  O10 UNL     1     -35.244   6.996   2.643  1.00 20.00    -0.389 OA
HETATM   12  H25 UNL     1     -35.506   7.847   3.026  1.00 20.00     0.210 HD
ENDBRANCH   5  11
ENDBRANCH   4   5
ENDBRANCH   3   4
TORSDOF 3
ENDMDL
MODEL 7
REMARK VINA RESULT:       2.3      2.473      4.748
REMARK  3 active torsions:
REMARK  status: ('A' for Active; 'I' for Inactive)
REMARK    1  A    between atoms: C6_6  and  C9_9 
REMARK    2  A    between atoms: C6_6  and  O10_10 
REMARK    3  A    between atoms: C8_8  and  C9_9 
ROOT
HETATM    1  C1  UNL     1     -35.407   5.176   4.468  1.00 20.00     0.012 C 
HETATM    2  C2  UNL     1     -34.788   6.121   4.065  1.00 20.00    -0.117 C 
HETATM    3  C8  UNL     1     -34.031   7.280   3.573  1.00 20.00     0.096 C 
ENDROOT
BRANCH   3   4
HETATM    4  C9  UNL     1     -32.938   6.829   2.623  1.00 20.00     0.050 C 
BRANCH   4   5
HETATM    5  C6  UNL     1     -32.299   8.027   1.923  1.00 20.00     0.068 C 
HETATM    6  C3  UNL     1     -33.328   8.829   1.119  1.00 20.00     0.053 C 
HETATM    7  C5  UNL     1     -32.587   9.806   0.204  1.00 20.00     0.046 C 
HETATM    8  C7  UNL     1     -32.285  11.152   0.851  1.00 20.00     0.021 C 
HETATM    9  S11 UNL     1     -31.039   8.957  -0.244  1.00 20.00    -0.162 SA
HETATM   10  C4  UNL     1     -31.223   7.585   0.937  1.00 20.00     0.112 C 
BRANCH   5  11
HETATM   11  O10 UNL     1     -31.699   8.843   2.930  1.00 20.00    -0.389 OA
HETATM   12  H25 UNL     1     -31.273   8.237   3.555  1.00 20.00     0.210 HD
ENDBRANCH   5  11
ENDBRANCH   4   5
ENDBRANCH   3   4
TORSDOF 3
ENDMDL
MODEL 8
REMARK VINA RESULT:       2.7      2.406      4.692
REMARK  3 active torsions:
REMARK  status: ('A' for Active; 'I' for Inactive)
REMARK    1  A    between atoms: C6_6  and  C9_9 
REMARK    2  A    between atoms: C6_6  and  O10_10 
REMARK    3  A    between atoms: C8_8  and  C9_9 
ROOT
HETATM    1  C1  UNL     1     -33.856   3.899   4.317  1.00 20.00     0.012 C 
HETATM    2  C2  UNL     1     -34.026   4.961   3.784  1.00 20.00    -0.117 C 
HETATM    3  C8  UNL     1     -34.236   6.259   3.129  1.00 20.00     0.096 C 
ENDROOT
BRANCH   3   4
HETATM    4  C9  UNL     1     -33.350   7.315   3.762  1.00 20.00     0.050 C 
BRANCH   4   5
HETATM    5  C6  UNL     1     -32.581   8.090   2.693  1.00 20.00     0.068 C 
HETATM    6  C3  UNL     1     -33.523   8.898   1.793  1.00 20.00     0.053 C 
HETATM    7  C5  UNL     1     -32.739   9.387   0.573  1.00 20.00     0.046 C 
HETATM    8  C7  UNL     1     -32.048  10.729   0.778  1.00 20.00     0.021 C 
HETATM    9  S11 UNL     1     -31.509   8.083   0.244  1.00 20.00    -0.162 SA
HETATM   10  C4  UNL     1     -31.802   7.151   1.779  1.00 20.00     0.112 C 
BRANCH   5  11
HETATM   11  O10 UNL     1     -31.663   8.952   3.365  1.00 20.00    -0.389 OA
HETATM   12  H25 UNL     1     -32.005   9.853   3.258  1.00 20.00     0.210 HD
ENDBRANCH   5  11
ENDBRANCH   4   5
ENDBRANCH   3   4
TORSDOF 3
ENDMDL
MODEL 9
REMARK VINA RESULT:       3.0      2.378      4.726
REMARK  3 active torsions:
REMARK  status: ('A' for Active; 'I' for Inactive)
REMARK    1  A    between atoms: C6_6  and  C9_9 
REMARK    2  A    between atoms: C6_6  and  O10_10 
REMARK    3  A    between atoms: C8_8  and  C9_9 
ROOT
HETATM    1  C1  UNL     1     -33.147   2.761   4.827  1.00 20.00     0.012 C 
HETATM    2  C2  UNL     1     -33.630   3.730   4.310  1.00 20.00    -0.117 C 
HETATM    3  C8  UNL     1     -34.222   4.917   3.680  1.00 20.00     0.096 C 
ENDROOT
BRANCH   3   4
HETATM    4  C9  UNL     1     -33.839   4.980   2.214  1.00 20.00     0.050 C 
BRANCH   4   5
HETATM    5  C6  UNL     1     -32.903   6.157   1.947  1.00 20.00     0.068 C 
HETATM    6  C3  UNL     1     -33.027   7.236   3.029  1.00 20.00     0.053 C 
HETATM    7  C5  UNL     1     -32.317   8.502   2.547  1.00 20.00     0.046 C 
HETATM    8  C7  UNL     1     -30.835   8.552   2.897  1.00 20.00     0.021 C 
HETATM    9  S11 UNL     1     -32.542   8.515   0.740  1.00 20.00    -0.162 SA
HETATM   10  C4  UNL     1     -33.225   6.833   0.619  1.00 20.00     0.112 C 
BRANCH   5  11
HETATM   11  O10 UNL     1     -31.572   5.645   1.897  1.00 20.00    -0.389 OA
HETATM   12  H25 UNL     1     -30.981   6.412   1.930  1.00 20.00     0.210 HD
ENDBRANCH   5  11
ENDBRANCH   4   5
ENDBRANCH   3   4
TORSDOF 3
ENDMDL
