MODEL 1
REMARK VINA RESULT:       2.4      0.000      0.000
REMARK  0 active torsions:
REMARK  status: ('A' for Active; 'I' for Inactive)
ROOT
HETATM    1  C1  UNL     1     -33.605   8.294   2.581  1.00 20.00     0.056 C 
HETATM    2  C2  UNL     1     -32.371   7.809   1.859  1.00 20.00     0.094 C 
HETATM    3  C3  UNL     1     -33.920   7.115   3.503  1.00 20.00     0.056 C 
HETATM    4  C4  UNL     1     -32.651   6.320   1.671  1.00 20.00     0.068 C 
HETATM    5  C5  UNL     1     -33.218   7.244   4.857  1.00 20.00     0.045 C 
HETATM    6  C6  UNL     1     -35.421   6.933   3.704  1.00 20.00     0.045 C 
HETATM    7  C7  UNL     1     -33.538   5.947   0.475  1.00 20.00     0.047 C 
HETATM    8  C8  UNL     1     -31.367   5.493   1.638  1.00 20.00     0.047 C 
HETATM    9  O9  UNL     1     -33.395   5.936   2.855  1.00 20.00    -0.369 OA
HETATM   10 BR10 UNL     1     -32.035   8.810   0.245  1.00 20.00    -0.088 Br
ENDROOT
TORSDOF 0
ENDMDL
MODEL 2
REMARK VINA RESULT:       2.4      2.182      3.253
REMARK  0 active torsions:
REMARK  status: ('A' for Active; 'I' for Inactive)
ROOT
HETATM    1  C1  UNL     1     -33.143   7.904   3.128  1.00 20.00     0.056 C 
HETATM    2  C2  UNL     1     -34.034   6.835   2.544  1.00 20.00     0.094 C 
HETATM    3  C3  UNL     1     -32.099   8.087   2.025  1.00 20.00     0.056 C 
HETATM    4  C4  UNL     1     -33.044   5.929   1.815  1.00 20.00     0.068 C 
HETATM    5  C5  UNL     1     -32.519   9.155   1.012  1.00 20.00     0.045 C 
HETATM    6  C6  UNL     1     -30.721   8.415   2.592  1.00 20.00     0.045 C 
HETATM    7  C7  UNL     1     -32.314   4.894   2.681  1.00 20.00     0.047 C 
HETATM    8  C8  UNL     1     -33.679   5.238   0.609  1.00 20.00     0.047 C 
HETATM    9  O9  UNL     1     -32.021   6.830   1.321  1.00 20.00    -0.369 OA
HETATM   10 BR10 UNL     1     -35.118   5.980   3.890  1.00 20.00    -0.088 Br
ENDROOT
TORSDOF 0
ENDMDL
MODEL 3
REMARK VINA RESULT:       2.7      1.690      2.642
REMARK  0 active torsions:
REMARK  status: ('A' for Active; 'I' for Inactive)
ROOT
HETATM    1  C1  UNL     1     -33.309   6.019   3.102  1.00 20.00     0.056 C 
HETATM    2  C2  UNL     1     -32.937   6.347   1.676  1.00 20.00     0.094 C 
HETATM    3  C3  UNL     1     -33.893   7.345   3.593  1.00 20.00     0.056 C 
HETATM    4  C4  UNL     1     -32.441   7.788   1.777  1.00 20.00     0.068 C 
HETATM    5  C5  UNL     1     -35.400   7.434   3.342  1.00 20.00     0.045 C 
HETATM    6  C6  UNL     1     -33.589   7.591   5.067  1.00 20.00     0.045 C 
HETATM    7  C7  UNL     1     -30.987   7.970   2.234  1.00 20.00     0.047 C 
HETATM    8  C8  UNL     1     -32.679   8.568   0.486  1.00 20.00     0.047 C 
HETATM    9  O9  UNL     1     -33.263   8.384   2.813  1.00 20.00    -0.369 OA
HETATM   10 BR10 UNL     1     -31.682   5.078   0.944  1.00 20.00    -0.088 Br
ENDROOT
TORSDOF 0
ENDMDL
MODEL 4
REMARK VINA RESULT:       2.7      2.309      3.673
REMARK  0 active torsions:
REMARK  status: ('A' for Active; 'I' for Inactive)
ROOT
HETATM    1  C1  UNL     1     -32.888   5.820   1.952  1.00 20.00     0.056 C 
HETATM    2  C2  UNL     1     -33.187   5.818   3.432  1.00 20.00     0.094 C 
HETATM    3  C3  UNL     1     -32.680   7.310   1.672  1.00 20.00     0.056 C 
HETATM    4  C4  UNL     1     -34.012   7.090   3.614  1.00 20.00     0.068 C 
HETATM    5  C5  UNL     1     -31.218   7.725   1.849  1.00 20.00     0.045 C 
HETATM    6  C6  UNL     1     -33.173   7.703   0.283  1.00 20.00     0.045 C 
HETATM    7  C7  UNL     1     -35.505   6.979   3.279  1.00 20.00     0.047 C 
HETATM    8  C8  UNL     1     -33.839   7.692   5.008  1.00 20.00     0.047 C 
HETATM    9  O9  UNL     1     -33.456   8.026   2.656  1.00 20.00    -0.369 OA
HETATM   10 BR10 UNL     1     -34.035   4.180   3.997  1.00 20.00    -0.088 Br
ENDROOT
TORSDOF 0
ENDMDL
MODEL 5
REMARK VINA RESULT:       3.6      2.018      3.224
REMARK  0 active torsions:
REMARK  status: ('A' for Active; 'I' for Inactive)
ROOT
HETATM    1  C1  UNL     1     -33.664   6.086   2.540  1.00 20.00     0.056 C 
HETATM    2  C2  UNL     1     -32.894   7.163   3.266  1.00 20.00     0.094 C 
HETATM    3  C3  UNL     1     -32.699   5.706   1.416  1.00 20.00     0.056 C 
HETATM    4  C4  UNL     1     -32.195   7.905   2.129  1.00 20.00     0.068 C 
HETATM    5  C5  UNL     1     -31.748   4.582   1.834  1.00 20.00     0.045 C 
HETATM    6  C6  UNL     1     -33.436   5.323   0.136  1.00 20.00     0.045 C 
HETATM    7  C7  UNL     1     -33.036   8.956   1.392  1.00 20.00     0.047 C 
HETATM    8  C8  UNL     1     -30.871   8.523   2.576  1.00 20.00     0.047 C 
HETATM    9  O9  UNL     1     -31.895   6.876   1.152  1.00 20.00    -0.369 OA
HETATM   10 BR10 UNL     1     -34.035   8.236   4.391  1.00 20.00    -0.088 Br
ENDROOT
TORSDOF 0
ENDMDL
MODEL 6
REMARK VINA RESULT:       3.8      1.942      3.586
REMARK  0 active torsions:
REMARK  status: ('A' for Active; 'I' for Inactive)
ROOT
HETATM    1  C1  UNL     1     -32.296   7.317   2.739  1.00 20.00     0.056 C 
HETATM    2  C2  UNL     1     -33.575   7.591   3.493  1.00 20.00     0.094 C 
HETATM    3  C3  UNL     1     -32.785   6.430   1.593  1.00 20.00     0.056 C 
HETATM    4  C4  UNL     1     -34.325   6.265   3.381  1.00 20.00     0.068 C 
HETATM    5  C5  UNL     1     -33.195   7.253   0.369  1.00 20.00     0.045 C 
HETATM    6  C6  UNL     1     -31.748   5.383   1.199  1.00 20.00     0.045 C 
HETATM    7  C7  UNL     1     -33.925   5.177   4.386  1.00 20.00     0.047 C 
HETATM    8  C8  UNL     1     -35.840   6.460   3.405  1.00 20.00     0.047 C 
HETATM    9  O9  UNL     1     -33.966   5.752   2.073  1.00 20.00    -0.369 OA
HETATM   10 BR10 UNL     1     -33.239   8.214   5.287  1.00 20.00    -0.088 Br
ENDROOT
TORSDOF 0
ENDMDL
MODEL 7
REMARK VINA RESULT:       3.9      2.073      2.894
REMARK  0 active torsions:
REMARK  status: ('A' for Active; 'I' for Inactive)
ROOT
HETATM    1  C1  UNL     1     -31.297   7.172   1.110  1.00 20.00     0.056 C 
HETATM    2  C2  UNL     1     -31.782   5.890   1.743  1.00 20.00     0.094 C 
HETATM    3  C3  UNL     1     -32.132   8.225   1.840  1.00 20.00     0.056 C 
HETATM    4  C4  UNL     1     -33.273   6.155   1.945  1.00 20.00     0.068 C 
HETATM    5  C5  UNL     1     -31.439   8.725   3.109  1.00 20.00     0.045 C 
HETATM    6  C6  UNL     1     -32.485   9.401   0.935  1.00 20.00     0.045 C 
HETATM    7  C7  UNL     1     -34.170   5.929   0.720  1.00 20.00     0.047 C 
HETATM    8  C8  UNL     1     -33.834   5.392   3.144  1.00 20.00     0.047 C 
HETATM    9  O9  UNL     1     -33.354   7.571   2.244  1.00 20.00    -0.369 OA
HETATM   10 BR10 UNL     1     -31.343   4.343   0.678  1.00 20.00    -0.088 Br
ENDROOT
TORSDOF 0
ENDMDL
MODEL 8
REMARK VINA RESULT:       4.5      1.087      3.268
REMARK  0 active torsions:
REMARK  status: ('A' for Active; 'I' for Inactive)
ROOT
HETATM    1  C1  UNL     1     -32.074   7.190   0.732  1.00 20.00     0.056 C 
HETATM    2  C2  UNL     1     -33.054   8.156   1.351  1.00 20.00     0.094 C 
HETATM    3  C3  UNL     1     -32.456   5.871   1.406  1.00 20.00     0.056 C 
HETATM    4  C4  UNL     1     -33.160   7.656   2.791  1.00 20.00     0.068 C 
HETATM    5  C5  UNL     1     -33.525   5.114   0.615  1.00 20.00     0.045 C 
HETATM    6  C6  UNL     1     -31.242   4.977   1.639  1.00 20.00     0.045 C 
HETATM    7  C7  UNL     1     -32.051   8.114   3.747  1.00 20.00     0.047 C 
HETATM    8  C8  UNL     1     -34.528   7.955   3.403  1.00 20.00     0.047 C 
HETATM    9  O9  UNL     1     -33.028   6.215   2.686  1.00 20.00    -0.369 OA
HETATM   10 BR10 UNL     1     -32.495   9.990   1.141  1.00 20.00    -0.088 Br
ENDROOT
TORSDOF 0
ENDMDL
MODEL 9
REMARK VINA RESULT:       4.5      2.571      3.245
REMARK  0 active torsions:
REMARK  status: ('A' for Active; 'I' for Inactive)
ROOT
HETATM    1  C1  UNL     1     -34.123   5.550   4.355  1.00 20.00     0.056 C 
HETATM    2  C2  UNL     1     -33.934   4.513   3.275  1.00 20.00     0.094 C 
HETATM    3  C3  UNL     1     -34.386   6.817   3.539  1.00 20.00     0.056 C 
HETATM    4  C4  UNL     1     -33.190   5.287   2.188  1.00 20.00     0.068 C 
HETATM    5  C5  UNL     1     -35.877   7.012   3.253  1.00 20.00     0.045 C 
HETATM    6  C6  UNL     1     -33.813   8.059   4.214  1.00 20.00     0.045 C 
HETATM    7  C7  UNL     1     -31.673   5.419   2.373  1.00 20.00     0.047 C 
HETATM    8  C8  UNL     1     -33.496   4.749   0.790  1.00 20.00     0.047 C 
HETATM    9  O9  UNL     1     -33.723   6.633   2.271  1.00 20.00    -0.369 OA
HETATM   10 BR10 UNL     1     -33.046   2.932   3.934  1.00 20.00    -0.088 Br
ENDROOT
TORSDOF 0
ENDMDL
