MODEL 1
REMARK VINA RESULT:       1.5      0.000      0.000
REMARK  0 active torsions:
REMARK  status: ('A' for Active; 'I' for Inactive)
ROOT
HETATM    1  C1  UNL     1     -34.093   4.757   4.015  1.00 20.00     0.086 C 
HETATM    2  C2  UNL     1     -33.186   6.270   2.271  1.00 20.00     0.056 C 
HETATM    3  C3  UNL     1     -33.379   7.060   4.573  1.00 20.00     0.115 C 
HETATM    4  C4  UNL     1     -32.963   7.759   2.000  1.00 20.00     0.046 C 
HETATM    5  C5  UNL     1     -34.034   6.145   3.541  1.00 20.00     0.135 C 
HETATM    6  C6  UNL     1     -31.744   8.019   1.129  1.00 20.00     0.021 C 
HETATM    7  N7  UNL     1     -34.139   3.659   4.390  1.00 20.00    -0.195 NA
HETATM    8  S8  UNL     1     -32.768   8.506   3.651  1.00 20.00    -0.162 SA
HETATM    9 CL9  UNL     1     -35.730   6.648   3.231  1.00 20.00    -0.102 Cl
ENDROOT
TORSDOF 0
ENDMDL
MODEL 2
REMARK VINA RESULT:       1.7      3.205      4.174
REMARK  0 active torsions:
REMARK  status: ('A' for Active; 'I' for Inactive)
ROOT
HETATM    1  C1  UNL     1     -32.416   8.955   0.891  1.00 20.00     0.086 C 
HETATM    2  C2  UNL     1     -33.878   7.366   2.111  1.00 20.00     0.056 C 
HETATM    3  C3  UNL     1     -32.229   8.678   3.343  1.00 20.00     0.115 C 
HETATM    4  C4  UNL     1     -33.940   6.593   3.430  1.00 20.00     0.046 C 
HETATM    5  C5  UNL     1     -32.487   7.997   2.000  1.00 20.00     0.135 C 
HETATM    6  C6  UNL     1     -35.365   6.378   3.914  1.00 20.00     0.021 C 
HETATM    7  N7  UNL     1     -32.360   9.713   0.013  1.00 20.00    -0.195 NA
HETATM    8  S8  UNL     1     -32.987   7.609   4.606  1.00 20.00    -0.162 SA
HETATM    9 CL9  UNL     1     -31.239   6.747   1.673  1.00 20.00    -0.102 Cl
ENDROOT
TORSDOF 0
ENDMDL
MODEL 3
REMARK VINA RESULT:       1.7      2.156      2.495
REMARK  0 active torsions:
REMARK  status: ('A' for Active; 'I' for Inactive)
ROOT
HETATM    1  C1  UNL     1     -34.633   6.771   3.643  1.00 20.00     0.086 C 
HETATM    2  C2  UNL     1     -33.727   8.602   2.236  1.00 20.00     0.056 C 
HETATM    3  C3  UNL     1     -32.521   6.485   2.384  1.00 20.00     0.115 C 
HETATM    4  C4  UNL     1     -32.414   9.067   1.604  1.00 20.00     0.046 C 
HETATM    5  C5  UNL     1     -33.410   7.439   3.180  1.00 20.00     0.135 C 
HETATM    6  C6  UNL     1     -32.626   9.815   0.297  1.00 20.00     0.021 C 
HETATM    7  N7  UNL     1     -35.600   6.243   4.009  1.00 20.00    -0.195 NA
HETATM    8  S8  UNL     1     -31.461   7.535   1.341  1.00 20.00    -0.162 SA
HETATM    9 CL9  UNL     1     -32.560   8.020   4.651  1.00 20.00    -0.102 Cl
ENDROOT
TORSDOF 0
ENDMDL
MODEL 4
REMARK VINA RESULT:       2.0      3.669      4.342
REMARK  0 active torsions:
REMARK  status: ('A' for Active; 'I' for Inactive)
ROOT
HETATM    1  C1  UNL     1     -32.421   9.462   0.984  1.00 20.00     0.086 C 
HETATM    2  C2  UNL     1     -31.951   7.030   0.867  1.00 20.00     0.056 C 
HETATM    3  C3  UNL     1     -33.552   7.872   2.507  1.00 20.00     0.115 C 
HETATM    4  C4  UNL     1     -32.063   5.763   1.718  1.00 20.00     0.046 C 
HETATM    5  C5  UNL     1     -32.265   8.230   1.766  1.00 20.00     0.135 C 
HETATM    6  C6  UNL     1     -32.305   4.517   0.882  1.00 20.00     0.021 C 
HETATM    7  N7  UNL     1     -32.545  10.437   0.366  1.00 20.00    -0.195 NA
HETATM    8  S8  UNL     1     -33.460   6.086   2.844  1.00 20.00    -0.162 SA
HETATM    9 CL9  UNL     1     -30.927   8.530   2.926  1.00 20.00    -0.102 Cl
ENDROOT
TORSDOF 0
ENDMDL
MODEL 5
REMARK VINA RESULT:       2.0      2.829      3.861
REMARK  0 active torsions:
REMARK  status: ('A' for Active; 'I' for Inactive)
ROOT
HETATM    1  C1  UNL     1     -32.667   7.976   2.094  1.00 20.00     0.086 C 
HETATM    2  C2  UNL     1     -32.911   5.790   3.240  1.00 20.00     0.056 C 
HETATM    3  C3  UNL     1     -34.823   7.303   3.108  1.00 20.00     0.115 C 
HETATM    4  C4  UNL     1     -33.805   5.086   4.263  1.00 20.00     0.046 C 
HETATM    5  C5  UNL     1     -33.299   7.271   3.216  1.00 20.00     0.135 C 
HETATM    6  C6  UNL     1     -33.908   3.589   4.017  1.00 20.00     0.021 C 
HETATM    7  N7  UNL     1     -32.167   8.534   1.207  1.00 20.00    -0.195 NA
HETATM    8  S8  UNL     1     -35.428   5.898   4.094  1.00 20.00    -0.162 SA
HETATM    9 CL9  UNL     1     -32.752   8.102   4.712  1.00 20.00    -0.102 Cl
ENDROOT
TORSDOF 0
ENDMDL
MODEL 6
REMARK VINA RESULT:       2.3      3.219      4.129
REMARK  0 active torsions:
REMARK  status: ('A' for Active; 'I' for Inactive)
ROOT
HETATM    1  C1  UNL     1     -32.427   8.908   0.924  1.00 20.00     0.086 C 
HETATM    2  C2  UNL     1     -32.762   6.654   1.903  1.00 20.00     0.056 C 
HETATM    3  C3  UNL     1     -33.835   8.589   2.934  1.00 20.00     0.115 C 
HETATM    4  C4  UNL     1     -33.178   5.987   3.215  1.00 20.00     0.046 C 
HETATM    5  C5  UNL     1     -32.586   8.152   2.172  1.00 20.00     0.135 C 
HETATM    6  C6  UNL     1     -33.886   4.659   2.997  1.00 20.00     0.021 C 
HETATM    7  N7  UNL     1     -32.301   9.507  -0.063  1.00 20.00    -0.195 NA
HETATM    8  S8  UNL     1     -34.276   7.198   4.021  1.00 20.00    -0.162 SA
HETATM    9 CL9  UNL     1     -31.108   8.459   3.145  1.00 20.00    -0.102 Cl
ENDROOT
TORSDOF 0
ENDMDL
MODEL 7
REMARK VINA RESULT:       3.1      2.612      3.412
REMARK  0 active torsions:
REMARK  status: ('A' for Active; 'I' for Inactive)
ROOT
HETATM    1  C1  UNL     1     -33.363   4.968   0.346  1.00 20.00     0.086 C 
HETATM    2  C2  UNL     1     -33.721   6.037   2.555  1.00 20.00     0.056 C 
HETATM    3  C3  UNL     1     -32.329   7.152   0.888  1.00 20.00     0.115 C 
HETATM    4  C4  UNL     1     -33.094   7.087   3.476  1.00 20.00     0.046 C 
HETATM    5  C5  UNL     1     -32.745   5.776   1.405  1.00 20.00     0.135 C 
HETATM    6  C6  UNL     1     -34.127   7.816   4.320  1.00 20.00     0.021 C 
HETATM    7  N7  UNL     1     -33.851   4.330  -0.491  1.00 20.00    -0.195 NA
HETATM    8  S8  UNL     1     -32.233   8.232   2.349  1.00 20.00    -0.162 SA
HETATM    9 CL9  UNL     1     -31.313   4.854   1.977  1.00 20.00    -0.102 Cl
ENDROOT
TORSDOF 0
ENDMDL
MODEL 8
REMARK VINA RESULT:       3.1      2.942      3.986
REMARK  0 active torsions:
REMARK  status: ('A' for Active; 'I' for Inactive)
ROOT
HETATM    1  C1  UNL     1     -32.049   7.534   1.529  1.00 20.00     0.086 C 
HETATM    2  C2  UNL     1     -34.012   6.954   2.929  1.00 20.00     0.056 C 
HETATM    3  C3  UNL     1     -32.304   5.267   2.489  1.00 20.00     0.115 C 
HETATM    4  C4  UNL     1     -34.794   5.734   3.420  1.00 20.00     0.046 C 
HETATM    5  C5  UNL     1     -33.006   6.477   1.878  1.00 20.00     0.135 C 
HETATM    6  C6  UNL     1     -35.417   5.951   4.789  1.00 20.00     0.021 C 
HETATM    7  N7  UNL     1     -31.291   8.370   1.254  1.00 20.00    -0.195 NA
HETATM    8  S8  UNL     1     -33.568   4.385   3.457  1.00 20.00    -0.162 SA
HETATM    9 CL9  UNL     1     -33.840   6.024   0.352  1.00 20.00    -0.102 Cl
ENDROOT
TORSDOF 0
ENDMDL
MODEL 9
REMARK VINA RESULT:       3.1      2.438      3.108
REMARK  0 active torsions:
REMARK  status: ('A' for Active; 'I' for Inactive)
ROOT
HETATM    1  C1  UNL     1     -32.019   5.165   1.349  1.00 20.00     0.086 C 
HETATM    2  C2  UNL     1     -32.780   7.050   2.770  1.00 20.00     0.056 C 
HETATM    3  C3  UNL     1     -33.898   4.886   2.935  1.00 20.00     0.115 C 
HETATM    4  C4  UNL     1     -34.001   7.507   3.571  1.00 20.00     0.046 C 
HETATM    5  C5  UNL     1     -33.185   5.817   1.957  1.00 20.00     0.135 C 
HETATM    6  C6  UNL     1     -33.625   8.345   4.782  1.00 20.00     0.021 C 
HETATM    7  N7  UNL     1     -31.096   4.650   0.868  1.00 20.00    -0.195 NA
HETATM    8  S8  UNL     1     -34.832   5.963   4.067  1.00 20.00    -0.162 SA
HETATM    9 CL9  UNL     1     -34.276   6.272   0.604  1.00 20.00    -0.102 Cl
ENDROOT
TORSDOF 0
ENDMDL
