MODEL 1
REMARK VINA RESULT:       1.8      0.000      0.000
REMARK  0 active torsions:
REMARK  status: ('A' for Active; 'I' for Inactive)
ROOT
HETATM    1  C1  UNL     1     -32.356   8.824   1.032  1.00 20.00     0.086 C 
HETATM    2  C2  UNL     1     -34.136   7.832   2.443  1.00 20.00     0.056 C 
HETATM    3  C3  UNL     1     -32.033   8.558   3.467  1.00 20.00     0.115 C 
HETATM    4  C4  UNL     1     -34.389   7.299   3.857  1.00 20.00     0.046 C 
HETATM    5  C5  UNL     1     -32.629   7.964   2.193  1.00 20.00     0.135 C 
HETATM    6  C6  UNL     1     -34.604   5.794   3.932  1.00 20.00     0.021 C 
HETATM    7  N7  UNL     1     -32.141   9.503   0.115  1.00 20.00    -0.195 NA
HETATM    8  S8  UNL     1     -32.940   7.796   4.842  1.00 20.00    -0.162 SA
HETATM    9 CL9  UNL     1     -31.879   6.379   1.817  1.00 20.00    -0.102 Cl
ENDROOT
TORSDOF 0
ENDMDL
MODEL 2
REMARK VINA RESULT:       2.2      1.898      2.196
REMARK  0 active torsions:
REMARK  status: ('A' for Active; 'I' for Inactive)
ROOT
HETATM    1  C1  UNL     1     -32.438   9.415   0.912  1.00 20.00     0.086 C 
HETATM    2  C2  UNL     1     -32.705   6.959   0.709  1.00 20.00     0.056 C 
HETATM    3  C3  UNL     1     -33.289   8.078   2.807  1.00 20.00     0.115 C 
HETATM    4  C4  UNL     1     -32.988   5.709   1.548  1.00 20.00     0.046 C 
HETATM    5  C5  UNL     1     -32.329   8.133   1.622  1.00 20.00     0.135 C 
HETATM    6  C6  UNL     1     -31.804   4.762   1.683  1.00 20.00     0.021 C 
HETATM    7  N7  UNL     1     -32.524  10.428   0.351  1.00 20.00    -0.195 NA
HETATM    8  S8  UNL     1     -33.520   6.317   3.181  1.00 20.00    -0.162 SA
HETATM    9 CL9  UNL     1     -30.627   8.020   2.174  1.00 20.00    -0.102 Cl
ENDROOT
TORSDOF 0
ENDMDL
MODEL 3
REMARK VINA RESULT:       2.4      2.866      3.839
REMARK  0 active torsions:
REMARK  status: ('A' for Active; 'I' for Inactive)
ROOT
HETATM    1  C1  UNL     1     -34.503   5.702   3.989  1.00 20.00     0.086 C 
HETATM    2  C2  UNL     1     -33.014   6.663   2.256  1.00 20.00     0.056 C 
HETATM    3  C3  UNL     1     -33.001   7.589   4.523  1.00 20.00     0.115 C 
HETATM    4  C4  UNL     1     -32.088   7.856   1.996  1.00 20.00     0.046 C 
HETATM    5  C5  UNL     1     -33.902   6.941   3.475  1.00 20.00     0.135 C 
HETATM    6  C6  UNL     1     -32.605   8.836   0.951  1.00 20.00     0.021 C 
HETATM    7  N7  UNL     1     -34.977   4.723   4.394  1.00 20.00    -0.195 NA
HETATM    8  S8  UNL     1     -31.876   8.680   3.606  1.00 20.00    -0.162 SA
HETATM    9 CL9  UNL     1     -35.274   8.018   3.060  1.00 20.00    -0.102 Cl
ENDROOT
TORSDOF 0
ENDMDL
MODEL 4
REMARK VINA RESULT:       2.9      2.022      2.527
REMARK  0 active torsions:
REMARK  status: ('A' for Active; 'I' for Inactive)
ROOT
HETATM    1  C1  UNL     1     -32.723   7.903   2.185  1.00 20.00     0.086 C 
HETATM    2  C2  UNL     1     -33.179   5.550   2.819  1.00 20.00     0.056 C 
HETATM    3  C3  UNL     1     -34.888   7.265   3.189  1.00 20.00     0.115 C 
HETATM    4  C4  UNL     1     -34.188   4.688   3.584  1.00 20.00     0.046 C 
HETATM    5  C5  UNL     1     -33.380   7.030   3.169  1.00 20.00     0.135 C 
HETATM    6  C6  UNL     1     -33.650   4.089   4.877  1.00 20.00     0.021 C 
HETATM    7  N7  UNL     1     -32.203   8.591   1.408  1.00 20.00    -0.195 NA
HETATM    8  S8  UNL     1     -35.615   5.770   3.917  1.00 20.00    -0.162 SA
HETATM    9 CL9  UNL     1     -32.649   7.440   4.754  1.00 20.00    -0.102 Cl
ENDROOT
TORSDOF 0
ENDMDL
MODEL 5
REMARK VINA RESULT:       2.9      1.983      2.183
REMARK  0 active torsions:
REMARK  status: ('A' for Active; 'I' for Inactive)
ROOT
HETATM    1  C1  UNL     1     -31.946   7.508   1.564  1.00 20.00     0.086 C 
HETATM    2  C2  UNL     1     -33.730   7.280   3.270  1.00 20.00     0.056 C 
HETATM    3  C3  UNL     1     -32.487   5.302   2.535  1.00 20.00     0.115 C 
HETATM    4  C4  UNL     1     -34.548   6.221   4.017  1.00 20.00     0.046 C 
HETATM    5  C5  UNL     1     -33.029   6.648   2.061  1.00 20.00     0.135 C 
HETATM    6  C6  UNL     1     -36.021   6.181   3.634  1.00 20.00     0.021 C 
HETATM    7  N7  UNL     1     -31.091   8.188   1.171  1.00 20.00    -0.195 NA
HETATM    8  S8  UNL     1     -33.742   4.627   3.660  1.00 20.00    -0.162 SA
HETATM    9 CL9  UNL     1     -34.157   6.432   0.683  1.00 20.00    -0.102 Cl
ENDROOT
TORSDOF 0
ENDMDL
MODEL 6
REMARK VINA RESULT:       3.7      2.845      3.989
REMARK  0 active torsions:
REMARK  status: ('A' for Active; 'I' for Inactive)
ROOT
HETATM    1  C1  UNL     1     -33.508   7.098   3.107  1.00 20.00     0.086 C 
HETATM    2  C2  UNL     1     -33.487   8.976   1.489  1.00 20.00     0.056 C 
HETATM    3  C3  UNL     1     -31.744   7.259   1.386  1.00 20.00     0.115 C 
HETATM    4  C4  UNL     1     -32.606   9.627   0.418  1.00 20.00     0.046 C 
HETATM    5  C5  UNL     1     -32.651   8.020   2.349  1.00 20.00     0.135 C 
HETATM    6  C6  UNL     1     -32.072  11.002   0.796  1.00 20.00     0.021 C 
HETATM    7  N7  UNL     1     -34.186   6.370   3.706  1.00 20.00    -0.195 NA
HETATM    8  S8  UNL     1     -31.239   8.460   0.122  1.00 20.00    -0.162 SA
HETATM    9 CL9  UNL     1     -31.682   8.907   3.570  1.00 20.00    -0.102 Cl
ENDROOT
TORSDOF 0
ENDMDL
MODEL 7
REMARK VINA RESULT:       3.7      2.979      3.973
REMARK  0 active torsions:
REMARK  status: ('A' for Active; 'I' for Inactive)
ROOT
HETATM    1  C1  UNL     1     -34.958   6.219   3.932  1.00 20.00     0.086 C 
HETATM    2  C2  UNL     1     -33.945   7.348   1.971  1.00 20.00     0.056 C 
HETATM    3  C3  UNL     1     -32.867   5.368   2.928  1.00 20.00     0.115 C 
HETATM    4  C4  UNL     1     -32.668   7.367   1.125  1.00 20.00     0.046 C 
HETATM    5  C5  UNL     1     -33.693   6.600   3.287  1.00 20.00     0.135 C 
HETATM    6  C6  UNL     1     -31.835   8.634   1.273  1.00 20.00     0.021 C 
HETATM    7  N7  UNL     1     -35.957   5.919   4.441  1.00 20.00    -0.195 NA
HETATM    8  S8  UNL     1     -31.713   5.902   1.633  1.00 20.00    -0.162 SA
HETATM    9 CL9  UNL     1     -32.826   7.626   4.474  1.00 20.00    -0.102 Cl
ENDROOT
TORSDOF 0
ENDMDL
MODEL 8
REMARK VINA RESULT:       3.7      2.659      3.462
REMARK  0 active torsions:
REMARK  status: ('A' for Active; 'I' for Inactive)
ROOT
HETATM    1  C1  UNL     1     -31.824   4.922   0.873  1.00 20.00     0.086 C 
HETATM    2  C2  UNL     1     -31.608   7.317   1.477  1.00 20.00     0.056 C 
HETATM    3  C3  UNL     1     -33.214   5.900   2.665  1.00 20.00     0.115 C 
HETATM    4  C4  UNL     1     -32.287   8.411   2.308  1.00 20.00     0.046 C 
HETATM    5  C5  UNL     1     -32.555   6.122   1.307  1.00 20.00     0.135 C 
HETATM    6  C6  UNL     1     -32.949   9.506   1.484  1.00 20.00     0.021 C 
HETATM    7  N7  UNL     1     -31.246   3.976   0.530  1.00 20.00    -0.195 NA
HETATM    8  S8  UNL     1     -33.512   7.555   3.350  1.00 20.00    -0.162 SA
HETATM    9 CL9  UNL     1     -33.787   6.430   0.042  1.00 20.00    -0.102 Cl
ENDROOT
TORSDOF 0
ENDMDL
MODEL 9
REMARK VINA RESULT:       3.8      3.012      4.076
REMARK  0 active torsions:
REMARK  status: ('A' for Active; 'I' for Inactive)
ROOT
HETATM    1  C1  UNL     1     -33.794   4.247   3.909  1.00 20.00     0.086 C 
HETATM    2  C2  UNL     1     -32.608   6.409   3.655  1.00 20.00     0.056 C 
HETATM    3  C3  UNL     1     -35.056   6.359   3.682  1.00 20.00     0.115 C 
HETATM    4  C4  UNL     1     -32.857   7.883   3.317  1.00 20.00     0.046 C 
HETATM    5  C5  UNL     1     -33.825   5.564   3.256  1.00 20.00     0.135 C 
HETATM    6  C6  UNL     1     -32.282   8.326   1.979  1.00 20.00     0.021 C 
HETATM    7  N7  UNL     1     -33.769   3.208   4.424  1.00 20.00    -0.195 NA
HETATM    8  S8  UNL     1     -34.666   8.100   3.348  1.00 20.00    -0.162 SA
HETATM    9 CL9  UNL     1     -33.854   5.238   1.494  1.00 20.00    -0.102 Cl
ENDROOT
TORSDOF 0
ENDMDL
