MODEL 1
REMARK VINA RESULT:       1.2      0.000      0.000
REMARK  2 active torsions:
REMARK  status: ('A' for Active; 'I' for Inactive)
REMARK    1  A    between atoms: C2_2  and  C6_6 
REMARK    2  A    between atoms: C6_6  and  O9_9 
ROOT
HETATM    1  C3  UNL     1     -33.156   9.132   1.932  1.00 20.00     0.058 C 
HETATM    2  C4  UNL     1     -32.099   6.926   1.825  1.00 20.00     0.116 C 
HETATM    3  C5  UNL     1     -32.131   9.440   0.841  1.00 20.00     0.046 C 
HETATM    4  C6  UNL     1     -32.571   8.010   2.795  1.00 20.00     0.089 C 
HETATM    5  C8  UNL     1     -32.738  10.166  -0.346  1.00 20.00     0.021 C 
HETATM    6  S10 UNL     1     -31.473   7.811   0.362  1.00 20.00    -0.161 SA
ENDROOT
BRANCH   4   7
HETATM    7  C2  UNL     1     -33.579   7.496   3.774  1.00 20.00    -0.058 C 
HETATM    8  C1  UNL     1     -33.794   8.098   4.953  1.00 20.00     0.017 C 
HETATM    9  C7  UNL     1     -34.338   6.270   3.360  1.00 20.00     0.046 C 
ENDBRANCH   4   7
BRANCH   4  10
HETATM   10  O9  UNL     1     -31.455   8.520   3.527  1.00 20.00    -0.385 OA
HETATM   11  H24 UNL     1     -30.986   7.750   3.882  1.00 20.00     0.211 HD
ENDBRANCH   4  10
TORSDOF 2
ENDMDL
MODEL 2
REMARK VINA RESULT:       1.4      0.505      1.181
REMARK  2 active torsions:
REMARK  status: ('A' for Active; 'I' for Inactive)
REMARK    1  A    between atoms: C2_2  and  C6_6 
REMARK    2  A    between atoms: C6_6  and  O9_9 
ROOT
HETATM    1  C3  UNL     1     -33.240   9.026   1.697  1.00 20.00     0.058 C 
HETATM    2  C4  UNL     1     -31.818   7.054   1.409  1.00 20.00     0.116 C 
HETATM    3  C5  UNL     1     -32.204   9.646   0.760  1.00 20.00     0.046 C 
HETATM    4  C6  UNL     1     -32.539   7.899   2.461  1.00 20.00     0.089 C 
HETATM    5  C8  UNL     1     -32.836  10.429  -0.378  1.00 20.00     0.021 C 
HETATM    6  S10 UNL     1     -31.245   8.228   0.140  1.00 20.00    -0.161 SA
ENDROOT
BRANCH   4   7
HETATM    7  C2  UNL     1     -33.515   7.096   3.262  1.00 20.00    -0.058 C 
HETATM    8  C1  UNL     1     -33.779   5.812   2.980  1.00 20.00     0.017 C 
HETATM    9  C7  UNL     1     -34.179   7.810   4.403  1.00 20.00     0.046 C 
ENDBRANCH   4   7
BRANCH   4  10
HETATM   10  O9  UNL     1     -31.583   8.469   3.356  1.00 20.00    -0.385 OA
HETATM   11  H24 UNL     1     -32.090   8.861   4.084  1.00 20.00     0.211 HD
ENDBRANCH   4  10
TORSDOF 2
ENDMDL
MODEL 3
REMARK VINA RESULT:       1.6      1.902      3.983
REMARK  2 active torsions:
REMARK  status: ('A' for Active; 'I' for Inactive)
REMARK    1  A    between atoms: C2_2  and  C6_6 
REMARK    2  A    between atoms: C6_6  and  O9_9 
ROOT
HETATM    1  C3  UNL     1     -33.646   7.449   2.022  1.00 20.00     0.058 C 
HETATM    2  C4  UNL     1     -32.061   8.808   3.302  1.00 20.00     0.116 C 
HETATM    3  C5  UNL     1     -33.780   6.727   3.363  1.00 20.00     0.046 C 
HETATM    4  C6  UNL     1     -32.242   8.061   1.980  1.00 20.00     0.089 C 
HETATM    5  C8  UNL     1     -35.227   6.487   3.757  1.00 20.00     0.021 C 
HETATM    6  S10 UNL     1     -32.938   7.817   4.554  1.00 20.00    -0.161 SA
ENDROOT
BRANCH   4   7
HETATM    7  C2  UNL     1     -32.076   8.957   0.793  1.00 20.00    -0.058 C 
HETATM    8  C1  UNL     1     -31.293   8.625  -0.243  1.00 20.00     0.017 C 
HETATM    9  C7  UNL     1     -32.838  10.249   0.829  1.00 20.00     0.046 C 
ENDBRANCH   4   7
BRANCH   4  10
HETATM   10  O9  UNL     1     -31.280   7.009   1.886  1.00 20.00    -0.385 OA
HETATM   11  H24 UNL     1     -31.077   6.907   0.943  1.00 20.00     0.211 HD
ENDBRANCH   4  10
TORSDOF 2
ENDMDL
MODEL 4
REMARK VINA RESULT:       1.6      2.277      3.151
REMARK  2 active torsions:
REMARK  status: ('A' for Active; 'I' for Inactive)
REMARK    1  A    between atoms: C2_2  and  C6_6 
REMARK    2  A    between atoms: C6_6  and  O9_9 
ROOT
HETATM    1  C3  UNL     1     -33.230   6.158   2.421  1.00 20.00     0.058 C 
HETATM    2  C4  UNL     1     -33.661   7.364   4.508  1.00 20.00     0.116 C 
HETATM    3  C5  UNL     1     -32.802   7.549   1.955  1.00 20.00     0.046 C 
HETATM    4  C6  UNL     1     -34.267   6.355   3.531  1.00 20.00     0.089 C 
HETATM    5  C8  UNL     1     -31.472   7.538   1.222  1.00 20.00     0.021 C 
HETATM    6  S10 UNL     1     -32.712   8.534   3.484  1.00 20.00    -0.161 SA
ENDROOT
BRANCH   4   7
HETATM    7  C2  UNL     1     -34.606   5.057   4.194  1.00 20.00    -0.058 C 
HETATM    8  C1  UNL     1     -35.688   4.921   4.974  1.00 20.00     0.017 C 
HETATM    9  C7  UNL     1     -33.667   3.916   3.934  1.00 20.00     0.046 C 
ENDBRANCH   4   7
BRANCH   4  10
HETATM   10  O9  UNL     1     -35.461   6.894   2.961  1.00 20.00    -0.385 OA
HETATM   11  H24 UNL     1     -35.714   6.297   2.240  1.00 20.00     0.211 HD
ENDBRANCH   4  10
TORSDOF 2
ENDMDL
MODEL 5
REMARK VINA RESULT:       2.1      1.811      4.032
REMARK  2 active torsions:
REMARK  status: ('A' for Active; 'I' for Inactive)
REMARK    1  A    between atoms: C2_2  and  C6_6 
REMARK    2  A    between atoms: C6_6  and  O9_9 
ROOT
HETATM    1  C3  UNL     1     -32.634   6.704   1.831  1.00 20.00     0.058 C 
HETATM    2  C4  UNL     1     -33.671   8.700   2.800  1.00 20.00     0.116 C 
HETATM    3  C5  UNL     1     -33.128   6.076   3.133  1.00 20.00     0.046 C 
HETATM    4  C6  UNL     1     -32.405   8.193   2.108  1.00 20.00     0.089 C 
HETATM    5  C8  UNL     1     -33.840   4.753   2.914  1.00 20.00     0.021 C 
HETATM    6  S10 UNL     1     -34.247   7.324   3.846  1.00 20.00    -0.161 SA
ENDROOT
BRANCH   4   7
HETATM    7  C2  UNL     1     -32.109   8.941   0.846  1.00 20.00    -0.058 C 
HETATM    8  C1  UNL     1     -31.280   8.456  -0.089  1.00 20.00     0.017 C 
HETATM    9  C7  UNL     1     -32.796  10.265   0.686  1.00 20.00     0.046 C 
ENDBRANCH   4   7
BRANCH   4  10
HETATM   10  O9  UNL     1     -31.287   8.335   2.987  1.00 20.00    -0.385 OA
HETATM   11  H24 UNL     1     -30.508   8.453   2.421  1.00 20.00     0.211 HD
ENDBRANCH   4  10
TORSDOF 2
ENDMDL
MODEL 6
REMARK VINA RESULT:       2.1      1.338      1.747
REMARK  2 active torsions:
REMARK  status: ('A' for Active; 'I' for Inactive)
REMARK    1  A    between atoms: C2_2  and  C6_6 
REMARK    2  A    between atoms: C6_6  and  O9_9 
ROOT
HETATM    1  C3  UNL     1     -33.791   8.203   2.348  1.00 20.00     0.058 C 
HETATM    2  C4  UNL     1     -32.806   5.962   2.362  1.00 20.00     0.116 C 
HETATM    3  C5  UNL     1     -32.405   8.577   1.824  1.00 20.00     0.046 C 
HETATM    4  C6  UNL     1     -33.625   6.943   3.202  1.00 20.00     0.089 C 
HETATM    5  C8  UNL     1     -32.463   9.488   0.611  1.00 20.00     0.021 C 
HETATM    6  S10 UNL     1     -31.624   6.982   1.423  1.00 20.00    -0.161 SA
ENDROOT
BRANCH   4   7
HETATM    7  C2  UNL     1     -34.951   6.379   3.602  1.00 20.00    -0.058 C 
HETATM    8  C1  UNL     1     -36.106   6.958   3.244  1.00 20.00     0.017 C 
HETATM    9  C7  UNL     1     -34.916   5.125   4.425  1.00 20.00     0.046 C 
ENDBRANCH   4   7
BRANCH   4  10
HETATM   10  O9  UNL     1     -32.903   7.278   4.389  1.00 20.00    -0.385 OA
HETATM   11  H24 UNL     1     -33.546   7.259   5.115  1.00 20.00     0.211 HD
ENDBRANCH   4  10
TORSDOF 2
ENDMDL
MODEL 7
REMARK VINA RESULT:       2.3      2.277      4.340
REMARK  2 active torsions:
REMARK  status: ('A' for Active; 'I' for Inactive)
REMARK    1  A    between atoms: C2_2  and  C6_6 
REMARK    2  A    between atoms: C6_6  and  O9_9 
ROOT
HETATM    1  C3  UNL     1     -32.923   5.635   3.155  1.00 20.00     0.058 C 
HETATM    2  C4  UNL     1     -34.702   7.309   2.976  1.00 20.00     0.116 C 
HETATM    3  C5  UNL     1     -33.818   5.116   4.281  1.00 20.00     0.046 C 
HETATM    4  C6  UNL     1     -33.182   7.139   3.032  1.00 20.00     0.089 C 
HETATM    5  C8  UNL     1     -34.034   3.615   4.213  1.00 20.00     0.021 C 
HETATM    6  S10 UNL     1     -35.382   6.025   4.075  1.00 20.00    -0.161 SA
ENDROOT
BRANCH   4   7
HETATM    7  C2  UNL     1     -32.503   7.710   1.827  1.00 20.00    -0.058 C 
HETATM    8  C1  UNL     1     -32.562   9.017   1.532  1.00 20.00     0.017 C 
HETATM    9  C7  UNL     1     -31.751   6.737   0.968  1.00 20.00     0.046 C 
ENDBRANCH   4   7
BRANCH   4  10
HETATM   10  O9  UNL     1     -32.668   7.796   4.191  1.00 20.00    -0.385 OA
HETATM   11  H24 UNL     1     -33.436   8.121   4.685  1.00 20.00     0.211 HD
ENDBRANCH   4  10
TORSDOF 2
ENDMDL
MODEL 8
REMARK VINA RESULT:       2.6      2.230      4.017
REMARK  2 active torsions:
REMARK  status: ('A' for Active; 'I' for Inactive)
REMARK    1  A    between atoms: C2_2  and  C6_6 
REMARK    2  A    between atoms: C6_6  and  O9_9 
ROOT
HETATM    1  C3  UNL     1     -33.894   7.206   3.035  1.00 20.00     0.058 C 
HETATM    2  C4  UNL     1     -32.162   5.691   2.199  1.00 20.00     0.116 C 
HETATM    3  C5  UNL     1     -34.641   5.890   3.250  1.00 20.00     0.046 C 
HETATM    4  C6  UNL     1     -32.914   6.984   1.880  1.00 20.00     0.089 C 
HETATM    5  C8  UNL     1     -35.282   5.796   4.624  1.00 20.00     0.021 C 
HETATM    6  S10 UNL     1     -33.373   4.604   3.017  1.00 20.00    -0.161 SA
ENDROOT
BRANCH   4   7
HETATM    7  C2  UNL     1     -31.993   8.151   1.717  1.00 20.00    -0.058 C 
HETATM    8  C1  UNL     1     -31.082   8.472   2.647  1.00 20.00     0.017 C 
HETATM    9  C7  UNL     1     -32.145   8.942   0.451  1.00 20.00     0.046 C 
ENDBRANCH   4   7
BRANCH   4  10
HETATM   10  O9  UNL     1     -33.653   6.823   0.668  1.00 20.00    -0.385 OA
HETATM   11  H24 UNL     1     -34.570   7.066   0.872  1.00 20.00     0.211 HD
ENDBRANCH   4  10
TORSDOF 2
ENDMDL
MODEL 9
REMARK VINA RESULT:       2.8      2.080      3.172
REMARK  2 active torsions:
REMARK  status: ('A' for Active; 'I' for Inactive)
REMARK    1  A    between atoms: C2_2  and  C6_6 
REMARK    2  A    between atoms: C6_6  and  O9_9 
ROOT
HETATM    1  C3  UNL     1     -33.065   5.465   2.469  1.00 20.00     0.058 C 
HETATM    2  C4  UNL     1     -32.729   7.890   2.545  1.00 20.00     0.116 C 
HETATM    3  C5  UNL     1     -32.295   5.614   1.158  1.00 20.00     0.046 C 
HETATM    4  C6  UNL     1     -33.782   6.795   2.723  1.00 20.00     0.089 C 
HETATM    5  C8  UNL     1     -31.182   4.591   1.012  1.00 20.00     0.021 C 
HETATM    6  S10 UNL     1     -31.638   7.311   1.206  1.00 20.00    -0.161 SA
ENDROOT
BRANCH   4   7
HETATM    7  C2  UNL     1     -34.407   6.824   4.083  1.00 20.00    -0.058 C 
HETATM    8  C1  UNL     1     -35.362   5.956   4.443  1.00 20.00     0.017 C 
HETATM    9  C7  UNL     1     -33.900   7.881   5.020  1.00 20.00     0.046 C 
ENDBRANCH   4   7
BRANCH   4  10
HETATM   10  O9  UNL     1     -34.815   6.959   1.751  1.00 20.00    -0.385 OA
HETATM   11  H24 UNL     1     -35.177   6.075   1.583  1.00 20.00     0.211 HD
ENDBRANCH   4  10
TORSDOF 2
ENDMDL
