MODEL 1
REMARK VINA RESULT:       3.4      0.000      0.000
REMARK  0 active torsions:
REMARK  status: ('A' for Active; 'I' for Inactive)
ROOT
HETATM    1  C1  UNL     1     -32.225   9.112   0.377  1.00 20.00     0.064 C 
HETATM    2  C2  UNL     1     -35.206   4.596   4.459  1.00 20.00     0.000 C 
HETATM    3  C3  UNL     1     -35.401   6.106   4.534  1.00 20.00     0.003 C 
HETATM    4  C4  UNL     1     -33.777   4.233   4.074  1.00 20.00     0.003 C 
HETATM    5  C5  UNL     1     -34.969   6.791   3.238  1.00 20.00     0.038 C 
HETATM    6  C6  UNL     1     -33.342   4.935   2.785  1.00 20.00     0.038 C 
HETATM    7  C7  UNL     1     -32.596   9.153   2.816  1.00 20.00     0.045 C 
HETATM    8  C8  UNL     1     -33.118   7.091   1.493  1.00 20.00     0.057 C 
HETATM    9  C9  UNL     1     -32.551   8.328   4.099  1.00 20.00     0.170 C 
HETATM   10  C10 UNL     1     -32.195   8.313   1.612  1.00 20.00     0.097 C 
HETATM   11  C11 UNL     1     -33.502   6.472   2.861  1.00 20.00     0.062 C 
HETATM   12  N12 UNL     1     -32.249   9.743  -0.596  1.00 20.00    -0.197 NA
HETATM   13  O13 UNL     1     -32.592   6.920   3.875  1.00 20.00    -0.380 OA
ENDROOT
TORSDOF 0
ENDMDL
MODEL 2
REMARK VINA RESULT:       4.1      2.779      4.872
REMARK  0 active torsions:
REMARK  status: ('A' for Active; 'I' for Inactive)
ROOT
HETATM    1  C1  UNL     1     -33.558   3.347   4.430  1.00 20.00     0.064 C 
HETATM    2  C2  UNL     1     -32.024   9.039   1.085  1.00 20.00     0.000 C 
HETATM    3  C3  UNL     1     -32.449   8.972   2.547  1.00 20.00     0.003 C 
HETATM    4  C4  UNL     1     -32.752   8.002   0.239  1.00 20.00     0.003 C 
HETATM    5  C5  UNL     1     -32.288   7.560   3.112  1.00 20.00     0.038 C 
HETATM    6  C6  UNL     1     -32.603   6.593   0.819  1.00 20.00     0.038 C 
HETATM    7  C7  UNL     1     -34.661   5.554   4.428  1.00 20.00     0.045 C 
HETATM    8  C8  UNL     1     -32.804   5.068   2.819  1.00 20.00     0.057 C 
HETATM    9  C9  UNL     1     -35.124   6.717   3.555  1.00 20.00     0.170 C 
HETATM   10  C10 UNL     1     -33.992   4.475   3.590  1.00 20.00     0.097 C 
HETATM   11  C11 UNL     1     -33.065   6.503   2.291  1.00 20.00     0.062 C 
HETATM   12  N12 UNL     1     -33.216   2.458   5.093  1.00 20.00    -0.197 NA
HETATM   13  O13 UNL     1     -34.473   6.774   2.288  1.00 20.00    -0.380 OA
ENDROOT
TORSDOF 0
ENDMDL
MODEL 3
REMARK VINA RESULT:       6.2      2.530      5.030
REMARK  0 active torsions:
REMARK  status: ('A' for Active; 'I' for Inactive)
ROOT
HETATM    1  C1  UNL     1     -34.492   5.124   4.013  1.00 20.00     0.064 C 
HETATM    2  C2  UNL     1     -32.029   9.959  -0.050  1.00 20.00     0.000 C 
HETATM    3  C3  UNL     1     -32.726   8.689  -0.524  1.00 20.00     0.003 C 
HETATM    4  C4  UNL     1     -31.184   9.706   1.193  1.00 20.00     0.003 C 
HETATM    5  C5  UNL     1     -33.542   8.045   0.597  1.00 20.00     0.038 C 
HETATM    6  C6  UNL     1     -32.001   9.045   2.306  1.00 20.00     0.038 C 
HETATM    7  C7  UNL     1     -33.209   4.955   1.911  1.00 20.00     0.045 C 
HETATM    8  C8  UNL     1     -33.549   7.181   3.009  1.00 20.00     0.057 C 
HETATM    9  C9  UNL     1     -32.031   5.517   1.121  1.00 20.00     0.170 C 
HETATM   10  C10 UNL     1     -33.365   5.675   3.243  1.00 20.00     0.097 C 
HETATM   11  C11 UNL     1     -32.684   7.736   1.848  1.00 20.00     0.062 C 
HETATM   12  N12 UNL     1     -35.381   4.689   4.618  1.00 20.00    -0.197 NA
HETATM   13  O13 UNL     1     -31.627   6.817   1.543  1.00 20.00    -0.380 OA
ENDROOT
TORSDOF 0
ENDMDL
