MODEL 1
REMARK VINA RESULT:       1.9      0.000      0.000
REMARK  1 active torsions:
REMARK  status: ('A' for Active; 'I' for Inactive)
REMARK    1  A    between atoms: C4_4  and  S9_9 
ROOT
HETATM    1  C1  UNL     1     -33.421   5.219   2.934  1.00 20.00     0.020 C 
HETATM    2  C2  UNL     1     -34.601   5.871   3.644  1.00 20.00     0.075 C 
HETATM    3  C3  UNL     1     -33.498   8.268   2.855  1.00 20.00     0.089 C 
HETATM    4  C4  UNL     1     -32.394   7.432   2.192  1.00 20.00     0.061 C 
HETATM    5  C5  UNL     1     -32.848   6.011   1.724  1.00 20.00    -0.034 C 
HETATM    6  C6  UNL     1     -33.905   6.057   0.597  1.00 20.00     0.016 C 
HETATM    7  C7  UNL     1     -31.637   5.204   1.197  1.00 20.00     0.016 C 
HETATM    8  S8  UNL     1     -34.153   7.474   4.351  1.00 20.00    -0.168 SA
ENDROOT
BRANCH   4   9
HETATM    9  S9  UNL     1     -31.674   8.460   0.843  1.00 20.00    -0.176 SA
HETATM   10  H23 UNL     1     -31.406   7.423   0.044  1.00 20.00     0.102 HD
ENDBRANCH   4   9
TORSDOF 1
ENDMDL
MODEL 2
REMARK VINA RESULT:       2.3      1.611      3.856
REMARK  1 active torsions:
REMARK  status: ('A' for Active; 'I' for Inactive)
REMARK    1  A    between atoms: C4_4  and  S9_9 
ROOT
HETATM    1  C1  UNL     1     -32.158   8.128   3.038  1.00 20.00     0.020 C 
HETATM    2  C2  UNL     1     -32.021   7.806   1.555  1.00 20.00     0.075 C 
HETATM    3  C3  UNL     1     -33.639   5.640   2.077  1.00 20.00     0.089 C 
HETATM    4  C4  UNL     1     -33.663   6.129   3.531  1.00 20.00     0.061 C 
HETATM    5  C5  UNL     1     -33.490   7.674   3.700  1.00 20.00    -0.034 C 
HETATM    6  C6  UNL     1     -34.662   8.480   3.095  1.00 20.00     0.016 C 
HETATM    7  C7  UNL     1     -33.392   8.045   5.199  1.00 20.00     0.016 C 
HETATM    8  S8  UNL     1     -32.069   6.024   1.250  1.00 20.00    -0.168 SA
ENDROOT
BRANCH   4   9
HETATM    9  S9  UNL     1     -35.202   5.468   4.299  1.00 20.00    -0.176 SA
HETATM   10  H23 UNL     1     -35.793   6.662   4.408  1.00 20.00     0.102 HD
ENDBRANCH   4   9
TORSDOF 1
ENDMDL
MODEL 3
REMARK VINA RESULT:       2.4      1.501      2.750
REMARK  1 active torsions:
REMARK  status: ('A' for Active; 'I' for Inactive)
REMARK    1  A    between atoms: C4_4  and  S9_9 
ROOT
HETATM    1  C1  UNL     1     -33.826   8.502   2.990  1.00 20.00     0.020 C 
HETATM    2  C2  UNL     1     -34.233   7.807   4.283  1.00 20.00     0.075 C 
HETATM    3  C3  UNL     1     -33.495   5.469   3.027  1.00 20.00     0.089 C 
HETATM    4  C4  UNL     1     -33.132   6.345   1.820  1.00 20.00     0.061 C 
HETATM    5  C5  UNL     1     -32.696   7.802   2.182  1.00 20.00    -0.034 C 
HETATM    6  C6  UNL     1     -31.381   7.852   2.992  1.00 20.00     0.016 C 
HETATM    7  C7  UNL     1     -32.485   8.637   0.896  1.00 20.00     0.016 C 
HETATM    8  S8  UNL     1     -34.888   6.149   3.973  1.00 20.00    -0.168 SA
ENDROOT
BRANCH   4   9
HETATM    9  S9  UNL     1     -31.879   5.419   0.838  1.00 20.00    -0.176 SA
HETATM   10  H23 UNL     1     -32.227   5.966  -0.331  1.00 20.00     0.102 HD
ENDBRANCH   4   9
TORSDOF 1
ENDMDL
MODEL 4
REMARK VINA RESULT:       3.0      1.743      3.114
REMARK  1 active torsions:
REMARK  status: ('A' for Active; 'I' for Inactive)
REMARK    1  A    between atoms: C4_4  and  S9_9 
ROOT
HETATM    1  C1  UNL     1     -35.235   6.321   4.116  1.00 20.00     0.020 C 
HETATM    2  C2  UNL     1     -34.719   4.952   4.543  1.00 20.00     0.075 C 
HETATM    3  C3  UNL     1     -32.660   5.392   2.767  1.00 20.00     0.089 C 
HETATM    4  C4  UNL     1     -33.329   6.741   2.474  1.00 20.00     0.061 C 
HETATM    5  C5  UNL     1     -34.145   7.335   3.668  1.00 20.00    -0.034 C 
HETATM    6  C6  UNL     1     -33.257   7.700   4.880  1.00 20.00     0.016 C 
HETATM    7  C7  UNL     1     -34.887   8.621   3.229  1.00 20.00     0.016 C 
HETATM    8  S8  UNL     1     -33.870   4.105   3.190  1.00 20.00    -0.168 SA
ENDROOT
BRANCH   4   9
HETATM    9  S9  UNL     1     -32.018   7.868   1.840  1.00 20.00    -0.176 SA
HETATM   10  H23 UNL     1     -32.527   8.964   2.411  1.00 20.00     0.102 HD
ENDBRANCH   4   9
TORSDOF 1
ENDMDL
MODEL 5
REMARK VINA RESULT:       3.0      1.052      3.268
REMARK  1 active torsions:
REMARK  status: ('A' for Active; 'I' for Inactive)
REMARK    1  A    between atoms: C4_4  and  S9_9 
ROOT
HETATM    1  C1  UNL     1     -33.981   5.898   1.802  1.00 20.00     0.020 C 
HETATM    2  C2  UNL     1     -32.581   5.957   1.203  1.00 20.00     0.075 C 
HETATM    3  C3  UNL     1     -32.073   7.908   3.078  1.00 20.00     0.089 C 
HETATM    4  C4  UNL     1     -33.519   7.700   3.547  1.00 20.00     0.061 C 
HETATM    5  C5  UNL     1     -34.077   6.258   3.312  1.00 20.00    -0.034 C 
HETATM    6  C6  UNL     1     -33.337   5.184   4.141  1.00 20.00     0.016 C 
HETATM    7  C7  UNL     1     -35.576   6.191   3.691  1.00 20.00     0.016 C 
HETATM    8  S8  UNL     1     -31.882   7.623   1.295  1.00 20.00    -0.168 SA
ENDROOT
BRANCH   4   9
HETATM    9  S9  UNL     1     -33.602   8.248   5.304  1.00 20.00    -0.176 SA
HETATM   10  H23 UNL     1     -34.060   9.471   5.017  1.00 20.00     0.102 HD
ENDBRANCH   4   9
TORSDOF 1
ENDMDL
MODEL 6
REMARK VINA RESULT:       3.6      1.818      2.754
REMARK  1 active torsions:
REMARK  status: ('A' for Active; 'I' for Inactive)
REMARK    1  A    between atoms: C4_4  and  S9_9 
ROOT
HETATM    1  C1  UNL     1     -33.720   7.022   4.713  1.00 20.00     0.020 C 
HETATM    2  C2  UNL     1     -33.384   8.482   4.438  1.00 20.00     0.075 C 
HETATM    3  C3  UNL     1     -32.589   7.625   1.944  1.00 20.00     0.089 C 
HETATM    4  C4  UNL     1     -32.994   6.218   2.405  1.00 20.00     0.061 C 
HETATM    5  C5  UNL     1     -34.138   6.187   3.469  1.00 20.00    -0.034 C 
HETATM    6  C6  UNL     1     -35.482   6.720   2.923  1.00 20.00     0.016 C 
HETATM    7  C7  UNL     1     -34.376   4.740   3.964  1.00 20.00     0.016 C 
HETATM    8  S8  UNL     1     -31.974   8.644   3.316  1.00 20.00    -0.168 SA
ENDROOT
BRANCH   4   9
HETATM    9  S9  UNL     1     -33.366   5.239   0.889  1.00 20.00    -0.176 SA
HETATM   10  H23 UNL     1     -34.157   4.362   1.514  1.00 20.00     0.102 HD
ENDBRANCH   4   9
TORSDOF 1
ENDMDL
MODEL 7
REMARK VINA RESULT:       3.6      1.561      2.985
REMARK  1 active torsions:
REMARK  status: ('A' for Active; 'I' for Inactive)
REMARK    1  A    between atoms: C4_4  and  S9_9 
ROOT
HETATM    1  C1  UNL     1     -32.479   7.222   0.844  1.00 20.00     0.020 C 
HETATM    2  C2  UNL     1     -31.727   8.221   1.715  1.00 20.00     0.075 C 
HETATM    3  C3  UNL     1     -33.068   7.085   3.835  1.00 20.00     0.089 C 
HETATM    4  C4  UNL     1     -33.721   6.157   2.801  1.00 20.00     0.061 C 
HETATM    5  C5  UNL     1     -32.846   5.878   1.536  1.00 20.00    -0.034 C 
HETATM    6  C6  UNL     1     -31.551   5.099   1.860  1.00 20.00     0.016 C 
HETATM    7  C7  UNL     1     -33.644   5.048   0.501  1.00 20.00     0.016 C 
HETATM    8  S8  UNL     1     -32.705   8.727   3.150  1.00 20.00    -0.168 SA
ENDROOT
BRANCH   4   9
HETATM    9  S9  UNL     1     -34.239   4.632   3.695  1.00 20.00    -0.176 SA
HETATM   10  H23 UNL     1     -34.016   5.136   4.913  1.00 20.00     0.102 HD
ENDBRANCH   4   9
TORSDOF 1
ENDMDL
MODEL 8
REMARK VINA RESULT:       4.4      1.788      2.987
REMARK  1 active torsions:
REMARK  status: ('A' for Active; 'I' for Inactive)
REMARK    1  A    between atoms: C4_4  and  S9_9 
ROOT
HETATM    1  C1  UNL     1     -31.724   6.556   1.536  1.00 20.00     0.020 C 
HETATM    2  C2  UNL     1     -32.785   5.572   1.058  1.00 20.00     0.075 C 
HETATM    3  C3  UNL     1     -34.180   6.280   3.324  1.00 20.00     0.089 C 
HETATM    4  C4  UNL     1     -33.011   7.225   3.634  1.00 20.00     0.061 C 
HETATM    5  C5  UNL     1     -32.254   7.755   2.373  1.00 20.00    -0.034 C 
HETATM    6  C6  UNL     1     -33.135   8.655   1.477  1.00 20.00     0.016 C 
HETATM    7  C7  UNL     1     -31.017   8.584   2.796  1.00 20.00     0.016 C 
HETATM    8  S8  UNL     1     -33.641   4.786   2.444  1.00 20.00    -0.168 SA
ENDROOT
BRANCH   4   9
HETATM    9  S9  UNL     1     -33.667   8.560   4.720  1.00 20.00    -0.176 SA
HETATM   10  H23 UNL     1     -32.719   9.444   4.395  1.00 20.00     0.102 HD
ENDBRANCH   4   9
TORSDOF 1
ENDMDL
MODEL 9
REMARK VINA RESULT:       4.4      1.761      2.982
REMARK  1 active torsions:
REMARK  status: ('A' for Active; 'I' for Inactive)
REMARK    1  A    between atoms: C4_4  and  S9_9 
ROOT
HETATM    1  C1  UNL     1     -34.427   5.772   3.738  1.00 20.00     0.020 C 
HETATM    2  C2  UNL     1     -33.396   4.652   3.799  1.00 20.00     0.075 C 
HETATM    3  C3  UNL     1     -32.005   6.095   1.910  1.00 20.00     0.089 C 
HETATM    4  C4  UNL     1     -33.144   7.121   1.993  1.00 20.00     0.061 C 
HETATM    5  C5  UNL     1     -33.866   7.178   3.379  1.00 20.00    -0.034 C 
HETATM    6  C6  UNL     1     -32.942   7.665   4.519  1.00 20.00     0.016 C 
HETATM    7  C7  UNL     1     -35.078   8.139   3.318  1.00 20.00     0.016 C 
HETATM    8  S8  UNL     1     -32.586   4.400   2.201  1.00 20.00    -0.168 SA
ENDROOT
BRANCH   4   9
HETATM    9  S9  UNL     1     -32.455   8.740   1.450  1.00 20.00    -0.176 SA
HETATM   10  H23 UNL     1     -32.645   8.510   0.146  1.00 20.00     0.102 HD
ENDBRANCH   4   9
TORSDOF 1
ENDMDL
