MODEL 1
REMARK VINA RESULT:       3.1      0.000      0.000
REMARK  1 active torsions:
REMARK  status: ('A' for Active; 'I' for Inactive)
REMARK    1  A    between atoms: C7_7  and  C11_11 
ROOT
HETATM    1  C1  UNL     1     -35.538   4.969   4.827  1.00 20.00     0.030 C 
HETATM    2  C2  UNL     1     -34.310   4.206   4.362  1.00 20.00     0.036 C 
HETATM    3  C3  UNL     1     -32.410   4.924   2.812  1.00 20.00     0.305 C 
HETATM    4  C4  UNL     1     -35.171   6.406   4.525  1.00 20.00     0.235 C 
HETATM    5  C5  UNL     1     -33.465   7.400   2.938  1.00 20.00     0.271 C 
HETATM    6  C6  UNL     1     -33.917   4.897   3.059  1.00 20.00     0.216 C 
HETATM    7  C7  UNL     1     -32.723   7.071   1.638  1.00 20.00     0.251 C 
HETATM    8  C10 UNL     1     -32.080   5.074   0.413  1.00 20.00     0.310 C 
HETATM    9  N12 UNL     1     -32.004   5.781   1.692  1.00 20.00     0.092 N 
HETATM   10  N13 UNL     1     -34.467   6.310   3.192  1.00 20.00    -0.063 N 
HETATM   11  H36 UNL     1     -35.204   6.416   2.425  1.00 20.00     0.280 HD
ENDROOT
BRANCH   7  12
HETATM   12  C11 UNL     1     -31.712   8.178   1.328  1.00 20.00     0.012 C 
HETATM   13  C8  UNL     1     -32.374   9.284   0.515  1.00 20.00     0.012 C 
HETATM   14  C9  UNL     1     -31.122   8.731   2.621  1.00 20.00     0.012 C 
ENDBRANCH   7  12
TORSDOF 1
ENDMDL
MODEL 2
REMARK VINA RESULT:       3.9      1.339      4.452
REMARK  1 active torsions:
REMARK  status: ('A' for Active; 'I' for Inactive)
REMARK    1  A    between atoms: C7_7  and  C11_11 
ROOT
HETATM    1  C1  UNL     1     -32.241  10.371   0.194  1.00 20.00     0.030 C 
HETATM    2  C2  UNL     1     -32.494   9.035  -0.480  1.00 20.00     0.036 C 
HETATM    3  C3  UNL     1     -33.131   6.773   0.524  1.00 20.00     0.305 C 
HETATM    4  C4  UNL     1     -32.877  10.183   1.555  1.00 20.00     0.235 C 
HETATM    5  C5  UNL     1     -33.469   8.089   2.851  1.00 20.00     0.271 C 
HETATM    6  C6  UNL     1     -32.241   8.009   0.622  1.00 20.00     0.216 C 
HETATM    7  C7  UNL     1     -33.051   6.620   2.985  1.00 20.00     0.251 C 
HETATM    8  C10 UNL     1     -31.950   4.951   1.605  1.00 20.00     0.310 C 
HETATM    9  N12 UNL     1     -33.064   5.894   1.698  1.00 20.00     0.092 N 
HETATM   10  N13 UNL     1     -32.506   8.765   1.917  1.00 20.00    -0.063 N 
HETATM   11  H36 UNL     1     -31.575   8.794   2.441  1.00 20.00     0.280 HD
ENDROOT
BRANCH   7  12
HETATM   12  C11 UNL     1     -33.993   5.904   3.956  1.00 20.00     0.012 C 
HETATM   13  C8  UNL     1     -35.411   6.439   3.809  1.00 20.00     0.012 C 
HETATM   14  C9  UNL     1     -33.951   4.398   3.719  1.00 20.00     0.012 C 
ENDBRANCH   7  12
TORSDOF 1
ENDMDL
MODEL 3
REMARK VINA RESULT:       3.9      1.239      4.428
REMARK  1 active torsions:
REMARK  status: ('A' for Active; 'I' for Inactive)
REMARK    1  A    between atoms: C7_7  and  C11_11 
ROOT
HETATM    1  C1  UNL     1     -32.062  10.124   0.768  1.00 20.00     0.030 C 
HETATM    2  C2  UNL     1     -31.946   8.846  -0.044  1.00 20.00     0.036 C 
HETATM    3  C3  UNL     1     -32.587   6.446   0.554  1.00 20.00     0.305 C 
HETATM    4  C4  UNL     1     -33.049   9.741   1.850  1.00 20.00     0.235 C 
HETATM    5  C5  UNL     1     -33.754   7.481   2.752  1.00 20.00     0.271 C 
HETATM    6  C6  UNL     1     -31.916   7.740   1.008  1.00 20.00     0.216 C 
HETATM    7  C7  UNL     1     -33.227   6.049   2.903  1.00 20.00     0.251 C 
HETATM    8  C10 UNL     1     -31.579   4.635   1.815  1.00 20.00     0.310 C 
HETATM    9  N12 UNL     1     -32.772   5.461   1.627  1.00 20.00     0.092 N 
HETATM   10  N13 UNL     1     -32.641   8.332   2.208  1.00 20.00    -0.063 N 
HETATM   11  H36 UNL     1     -31.919   8.391   2.994  1.00 20.00     0.280 HD
ENDROOT
BRANCH   7  12
HETATM   12  C11 UNL     1     -34.326   5.157   3.486  1.00 20.00     0.012 C 
HETATM   13  C8  UNL     1     -33.715   4.068   4.358  1.00 20.00     0.012 C 
HETATM   14  C9  UNL     1     -35.322   5.996   4.279  1.00 20.00     0.012 C 
ENDBRANCH   7  12
TORSDOF 1
ENDMDL
MODEL 4
REMARK VINA RESULT:       4.7      1.081      4.782
REMARK  1 active torsions:
REMARK  status: ('A' for Active; 'I' for Inactive)
REMARK    1  A    between atoms: C7_7  and  C11_11 
ROOT
HETATM    1  C1  UNL     1     -31.613   8.560   0.826  1.00 20.00     0.030 C 
HETATM    2  C2  UNL     1     -32.362   8.924   2.096  1.00 20.00     0.036 C 
HETATM    3  C3  UNL     1     -33.609   7.438   3.760  1.00 20.00     0.305 C 
HETATM    4  C4  UNL     1     -31.388   7.072   0.986  1.00 20.00     0.235 C 
HETATM    5  C5  UNL     1     -32.563   5.346   2.421  1.00 20.00     0.271 C 
HETATM    6  C6  UNL     1     -33.340   7.768   2.293  1.00 20.00     0.216 C 
HETATM    7  C7  UNL     1     -33.918   5.084   3.089  1.00 20.00     0.251 C 
HETATM    8  C10 UNL     1     -35.801   6.404   3.871  1.00 20.00     0.310 C 
HETATM    9  N12 UNL     1     -34.356   6.191   3.963  1.00 20.00     0.092 N 
HETATM   10  N13 UNL     1     -32.688   6.589   1.585  1.00 20.00    -0.063 N 
HETATM   11  H36 UNL     1     -33.341   6.326   0.781  1.00 20.00     0.280 HD
ENDROOT
BRANCH   7  12
HETATM   12  C11 UNL     1     -33.839   3.805   3.926  1.00 20.00     0.012 C 
HETATM   13  C8  UNL     1     -32.385   3.440   4.198  1.00 20.00     0.012 C 
HETATM   14  C9  UNL     1     -34.610   3.979   5.230  1.00 20.00     0.012 C 
ENDBRANCH   7  12
TORSDOF 1
ENDMDL
MODEL 5
REMARK VINA RESULT:       5.0      0.558      1.051
REMARK  1 active torsions:
REMARK  status: ('A' for Active; 'I' for Inactive)
REMARK    1  A    between atoms: C7_7  and  C11_11 
ROOT
HETATM    1  C1  UNL     1     -35.564   4.909   5.071  1.00 20.00     0.030 C 
HETATM    2  C2  UNL     1     -34.383   4.219   4.411  1.00 20.00     0.036 C 
HETATM    3  C3  UNL     1     -32.634   5.133   2.787  1.00 20.00     0.305 C 
HETATM    4  C4  UNL     1     -35.228   6.376   4.905  1.00 20.00     0.235 C 
HETATM    5  C5  UNL     1     -33.676   7.566   3.295  1.00 20.00     0.271 C 
HETATM    6  C6  UNL     1     -34.112   5.061   3.166  1.00 20.00     0.216 C 
HETATM    7  C7  UNL     1     -33.055   7.397   1.903  1.00 20.00     0.251 C 
HETATM    8  C10 UNL     1     -32.526   5.562   0.402  1.00 20.00     0.310 C 
HETATM    9  N12 UNL     1     -32.334   6.118   1.742  1.00 20.00     0.092 N 
HETATM   10  N13 UNL     1     -34.649   6.442   3.511  1.00 20.00    -0.063 N 
HETATM   11  H36 UNL     1     -35.453   6.628   2.832  1.00 20.00     0.280 HD
ENDROOT
BRANCH   7  12
HETATM   12  C11 UNL     1     -32.079   8.544   1.633  1.00 20.00     0.012 C 
HETATM   13  C8  UNL     1     -30.691   7.996   1.323  1.00 20.00     0.012 C 
HETATM   14  C9  UNL     1     -32.589   9.413   0.488  1.00 20.00     0.012 C 
ENDBRANCH   7  12
TORSDOF 1
ENDMDL
MODEL 6
REMARK VINA RESULT:       5.6      1.289      2.484
REMARK  1 active torsions:
REMARK  status: ('A' for Active; 'I' for Inactive)
REMARK    1  A    between atoms: C7_7  and  C11_11 
ROOT
HETATM    1  C1  UNL     1     -34.207   3.971   3.935  1.00 20.00     0.030 C 
HETATM    2  C2  UNL     1     -34.518   5.360   4.463  1.00 20.00     0.036 C 
HETATM    3  C3  UNL     1     -33.844   7.656   3.567  1.00 20.00     0.305 C 
HETATM    4  C4  UNL     1     -33.775   4.245   2.510  1.00 20.00     0.235 C 
HETATM    5  C5  UNL     1     -32.920   6.354   1.397  1.00 20.00     0.271 C 
HETATM    6  C6  UNL     1     -33.401   6.232   3.894  1.00 20.00     0.216 C 
HETATM    7  C7  UNL     1     -32.194   7.661   1.734  1.00 20.00     0.251 C 
HETATM    8  C10 UNL     1     -31.873   9.065   3.690  1.00 20.00     0.310 C 
HETATM    9  N12 UNL     1     -32.853   8.430   2.810  1.00 20.00     0.092 N 
HETATM   10  N13 UNL     1     -32.950   5.504   2.636  1.00 20.00    -0.063 N 
HETATM   11  H36 UNL     1     -31.936   5.215   2.806  1.00 20.00     0.280 HD
ENDROOT
BRANCH   7  12
HETATM   12  C11 UNL     1     -32.115   8.542   0.485  1.00 20.00     0.012 C 
HETATM   13  C8  UNL     1     -32.766   9.894   0.749  1.00 20.00     0.012 C 
HETATM   14  C9  UNL     1     -30.664   8.712   0.049  1.00 20.00     0.012 C 
ENDBRANCH   7  12
TORSDOF 1
ENDMDL
MODEL 7
REMARK VINA RESULT:       6.0      1.515      4.960
REMARK  1 active torsions:
REMARK  status: ('A' for Active; 'I' for Inactive)
REMARK    1  A    between atoms: C7_7  and  C11_11 
ROOT
HETATM    1  C1  UNL     1     -32.453  10.673  -0.284  1.00 20.00     0.030 C 
HETATM    2  C2  UNL     1     -32.339  10.717   1.229  1.00 20.00     0.036 C 
HETATM    3  C3  UNL     1     -32.417   8.826   2.946  1.00 20.00     0.305 C 
HETATM    4  C4  UNL     1     -32.184   9.216  -0.596  1.00 20.00     0.235 C 
HETATM    5  C5  UNL     1     -32.336   7.139   0.846  1.00 20.00     0.271 C 
HETATM    6  C6  UNL     1     -33.034   9.438   1.691  1.00 20.00     0.216 C 
HETATM    7  C7  UNL     1     -33.066   6.607   2.085  1.00 20.00     0.251 C 
HETATM    8  C10 UNL     1     -34.157   7.540   4.044  1.00 20.00     0.310 C 
HETATM    9  N12 UNL     1     -32.920   7.484   3.264  1.00 20.00     0.092 N 
HETATM   10  N13 UNL     1     -32.910   8.486   0.509  1.00 20.00    -0.063 N 
HETATM   11  H36 UNL     1     -33.907   8.295   0.174  1.00 20.00     0.280 HD
ENDROOT
BRANCH   7  12
HETATM   12  C11 UNL     1     -32.529   5.219   2.441  1.00 20.00     0.012 C 
HETATM   13  C8  UNL     1     -33.608   4.396   3.133  1.00 20.00     0.012 C 
HETATM   14  C9  UNL     1     -32.025   4.511   1.188  1.00 20.00     0.012 C 
ENDBRANCH   7  12
TORSDOF 1
ENDMDL
MODEL 8
REMARK VINA RESULT:       6.0      1.361      2.691
REMARK  1 active torsions:
REMARK  status: ('A' for Active; 'I' for Inactive)
REMARK    1  A    between atoms: C7_7  and  C11_11 
ROOT
HETATM    1  C1  UNL     1     -34.215   4.160   3.420  1.00 20.00     0.030 C 
HETATM    2  C2  UNL     1     -34.562   5.479   4.086  1.00 20.00     0.036 C 
HETATM    3  C3  UNL     1     -33.729   7.845   3.598  1.00 20.00     0.305 C 
HETATM    4  C4  UNL     1     -33.598   4.601   2.109  1.00 20.00     0.235 C 
HETATM    5  C5  UNL     1     -32.562   6.803   1.404  1.00 20.00     0.271 C 
HETATM    6  C6  UNL     1     -33.363   6.375   3.783  1.00 20.00     0.216 C 
HETATM    7  C7  UNL     1     -31.858   8.026   2.001  1.00 20.00     0.251 C 
HETATM    8  C10 UNL     1     -31.760   9.149   4.153  1.00 20.00     0.310 C 
HETATM    9  N12 UNL     1     -32.633   8.672   3.080  1.00 20.00     0.092 N 
HETATM   10  N13 UNL     1     -32.769   5.801   2.504  1.00 20.00    -0.063 N 
HETATM   11  H36 UNL     1     -31.791   5.453   2.759  1.00 20.00     0.280 HD
ENDROOT
BRANCH   7  12
HETATM   12  C11 UNL     1     -31.600   9.059   0.901  1.00 20.00     0.012 C 
HETATM   13  C8  UNL     1     -31.181   8.364  -0.388  1.00 20.00     0.012 C 
HETATM   14  C9  UNL     1     -32.842   9.915   0.679  1.00 20.00     0.012 C 
ENDBRANCH   7  12
TORSDOF 1
ENDMDL
