MODEL 1
REMARK VINA RESULT:       2.4      0.000      0.000
REMARK  1 active torsions:
REMARK  status: ('A' for Active; 'I' for Inactive)
REMARK    1  A    between atoms: C6_6  and  O10_10 
ROOT
HETATM    1  C1  UNL     1     -32.156   9.410   0.034  1.00 20.00     0.015 C 
HETATM    2  C2  UNL     1     -32.383   8.691   0.968  1.00 20.00    -0.077 C 
HETATM    3  C3  UNL     1     -33.150   5.397   2.878  1.00 20.00     0.023 C 
HETATM    4  C4  UNL     1     -34.422   5.759   3.638  1.00 20.00     0.075 C 
HETATM    5  C5  UNL     1     -33.898   8.358   2.861  1.00 20.00     0.126 C 
HETATM    6  C6  UNL     1     -32.664   7.806   2.122  1.00 20.00     0.135 C 
HETATM    7  C7  UNL     1     -32.822   6.311   1.664  1.00 20.00    -0.004 C 
HETATM    8  C8  UNL     1     -31.498   5.780   1.054  1.00 20.00     0.019 C 
HETATM    9  C9  UNL     1     -33.921   6.147   0.587  1.00 20.00     0.019 C 
HETATM   10  S11 UNL     1     -34.338   7.417   4.355  1.00 20.00    -0.165 SA
ENDROOT
BRANCH   6  11
HETATM   11  O10 UNL     1     -31.541   7.894   3.011  1.00 20.00    -0.376 OA
HETATM   12  H25 UNL     1     -31.748   7.320   3.762  1.00 20.00     0.211 HD
ENDBRANCH   6  11
TORSDOF 1
ENDMDL
MODEL 2
REMARK VINA RESULT:       3.7      2.035      3.123
REMARK  1 active torsions:
REMARK  status: ('A' for Active; 'I' for Inactive)
REMARK    1  A    between atoms: C6_6  and  O10_10 
ROOT
HETATM    1  C1  UNL     1     -31.453   8.168   1.706  1.00 20.00     0.015 C 
HETATM    2  C2  UNL     1     -32.290   7.392   2.079  1.00 20.00    -0.077 C 
HETATM    3  C3  UNL     1     -35.296   6.047   4.139  1.00 20.00     0.023 C 
HETATM    4  C4  UNL     1     -34.724   4.767   4.737  1.00 20.00     0.075 C 
HETATM    5  C5  UNL     1     -32.608   5.147   3.002  1.00 20.00     0.126 C 
HETATM    6  C6  UNL     1     -33.321   6.433   2.538  1.00 20.00     0.135 C 
HETATM    7  C7  UNL     1     -34.240   7.074   3.640  1.00 20.00    -0.004 C 
HETATM    8  C8  UNL     1     -35.030   8.278   3.064  1.00 20.00     0.019 C 
HETATM    9  C9  UNL     1     -33.423   7.596   4.846  1.00 20.00     0.019 C 
HETATM   10  S11 UNL     1     -33.746   3.832   3.536  1.00 20.00    -0.165 SA
ENDROOT
BRANCH   6  11
HETATM   11  O10 UNL     1     -34.133   6.102   1.402  1.00 20.00    -0.376 OA
HETATM   12  H25 UNL     1     -34.699   5.368   1.682  1.00 20.00     0.211 HD
ENDBRANCH   6  11
TORSDOF 1
ENDMDL
MODEL 3
REMARK VINA RESULT:       3.8      1.443      3.030
REMARK  1 active torsions:
REMARK  status: ('A' for Active; 'I' for Inactive)
REMARK    1  A    between atoms: C6_6  and  O10_10 
ROOT
HETATM    1  C1  UNL     1     -31.203   4.695   0.553  1.00 20.00     0.015 C 
HETATM    2  C2  UNL     1     -32.039   5.362   1.100  1.00 20.00    -0.077 C 
HETATM    3  C3  UNL     1     -33.625   8.483   2.783  1.00 20.00     0.023 C 
HETATM    4  C4  UNL     1     -34.075   7.924   4.128  1.00 20.00     0.075 C 
HETATM    5  C5  UNL     1     -33.514   5.443   3.051  1.00 20.00     0.126 C 
HETATM    6  C6  UNL     1     -33.070   6.184   1.775  1.00 20.00     0.135 C 
HETATM    7  C7  UNL     1     -32.547   7.640   2.043  1.00 20.00    -0.004 C 
HETATM    8  C8  UNL     1     -32.250   8.373   0.708  1.00 20.00     0.019 C 
HETATM    9  C9  UNL     1     -31.238   7.645   2.870  1.00 20.00     0.019 C 
HETATM   10  S11 UNL     1     -34.837   6.292   3.967  1.00 20.00    -0.165 SA
ENDROOT
BRANCH   6  11
HETATM   11  O10 UNL     1     -34.200   6.260   0.893  1.00 20.00    -0.376 OA
HETATM   12  H25 UNL     1     -34.001   5.669   0.152  1.00 20.00     0.211 HD
ENDBRANCH   6  11
TORSDOF 1
ENDMDL
MODEL 4
REMARK VINA RESULT:       3.8      1.770      3.619
REMARK  1 active torsions:
REMARK  status: ('A' for Active; 'I' for Inactive)
REMARK    1  A    between atoms: C6_6  and  O10_10 
ROOT
HETATM    1  C1  UNL     1     -33.869   3.658   4.224  1.00 20.00     0.015 C 
HETATM    2  C2  UNL     1     -33.758   4.721   3.676  1.00 20.00    -0.077 C 
HETATM    3  C3  UNL     1     -32.737   7.269   0.928  1.00 20.00     0.023 C 
HETATM    4  C4  UNL     1     -31.934   8.291   1.725  1.00 20.00     0.075 C 
HETATM    5  C5  UNL     1     -32.898   6.994   3.966  1.00 20.00     0.126 C 
HETATM    6  C6  UNL     1     -33.621   6.032   3.002  1.00 20.00     0.135 C 
HETATM    7  C7  UNL     1     -32.907   5.882   1.611  1.00 20.00    -0.004 C 
HETATM    8  C8  UNL     1     -33.758   5.014   0.647  1.00 20.00     0.019 C 
HETATM    9  C9  UNL     1     -31.522   5.202   1.739  1.00 20.00     0.019 C 
HETATM   10  S11 UNL     1     -32.710   8.681   3.311  1.00 20.00    -0.165 SA
ENDROOT
BRANCH   6  11
HETATM   11  O10 UNL     1     -34.945   6.540   2.783  1.00 20.00    -0.376 OA
HETATM   12  H25 UNL     1     -35.118   7.157   3.508  1.00 20.00     0.211 HD
ENDBRANCH   6  11
TORSDOF 1
ENDMDL
MODEL 5
REMARK VINA RESULT:       5.0      2.079      3.555
REMARK  1 active torsions:
REMARK  status: ('A' for Active; 'I' for Inactive)
REMARK    1  A    between atoms: C6_6  and  O10_10 
ROOT
HETATM    1  C1  UNL     1     -33.337   8.422   6.048  1.00 20.00     0.015 C 
HETATM    2  C2  UNL     1     -33.364   8.095   4.893  1.00 20.00    -0.077 C 
HETATM    3  C3  UNL     1     -33.989   5.822   1.806  1.00 20.00     0.023 C 
HETATM    4  C4  UNL     1     -32.619   5.809   1.138  1.00 20.00     0.075 C 
HETATM    5  C5  UNL     1     -31.972   7.840   2.896  1.00 20.00     0.126 C 
HETATM    6  C6  UNL     1     -33.396   7.691   3.469  1.00 20.00     0.135 C 
HETATM    7  C7  UNL     1     -33.993   6.248   3.301  1.00 20.00    -0.004 C 
HETATM    8  C8  UNL     1     -35.471   6.207   3.771  1.00 20.00     0.019 C 
HETATM    9  C9  UNL     1     -33.218   5.198   4.134  1.00 20.00     0.019 C 
HETATM   10  S11 UNL     1     -31.853   7.448   1.124  1.00 20.00    -0.165 SA
ENDROOT
BRANCH   6  11
HETATM   11  O10 UNL     1     -34.247   8.620   2.781  1.00 20.00    -0.376 OA
HETATM   12  H25 UNL     1     -33.801   9.477   2.828  1.00 20.00     0.211 HD
ENDBRANCH   6  11
TORSDOF 1
ENDMDL
MODEL 6
REMARK VINA RESULT:       5.0      1.722      3.002
REMARK  1 active torsions:
REMARK  status: ('A' for Active; 'I' for Inactive)
REMARK    1  A    between atoms: C6_6  and  O10_10 
ROOT
HETATM    1  C1  UNL     1     -34.177   4.937  -0.200  1.00 20.00     0.015 C 
HETATM    2  C2  UNL     1     -33.642   5.491   0.722  1.00 20.00    -0.077 C 
HETATM    3  C3  UNL     1     -33.180   6.852   4.330  1.00 20.00     0.023 C 
HETATM    4  C4  UNL     1     -32.893   8.327   4.079  1.00 20.00     0.075 C 
HETATM    5  C5  UNL     1     -32.645   7.614   1.422  1.00 20.00     0.126 C 
HETATM    6  C6  UNL     1     -32.982   6.174   1.858  1.00 20.00     0.135 C 
HETATM    7  C7  UNL     1     -33.867   6.101   3.154  1.00 20.00    -0.004 C 
HETATM    8  C8  UNL     1     -34.050   4.631   3.613  1.00 20.00     0.019 C 
HETATM    9  C9  UNL     1     -35.281   6.690   2.927  1.00 20.00     0.019 C 
HETATM   10  S11 UNL     1     -31.762   8.574   2.689  1.00 20.00    -0.165 SA
ENDROOT
BRANCH   6  11
HETATM   11  O10 UNL     1     -31.747   5.488   2.109  1.00 20.00    -0.376 OA
HETATM   12  H25 UNL     1     -31.561   5.609   3.051  1.00 20.00     0.211 HD
ENDBRANCH   6  11
TORSDOF 1
ENDMDL
MODEL 7
REMARK VINA RESULT:       5.3      1.961      4.037
REMARK  1 active torsions:
REMARK  status: ('A' for Active; 'I' for Inactive)
REMARK    1  A    between atoms: C6_6  and  O10_10 
ROOT
HETATM    1  C1  UNL     1     -36.008   5.493   4.432  1.00 20.00     0.015 C 
HETATM    2  C2  UNL     1     -34.955   5.798   3.942  1.00 20.00    -0.077 C 
HETATM    3  C3  UNL     1     -31.983   8.081   2.922  1.00 20.00     0.023 C 
HETATM    4  C4  UNL     1     -31.921   7.867   1.413  1.00 20.00     0.075 C 
HETATM    5  C5  UNL     1     -33.696   5.794   1.844  1.00 20.00     0.126 C 
HETATM    6  C6  UNL     1     -33.657   6.174   3.337  1.00 20.00     0.135 C 
HETATM    7  C7  UNL     1     -33.331   7.690   3.591  1.00 20.00    -0.004 C 
HETATM    8  C8  UNL     1     -33.172   7.971   5.108  1.00 20.00     0.019 C 
HETATM    9  C9  UNL     1     -34.452   8.621   3.068  1.00 20.00     0.019 C 
HETATM   10  S11 UNL     1     -32.140   6.129   0.963  1.00 20.00    -0.165 SA
ENDROOT
BRANCH   6  11
HETATM   11  O10 UNL     1     -32.644   5.377   3.969  1.00 20.00    -0.376 OA
HETATM   12  H25 UNL     1     -32.492   4.623   3.382  1.00 20.00     0.211 HD
ENDBRANCH   6  11
TORSDOF 1
ENDMDL
