MODEL 1
REMARK VINA RESULT:       2.6      0.000      0.000
REMARK  1 active torsions:
REMARK  status: ('A' for Active; 'I' for Inactive)
REMARK    1  A    between atoms: C4_4  and  S9_9 
ROOT
HETATM    1  C1  UNL     1     -32.208   8.337   3.232  1.00 20.00     0.025 C 
HETATM    2  C2  UNL     1     -31.740   6.625   1.370  1.00 20.00     0.088 C 
HETATM    3  C3  UNL     1     -33.619   6.197   3.325  1.00 20.00     0.082 C 
HETATM    4  C4  UNL     1     -31.712   8.093   1.796  1.00 20.00     0.054 C 
HETATM    5  C5  UNL     1     -33.548   7.694   3.685  1.00 20.00    -0.038 C 
HETATM    6  C6  UNL     1     -34.772   8.453   3.133  1.00 20.00     0.015 C 
HETATM    7  C7  UNL     1     -33.618   7.811   5.227  1.00 20.00     0.015 C 
HETATM    8  S8  UNL     1     -33.368   5.845   1.560  1.00 20.00    -0.167 SA
ENDROOT
BRANCH   4   9
HETATM    9  S9  UNL     1     -32.519   9.174   0.559  1.00 20.00    -0.177 SA
HETATM   10  H23 UNL     1     -32.163   8.438  -0.501  1.00 20.00     0.102 HD
ENDBRANCH   4   9
TORSDOF 1
ENDMDL
MODEL 2
REMARK VINA RESULT:       2.9      1.679      3.721
REMARK  1 active torsions:
REMARK  status: ('A' for Active; 'I' for Inactive)
REMARK    1  A    between atoms: C4_4  and  S9_9 
ROOT
HETATM    1  C1  UNL     1     -33.215   5.389   2.878  1.00 20.00     0.025 C 
HETATM    2  C2  UNL     1     -33.175   7.750   3.896  1.00 20.00     0.088 C 
HETATM    3  C3  UNL     1     -31.860   7.129   1.568  1.00 20.00     0.082 C 
HETATM    4  C4  UNL     1     -33.931   6.429   3.757  1.00 20.00     0.054 C 
HETATM    5  C5  UNL     1     -32.675   5.822   1.487  1.00 20.00    -0.038 C 
HETATM    6  C6  UNL     1     -33.798   5.938   0.437  1.00 20.00     0.015 C 
HETATM    7  C7  UNL     1     -31.724   4.705   0.991  1.00 20.00     0.015 C 
HETATM    8  S8  UNL     1     -32.763   8.522   2.307  1.00 20.00    -0.167 SA
ENDROOT
BRANCH   4   9
HETATM    9  S9  UNL     1     -35.680   6.694   3.285  1.00 20.00    -0.177 SA
HETATM   10  H23 UNL     1     -35.640   8.026   3.404  1.00 20.00     0.102 HD
ENDBRANCH   4   9
TORSDOF 1
ENDMDL
MODEL 3
REMARK VINA RESULT:       3.1      1.671      2.810
REMARK  1 active torsions:
REMARK  status: ('A' for Active; 'I' for Inactive)
REMARK    1  A    between atoms: C4_4  and  S9_9 
ROOT
HETATM    1  C1  UNL     1     -34.110   6.219   1.909  1.00 20.00     0.025 C 
HETATM    2  C2  UNL     1     -32.192   7.925   1.745  1.00 20.00     0.088 C 
HETATM    3  C3  UNL     1     -33.786   7.711   3.970  1.00 20.00     0.082 C 
HETATM    4  C4  UNL     1     -32.752   6.579   1.284  1.00 20.00     0.054 C 
HETATM    5  C5  UNL     1     -34.290   6.351   3.447  1.00 20.00    -0.038 C 
HETATM    6  C6  UNL     1     -33.628   5.187   4.212  1.00 20.00     0.015 C 
HETATM    7  C7  UNL     1     -35.807   6.265   3.744  1.00 20.00     0.015 C 
HETATM    8  S8  UNL     1     -32.056   8.074   3.548  1.00 20.00    -0.167 SA
ENDROOT
BRANCH   4   9
HETATM    9  S9  UNL     1     -31.510   5.241   1.431  1.00 20.00    -0.177 SA
HETATM   10  H23 UNL     1     -30.470   6.059   1.629  1.00 20.00     0.102 HD
ENDBRANCH   4   9
TORSDOF 1
ENDMDL
MODEL 4
REMARK VINA RESULT:       3.2      1.804      3.330
REMARK  1 active torsions:
REMARK  status: ('A' for Active; 'I' for Inactive)
REMARK    1  A    between atoms: C4_4  and  S9_9 
ROOT
HETATM    1  C1  UNL     1     -33.619   8.558   2.607  1.00 20.00     0.025 C 
HETATM    2  C2  UNL     1     -34.434   6.279   3.478  1.00 20.00     0.088 C 
HETATM    3  C3  UNL     1     -32.620   6.509   1.430  1.00 20.00     0.082 C 
HETATM    4  C4  UNL     1     -34.184   7.754   3.791  1.00 20.00     0.054 C 
HETATM    5  C5  UNL     1     -32.408   7.986   1.818  1.00 20.00    -0.038 C 
HETATM    6  C6  UNL     1     -31.080   8.171   2.579  1.00 20.00     0.015 C 
HETATM    7  C7  UNL     1     -32.282   8.803   0.509  1.00 20.00     0.015 C 
HETATM    8  S8  UNL     1     -32.972   5.415   2.838  1.00 20.00    -0.167 SA
ENDROOT
BRANCH   4   9
HETATM    9  S9  UNL     1     -33.222   7.968   5.334  1.00 20.00    -0.177 SA
HETATM   10  H23 UNL     1     -34.193   8.606   5.998  1.00 20.00     0.102 HD
ENDBRANCH   4   9
TORSDOF 1
ENDMDL
MODEL 5
REMARK VINA RESULT:       3.4      1.765      2.900
REMARK  1 active torsions:
REMARK  status: ('A' for Active; 'I' for Inactive)
REMARK    1  A    between atoms: C4_4  and  S9_9 
ROOT
HETATM    1  C1  UNL     1     -31.809   6.463   1.709  1.00 20.00     0.025 C 
HETATM    2  C2  UNL     1     -33.736   5.297   2.951  1.00 20.00     0.088 C 
HETATM    3  C3  UNL     1     -32.968   7.871   3.513  1.00 20.00     0.082 C 
HETATM    4  C4  UNL     1     -32.909   5.389   1.668  1.00 20.00     0.054 C 
HETATM    5  C5  UNL     1     -32.172   7.894   2.193  1.00 20.00    -0.038 C 
HETATM    6  C6  UNL     1     -32.919   8.701   1.112  1.00 20.00     0.015 C 
HETATM    7  C7  UNL     1     -30.843   8.644   2.459  1.00 20.00     0.015 C 
HETATM    8  S8  UNL     1     -34.485   6.873   3.447  1.00 20.00    -0.167 SA
ENDROOT
BRANCH   4   9
HETATM    9  S9  UNL     1     -33.973   5.500   0.181  1.00 20.00    -0.177 SA
HETATM   10  H23 UNL     1     -34.361   4.220   0.211  1.00 20.00     0.102 HD
ENDBRANCH   4   9
TORSDOF 1
ENDMDL
MODEL 6
REMARK VINA RESULT:       4.5      1.572      3.142
REMARK  1 active torsions:
REMARK  status: ('A' for Active; 'I' for Inactive)
REMARK    1  A    between atoms: C4_4  and  S9_9 
ROOT
HETATM    1  C1  UNL     1     -34.757   6.477   3.457  1.00 20.00     0.025 C 
HETATM    2  C2  UNL     1     -33.290   5.268   1.725  1.00 20.00     0.088 C 
HETATM    3  C3  UNL     1     -32.911   7.903   2.391  1.00 20.00     0.082 C 
HETATM    4  C4  UNL     1     -34.179   5.140   2.963  1.00 20.00     0.054 C 
HETATM    5  C5  UNL     1     -33.805   7.692   3.630  1.00 20.00    -0.038 C 
HETATM    6  C6  UNL     1     -32.954   7.586   4.911  1.00 20.00     0.015 C 
HETATM    7  C7  UNL     1     -34.689   8.953   3.793  1.00 20.00     0.015 C 
HETATM    8  S8  UNL     1     -31.927   6.448   1.929  1.00 20.00    -0.167 SA
ENDROOT
BRANCH   4   9
HETATM    9  S9  UNL     1     -33.365   4.171   4.286  1.00 20.00    -0.177 SA
HETATM   10  H23 UNL     1     -33.780   4.956   5.287  1.00 20.00     0.102 HD
ENDBRANCH   4   9
TORSDOF 1
ENDMDL
MODEL 7
REMARK VINA RESULT:       4.5      2.413      3.814
REMARK  1 active torsions:
REMARK  status: ('A' for Active; 'I' for Inactive)
REMARK    1  A    between atoms: C4_4  and  S9_9 
ROOT
HETATM    1  C1  UNL     1     -34.347   6.681   2.214  1.00 20.00     0.025 C 
HETATM    2  C2  UNL     1     -35.071   5.506   4.385  1.00 20.00     0.088 C 
HETATM    3  C3  UNL     1     -33.536   4.262   2.479  1.00 20.00     0.082 C 
HETATM    4  C4  UNL     1     -34.763   6.831   3.687  1.00 20.00     0.054 C 
HETATM    5  C5  UNL     1     -33.257   5.638   1.843  1.00 20.00    -0.038 C 
HETATM    6  C6  UNL     1     -31.838   6.129   2.194  1.00 20.00     0.015 C 
HETATM    7  C7  UNL     1     -33.292   5.460   0.305  1.00 20.00     0.015 C 
HETATM    8  S8  UNL     1     -33.716   4.303   4.287  1.00 20.00    -0.167 SA
ENDROOT
BRANCH   4   9
HETATM    9  S9  UNL     1     -33.606   7.860   4.664  1.00 20.00    -0.177 SA
HETATM   10  H23 UNL     1     -32.577   7.009   4.575  1.00 20.00     0.102 HD
ENDBRANCH   4   9
TORSDOF 1
ENDMDL
MODEL 8
REMARK VINA RESULT:       4.7      1.848      2.184
REMARK  1 active torsions:
REMARK  status: ('A' for Active; 'I' for Inactive)
REMARK    1  A    between atoms: C4_4  and  S9_9 
ROOT
HETATM    1  C1  UNL     1     -33.144   7.064   2.531  1.00 20.00     0.025 C 
HETATM    2  C2  UNL     1     -32.453   4.599   2.277  1.00 20.00     0.088 C 
HETATM    3  C3  UNL     1     -33.852   5.520   4.452  1.00 20.00     0.082 C 
HETATM    4  C4  UNL     1     -32.794   5.913   1.572  1.00 20.00     0.054 C 
HETATM    5  C5  UNL     1     -34.170   6.810   3.670  1.00 20.00    -0.038 C 
HETATM    6  C6  UNL     1     -35.622   6.798   3.153  1.00 20.00     0.015 C 
HETATM    7  C7  UNL     1     -34.066   7.997   4.659  1.00 20.00     0.015 C 
HETATM    8  S8  UNL     1     -33.746   4.031   3.416  1.00 20.00    -0.167 SA
ENDROOT
BRANCH   4   9
HETATM    9  S9  UNL     1     -34.035   5.671   0.248  1.00 20.00    -0.177 SA
HETATM   10  H23 UNL     1     -34.096   6.961  -0.102  1.00 20.00     0.102 HD
ENDBRANCH   4   9
TORSDOF 1
ENDMDL
MODEL 9
REMARK VINA RESULT:       5.3      1.863      3.355
REMARK  1 active torsions:
REMARK  status: ('A' for Active; 'I' for Inactive)
REMARK    1  A    between atoms: C4_4  and  S9_9 
ROOT
HETATM    1  C1  UNL     1     -32.911   7.186   1.126  1.00 20.00     0.025 C 
HETATM    2  C2  UNL     1     -33.837   7.916   3.412  1.00 20.00     0.088 C 
HETATM    3  C3  UNL     1     -33.947   5.315   2.541  1.00 20.00     0.082 C 
HETATM    4  C4  UNL     1     -32.838   8.191   2.288  1.00 20.00     0.054 C 
HETATM    5  C5  UNL     1     -32.921   5.666   1.445  1.00 20.00    -0.038 C 
HETATM    6  C6  UNL     1     -31.520   5.139   1.813  1.00 20.00     0.015 C 
HETATM    7  C7  UNL     1     -33.343   4.925   0.152  1.00 20.00     0.015 C 
HETATM    8  S8  UNL     1     -33.722   6.237   4.091  1.00 20.00    -0.167 SA
ENDROOT
BRANCH   4   9
HETATM    9  S9  UNL     1     -31.140   8.429   2.933  1.00 20.00    -0.177 SA
HETATM   10  H23 UNL     1     -30.677   7.251   2.499  1.00 20.00     0.102 HD
ENDBRANCH   4   9
TORSDOF 1
ENDMDL
