MODEL 1
REMARK VINA RESULT:      -1.0      0.000      0.000
REMARK  1 active torsions:
REMARK  status: ('A' for Active; 'I' for Inactive)
REMARK    1  A    between atoms: C4_4  and  C11_11 
ROOT
HETATM    1  C1  UNL     1     -31.802   6.684   1.178  1.00 20.00     0.008 A 
HETATM    2  C2  UNL     1     -32.271   5.477   1.699  1.00 20.00     0.008 A 
HETATM    3  C3  UNL     1     -33.387   7.938   2.535  1.00 20.00     0.016 A 
HETATM    4  C4  UNL     1     -32.355   7.906   1.594  1.00 20.00    -0.053 A 
HETATM    5  C5  UNL     1     -33.286   5.518   2.641  1.00 20.00    -0.050 A 
HETATM    6  C6  UNL     1     -33.843   6.737   3.051  1.00 20.00    -0.033 A 
HETATM    7  C7  UNL     1     -33.966   4.366   3.313  1.00 20.00     0.041 C 
HETATM    8  C8  UNL     1     -34.640   5.076   4.499  1.00 20.00     0.030 C 
HETATM    9  C12 UNL     1     -34.944   6.515   4.042  1.00 20.00     0.116 C 
HETATM   10 CL13 UNL     1     -36.523   6.619   3.237  1.00 20.00    -0.120 Cl
ENDROOT
BRANCH   4  11
HETATM   11  C11 UNL     1     -31.839   9.181   1.020  1.00 20.00     0.018 A 
HETATM   12  C9  UNL     1     -32.755  10.374   0.943  1.00 20.00     0.010 A 
HETATM   13  C10 UNL     1     -32.366   9.654  -0.310  1.00 20.00     0.010 A 
ENDBRANCH   4  11
TORSDOF 1
ENDMDL
MODEL 2
REMARK VINA RESULT:       1.7      1.611      2.366
REMARK  1 active torsions:
REMARK  status: ('A' for Active; 'I' for Inactive)
REMARK    1  A    between atoms: C4_4  and  C11_11 
ROOT
HETATM    1  C1  UNL     1     -33.305   8.608   2.910  1.00 20.00     0.008 A 
HETATM    2  C2  UNL     1     -34.137   8.112   3.915  1.00 20.00     0.008 A 
HETATM    3  C3  UNL     1     -32.874   6.357   2.090  1.00 20.00     0.016 A 
HETATM    4  C4  UNL     1     -32.679   7.737   2.003  1.00 20.00    -0.053 A 
HETATM    5  C5  UNL     1     -34.335   6.743   3.986  1.00 20.00    -0.050 A 
HETATM    6  C6  UNL     1     -33.705   5.872   3.086  1.00 20.00    -0.033 A 
HETATM    7  C7  UNL     1     -35.149   5.981   4.985  1.00 20.00     0.041 C 
HETATM    8  C8  UNL     1     -35.299   4.628   4.270  1.00 20.00     0.030 C 
HETATM    9  C12 UNL     1     -34.046   4.447   3.394  1.00 20.00     0.116 C 
HETATM   10 CL13 UNL     1     -32.725   3.684   4.304  1.00 20.00    -0.120 Cl
ENDROOT
BRANCH   4  11
HETATM   11  C11 UNL     1     -31.793   8.293   0.941  1.00 20.00     0.018 A 
HETATM   12  C9  UNL     1     -31.879   9.760   0.608  1.00 20.00     0.010 A 
HETATM   13  C10 UNL     1     -32.402   8.746  -0.361  1.00 20.00     0.010 A 
ENDBRANCH   4  11
TORSDOF 1
ENDMDL
