MODEL 1
REMARK VINA RESULT:      -1.4      0.000      0.000
REMARK  5 active torsions:
REMARK  status: ('A' for Active; 'I' for Inactive)
REMARK    1  A    between atoms: C4_4  and  C7_7 
REMARK    2  A    between atoms: C4_4  and  O8_8 
REMARK    3  A    between atoms: C5_5  and  C7_7 
REMARK    4  A    between atoms: C5_5  and  S9_9 
REMARK    5  A    between atoms: C6_6  and  C7_7 
ROOT
HETATM    1  C7  UNL     1     -33.324   5.847   3.144  1.00 20.00     0.022 C 
ENDROOT
BRANCH   1   2
HETATM    2  C4  UNL     1     -33.923   4.428   3.248  1.00 20.00     0.172 C 
BRANCH   2   3
HETATM    3  O8  UNL     1     -33.873   3.962   4.591  1.00 20.00    -0.396 OA
HETATM    4  C3  UNL     1     -33.076   2.791   4.705  1.00 20.00     0.201 C 
ENDBRANCH   2   3
ENDBRANCH   1   2
BRANCH   1   5
HETATM    5  C5  UNL     1     -32.671   6.098   1.761  1.00 20.00     0.077 C 
BRANCH   5   6
HETATM    6  S9  UNL     1     -31.928   7.746   1.541  1.00 20.00    -0.182 SA
HETATM    7  H25 UNL     1     -32.183   7.837   0.230  1.00 20.00     0.101 HD
ENDBRANCH   5   6
ENDBRANCH   1   5
BRANCH   1   8
HETATM    8  C6  UNL     1     -34.352   6.942   3.570  1.00 20.00    -0.016 C 
HETATM    9  C1  UNL     1     -35.694   6.336   4.005  1.00 20.00     0.010 C 
HETATM   10  C2  UNL     1     -33.826   7.819   4.715  1.00 20.00     0.010 C 
ENDBRANCH   1   8
TORSDOF 5
ENDMDL
MODEL 2
REMARK VINA RESULT:      -1.4      2.754      3.842
REMARK  5 active torsions:
REMARK  status: ('A' for Active; 'I' for Inactive)
REMARK    1  A    between atoms: C4_4  and  C7_7 
REMARK    2  A    between atoms: C4_4  and  O8_8 
REMARK    3  A    between atoms: C5_5  and  C7_7 
REMARK    4  A    between atoms: C5_5  and  S9_9 
REMARK    5  A    between atoms: C6_6  and  C7_7 
ROOT
HETATM    1  C7  UNL     1     -33.343   7.109   2.340  1.00 20.00     0.022 C 
ENDROOT
BRANCH   1   2
HETATM    2  C4  UNL     1     -32.151   8.078   2.204  1.00 20.00     0.172 C 
BRANCH   2   3
HETATM    3  O8  UNL     1     -31.965   8.456   0.845  1.00 20.00    -0.396 OA
HETATM    4  C3  UNL     1     -32.467   9.762   0.595  1.00 20.00     0.201 C 
ENDBRANCH   2   3
ENDBRANCH   1   2
BRANCH   1   5
HETATM    5  C5  UNL     1     -32.888   5.627   2.330  1.00 20.00     0.077 C 
BRANCH   5   6
HETATM    6  S9  UNL     1     -32.175   5.046   0.759  1.00 20.00    -0.182 SA
HETATM    7  H25 UNL     1     -32.769   5.967  -0.010  1.00 20.00     0.101 HD
ENDBRANCH   5   6
ENDBRANCH   1   5
BRANCH   1   8
HETATM    8  C6  UNL     1     -34.259   7.485   3.547  1.00 20.00    -0.016 C 
HETATM    9  C1  UNL     1     -35.126   6.303   4.006  1.00 20.00     0.010 C 
HETATM   10  C2  UNL     1     -33.455   7.989   4.753  1.00 20.00     0.010 C 
ENDBRANCH   1   8
TORSDOF 5
ENDMDL
MODEL 3
REMARK VINA RESULT:      -1.2      2.908      4.100
REMARK  5 active torsions:
REMARK  status: ('A' for Active; 'I' for Inactive)
REMARK    1  A    between atoms: C4_4  and  C7_7 
REMARK    2  A    between atoms: C4_4  and  O8_8 
REMARK    3  A    between atoms: C5_5  and  C7_7 
REMARK    4  A    between atoms: C5_5  and  S9_9 
REMARK    5  A    between atoms: C6_6  and  C7_7 
ROOT
HETATM    1  C7  UNL     1     -33.229   7.028   2.288  1.00 20.00     0.022 C 
ENDROOT
BRANCH   1   2
HETATM    2  C4  UNL     1     -32.276   8.238   2.184  1.00 20.00     0.172 C 
BRANCH   2   3
HETATM    3  O8  UNL     1     -31.951   8.505   0.826  1.00 20.00    -0.396 OA
HETATM    4  C3  UNL     1     -32.423   9.782   0.419  1.00 20.00     0.201 C 
ENDBRANCH   2   3
ENDBRANCH   1   2
BRANCH   1   5
HETATM    5  C5  UNL     1     -32.604   5.747   1.681  1.00 20.00     0.077 C 
BRANCH   5   6
HETATM    6  S9  UNL     1     -33.520   5.024   0.284  1.00 20.00    -0.182 SA
HETATM    7  H25 UNL     1     -32.764   3.924   0.180  1.00 20.00     0.101 HD
ENDBRANCH   5   6
ENDBRANCH   1   5
BRANCH   1   8
HETATM    8  C6  UNL     1     -33.774   6.845   3.739  1.00 20.00    -0.016 C 
HETATM    9  C1  UNL     1     -33.683   8.140   4.560  1.00 20.00     0.010 C 
HETATM   10  C2  UNL     1     -35.233   6.366   3.757  1.00 20.00     0.010 C 
ENDBRANCH   1   8
TORSDOF 5
ENDMDL
MODEL 4
REMARK VINA RESULT:      -0.9      2.251      3.322
REMARK  5 active torsions:
REMARK  status: ('A' for Active; 'I' for Inactive)
REMARK    1  A    between atoms: C4_4  and  C7_7 
REMARK    2  A    between atoms: C4_4  and  O8_8 
REMARK    3  A    between atoms: C5_5  and  C7_7 
REMARK    4  A    between atoms: C5_5  and  S9_9 
REMARK    5  A    between atoms: C6_6  and  C7_7 
ROOT
HETATM    1  C7  UNL     1     -33.041   7.231   2.100  1.00 20.00     0.022 C 
ENDROOT
BRANCH   1   2
HETATM    2  C4  UNL     1     -33.260   7.316   3.626  1.00 20.00     0.172 C 
BRANCH   2   3
HETATM    3  O8  UNL     1     -34.643   7.456   3.926  1.00 20.00    -0.396 OA
HETATM    4  C3  UNL     1     -35.270   6.191   4.092  1.00 20.00     0.201 C 
ENDBRANCH   2   3
ENDBRANCH   1   2
BRANCH   1   5
HETATM    5  C5  UNL     1     -31.878   8.140   1.631  1.00 20.00     0.077 C 
BRANCH   5   6
HETATM    6  S9  UNL     1     -32.350   9.478   0.490  1.00 20.00    -0.182 SA
HETATM    7  H25 UNL     1     -33.633   9.534   0.869  1.00 20.00     0.101 HD
ENDBRANCH   5   6
ENDBRANCH   1   5
BRANCH   1   8
HETATM    8  C6  UNL     1     -32.928   5.751   1.614  1.00 20.00    -0.016 C 
HETATM    9  C1  UNL     1     -33.761   5.493   0.350  1.00 20.00     0.010 C 
HETATM   10  C2  UNL     1     -31.477   5.342   1.325  1.00 20.00     0.010 C 
ENDBRANCH   1   8
TORSDOF 5
ENDMDL
MODEL 5
REMARK VINA RESULT:      -0.8      3.222      4.825
REMARK  5 active torsions:
REMARK  status: ('A' for Active; 'I' for Inactive)
REMARK    1  A    between atoms: C4_4  and  C7_7 
REMARK    2  A    between atoms: C4_4  and  O8_8 
REMARK    3  A    between atoms: C5_5  and  C7_7 
REMARK    4  A    between atoms: C5_5  and  S9_9 
REMARK    5  A    between atoms: C6_6  and  C7_7 
ROOT
HETATM    1  C7  UNL     1     -32.425   7.065   2.316  1.00 20.00     0.022 C 
ENDROOT
BRANCH   1   2
HETATM    2  C4  UNL     1     -31.817   8.084   1.329  1.00 20.00     0.172 C 
BRANCH   2   3
HETATM    3  O8  UNL     1     -32.610   9.264   1.276  1.00 20.00    -0.396 OA
HETATM    4  C3  UNL     1     -32.471   9.928   0.027  1.00 20.00     0.201 C 
ENDBRANCH   2   3
ENDBRANCH   1   2
BRANCH   1   5
HETATM    5  C5  UNL     1     -33.554   7.692   3.172  1.00 20.00     0.077 C 
BRANCH   5   6
HETATM    6  S9  UNL     1     -34.721   6.504   3.908  1.00 20.00    -0.182 SA
HETATM    7  H25 UNL     1     -34.032   5.407   3.567  1.00 20.00     0.101 HD
ENDBRANCH   5   6
ENDBRANCH   1   5
BRANCH   1   8
HETATM    8  C6  UNL     1     -32.832   5.738   1.600  1.00 20.00    -0.016 C 
HETATM    9  C1  UNL     1     -33.702   5.993   0.360  1.00 20.00     0.010 C 
HETATM   10  C2  UNL     1     -31.612   4.912   1.170  1.00 20.00     0.010 C 
ENDBRANCH   1   8
TORSDOF 5
ENDMDL
MODEL 6
REMARK VINA RESULT:      -0.7      2.170      2.463
REMARK  5 active torsions:
REMARK  status: ('A' for Active; 'I' for Inactive)
REMARK    1  A    between atoms: C4_4  and  C7_7 
REMARK    2  A    between atoms: C4_4  and  O8_8 
REMARK    3  A    between atoms: C5_5  and  C7_7 
REMARK    4  A    between atoms: C5_5  and  S9_9 
REMARK    5  A    between atoms: C6_6  and  C7_7 
ROOT
HETATM    1  C7  UNL     1     -32.748   7.223   2.697  1.00 20.00     0.022 C 
ENDROOT
BRANCH   1   2
HETATM    2  C4  UNL     1     -33.225   6.359   1.511  1.00 20.00     0.172 C 
BRANCH   2   3
HETATM    3  O8  UNL     1     -32.681   5.047   1.596  1.00 20.00    -0.396 OA
HETATM    4  C3  UNL     1     -31.561   4.893   0.735  1.00 20.00     0.201 C 
ENDBRANCH   2   3
ENDBRANCH   1   2
BRANCH   1   5
HETATM    5  C5  UNL     1     -31.866   8.409   2.231  1.00 20.00     0.077 C 
BRANCH   5   6
HETATM    6  S9  UNL     1     -32.387   9.198   0.675  1.00 20.00    -0.182 SA
HETATM    7  H25 UNL     1     -31.413   8.672  -0.078  1.00 20.00     0.101 HD
ENDBRANCH   5   6
ENDBRANCH   1   5
BRANCH   1   8
HETATM    8  C6  UNL     1     -33.933   7.637   3.626  1.00 20.00    -0.016 C 
HETATM    9  C1  UNL     1     -34.916   6.481   3.859  1.00 20.00     0.010 C 
HETATM   10  C2  UNL     1     -33.452   8.143   4.993  1.00 20.00     0.010 C 
ENDBRANCH   1   8
TORSDOF 5
ENDMDL
MODEL 7
REMARK VINA RESULT:      -0.7      2.152      3.546
REMARK  5 active torsions:
REMARK  status: ('A' for Active; 'I' for Inactive)
REMARK    1  A    between atoms: C4_4  and  C7_7 
REMARK    2  A    between atoms: C4_4  and  O8_8 
REMARK    3  A    between atoms: C5_5  and  C7_7 
REMARK    4  A    between atoms: C5_5  and  S9_9 
REMARK    5  A    between atoms: C6_6  and  C7_7 
ROOT
HETATM    1  C7  UNL     1     -33.518   5.975   3.316  1.00 20.00     0.022 C 
ENDROOT
BRANCH   1   2
HETATM    2  C4  UNL     1     -33.123   5.993   1.824  1.00 20.00     0.172 C 
BRANCH   2   3
HETATM    3  O8  UNL     1     -31.826   6.552   1.656  1.00 20.00    -0.396 OA
HETATM    4  C3  UNL     1     -31.890   7.951   1.414  1.00 20.00     0.201 C 
ENDBRANCH   2   3
ENDBRANCH   1   2
BRANCH   1   5
HETATM    5  C5  UNL     1     -34.166   7.310   3.758  1.00 20.00     0.077 C 
BRANCH   5   6
HETATM    6  S9  UNL     1     -33.222   8.261   4.991  1.00 20.00    -0.182 SA
HETATM    7  H25 UNL     1     -33.623   7.547   6.050  1.00 20.00     0.101 HD
ENDBRANCH   5   6
ENDBRANCH   1   5
BRANCH   1   8
HETATM    8  C6  UNL     1     -34.358   4.709   3.676  1.00 20.00    -0.016 C 
HETATM    9  C1  UNL     1     -33.492   3.593   4.278  1.00 20.00     0.010 C 
HETATM   10  C2  UNL     1     -35.491   5.024   4.663  1.00 20.00     0.010 C 
ENDBRANCH   1   8
TORSDOF 5
ENDMDL
MODEL 8
REMARK VINA RESULT:      -0.6      2.454      3.859
REMARK  5 active torsions:
REMARK  status: ('A' for Active; 'I' for Inactive)
REMARK    1  A    between atoms: C4_4  and  C7_7 
REMARK    2  A    between atoms: C4_4  and  O8_8 
REMARK    3  A    between atoms: C5_5  and  C7_7 
REMARK    4  A    between atoms: C5_5  and  S9_9 
REMARK    5  A    between atoms: C6_6  and  C7_7 
ROOT
HETATM    1  C7  UNL     1     -33.588   5.748   3.279  1.00 20.00     0.022 C 
ENDROOT
BRANCH   1   2
HETATM    2  C4  UNL     1     -34.758   6.613   3.795  1.00 20.00     0.172 C 
BRANCH   2   3
HETATM    3  O8  UNL     1     -34.326   7.947   4.035  1.00 20.00    -0.396 OA
HETATM    4  C3  UNL     1     -33.425   8.012   5.133  1.00 20.00     0.201 C 
ENDBRANCH   2   3
ENDBRANCH   1   2
BRANCH   1   5
HETATM    5  C5  UNL     1     -33.902   4.234   3.376  1.00 20.00     0.077 C 
BRANCH   5   6
HETATM    6  S9  UNL     1     -33.155   3.376   4.798  1.00 20.00    -0.182 SA
HETATM    7  H25 UNL     1     -31.892   3.722   4.517  1.00 20.00     0.101 HD
ENDBRANCH   5   6
ENDBRANCH   1   5
BRANCH   1   8
HETATM    8  C6  UNL     1     -33.107   6.209   1.867  1.00 20.00    -0.016 C 
HETATM    9  C1  UNL     1     -32.171   7.425   1.943  1.00 20.00     0.010 C 
HETATM   10  C2  UNL     1     -32.381   5.091   1.106  1.00 20.00     0.010 C 
ENDBRANCH   1   8
TORSDOF 5
ENDMDL
MODEL 9
REMARK VINA RESULT:      -0.6      1.495      2.785
REMARK  5 active torsions:
REMARK  status: ('A' for Active; 'I' for Inactive)
REMARK    1  A    between atoms: C4_4  and  C7_7 
REMARK    2  A    between atoms: C4_4  and  O8_8 
REMARK    3  A    between atoms: C5_5  and  C7_7 
REMARK    4  A    between atoms: C5_5  and  S9_9 
REMARK    5  A    between atoms: C6_6  and  C7_7 
ROOT
HETATM    1  C7  UNL     1     -33.938   5.951   2.825  1.00 20.00     0.022 C 
ENDROOT
BRANCH   1   2
HETATM    2  C4  UNL     1     -33.192   4.975   3.759  1.00 20.00     0.172 C 
BRANCH   2   3
HETATM    3  O8  UNL     1     -34.037   3.891   4.129  1.00 20.00    -0.396 OA
HETATM    4  C3  UNL     1     -33.293   2.824   4.702  1.00 20.00     0.201 C 
ENDBRANCH   2   3
ENDBRANCH   1   2
BRANCH   1   5
HETATM    5  C5  UNL     1     -34.557   7.138   3.605  1.00 20.00     0.077 C 
BRANCH   5   6
HETATM    6  S9  UNL     1     -33.485   7.872   4.880  1.00 20.00    -0.182 SA
HETATM    7  H25 UNL     1     -32.981   6.712   5.320  1.00 20.00     0.101 HD
ENDBRANCH   5   6
ENDBRANCH   1   5
BRANCH   1   8
HETATM    8  C6  UNL     1     -33.054   6.378   1.611  1.00 20.00    -0.016 C 
HETATM    9  C1  UNL     1     -32.194   7.610   1.927  1.00 20.00     0.010 C 
HETATM   10  C2  UNL     1     -32.126   5.250   1.141  1.00 20.00     0.010 C 
ENDBRANCH   1   8
TORSDOF 5
ENDMDL
