MODEL 1
REMARK VINA RESULT:      -0.9      0.000      0.000
REMARK  4 active torsions:
REMARK  status: ('A' for Active; 'I' for Inactive)
REMARK    1  A    between atoms: C4_4  and  C6_6 
REMARK    2  A    between atoms: C4_4  and  O7_7 
REMARK    3  A    between atoms: C5_5  and  C6_6 
REMARK    4  A    between atoms: C5_5  and  S8_8 
ROOT
HETATM    1  C1  UNL     1     -35.780   6.821   3.098  1.00 20.00     0.018 C 
HETATM    2  C2  UNL     1     -33.879   7.527   4.549  1.00 20.00     0.018 C 
HETATM    3  C6  UNL     1     -34.385   6.405   3.621  1.00 20.00    -0.018 C 
ENDROOT
BRANCH   3   4
HETATM    4  C4  UNL     1     -34.511   5.082   4.410  1.00 20.00     0.176 C 
BRANCH   4   5
HETATM    5  O7  UNL     1     -33.778   4.038   3.778  1.00 20.00    -0.395 OA
HETATM    6  C3  UNL     1     -33.308   3.088   4.724  1.00 20.00     0.201 C 
ENDBRANCH   4   5
ENDBRANCH   3   4
BRANCH   3   7
HETATM    7  C5  UNL     1     -33.458   6.236   2.387  1.00 20.00     0.081 C 
BRANCH   7   8
HETATM    8  S8  UNL     1     -32.327   7.619   2.029  1.00 20.00    -0.181 SA
HETATM    9  H22 UNL     1     -33.211   8.338   1.327  1.00 20.00     0.101 HD
ENDBRANCH   7   8
ENDBRANCH   3   7
TORSDOF 4
ENDMDL
MODEL 2
REMARK VINA RESULT:      -0.2      2.239      3.399
REMARK  4 active torsions:
REMARK  status: ('A' for Active; 'I' for Inactive)
REMARK    1  A    between atoms: C4_4  and  C6_6 
REMARK    2  A    between atoms: C4_4  and  O7_7 
REMARK    3  A    between atoms: C5_5  and  C6_6 
REMARK    4  A    between atoms: C5_5  and  S8_8 
ROOT
HETATM    1  C1  UNL     1     -31.154   8.312   2.362  1.00 20.00     0.018 C 
HETATM    2  C2  UNL     1     -32.003   6.107   1.567  1.00 20.00     0.018 C 
HETATM    3  C6  UNL     1     -32.412   7.563   1.865  1.00 20.00    -0.018 C 
ENDROOT
BRANCH   3   4
HETATM    4  C4  UNL     1     -33.492   7.593   2.971  1.00 20.00     0.176 C 
BRANCH   4   5
HETATM    5  O7  UNL     1     -33.970   6.283   3.254  1.00 20.00    -0.395 OA
HETATM    6  C3  UNL     1     -35.187   6.320   3.985  1.00 20.00     0.201 C 
ENDBRANCH   4   5
ENDBRANCH   3   4
BRANCH   3   7
HETATM    7  C5  UNL     1     -32.905   8.282   0.581  1.00 20.00     0.081 C 
BRANCH   7   8
HETATM    8  S8  UNL     1     -32.398  10.021   0.381  1.00 20.00    -0.181 SA
HETATM    9  H22 UNL     1     -32.208   9.956  -0.942  1.00 20.00     0.101 HD
ENDBRANCH   7   8
ENDBRANCH   3   7
TORSDOF 4
ENDMDL
MODEL 3
REMARK VINA RESULT:      -0.2      2.299      3.426
REMARK  4 active torsions:
REMARK  status: ('A' for Active; 'I' for Inactive)
REMARK    1  A    between atoms: C4_4  and  C6_6 
REMARK    2  A    between atoms: C4_4  and  O7_7 
REMARK    3  A    between atoms: C5_5  and  C6_6 
REMARK    4  A    between atoms: C5_5  and  S8_8 
ROOT
HETATM    1  C1  UNL     1     -34.217   7.507   4.790  1.00 20.00     0.018 C 
HETATM    2  C2  UNL     1     -35.924   6.965   3.056  1.00 20.00     0.018 C 
HETATM    3  C6  UNL     1     -34.621   6.471   3.716  1.00 20.00    -0.018 C 
ENDROOT
BRANCH   3   4
HETATM    4  C4  UNL     1     -33.498   6.371   2.658  1.00 20.00     0.176 C 
BRANCH   4   5
HETATM    5  O7  UNL     1     -32.720   7.563   2.624  1.00 20.00    -0.395 OA
HETATM    6  C3  UNL     1     -31.877   7.600   1.482  1.00 20.00     0.201 C 
ENDBRANCH   4   5
ENDBRANCH   3   4
BRANCH   3   7
HETATM    7  C5  UNL     1     -34.835   5.114   4.436  1.00 20.00     0.081 C 
BRANCH   7   8
HETATM    8  S8  UNL     1     -33.620   3.805   4.076  1.00 20.00    -0.181 SA
HETATM    9  H22 UNL     1     -33.138   4.371   2.963  1.00 20.00     0.101 HD
ENDBRANCH   7   8
ENDBRANCH   3   7
TORSDOF 4
ENDMDL
MODEL 4
REMARK VINA RESULT:      -0.2      2.961      4.423
REMARK  4 active torsions:
REMARK  status: ('A' for Active; 'I' for Inactive)
REMARK    1  A    between atoms: C4_4  and  C6_6 
REMARK    2  A    between atoms: C4_4  and  O7_7 
REMARK    3  A    between atoms: C5_5  and  C6_6 
REMARK    4  A    between atoms: C5_5  and  S8_8 
ROOT
HETATM    1  C1  UNL     1     -33.716   6.298   0.530  1.00 20.00     0.018 C 
HETATM    2  C2  UNL     1     -31.628   5.417   1.568  1.00 20.00     0.018 C 
HETATM    3  C6  UNL     1     -32.814   6.378   1.782  1.00 20.00    -0.018 C 
ENDROOT
BRANCH   3   4
HETATM    4  C4  UNL     1     -32.298   7.826   1.946  1.00 20.00     0.176 C 
BRANCH   4   5
HETATM    5  O7  UNL     1     -31.859   8.356   0.699  1.00 20.00    -0.395 OA
HETATM    6  C3  UNL     1     -32.367   9.664   0.482  1.00 20.00     0.201 C 
ENDBRANCH   4   5
ENDBRANCH   3   4
BRANCH   3   7
HETATM    7  C5  UNL     1     -33.672   5.948   3.002  1.00 20.00     0.081 C 
BRANCH   7   8
HETATM    8  S8  UNL     1     -34.337   7.291   4.039  1.00 20.00    -0.181 SA
HETATM    9  H22 UNL     1     -34.107   6.683   5.209  1.00 20.00     0.101 HD
ENDBRANCH   7   8
ENDBRANCH   3   7
TORSDOF 4
ENDMDL
MODEL 5
REMARK VINA RESULT:      -0.1      0.973      1.424
REMARK  4 active torsions:
REMARK  status: ('A' for Active; 'I' for Inactive)
REMARK    1  A    between atoms: C4_4  and  C6_6 
REMARK    2  A    between atoms: C4_4  and  O7_7 
REMARK    3  A    between atoms: C5_5  and  C6_6 
REMARK    4  A    between atoms: C5_5  and  S8_8 
ROOT
HETATM    1  C1  UNL     1     -34.033   5.966   1.611  1.00 20.00     0.018 C 
HETATM    2  C2  UNL     1     -35.246   6.279   3.767  1.00 20.00     0.018 C 
HETATM    3  C6  UNL     1     -33.846   6.161   3.133  1.00 20.00    -0.018 C 
ENDROOT
BRANCH   3   4
HETATM    4  C4  UNL     1     -33.103   4.937   3.715  1.00 20.00     0.176 C 
BRANCH   4   5
HETATM    5  O7  UNL     1     -34.020   3.924   4.112  1.00 20.00    -0.395 OA
HETATM    6  C3  UNL     1     -33.352   2.827   4.719  1.00 20.00     0.201 C 
ENDBRANCH   4   5
ENDBRANCH   3   4
BRANCH   3   7
HETATM    7  C5  UNL     1     -33.026   7.463   3.337  1.00 20.00     0.081 C 
BRANCH   7   8
HETATM    8  S8  UNL     1     -32.023   8.019   1.921  1.00 20.00    -0.181 SA
HETATM    9  H22 UNL     1     -32.939   8.864   1.430  1.00 20.00     0.101 HD
ENDBRANCH   7   8
ENDBRANCH   3   7
TORSDOF 4
ENDMDL
MODEL 6
REMARK VINA RESULT:      -0.0      1.962      3.234
REMARK  4 active torsions:
REMARK  status: ('A' for Active; 'I' for Inactive)
REMARK    1  A    between atoms: C4_4  and  C6_6 
REMARK    2  A    between atoms: C4_4  and  O7_7 
REMARK    3  A    between atoms: C5_5  and  C6_6 
REMARK    4  A    between atoms: C5_5  and  S8_8 
ROOT
HETATM    1  C1  UNL     1     -31.596   5.229   1.216  1.00 20.00     0.018 C 
HETATM    2  C2  UNL     1     -33.652   6.389   0.412  1.00 20.00     0.018 C 
HETATM    3  C6  UNL     1     -32.691   6.247   1.609  1.00 20.00    -0.018 C 
ENDROOT
BRANCH   3   4
HETATM    4  C4  UNL     1     -33.457   5.719   2.843  1.00 20.00     0.176 C 
BRANCH   4   5
HETATM    5  O7  UNL     1     -34.113   6.779   3.530  1.00 20.00    -0.395 OA
HETATM    6  C3  UNL     1     -35.364   6.362   4.057  1.00 20.00     0.201 C 
ENDBRANCH   4   5
ENDBRANCH   3   4
BRANCH   3   7
HETATM    7  C5  UNL     1     -31.983   7.592   1.923  1.00 20.00     0.081 C 
BRANCH   7   8
HETATM    8  S8  UNL     1     -32.310   8.967   0.773  1.00 20.00    -0.181 SA
HETATM    9  H22 UNL     1     -31.529   8.508  -0.212  1.00 20.00     0.101 HD
ENDBRANCH   7   8
ENDBRANCH   3   7
TORSDOF 4
ENDMDL
MODEL 7
REMARK VINA RESULT:       0.0      3.475      4.872
REMARK  4 active torsions:
REMARK  status: ('A' for Active; 'I' for Inactive)
REMARK    1  A    between atoms: C4_4  and  C6_6 
REMARK    2  A    between atoms: C4_4  and  O7_7 
REMARK    3  A    between atoms: C5_5  and  C6_6 
REMARK    4  A    between atoms: C5_5  and  S8_8 
ROOT
HETATM    1  C1  UNL     1     -32.732   6.092   1.619  1.00 20.00     0.018 C 
HETATM    2  C2  UNL     1     -31.012   7.775   2.273  1.00 20.00     0.018 C 
HETATM    3  C6  UNL     1     -32.529   7.539   2.126  1.00 20.00    -0.018 C 
ENDROOT
BRANCH   3   4
HETATM    4  C4  UNL     1     -33.121   8.527   1.095  1.00 20.00     0.176 C 
BRANCH   4   5
HETATM    5  O7  UNL     1     -32.094   9.286   0.467  1.00 20.00    -0.395 OA
HETATM    6  C3  UNL     1     -32.595  10.510  -0.051  1.00 20.00     0.201 C 
ENDBRANCH   4   5
ENDBRANCH   3   4
BRANCH   3   7
HETATM    7  C5  UNL     1     -33.251   7.658   3.495  1.00 20.00     0.081 C 
BRANCH   7   8
HETATM    8  S8  UNL     1     -34.657   6.532   3.769  1.00 20.00    -0.181 SA
HETATM    9  H22 UNL     1     -35.391   7.403   4.473  1.00 20.00     0.101 HD
ENDBRANCH   7   8
ENDBRANCH   3   7
TORSDOF 4
ENDMDL
MODEL 8
REMARK VINA RESULT:       0.3      2.476      3.298
REMARK  4 active torsions:
REMARK  status: ('A' for Active; 'I' for Inactive)
REMARK    1  A    between atoms: C4_4  and  C6_6 
REMARK    2  A    between atoms: C4_4  and  O7_7 
REMARK    3  A    between atoms: C5_5  and  C6_6 
REMARK    4  A    between atoms: C5_5  and  S8_8 
ROOT
HETATM    1  C1  UNL     1     -32.305   9.114   0.954  1.00 20.00     0.018 C 
HETATM    2  C2  UNL     1     -31.569   8.659   3.293  1.00 20.00     0.018 C 
HETATM    3  C6  UNL     1     -32.303   8.053   2.079  1.00 20.00    -0.018 C 
ENDROOT
BRANCH   3   4
HETATM    4  C4  UNL     1     -33.761   7.711   2.459  1.00 20.00     0.176 C 
BRANCH   4   5
HETATM    5  O7  UNL     1     -33.862   7.359   3.834  1.00 20.00    -0.395 OA
HETATM    6  C3  UNL     1     -34.942   6.465   4.064  1.00 20.00     0.201 C 
ENDBRANCH   4   5
ENDBRANCH   3   4
BRANCH   3   7
HETATM    7  C5  UNL     1     -31.556   6.804   1.538  1.00 20.00     0.081 C 
BRANCH   7   8
HETATM    8  S8  UNL     1     -32.579   5.335   1.198  1.00 20.00    -0.181 SA
HETATM    9  H22 UNL     1     -33.753   5.975   1.239  1.00 20.00     0.101 HD
ENDBRANCH   7   8
ENDBRANCH   3   7
TORSDOF 4
ENDMDL
MODEL 9
REMARK VINA RESULT:       0.8      3.624      4.945
REMARK  4 active torsions:
REMARK  status: ('A' for Active; 'I' for Inactive)
REMARK    1  A    between atoms: C4_4  and  C6_6 
REMARK    2  A    between atoms: C4_4  and  O7_7 
REMARK    3  A    between atoms: C5_5  and  C6_6 
REMARK    4  A    between atoms: C5_5  and  S8_8 
ROOT
HETATM    1  C1  UNL     1     -31.278   8.566   3.293  1.00 20.00     0.018 C 
HETATM    2  C2  UNL     1     -33.558   7.562   3.208  1.00 20.00     0.018 C 
HETATM    3  C6  UNL     1     -32.398   8.089   2.340  1.00 20.00    -0.018 C 
ENDROOT
BRANCH   3   4
HETATM    4  C4  UNL     1     -32.877   9.282   1.482  1.00 20.00     0.176 C 
BRANCH   4   5
HETATM    5  O7  UNL     1     -32.102   9.401   0.295  1.00 20.00    -0.395 OA
HETATM    6  C3  UNL     1     -32.778  10.168  -0.692  1.00 20.00     0.201 C 
ENDBRANCH   4   5
ENDBRANCH   3   4
BRANCH   3   7
HETATM    7  C5  UNL     1     -31.804   6.962   1.453  1.00 20.00     0.081 C 
BRANCH   7   8
HETATM    8  S8  UNL     1     -32.767   5.418   1.354  1.00 20.00    -0.181 SA
HETATM    9  H22 UNL     1     -32.744   5.160   2.667  1.00 20.00     0.101 HD
ENDBRANCH   7   8
ENDBRANCH   3   7
TORSDOF 4
ENDMDL
