MODEL 1
REMARK VINA RESULT:      -0.1      0.000      0.000
REMARK  6 active torsions:
REMARK  status: ('A' for Active; 'I' for Inactive)
REMARK    1  A    between atoms: C4_4  and  C5_5 
REMARK    2  A    between atoms: C5_5  and  S10_10 
REMARK    3  A    between atoms: C6_6  and  C8_8 
REMARK    4  A    between atoms: C6_6  and  S9_9 
REMARK    5  A    between atoms: C7_7  and  C8_8 
REMARK    6  A    between atoms: C7_7  and  S10_10 
ROOT
HETATM    1  C2  UNL     1     -35.915   6.928   3.072  1.00 20.00     0.016 C 
HETATM    2  C3  UNL     1     -34.115   7.564   4.665  1.00 20.00     0.016 C 
HETATM    3  C8  UNL     1     -34.562   6.472   3.666  1.00 20.00    -0.031 C 
ENDROOT
BRANCH   3   4
HETATM    4  C6  UNL     1     -34.803   5.129   4.411  1.00 20.00     0.080 C 
BRANCH   4   5
HETATM    5  S9  UNL     1     -33.610   3.795   4.069  1.00 20.00    -0.181 SA
HETATM    6  H28 UNL     1     -32.591   4.604   3.752  1.00 20.00     0.101 HD
ENDBRANCH   4   5
ENDBRANCH   3   4
BRANCH   3   7
HETATM    7  C7  UNL     1     -33.487   6.391   2.547  1.00 20.00     0.083 C 
BRANCH   7   8
HETATM    8  S10 UNL     1     -32.142   7.618   2.631  1.00 20.00    -0.168 SA
BRANCH   8   9
HETATM    9  C5  UNL     1     -32.163   8.139   0.902  1.00 20.00     0.073 C 
BRANCH   9  10
HETATM   10  C4  UNL     1     -32.327   9.652   0.801  1.00 20.00     0.006 C 
HETATM   11  C1  UNL     1     -32.788  10.062  -0.590  1.00 20.00     0.006 C 
ENDBRANCH   9  10
ENDBRANCH   8   9
ENDBRANCH   7   8
ENDBRANCH   3   7
TORSDOF 6
ENDMDL
MODEL 2
REMARK VINA RESULT:      -0.1      1.810      5.130
REMARK  6 active torsions:
REMARK  status: ('A' for Active; 'I' for Inactive)
REMARK    1  A    between atoms: C4_4  and  C5_5 
REMARK    2  A    between atoms: C5_5  and  S10_10 
REMARK    3  A    between atoms: C6_6  and  C8_8 
REMARK    4  A    between atoms: C6_6  and  S9_9 
REMARK    5  A    between atoms: C7_7  and  C8_8 
REMARK    6  A    between atoms: C7_7  and  S10_10 
ROOT
HETATM    1  C2  UNL     1     -31.985   6.335   1.546  1.00 20.00     0.016 C 
HETATM    2  C3  UNL     1     -31.139   8.285   2.837  1.00 20.00     0.016 C 
HETATM    3  C8  UNL     1     -32.195   7.846   1.796  1.00 20.00    -0.031 C 
ENDROOT
BRANCH   3   4
HETATM    4  C6  UNL     1     -31.959   8.583   0.448  1.00 20.00     0.080 C 
BRANCH   4   5
HETATM    5  S9  UNL     1     -32.633  10.272   0.327  1.00 20.00    -0.181 SA
HETATM    6  H28 UNL     1     -33.829   9.906  -0.152  1.00 20.00     0.101 HD
ENDBRANCH   4   5
ENDBRANCH   3   4
BRANCH   3   7
HETATM    7  C7  UNL     1     -33.598   8.095   2.416  1.00 20.00     0.083 C 
BRANCH   7   8
HETATM    8  S10 UNL     1     -33.859   7.456   4.103  1.00 20.00    -0.168 SA
BRANCH   8   9
HETATM    9  C5  UNL     1     -35.245   6.354   3.748  1.00 20.00     0.073 C 
BRANCH   9  10
HETATM   10  C4  UNL     1     -35.116   5.059   4.542  1.00 20.00     0.006 C 
HETATM   11  C1  UNL     1     -33.992   4.191   3.996  1.00 20.00     0.006 C 
ENDBRANCH   9  10
ENDBRANCH   8   9
ENDBRANCH   7   8
ENDBRANCH   3   7
TORSDOF 6
ENDMDL
MODEL 3
REMARK VINA RESULT:       0.1      2.119      5.202
REMARK  6 active torsions:
REMARK  status: ('A' for Active; 'I' for Inactive)
REMARK    1  A    between atoms: C4_4  and  C5_5 
REMARK    2  A    between atoms: C5_5  and  S10_10 
REMARK    3  A    between atoms: C6_6  and  C8_8 
REMARK    4  A    between atoms: C6_6  and  S9_9 
REMARK    5  A    between atoms: C7_7  and  C8_8 
REMARK    6  A    between atoms: C7_7  and  S10_10 
ROOT
HETATM    1  C2  UNL     1     -33.825   6.860   0.976  1.00 20.00     0.016 C 
HETATM    2  C3  UNL     1     -31.797   5.546   1.563  1.00 20.00     0.016 C 
HETATM    3  C8  UNL     1     -32.613   6.806   1.934  1.00 20.00    -0.031 C 
ENDROOT
BRANCH   3   4
HETATM    4  C6  UNL     1     -31.764   8.086   1.692  1.00 20.00     0.080 C 
BRANCH   4   5
HETATM    5  S9  UNL     1     -32.463   9.305   0.531  1.00 20.00    -0.181 SA
HETATM    6  H28 UNL     1     -32.616  10.280   1.437  1.00 20.00     0.101 HD
ENDBRANCH   4   5
ENDBRANCH   3   4
BRANCH   3   7
HETATM    7  C7  UNL     1     -33.097   6.636   3.401  1.00 20.00     0.083 C 
BRANCH   7   8
HETATM    8  S10 UNL     1     -34.895   6.461   3.641  1.00 20.00    -0.168 SA
BRANCH   8   9
HETATM    9  C5  UNL     1     -34.885   4.876   4.507  1.00 20.00     0.073 C 
BRANCH   9  10
HETATM   10  C4  UNL     1     -33.886   3.921   3.864  1.00 20.00     0.006 C 
HETATM   11  C1  UNL     1     -33.215   3.044   4.910  1.00 20.00     0.006 C 
ENDBRANCH   9  10
ENDBRANCH   8   9
ENDBRANCH   7   8
ENDBRANCH   3   7
TORSDOF 6
ENDMDL
MODEL 4
REMARK VINA RESULT:       0.2      2.018      5.194
REMARK  6 active torsions:
REMARK  status: ('A' for Active; 'I' for Inactive)
REMARK    1  A    between atoms: C4_4  and  C5_5 
REMARK    2  A    between atoms: C5_5  and  S10_10 
REMARK    3  A    between atoms: C6_6  and  C8_8 
REMARK    4  A    between atoms: C6_6  and  S9_9 
REMARK    5  A    between atoms: C7_7  and  C8_8 
REMARK    6  A    between atoms: C7_7  and  S10_10 
ROOT
HETATM    1  C2  UNL     1     -31.322   7.442   1.393  1.00 20.00     0.016 C 
HETATM    2  C3  UNL     1     -31.928   8.412   3.601  1.00 20.00     0.016 C 
HETATM    3  C8  UNL     1     -32.511   7.929   2.253  1.00 20.00    -0.031 C 
ENDROOT
BRANCH   3   4
HETATM    4  C6  UNL     1     -33.181   9.114   1.502  1.00 20.00     0.080 C 
BRANCH   4   5
HETATM    5  S9  UNL     1     -32.262   9.785   0.078  1.00 20.00    -0.181 SA
HETATM    6  H28 UNL     1     -32.905   9.063  -0.849  1.00 20.00     0.101 HD
ENDBRANCH   4   5
ENDBRANCH   3   4
BRANCH   3   7
HETATM    7  C7  UNL     1     -33.473   6.746   2.554  1.00 20.00     0.083 C 
BRANCH   7   8
HETATM    8  S10 UNL     1     -34.575   6.951   3.992  1.00 20.00    -0.168 SA
BRANCH   8   9
HETATM    9  C5  UNL     1     -34.938   5.206   4.286  1.00 20.00     0.073 C 
BRANCH   9  10
HETATM   10  C4  UNL     1     -33.845   4.324   3.691  1.00 20.00     0.006 C 
HETATM   11  C1  UNL     1     -33.464   3.205   4.649  1.00 20.00     0.006 C 
ENDBRANCH   9  10
ENDBRANCH   8   9
ENDBRANCH   7   8
ENDBRANCH   3   7
TORSDOF 6
ENDMDL
MODEL 5
REMARK VINA RESULT:       0.5      1.784      4.743
REMARK  6 active torsions:
REMARK  status: ('A' for Active; 'I' for Inactive)
REMARK    1  A    between atoms: C4_4  and  C5_5 
REMARK    2  A    between atoms: C5_5  and  S10_10 
REMARK    3  A    between atoms: C6_6  and  C8_8 
REMARK    4  A    between atoms: C6_6  and  S9_9 
REMARK    5  A    between atoms: C7_7  and  C8_8 
REMARK    6  A    between atoms: C7_7  and  S10_10 
ROOT
HETATM    1  C2  UNL     1     -31.494   8.699   3.201  1.00 20.00     0.016 C 
HETATM    2  C3  UNL     1     -32.289   9.206   0.900  1.00 20.00     0.016 C 
HETATM    3  C8  UNL     1     -32.249   8.108   1.988  1.00 20.00    -0.031 C 
ENDROOT
BRANCH   3   4
HETATM    4  C6  UNL     1     -31.439   6.881   1.482  1.00 20.00     0.080 C 
BRANCH   4   5
HETATM    5  S9  UNL     1     -32.406   5.390   1.078  1.00 20.00    -0.181 SA
HETATM    6  H28 UNL     1     -33.148   5.966   0.123  1.00 20.00     0.101 HD
ENDBRANCH   4   5
ENDBRANCH   3   4
BRANCH   3   7
HETATM    7  C7  UNL     1     -33.717   7.779   2.379  1.00 20.00     0.083 C 
BRANCH   7   8
HETATM    8  S10 UNL     1     -34.009   7.358   4.128  1.00 20.00    -0.168 SA
BRANCH   8   9
HETATM    9  C5  UNL     1     -35.359   6.183   3.886  1.00 20.00     0.073 C 
BRANCH   9  10
HETATM   10  C4  UNL     1     -35.116   4.914   4.697  1.00 20.00     0.006 C 
HETATM   11  C1  UNL     1     -33.999   4.080   4.087  1.00 20.00     0.006 C 
ENDBRANCH   9  10
ENDBRANCH   8   9
ENDBRANCH   7   8
ENDBRANCH   3   7
TORSDOF 6
ENDMDL
MODEL 6
REMARK VINA RESULT:       0.7      1.885      2.665
REMARK  6 active torsions:
REMARK  status: ('A' for Active; 'I' for Inactive)
REMARK    1  A    between atoms: C4_4  and  C5_5 
REMARK    2  A    between atoms: C5_5  and  S10_10 
REMARK    3  A    between atoms: C6_6  and  C8_8 
REMARK    4  A    between atoms: C6_6  and  S9_9 
REMARK    5  A    between atoms: C7_7  and  C8_8 
REMARK    6  A    between atoms: C7_7  and  S10_10 
ROOT
HETATM    1  C2  UNL     1     -31.569   5.419   1.733  1.00 20.00     0.016 C 
HETATM    2  C3  UNL     1     -33.717   5.376   0.481  1.00 20.00     0.016 C 
HETATM    3  C8  UNL     1     -33.045   5.879   1.779  1.00 20.00    -0.031 C 
ENDROOT
BRANCH   3   4
HETATM    4  C6  UNL     1     -33.706   5.214   3.019  1.00 20.00     0.080 C 
BRANCH   4   5
HETATM    5  S9  UNL     1     -34.896   6.241   3.942  1.00 20.00    -0.181 SA
HETATM    6  H28 UNL     1     -34.295   7.410   3.682  1.00 20.00     0.101 HD
ENDBRANCH   4   5
ENDBRANCH   3   4
BRANCH   3   7
HETATM    7  C7  UNL     1     -33.122   7.431   1.777  1.00 20.00     0.083 C 
BRANCH   7   8
HETATM    8  S10 UNL     1     -31.529   8.317   1.793  1.00 20.00    -0.168 SA
BRANCH   8   9
HETATM    9  C5  UNL     1     -31.474   8.775   0.047  1.00 20.00     0.073 C 
BRANCH   9  10
HETATM   10  C4  UNL     1     -32.627   9.712  -0.297  1.00 20.00     0.006 C 
HETATM   11  C1  UNL     1     -32.736  10.842   0.716  1.00 20.00     0.006 C 
ENDBRANCH   9  10
ENDBRANCH   8   9
ENDBRANCH   7   8
ENDBRANCH   3   7
TORSDOF 6
ENDMDL
MODEL 7
REMARK VINA RESULT:       0.9      2.039      5.119
REMARK  6 active torsions:
REMARK  status: ('A' for Active; 'I' for Inactive)
REMARK    1  A    between atoms: C4_4  and  C5_5 
REMARK    2  A    between atoms: C5_5  and  S10_10 
REMARK    3  A    between atoms: C6_6  and  C8_8 
REMARK    4  A    between atoms: C6_6  and  S9_9 
REMARK    5  A    between atoms: C7_7  and  C8_8 
REMARK    6  A    between atoms: C7_7  and  S10_10 
ROOT
HETATM    1  C2  UNL     1     -32.700   8.051   4.548  1.00 20.00     0.016 C 
HETATM    2  C3  UNL     1     -34.286   8.877   2.820  1.00 20.00     0.016 C 
HETATM    3  C8  UNL     1     -33.189   7.824   3.098  1.00 20.00    -0.031 C 
ENDROOT
BRANCH   3   4
HETATM    4  C6  UNL     1     -31.977   8.049   2.152  1.00 20.00     0.080 C 
BRANCH   4   5
HETATM    5  S9  UNL     1     -32.247   9.191   0.757  1.00 20.00    -0.181 SA
HETATM    6  H28 UNL     1     -33.570   9.306   0.933  1.00 20.00     0.101 HD
ENDBRANCH   4   5
ENDBRANCH   3   4
BRANCH   3   7
HETATM    7  C7  UNL     1     -33.841   6.420   2.967  1.00 20.00     0.083 C 
BRANCH   7   8
HETATM    8  S10 UNL     1     -35.381   6.156   3.907  1.00 20.00    -0.168 SA
BRANCH   8   9
HETATM    9  C5  UNL     1     -34.922   4.609   4.720  1.00 20.00     0.073 C 
BRANCH   9  10
HETATM   10  C4  UNL     1     -33.788   3.924   3.966  1.00 20.00     0.006 C 
HETATM   11  C1  UNL     1     -33.127   2.856   4.824  1.00 20.00     0.006 C 
ENDBRANCH   9  10
ENDBRANCH   8   9
ENDBRANCH   7   8
ENDBRANCH   3   7
TORSDOF 6
ENDMDL
MODEL 8
REMARK VINA RESULT:       1.0      0.757      1.350
REMARK  6 active torsions:
REMARK  status: ('A' for Active; 'I' for Inactive)
REMARK    1  A    between atoms: C4_4  and  C5_5 
REMARK    2  A    between atoms: C5_5  and  S10_10 
REMARK    3  A    between atoms: C6_6  and  C8_8 
REMARK    4  A    between atoms: C6_6  and  S9_9 
REMARK    5  A    between atoms: C7_7  and  C8_8 
REMARK    6  A    between atoms: C7_7  and  S10_10 
ROOT
HETATM    1  C2  UNL     1     -33.801   5.465   2.099  1.00 20.00     0.016 C 
HETATM    2  C3  UNL     1     -35.666   6.762   3.111  1.00 20.00     0.016 C 
HETATM    3  C8  UNL     1     -34.258   6.186   3.388  1.00 20.00    -0.031 C 
ENDROOT
BRANCH   3   4
HETATM    4  C6  UNL     1     -34.326   5.124   4.522  1.00 20.00     0.080 C 
BRANCH   4   5
HETATM    5  S9  UNL     1     -33.525   3.525   4.174  1.00 20.00    -0.181 SA
HETATM    6  H28 UNL     1     -32.468   4.040   3.533  1.00 20.00     0.101 HD
ENDBRANCH   4   5
ENDBRANCH   3   4
BRANCH   3   7
HETATM    7  C7  UNL     1     -33.314   7.381   3.696  1.00 20.00     0.083 C 
BRANCH   7   8
HETATM    8  S10 UNL     1     -31.985   7.691   2.487  1.00 20.00    -0.168 SA
BRANCH   8   9
HETATM    9  C5  UNL     1     -32.748   9.078   1.618  1.00 20.00     0.073 C 
BRANCH   9  10
HETATM   10  C4  UNL     1     -32.026   9.347   0.302  1.00 20.00     0.006 C 
HETATM   11  C1  UNL     1     -32.820  10.307  -0.572  1.00 20.00     0.006 C 
ENDBRANCH   9  10
ENDBRANCH   8   9
ENDBRANCH   7   8
ENDBRANCH   3   7
TORSDOF 6
ENDMDL
MODEL 9
REMARK VINA RESULT:       1.2      1.182      1.607
REMARK  6 active torsions:
REMARK  status: ('A' for Active; 'I' for Inactive)
REMARK    1  A    between atoms: C4_4  and  C5_5 
REMARK    2  A    between atoms: C5_5  and  S10_10 
REMARK    3  A    between atoms: C6_6  and  C8_8 
REMARK    4  A    between atoms: C6_6  and  S9_9 
REMARK    5  A    between atoms: C7_7  and  C8_8 
REMARK    6  A    between atoms: C7_7  and  S10_10 
ROOT
HETATM    1  C2  UNL     1     -33.912   6.076   1.401  1.00 20.00     0.016 C 
HETATM    2  C3  UNL     1     -34.956   6.434   3.630  1.00 20.00     0.016 C 
HETATM    3  C8  UNL     1     -33.603   6.241   2.908  1.00 20.00    -0.031 C 
ENDROOT
BRANCH   3   4
HETATM    4  C6  UNL     1     -32.917   4.933   3.394  1.00 20.00     0.080 C 
BRANCH   4   5
HETATM    5  S9  UNL     1     -33.926   3.841   4.448  1.00 20.00    -0.181 SA
HETATM    6  H28 UNL     1     -35.043   4.576   4.373  1.00 20.00     0.101 HD
ENDBRANCH   4   5
ENDBRANCH   3   4
BRANCH   3   7
HETATM    7  C7  UNL     1     -32.757   7.523   3.143  1.00 20.00     0.083 C 
BRANCH   7   8
HETATM    8  S10 UNL     1     -31.872   8.182   1.692  1.00 20.00    -0.168 SA
BRANCH   8   9
HETATM    9  C5  UNL     1     -32.626   9.822   1.655  1.00 20.00     0.073 C 
BRANCH   9  10
HETATM   10  C4  UNL     1     -32.623  10.380   0.235  1.00 20.00     0.006 C 
HETATM   11  C1  UNL     1     -32.399   9.275  -0.787  1.00 20.00     0.006 C 
ENDBRANCH   9  10
ENDBRANCH   8   9
ENDBRANCH   7   8
ENDBRANCH   3   7
TORSDOF 6
ENDMDL
