MODEL 1
REMARK VINA RESULT:      -1.2      0.000      0.000
REMARK  5 active torsions:
REMARK  status: ('A' for Active; 'I' for Inactive)
REMARK    1  A    between atoms: C4_4  and  C6_6 
REMARK    2  A    between atoms: C4_4  and  O8_8 
REMARK    3  A    between atoms: C5_5  and  C6_6 
REMARK    4  A    between atoms: C5_5  and  S9_9 
REMARK    5  A    between atoms: C7_7  and  O8_8 
ROOT
HETATM    1  C4  UNL     1     -32.758   7.964   2.526  1.00 20.00     0.173 C 
ENDROOT
BRANCH   1   2
HETATM    2  C6  UNL     1     -31.679   7.503   1.537  1.00 20.00     0.014 C 
HETATM    3  C1  UNL     1     -31.905   6.050   1.104  1.00 20.00     0.012 C 
BRANCH   2   4
HETATM    4  C5  UNL     1     -31.541   8.464   0.343  1.00 20.00     0.077 C 
BRANCH   4   5
HETATM    5  S9  UNL     1     -32.560   9.970   0.425  1.00 20.00    -0.182 SA
HETATM    6  H25 UNL     1     -31.567  10.823   0.138  1.00 20.00     0.101 HD
ENDBRANCH   4   5
ENDBRANCH   2   4
ENDBRANCH   1   2
BRANCH   1   7
HETATM    7  O8  UNL     1     -33.640   6.884   2.813  1.00 20.00    -0.386 OA
BRANCH   7   8
HETATM    8  C7  UNL     1     -34.568   7.229   3.832  1.00 20.00     0.113 C 
HETATM    9  C2  UNL     1     -35.301   5.976   4.285  1.00 20.00     0.039 C 
HETATM   10  C3  UNL     1     -33.826   7.897   4.979  1.00 20.00     0.039 C 
ENDBRANCH   7   8
ENDBRANCH   1   7
TORSDOF 5
ENDMDL
MODEL 2
REMARK VINA RESULT:      -1.1      1.200      1.940
REMARK  5 active torsions:
REMARK  status: ('A' for Active; 'I' for Inactive)
REMARK    1  A    between atoms: C4_4  and  C6_6 
REMARK    2  A    between atoms: C4_4  and  O8_8 
REMARK    3  A    between atoms: C5_5  and  C6_6 
REMARK    4  A    between atoms: C5_5  and  S9_9 
REMARK    5  A    between atoms: C7_7  and  O8_8 
ROOT
HETATM    1  C4  UNL     1     -32.328   6.406   1.870  1.00 20.00     0.173 C 
ENDROOT
BRANCH   1   2
HETATM    2  C6  UNL     1     -32.406   7.938   1.886  1.00 20.00     0.014 C 
HETATM    3  C1  UNL     1     -31.797   8.514   3.169  1.00 20.00     0.012 C 
BRANCH   2   4
HETATM    4  C5  UNL     1     -31.807   8.561   0.612  1.00 20.00     0.077 C 
BRANCH   4   5
HETATM    5  S9  UNL     1     -32.555  10.132   0.078  1.00 20.00    -0.182 SA
HETATM    6  H25 UNL     1     -33.399   9.587  -0.808  1.00 20.00     0.101 HD
ENDBRANCH   4   5
ENDBRANCH   2   4
ENDBRANCH   1   2
BRANCH   1   7
HETATM    7  O8  UNL     1     -33.616   5.857   2.123  1.00 20.00    -0.386 OA
BRANCH   7   8
HETATM    8  C7  UNL     1     -33.863   5.732   3.517  1.00 20.00     0.113 C 
HETATM    9  C2  UNL     1     -35.123   6.504   3.873  1.00 20.00     0.039 C 
HETATM   10  C3  UNL     1     -33.980   4.258   3.874  1.00 20.00     0.039 C 
ENDBRANCH   7   8
ENDBRANCH   1   7
TORSDOF 5
ENDMDL
MODEL 3
REMARK VINA RESULT:      -0.9      2.984      4.701
REMARK  5 active torsions:
REMARK  status: ('A' for Active; 'I' for Inactive)
REMARK    1  A    between atoms: C4_4  and  C6_6 
REMARK    2  A    between atoms: C4_4  and  O8_8 
REMARK    3  A    between atoms: C5_5  and  C6_6 
REMARK    4  A    between atoms: C5_5  and  S9_9 
REMARK    5  A    between atoms: C7_7  and  O8_8 
ROOT
HETATM    1  C4  UNL     1     -33.412   6.190   2.544  1.00 20.00     0.173 C 
ENDROOT
BRANCH   1   2
HETATM    2  C6  UNL     1     -34.066   5.639   3.818  1.00 20.00     0.014 C 
HETATM    3  C1  UNL     1     -35.406   6.327   4.099  1.00 20.00     0.012 C 
BRANCH   2   4
HETATM    4  C5  UNL     1     -34.179   4.104   3.792  1.00 20.00     0.077 C 
BRANCH   4   5
HETATM    5  S9  UNL     1     -33.052   3.215   4.912  1.00 20.00    -0.182 SA
HETATM    6  H25 UNL     1     -33.148   2.031   4.292  1.00 20.00     0.101 HD
ENDBRANCH   4   5
ENDBRANCH   2   4
ENDBRANCH   1   2
BRANCH   1   7
HETATM    7  O8  UNL     1     -33.106   7.569   2.719  1.00 20.00    -0.386 OA
BRANCH   7   8
HETATM    8  C7  UNL     1     -31.999   7.960   1.919  1.00 20.00     0.113 C 
HETATM    9  C2  UNL     1     -31.500   6.759   1.132  1.00 20.00     0.039 C 
HETATM   10  C3  UNL     1     -32.420   9.102   1.006  1.00 20.00     0.039 C 
ENDBRANCH   7   8
ENDBRANCH   1   7
TORSDOF 5
ENDMDL
MODEL 4
REMARK VINA RESULT:      -0.9      2.494      4.369
REMARK  5 active torsions:
REMARK  status: ('A' for Active; 'I' for Inactive)
REMARK    1  A    between atoms: C4_4  and  C6_6 
REMARK    2  A    between atoms: C4_4  and  O8_8 
REMARK    3  A    between atoms: C5_5  and  C6_6 
REMARK    4  A    between atoms: C5_5  and  S9_9 
REMARK    5  A    between atoms: C7_7  and  O8_8 
ROOT
HETATM    1  C4  UNL     1     -31.813   7.710   1.893  1.00 20.00     0.173 C 
ENDROOT
BRANCH   1   2
HETATM    2  C6  UNL     1     -33.112   6.925   2.122  1.00 20.00     0.014 C 
HETATM    3  C1  UNL     1     -32.944   5.449   1.744  1.00 20.00     0.012 C 
BRANCH   2   4
HETATM    4  C5  UNL     1     -33.659   7.117   3.548  1.00 20.00     0.077 C 
BRANCH   4   5
HETATM    5  S9  UNL     1     -35.165   6.175   3.944  1.00 20.00    -0.182 SA
HETATM    6  H25 UNL     1     -35.692   7.097   4.761  1.00 20.00     0.101 HD
ENDBRANCH   4   5
ENDBRANCH   2   4
ENDBRANCH   1   2
BRANCH   1   7
HETATM    7  O8  UNL     1     -32.114   9.085   1.680  1.00 20.00    -0.386 OA
BRANCH   7   8
HETATM    8  C7  UNL     1     -32.390   9.351   0.312  1.00 20.00     0.113 C 
HETATM    9  C2  UNL     1     -32.730  10.823   0.147  1.00 20.00     0.039 C 
HETATM   10  C3  UNL     1     -31.187   8.949  -0.528  1.00 20.00     0.039 C 
ENDBRANCH   7   8
ENDBRANCH   1   7
TORSDOF 5
ENDMDL
MODEL 5
REMARK VINA RESULT:      -0.8      1.752      2.582
REMARK  5 active torsions:
REMARK  status: ('A' for Active; 'I' for Inactive)
REMARK    1  A    between atoms: C4_4  and  C6_6 
REMARK    2  A    between atoms: C4_4  and  O8_8 
REMARK    3  A    between atoms: C5_5  and  C6_6 
REMARK    4  A    between atoms: C5_5  and  S9_9 
REMARK    5  A    between atoms: C7_7  and  O8_8 
ROOT
HETATM    1  C4  UNL     1     -33.235   5.782   2.244  1.00 20.00     0.173 C 
ENDROOT
BRANCH   1   2
HETATM    2  C6  UNL     1     -33.259   7.314   2.329  1.00 20.00     0.014 C 
HETATM    3  C1  UNL     1     -33.560   7.789   3.755  1.00 20.00     0.012 C 
BRANCH   2   4
HETATM    4  C5  UNL     1     -31.981   7.945   1.749  1.00 20.00     0.077 C 
BRANCH   4   5
HETATM    5  S9  UNL     1     -32.242   9.320   0.585  1.00 20.00    -0.182 SA
HETATM    6  H25 UNL     1     -32.229   8.566  -0.522  1.00 20.00     0.101 HD
ENDBRANCH   4   5
ENDBRANCH   2   4
ENDBRANCH   1   2
BRANCH   1   7
HETATM    7  O8  UNL     1     -33.080   5.231   3.547  1.00 20.00    -0.386 OA
BRANCH   7   8
HETATM    8  C7  UNL     1     -34.058   4.236   3.810  1.00 20.00     0.113 C 
HETATM    9  C2  UNL     1     -33.424   3.109   4.610  1.00 20.00     0.039 C 
HETATM   10  C3  UNL     1     -35.229   4.867   4.550  1.00 20.00     0.039 C 
ENDBRANCH   7   8
ENDBRANCH   1   7
TORSDOF 5
ENDMDL
MODEL 6
REMARK VINA RESULT:      -0.8      2.492      4.379
REMARK  5 active torsions:
REMARK  status: ('A' for Active; 'I' for Inactive)
REMARK    1  A    between atoms: C4_4  and  C6_6 
REMARK    2  A    between atoms: C4_4  and  O8_8 
REMARK    3  A    between atoms: C5_5  and  C6_6 
REMARK    4  A    between atoms: C5_5  and  S9_9 
REMARK    5  A    between atoms: C7_7  and  O8_8 
ROOT
HETATM    1  C4  UNL     1     -32.030   7.946   1.847  1.00 20.00     0.173 C 
ENDROOT
BRANCH   1   2
HETATM    2  C6  UNL     1     -33.202   7.000   2.140  1.00 20.00     0.014 C 
HETATM    3  C1  UNL     1     -32.850   5.551   1.787  1.00 20.00     0.012 C 
BRANCH   2   4
HETATM    4  C5  UNL     1     -33.720   7.152   3.582  1.00 20.00     0.077 C 
BRANCH   4   5
HETATM    5  S9  UNL     1     -35.169   6.136   4.007  1.00 20.00    -0.182 SA
HETATM    6  H25 UNL     1     -35.346   6.654   5.229  1.00 20.00     0.101 HD
ENDBRANCH   4   5
ENDBRANCH   2   4
ENDBRANCH   1   2
BRANCH   1   7
HETATM    7  O8  UNL     1     -32.522   9.256   1.591  1.00 20.00    -0.386 OA
BRANCH   7   8
HETATM    8  C7  UNL     1     -31.960   9.800   0.405  1.00 20.00     0.113 C 
HETATM    9  C2  UNL     1     -31.136   8.731  -0.294  1.00 20.00     0.039 C 
HETATM   10  C3  UNL     1     -33.077  10.328  -0.482  1.00 20.00     0.039 C 
ENDBRANCH   7   8
ENDBRANCH   1   7
TORSDOF 5
ENDMDL
MODEL 7
REMARK VINA RESULT:      -0.7      1.210      1.816
REMARK  5 active torsions:
REMARK  status: ('A' for Active; 'I' for Inactive)
REMARK    1  A    between atoms: C4_4  and  C6_6 
REMARK    2  A    between atoms: C4_4  and  O8_8 
REMARK    3  A    between atoms: C5_5  and  C6_6 
REMARK    4  A    between atoms: C5_5  and  S9_9 
REMARK    5  A    between atoms: C7_7  and  O8_8 
ROOT
HETATM    1  C4  UNL     1     -32.830   6.461   1.785  1.00 20.00     0.173 C 
ENDROOT
BRANCH   1   2
HETATM    2  C6  UNL     1     -32.598   7.976   1.851  1.00 20.00     0.014 C 
HETATM    3  C1  UNL     1     -31.933   8.381   3.171  1.00 20.00     0.012 C 
BRANCH   2   4
HETATM    4  C5  UNL     1     -31.840   8.499   0.617  1.00 20.00     0.077 C 
BRANCH   4   5
HETATM    5  S9  UNL     1     -32.476  10.047  -0.098  1.00 20.00    -0.182 SA
HETATM    6  H25 UNL     1     -31.276  10.598  -0.321  1.00 20.00     0.101 HD
ENDBRANCH   4   5
ENDBRANCH   2   4
ENDBRANCH   1   2
BRANCH   1   7
HETATM    7  O8  UNL     1     -32.931   5.933   3.103  1.00 20.00    -0.386 OA
BRANCH   7   8
HETATM    8  C7  UNL     1     -34.204   5.347   3.332  1.00 20.00     0.113 C 
HETATM    9  C2  UNL     1     -34.032   4.076   4.149  1.00 20.00     0.039 C 
HETATM   10  C3  UNL     1     -35.100   6.356   4.035  1.00 20.00     0.039 C 
ENDBRANCH   7   8
ENDBRANCH   1   7
TORSDOF 5
ENDMDL
MODEL 8
REMARK VINA RESULT:      -0.2      2.797      3.787
REMARK  5 active torsions:
REMARK  status: ('A' for Active; 'I' for Inactive)
REMARK    1  A    between atoms: C4_4  and  C6_6 
REMARK    2  A    between atoms: C4_4  and  O8_8 
REMARK    3  A    between atoms: C5_5  and  C6_6 
REMARK    4  A    between atoms: C5_5  and  S9_9 
REMARK    5  A    between atoms: C7_7  and  O8_8 
ROOT
HETATM    1  C4  UNL     1     -34.585   5.133   4.050  1.00 20.00     0.173 C 
ENDROOT
BRANCH   1   2
HETATM    2  C6  UNL     1     -34.273   6.420   3.276  1.00 20.00     0.014 C 
HETATM    3  C1  UNL     1     -34.027   7.597   4.227  1.00 20.00     0.012 C 
BRANCH   2   4
HETATM    4  C5  UNL     1     -33.130   6.223   2.264  1.00 20.00     0.077 C 
BRANCH   4   5
HETATM    5  S9  UNL     1     -32.142   7.707   1.897  1.00 20.00    -0.182 SA
HETATM    6  H25 UNL     1     -31.798   7.339   0.656  1.00 20.00     0.101 HD
ENDBRANCH   4   5
ENDBRANCH   2   4
ENDBRANCH   1   2
BRANCH   1   7
HETATM    7  O8  UNL     1     -33.515   4.207   3.895  1.00 20.00    -0.386 OA
BRANCH   7   8
HETATM    8  C7  UNL     1     -33.516   3.233   4.929  1.00 20.00     0.113 C 
HETATM    9  C2  UNL     1     -33.300   1.857   4.320  1.00 20.00     0.039 C 
HETATM   10  C3  UNL     1     -32.438   3.580   5.944  1.00 20.00     0.039 C 
ENDBRANCH   7   8
ENDBRANCH   1   7
TORSDOF 5
ENDMDL
MODEL 9
REMARK VINA RESULT:      -0.0      2.367      4.126
REMARK  5 active torsions:
REMARK  status: ('A' for Active; 'I' for Inactive)
REMARK    1  A    between atoms: C4_4  and  C6_6 
REMARK    2  A    between atoms: C4_4  and  O8_8 
REMARK    3  A    between atoms: C5_5  and  C6_6 
REMARK    4  A    between atoms: C5_5  and  S9_9 
REMARK    5  A    between atoms: C7_7  and  O8_8 
ROOT
HETATM    1  C4  UNL     1     -32.325   8.435   2.459  1.00 20.00     0.173 C 
ENDROOT
BRANCH   1   2
HETATM    2  C6  UNL     1     -32.964   7.108   2.892  1.00 20.00     0.014 C 
HETATM    3  C1  UNL     1     -34.152   7.343   3.831  1.00 20.00     0.012 C 
BRANCH   2   4
HETATM    4  C5  UNL     1     -33.323   6.221   1.687  1.00 20.00     0.077 C 
BRANCH   4   5
HETATM    5  S9  UNL     1     -32.060   5.002   1.204  1.00 20.00    -0.182 SA
HETATM    6  H25 UNL     1     -31.750   5.582   0.037  1.00 20.00     0.101 HD
ENDBRANCH   4   5
ENDBRANCH   2   4
ENDBRANCH   1   2
BRANCH   1   7
HETATM    7  O8  UNL     1     -31.990   8.379   1.077  1.00 20.00    -0.386 OA
BRANCH   7   8
HETATM    8  C7  UNL     1     -32.054   9.663   0.474  1.00 20.00     0.113 C 
HETATM    9  C2  UNL     1     -32.655   9.534  -0.916  1.00 20.00     0.039 C 
HETATM   10  C3  UNL     1     -32.870  10.592   1.361  1.00 20.00     0.039 C 
ENDBRANCH   7   8
ENDBRANCH   1   7
TORSDOF 5
ENDMDL
