MODEL 1
REMARK VINA RESULT:      -1.1      0.000      0.000
REMARK  4 active torsions:
REMARK  status: ('A' for Active; 'I' for Inactive)
REMARK    1  A    between atoms: C4_4  and  O8_8 
REMARK    2  A    between atoms: C5_5  and  C6_6 
REMARK    3  A    between atoms: C5_5  and  O8_8 
REMARK    4  A    between atoms: C6_6  and  S9_9 
ROOT
HETATM    1  C1  UNL     1     -35.058   6.552   3.621  1.00 20.00     0.060 C 
HETATM    2  C2  UNL     1     -35.429   5.471   4.610  1.00 20.00     0.170 C 
HETATM    3  C3  UNL     1     -33.608   4.726   3.365  1.00 20.00     0.199 C 
HETATM    4  C4  UNL     1     -33.606   6.240   3.356  1.00 20.00     0.147 C 
HETATM    5  O7  UNL     1     -34.634   4.322   4.283  1.00 20.00    -0.389 OA
ENDROOT
BRANCH   4   6
HETATM    6  O8  UNL     1     -33.172   6.768   2.121  1.00 20.00    -0.383 OA
BRANCH   6   7
HETATM    7  C5  UNL     1     -32.421   7.960   2.300  1.00 20.00     0.178 C 
BRANCH   7   8
HETATM    8  C6  UNL     1     -31.755   8.358   0.993  1.00 20.00     0.097 C 
BRANCH   8   9
HETATM    9  S9  UNL     1     -32.495   9.869   0.302  1.00 20.00    -0.180 SA
HETATM   10  H21 UNL     1     -33.664   9.758   0.947  1.00 20.00     0.101 HD
ENDBRANCH   8   9
ENDBRANCH   7   8
ENDBRANCH   6   7
ENDBRANCH   4   6
TORSDOF 4
ENDMDL
MODEL 2
REMARK VINA RESULT:      -1.1      1.233      1.593
REMARK  4 active torsions:
REMARK  status: ('A' for Active; 'I' for Inactive)
REMARK    1  A    between atoms: C4_4  and  O8_8 
REMARK    2  A    between atoms: C5_5  and  C6_6 
REMARK    3  A    between atoms: C5_5  and  O8_8 
REMARK    4  A    between atoms: C6_6  and  S9_9 
ROOT
HETATM    1  C1  UNL     1     -33.861   5.374   3.163  1.00 20.00     0.060 C 
HETATM    2  C2  UNL     1     -34.975   5.716   4.124  1.00 20.00     0.170 C 
HETATM    3  C3  UNL     1     -33.833   7.677   3.604  1.00 20.00     0.199 C 
HETATM    4  C4  UNL     1     -33.637   6.694   2.468  1.00 20.00     0.147 C 
HETATM    5  O7  UNL     1     -34.792   7.091   4.494  1.00 20.00    -0.389 OA
ENDROOT
BRANCH   4   6
HETATM    6  O8  UNL     1     -32.346   6.778   1.903  1.00 20.00    -0.383 OA
BRANCH   6   7
HETATM    7  C5  UNL     1     -31.877   8.118   1.878  1.00 20.00     0.178 C 
BRANCH   7   8
HETATM    8  C6  UNL     1     -31.798   8.617   0.443  1.00 20.00     0.097 C 
BRANCH   8   9
HETATM    9  S9  UNL     1     -32.592  10.243   0.261  1.00 20.00    -0.180 SA
HETATM   10  H21 UNL     1     -33.596  10.003   1.113  1.00 20.00     0.101 HD
ENDBRANCH   8   9
ENDBRANCH   7   8
ENDBRANCH   6   7
ENDBRANCH   4   6
TORSDOF 4
ENDMDL
MODEL 3
REMARK VINA RESULT:      -0.9      0.757      1.405
REMARK  4 active torsions:
REMARK  status: ('A' for Active; 'I' for Inactive)
REMARK    1  A    between atoms: C4_4  and  O8_8 
REMARK    2  A    between atoms: C5_5  and  C6_6 
REMARK    3  A    between atoms: C5_5  and  O8_8 
REMARK    4  A    between atoms: C6_6  and  S9_9 
ROOT
HETATM    1  C1  UNL     1     -33.207   5.033   3.464  1.00 20.00     0.060 C 
HETATM    2  C2  UNL     1     -34.248   4.117   4.064  1.00 20.00     0.170 C 
HETATM    3  C3  UNL     1     -35.102   6.283   4.050  1.00 20.00     0.199 C 
HETATM    4  C4  UNL     1     -34.054   6.175   2.962  1.00 20.00     0.147 C 
HETATM    5  O7  UNL     1     -35.298   4.959   4.566  1.00 20.00    -0.389 OA
ENDROOT
BRANCH   4   6
HETATM    6  O8  UNL     1     -33.304   7.363   2.821  1.00 20.00    -0.383 OA
BRANCH   6   7
HETATM    7  C5  UNL     1     -32.420   7.291   1.712  1.00 20.00     0.178 C 
BRANCH   7   8
HETATM    8  C6  UNL     1     -31.678   8.608   1.549  1.00 20.00     0.097 C 
BRANCH   8   9
HETATM    9  S9  UNL     1     -32.476   9.671   0.308  1.00 20.00    -0.180 SA
HETATM   10  H21 UNL     1     -33.733   9.332   0.623  1.00 20.00     0.101 HD
ENDBRANCH   8   9
ENDBRANCH   7   8
ENDBRANCH   6   7
ENDBRANCH   4   6
TORSDOF 4
ENDMDL
MODEL 4
REMARK VINA RESULT:      -0.9      1.020      1.102
REMARK  4 active torsions:
REMARK  status: ('A' for Active; 'I' for Inactive)
REMARK    1  A    between atoms: C4_4  and  O8_8 
REMARK    2  A    between atoms: C5_5  and  C6_6 
REMARK    3  A    between atoms: C5_5  and  O8_8 
REMARK    4  A    between atoms: C6_6  and  S9_9 
ROOT
HETATM    1  C1  UNL     1     -34.635   7.572   3.816  1.00 20.00     0.060 C 
HETATM    2  C2  UNL     1     -35.140   6.203   4.209  1.00 20.00     0.170 C 
HETATM    3  C3  UNL     1     -33.300   5.927   2.809  1.00 20.00     0.199 C 
HETATM    4  C4  UNL     1     -33.194   7.282   3.477  1.00 20.00     0.147 C 
HETATM    5  O7  UNL     1     -34.406   5.251   3.423  1.00 20.00    -0.389 OA
ENDROOT
BRANCH   4   6
HETATM    6  O8  UNL     1     -32.649   8.261   2.618  1.00 20.00    -0.383 OA
BRANCH   6   7
HETATM    7  C5  UNL     1     -31.987   7.670   1.510  1.00 20.00     0.178 C 
BRANCH   7   8
HETATM    8  C6  UNL     1     -31.403   8.751   0.614  1.00 20.00     0.097 C 
BRANCH   8   9
HETATM    9  S9  UNL     1     -32.616  10.064   0.280  1.00 20.00    -0.180 SA
HETATM   10  H21 UNL     1     -33.349   9.358  -0.590  1.00 20.00     0.101 HD
ENDBRANCH   8   9
ENDBRANCH   7   8
ENDBRANCH   6   7
ENDBRANCH   4   6
TORSDOF 4
ENDMDL
MODEL 5
REMARK VINA RESULT:      -0.5      3.083      4.651
REMARK  4 active torsions:
REMARK  status: ('A' for Active; 'I' for Inactive)
REMARK    1  A    between atoms: C4_4  and  O8_8 
REMARK    2  A    between atoms: C5_5  and  C6_6 
REMARK    3  A    between atoms: C5_5  and  O8_8 
REMARK    4  A    between atoms: C6_6  and  S9_9 
ROOT
HETATM    1  C1  UNL     1     -33.176   6.313   1.752  1.00 20.00     0.060 C 
HETATM    2  C2  UNL     1     -32.001   7.245   1.563  1.00 20.00     0.170 C 
HETATM    3  C3  UNL     1     -33.186   7.938   3.444  1.00 20.00     0.199 C 
HETATM    4  C4  UNL     1     -33.452   6.463   3.228  1.00 20.00     0.147 C 
HETATM    5  O7  UNL     1     -32.166   8.313   2.508  1.00 20.00    -0.389 OA
ENDROOT
BRANCH   4   6
HETATM    6  O8  UNL     1     -34.779   6.105   3.552  1.00 20.00    -0.383 OA
BRANCH   6   7
HETATM    7  C5  UNL     1     -34.817   4.958   4.389  1.00 20.00     0.178 C 
BRANCH   7   8
HETATM    8  C6  UNL     1     -33.932   3.863   3.815  1.00 20.00     0.097 C 
BRANCH   8   9
HETATM    9  S9  UNL     1     -33.000   3.009   5.122  1.00 20.00    -0.180 SA
HETATM   10  H21 UNL     1     -32.641   1.959   4.373  1.00 20.00     0.101 HD
ENDBRANCH   8   9
ENDBRANCH   7   8
ENDBRANCH   6   7
ENDBRANCH   4   6
TORSDOF 4
ENDMDL
MODEL 6
REMARK VINA RESULT:      -0.4      2.814      4.464
REMARK  4 active torsions:
REMARK  status: ('A' for Active; 'I' for Inactive)
REMARK    1  A    between atoms: C4_4  and  O8_8 
REMARK    2  A    between atoms: C5_5  and  C6_6 
REMARK    3  A    between atoms: C5_5  and  O8_8 
REMARK    4  A    between atoms: C6_6  and  S9_9 
ROOT
HETATM    1  C1  UNL     1     -32.331   8.242   2.850  1.00 20.00     0.060 C 
HETATM    2  C2  UNL     1     -31.606   8.029   1.541  1.00 20.00     0.170 C 
HETATM    3  C3  UNL     1     -32.916   6.151   1.963  1.00 20.00     0.199 C 
HETATM    4  C4  UNL     1     -33.523   7.331   2.692  1.00 20.00     0.147 C 
HETATM    5  O7  UNL     1     -31.858   6.672   1.146  1.00 20.00    -0.389 OA
ENDROOT
BRANCH   4   6
HETATM    6  O8  UNL     1     -34.073   6.965   3.940  1.00 20.00    -0.383 OA
BRANCH   6   7
HETATM    7  C5  UNL     1     -35.278   6.231   3.781  1.00 20.00     0.178 C 
BRANCH   7   8
HETATM    8  C6  UNL     1     -35.280   5.024   4.706  1.00 20.00     0.097 C 
BRANCH   8   9
HETATM    9  S9  UNL     1     -33.896   3.904   4.338  1.00 20.00    -0.180 SA
HETATM   10  H21 UNL     1     -34.552   2.773   4.628  1.00 20.00     0.101 HD
ENDBRANCH   8   9
ENDBRANCH   7   8
ENDBRANCH   6   7
ENDBRANCH   4   6
TORSDOF 4
ENDMDL
MODEL 7
REMARK VINA RESULT:      -0.2      3.110      4.635
REMARK  4 active torsions:
REMARK  status: ('A' for Active; 'I' for Inactive)
REMARK    1  A    between atoms: C4_4  and  O8_8 
REMARK    2  A    between atoms: C5_5  and  C6_6 
REMARK    3  A    between atoms: C5_5  and  O8_8 
REMARK    4  A    between atoms: C6_6  and  S9_9 
ROOT
HETATM    1  C1  UNL     1     -32.736   7.999   3.164  1.00 20.00     0.060 C 
HETATM    2  C2  UNL     1     -31.835   8.229   1.973  1.00 20.00     0.170 C 
HETATM    3  C3  UNL     1     -32.781   6.111   1.773  1.00 20.00     0.199 C 
HETATM    4  C4  UNL     1     -33.694   6.964   2.629  1.00 20.00     0.147 C 
HETATM    5  O7  UNL     1     -31.762   6.982   1.264  1.00 20.00    -0.389 OA
ENDROOT
BRANCH   4   6
HETATM    6  O8  UNL     1     -34.300   6.224   3.667  1.00 20.00    -0.383 OA
BRANCH   6   7
HETATM    7  C5  UNL     1     -34.207   4.827   3.433  1.00 20.00     0.178 C 
BRANCH   7   8
HETATM    8  C6  UNL     1     -34.186   4.076   4.755  1.00 20.00     0.097 C 
BRANCH   8   9
HETATM    9  S9  UNL     1     -32.969   2.724   4.733  1.00 20.00    -0.180 SA
HETATM   10  H21 UNL     1     -33.528   2.018   5.723  1.00 20.00     0.101 HD
ENDBRANCH   8   9
ENDBRANCH   7   8
ENDBRANCH   6   7
ENDBRANCH   4   6
TORSDOF 4
ENDMDL
MODEL 8
REMARK VINA RESULT:       0.3      2.985      5.133
REMARK  4 active torsions:
REMARK  status: ('A' for Active; 'I' for Inactive)
REMARK    1  A    between atoms: C4_4  and  O8_8 
REMARK    2  A    between atoms: C5_5  and  C6_6 
REMARK    3  A    between atoms: C5_5  and  O8_8 
REMARK    4  A    between atoms: C6_6  and  S9_9 
ROOT
HETATM    1  C1  UNL     1     -32.883  10.097   1.333  1.00 20.00     0.060 C 
HETATM    2  C2  UNL     1     -32.729  10.583  -0.089  1.00 20.00     0.170 C 
HETATM    3  C3  UNL     1     -31.437   8.663   0.171  1.00 20.00     0.199 C 
HETATM    4  C4  UNL     1     -32.551   8.632   1.196  1.00 20.00     0.147 C 
HETATM    5  O7  UNL     1     -31.700   9.780  -0.690  1.00 20.00    -0.389 OA
ENDROOT
BRANCH   4   6
HETATM    6  O8  UNL     1     -32.135   8.071   2.422  1.00 20.00    -0.383 OA
BRANCH   6   7
HETATM    7  C5  UNL     1     -32.951   6.969   2.793  1.00 20.00     0.178 C 
BRANCH   7   8
HETATM    8  C6  UNL     1     -34.012   7.416   3.786  1.00 20.00     0.097 C 
BRANCH   8   9
HETATM    9  S9  UNL     1     -35.247   6.111   4.071  1.00 20.00    -0.180 SA
HETATM   10  H21 UNL     1     -34.421   5.277   4.714  1.00 20.00     0.101 HD
ENDBRANCH   8   9
ENDBRANCH   7   8
ENDBRANCH   6   7
ENDBRANCH   4   6
TORSDOF 4
ENDMDL
MODEL 9
REMARK VINA RESULT:       0.4      2.826      5.094
REMARK  4 active torsions:
REMARK  status: ('A' for Active; 'I' for Inactive)
REMARK    1  A    between atoms: C4_4  and  O8_8 
REMARK    2  A    between atoms: C5_5  and  C6_6 
REMARK    3  A    between atoms: C5_5  and  O8_8 
REMARK    4  A    between atoms: C6_6  and  S9_9 
ROOT
HETATM    1  C1  UNL     1     -32.285   8.781  -0.380  1.00 20.00     0.060 C 
HETATM    2  C2  UNL     1     -32.583  10.249  -0.576  1.00 20.00     0.170 C 
HETATM    3  C3  UNL     1     -32.703   9.778   1.701  1.00 20.00     0.199 C 
HETATM    4  C4  UNL     1     -31.799   8.754   1.048  1.00 20.00     0.147 C 
HETATM    5  O7  UNL     1     -33.007  10.758   0.698  1.00 20.00    -0.389 OA
ENDROOT
BRANCH   4   6
HETATM    6  O8  UNL     1     -31.936   7.473   1.625  1.00 20.00    -0.383 OA
BRANCH   6   7
HETATM    7  C5  UNL     1     -32.799   7.501   2.753  1.00 20.00     0.178 C 
BRANCH   7   8
HETATM    8  C6  UNL     1     -33.609   6.216   2.823  1.00 20.00     0.097 C 
BRANCH   8   9
HETATM    9  S9  UNL     1     -35.019   6.380   3.960  1.00 20.00    -0.180 SA
HETATM   10  H21 UNL     1     -34.704   7.607   4.394  1.00 20.00     0.101 HD
ENDBRANCH   8   9
ENDBRANCH   7   8
ENDBRANCH   6   7
ENDBRANCH   4   6
TORSDOF 4
ENDMDL
