MODEL 1
REMARK VINA RESULT:      -1.4      0.000      0.000
REMARK  5 active torsions:
REMARK  status: ('A' for Active; 'I' for Inactive)
REMARK    1  A    between atoms: C1_1  and  C5_5 
REMARK    2  A    between atoms: C2_2  and  C6_6 
REMARK    3  A    between atoms: C5_5  and  O8_8 
REMARK    4  A    between atoms: C6_6  and  S9_9 
REMARK    5  A    between atoms: C7_7  and  O8_8 
ROOT
HETATM    1  C1  UNL     1     -32.760   6.790   1.862  1.00 20.00    -0.004 C 
HETATM    2  C2  UNL     1     -32.334   8.062   1.900  1.00 20.00    -0.019 C 
ENDROOT
BRANCH   1   3
HETATM    3  C5  UNL     1     -33.540   6.144   2.960  1.00 20.00     0.195 C 
BRANCH   3   4
HETATM    4  O8  UNL     1     -33.172   4.773   3.034  1.00 20.00    -0.383 OA
BRANCH   4   5
HETATM    5  C7  UNL     1     -34.078   4.033   3.842  1.00 20.00     0.113 C 
HETATM    6  C3  UNL     1     -33.290   3.182   4.827  1.00 20.00     0.039 C 
HETATM    7  C4  UNL     1     -35.018   4.995   4.551  1.00 20.00     0.039 C 
ENDBRANCH   4   5
ENDBRANCH   3   4
ENDBRANCH   1   3
BRANCH   2   8
HETATM    8  C6  UNL     1     -31.562   8.710   0.795  1.00 20.00     0.097 C 
BRANCH   8   9
HETATM    9  S9  UNL     1     -32.524  10.065   0.072  1.00 20.00    -0.178 SA
HETATM   10  H23 UNL     1     -33.708   9.684   0.570  1.00 20.00     0.101 HD
ENDBRANCH   8   9
ENDBRANCH   2   8
TORSDOF 5
ENDMDL
MODEL 2
REMARK VINA RESULT:      -1.3      1.548      1.926
REMARK  5 active torsions:
REMARK  status: ('A' for Active; 'I' for Inactive)
REMARK    1  A    between atoms: C1_1  and  C5_5 
REMARK    2  A    between atoms: C2_2  and  C6_6 
REMARK    3  A    between atoms: C5_5  and  O8_8 
REMARK    4  A    between atoms: C6_6  and  S9_9 
REMARK    5  A    between atoms: C7_7  and  O8_8 
ROOT
HETATM    1  C1  UNL     1     -32.144   6.760   1.160  1.00 20.00    -0.004 C 
HETATM    2  C2  UNL     1     -31.968   8.044   1.509  1.00 20.00    -0.019 C 
ENDROOT
BRANCH   1   3
HETATM    3  C5  UNL     1     -32.755   5.732   2.055  1.00 20.00     0.195 C 
BRANCH   3   4
HETATM    4  O8  UNL     1     -34.047   6.178   2.446  1.00 20.00    -0.383 OA
BRANCH   4   5
HETATM    5  C7  UNL     1     -34.163   6.267   3.860  1.00 20.00     0.113 C 
HETATM    6  C3  UNL     1     -34.122   7.730   4.274  1.00 20.00     0.039 C 
HETATM    7  C4  UNL     1     -35.452   5.589   4.299  1.00 20.00     0.039 C 
ENDBRANCH   4   5
ENDBRANCH   3   4
ENDBRANCH   1   3
BRANCH   2   8
HETATM    8  C6  UNL     1     -31.365   9.073   0.607  1.00 20.00     0.097 C 
BRANCH   8   9
HETATM    9  S9  UNL     1     -32.643  10.219   0.027  1.00 20.00    -0.178 SA
HETATM   10  H23 UNL     1     -31.830  11.272  -0.137  1.00 20.00     0.101 HD
ENDBRANCH   8   9
ENDBRANCH   2   8
TORSDOF 5
ENDMDL
MODEL 3
REMARK VINA RESULT:      -1.2      1.394      1.732
REMARK  5 active torsions:
REMARK  status: ('A' for Active; 'I' for Inactive)
REMARK    1  A    between atoms: C1_1  and  C5_5 
REMARK    2  A    between atoms: C2_2  and  C6_6 
REMARK    3  A    between atoms: C5_5  and  O8_8 
REMARK    4  A    between atoms: C6_6  and  S9_9 
REMARK    5  A    between atoms: C7_7  and  O8_8 
ROOT
HETATM    1  C1  UNL     1     -32.207   6.690   1.384  1.00 20.00    -0.004 C 
HETATM    2  C2  UNL     1     -32.527   7.994   1.391  1.00 20.00    -0.019 C 
ENDROOT
BRANCH   1   3
HETATM    3  C5  UNL     1     -33.128   5.607   1.842  1.00 20.00     0.195 C 
BRANCH   3   4
HETATM    4  O8  UNL     1     -33.295   5.715   3.248  1.00 20.00    -0.383 OA
BRANCH   4   5
HETATM    5  C7  UNL     1     -34.505   6.383   3.581  1.00 20.00     0.113 C 
HETATM    6  C3  UNL     1     -35.396   5.439   4.375  1.00 20.00     0.039 C 
HETATM    7  C4  UNL     1     -34.180   7.647   4.362  1.00 20.00     0.039 C 
ENDBRANCH   4   5
ENDBRANCH   3   4
ENDBRANCH   1   3
BRANCH   2   8
HETATM    8  C6  UNL     1     -31.607   9.075   0.922  1.00 20.00     0.097 C 
BRANCH   8   9
HETATM    9  S9  UNL     1     -32.523  10.293  -0.059  1.00 20.00    -0.178 SA
HETATM   10  H23 UNL     1     -32.191   9.793  -1.257  1.00 20.00     0.101 HD
ENDBRANCH   8   9
ENDBRANCH   2   8
TORSDOF 5
ENDMDL
MODEL 4
REMARK VINA RESULT:      -1.1      3.246      5.605
REMARK  5 active torsions:
REMARK  status: ('A' for Active; 'I' for Inactive)
REMARK    1  A    between atoms: C1_1  and  C5_5 
REMARK    2  A    between atoms: C2_2  and  C6_6 
REMARK    3  A    between atoms: C5_5  and  O8_8 
REMARK    4  A    between atoms: C6_6  and  S9_9 
REMARK    5  A    between atoms: C7_7  and  O8_8 
ROOT
HETATM    1  C1  UNL     1     -33.120   6.661   2.379  1.00 20.00    -0.004 C 
HETATM    2  C2  UNL     1     -33.881   7.114   3.388  1.00 20.00    -0.019 C 
ENDROOT
BRANCH   1   3
HETATM    3  C5  UNL     1     -31.981   7.427   1.790  1.00 20.00     0.195 C 
BRANCH   3   4
HETATM    4  O8  UNL     1     -32.335   8.802   1.739  1.00 20.00    -0.383 OA
BRANCH   4   5
HETATM    5  C7  UNL     1     -32.430   9.268   0.399  1.00 20.00     0.113 C 
HETATM    6  C3  UNL     1     -32.723  10.761   0.408  1.00 20.00     0.039 C 
HETATM    7  C4  UNL     1     -31.137   8.949  -0.334  1.00 20.00     0.039 C 
ENDBRANCH   4   5
ENDBRANCH   3   4
ENDBRANCH   1   3
BRANCH   2   8
HETATM    8  C6  UNL     1     -35.013   6.341   3.984  1.00 20.00     0.097 C 
BRANCH   8   9
HETATM    9  S9  UNL     1     -34.513   4.624   4.274  1.00 20.00    -0.178 SA
HETATM   10  H23 UNL     1     -33.278   4.745   3.769  1.00 20.00     0.101 HD
ENDBRANCH   8   9
ENDBRANCH   2   8
TORSDOF 5
ENDMDL
MODEL 5
REMARK VINA RESULT:      -1.0      1.029      1.709
REMARK  5 active torsions:
REMARK  status: ('A' for Active; 'I' for Inactive)
REMARK    1  A    between atoms: C1_1  and  C5_5 
REMARK    2  A    between atoms: C2_2  and  C6_6 
REMARK    3  A    between atoms: C5_5  and  O8_8 
REMARK    4  A    between atoms: C6_6  and  S9_9 
REMARK    5  A    between atoms: C7_7  and  O8_8 
ROOT
HETATM    1  C1  UNL     1     -32.313   6.768   1.279  1.00 20.00    -0.004 C 
HETATM    2  C2  UNL     1     -32.043   8.053   1.557  1.00 20.00    -0.019 C 
ENDROOT
BRANCH   1   3
HETATM    3  C5  UNL     1     -32.992   5.837   2.231  1.00 20.00     0.195 C 
BRANCH   3   4
HETATM    4  O8  UNL     1     -33.562   6.600   3.286  1.00 20.00    -0.383 OA
BRANCH   4   5
HETATM    5  C7  UNL     1     -34.346   5.790   4.152  1.00 20.00     0.113 C 
HETATM    6  C3  UNL     1     -35.817   6.117   3.947  1.00 20.00     0.039 C 
HETATM    7  C4  UNL     1     -34.047   4.325   3.873  1.00 20.00     0.039 C 
ENDBRANCH   4   5
ENDBRANCH   3   4
ENDBRANCH   1   3
BRANCH   2   8
HETATM    8  C6  UNL     1     -31.374   8.985   0.599  1.00 20.00     0.097 C 
BRANCH   8   9
HETATM    9  S9  UNL     1     -32.578  10.158  -0.076  1.00 20.00    -0.178 SA
HETATM   10  H23 UNL     1     -31.692  11.116  -0.381  1.00 20.00     0.101 HD
ENDBRANCH   8   9
ENDBRANCH   2   8
TORSDOF 5
ENDMDL
MODEL 6
REMARK VINA RESULT:      -0.9      3.145      5.062
REMARK  5 active torsions:
REMARK  status: ('A' for Active; 'I' for Inactive)
REMARK    1  A    between atoms: C1_1  and  C5_5 
REMARK    2  A    between atoms: C2_2  and  C6_6 
REMARK    3  A    between atoms: C5_5  and  O8_8 
REMARK    4  A    between atoms: C6_6  and  S9_9 
REMARK    5  A    between atoms: C7_7  and  O8_8 
ROOT
HETATM    1  C1  UNL     1     -34.318   6.891   3.884  1.00 20.00    -0.004 C 
HETATM    2  C2  UNL     1     -34.118   5.594   3.605  1.00 20.00    -0.019 C 
ENDROOT
BRANCH   1   3
HETATM    3  C5  UNL     1     -33.793   8.011   3.046  1.00 20.00     0.195 C 
BRANCH   3   4
HETATM    4  O8  UNL     1     -32.373   7.986   3.091  1.00 20.00    -0.383 OA
BRANCH   4   5
HETATM    5  C7  UNL     1     -31.810   7.957   1.785  1.00 20.00     0.113 C 
HETATM    6  C3  UNL     1     -32.052   6.589   1.166  1.00 20.00     0.039 C 
HETATM    7  C4  UNL     1     -32.421   9.072   0.952  1.00 20.00     0.039 C 
ENDBRANCH   4   5
ENDBRANCH   3   4
ENDBRANCH   1   3
BRANCH   2   8
HETATM    8  C6  UNL     1     -34.654   4.475   4.440  1.00 20.00     0.097 C 
BRANCH   8   9
HETATM    9  S9  UNL     1     -33.408   3.169   4.609  1.00 20.00    -0.178 SA
HETATM   10  H23 UNL     1     -33.288   3.255   5.941  1.00 20.00     0.101 HD
ENDBRANCH   8   9
ENDBRANCH   2   8
TORSDOF 5
ENDMDL
MODEL 7
REMARK VINA RESULT:      -0.6      3.206      5.154
REMARK  5 active torsions:
REMARK  status: ('A' for Active; 'I' for Inactive)
REMARK    1  A    between atoms: C1_1  and  C5_5 
REMARK    2  A    between atoms: C2_2  and  C6_6 
REMARK    3  A    between atoms: C5_5  and  O8_8 
REMARK    4  A    between atoms: C6_6  and  S9_9 
REMARK    5  A    between atoms: C7_7  and  O8_8 
ROOT
HETATM    1  C1  UNL     1     -34.571   6.456   3.750  1.00 20.00    -0.004 C 
HETATM    2  C2  UNL     1     -33.833   5.379   4.063  1.00 20.00    -0.019 C 
ENDROOT
BRANCH   1   3
HETATM    3  C5  UNL     1     -34.015   7.837   3.635  1.00 20.00     0.195 C 
BRANCH   3   4
HETATM    4  O8  UNL     1     -32.691   7.755   3.127  1.00 20.00    -0.383 OA
BRANCH   4   5
HETATM    5  C7  UNL     1     -32.681   7.641   1.710  1.00 20.00     0.113 C 
HETATM    6  C3  UNL     1     -32.069   8.897   1.110  1.00 20.00     0.039 C 
HETATM    7  C4  UNL     1     -31.912   6.390   1.314  1.00 20.00     0.039 C 
ENDBRANCH   4   5
ENDBRANCH   3   4
ENDBRANCH   1   3
BRANCH   2   8
HETATM    8  C6  UNL     1     -34.390   3.995   4.167  1.00 20.00     0.097 C 
BRANCH   8   9
HETATM    9  S9  UNL     1     -33.105   2.845   4.725  1.00 20.00    -0.178 SA
HETATM   10  H23 UNL     1     -32.208   3.781   5.059  1.00 20.00     0.101 HD
ENDBRANCH   8   9
ENDBRANCH   2   8
TORSDOF 5
ENDMDL
MODEL 8
REMARK VINA RESULT:      -0.2      3.080      5.130
REMARK  5 active torsions:
REMARK  status: ('A' for Active; 'I' for Inactive)
REMARK    1  A    between atoms: C1_1  and  C5_5 
REMARK    2  A    between atoms: C2_2  and  C6_6 
REMARK    3  A    between atoms: C5_5  and  O8_8 
REMARK    4  A    between atoms: C6_6  and  S9_9 
REMARK    5  A    between atoms: C7_7  and  O8_8 
ROOT
HETATM    1  C1  UNL     1     -33.074   5.135   2.485  1.00 20.00    -0.004 C 
HETATM    2  C2  UNL     1     -34.154   5.307   3.263  1.00 20.00    -0.019 C 
ENDROOT
BRANCH   1   3
HETATM    3  C5  UNL     1     -32.793   5.947   1.264  1.00 20.00     0.195 C 
BRANCH   3   4
HETATM    4  O8  UNL     1     -31.768   6.884   1.566  1.00 20.00    -0.383 OA
BRANCH   4   5
HETATM    5  C7  UNL     1     -32.306   8.159   1.893  1.00 20.00     0.113 C 
HETATM    6  C3  UNL     1     -31.667   8.658   3.179  1.00 20.00     0.039 C 
HETATM    7  C4  UNL     1     -32.067   9.115   0.734  1.00 20.00     0.039 C 
ENDBRANCH   4   5
ENDBRANCH   3   4
ENDBRANCH   1   3
BRANCH   2   8
HETATM    8  C6  UNL     1     -34.429   4.499   4.491  1.00 20.00     0.097 C 
BRANCH   8   9
HETATM    9  S9  UNL     1     -33.306   3.078   4.568  1.00 20.00    -0.178 SA
HETATM   10  H23 UNL     1     -33.664   2.677   5.795  1.00 20.00     0.101 HD
ENDBRANCH   8   9
ENDBRANCH   2   8
TORSDOF 5
ENDMDL
MODEL 9
REMARK VINA RESULT:      -0.0      1.892      2.255
REMARK  5 active torsions:
REMARK  status: ('A' for Active; 'I' for Inactive)
REMARK    1  A    between atoms: C1_1  and  C5_5 
REMARK    2  A    between atoms: C2_2  and  C6_6 
REMARK    3  A    between atoms: C5_5  and  O8_8 
REMARK    4  A    between atoms: C6_6  and  S9_9 
REMARK    5  A    between atoms: C7_7  and  O8_8 
ROOT
HETATM    1  C1  UNL     1     -34.223   6.643   3.582  1.00 20.00    -0.004 C 
HETATM    2  C2  UNL     1     -33.670   7.776   4.044  1.00 20.00    -0.019 C 
ENDROOT
BRANCH   1   3
HETATM    3  C5  UNL     1     -35.386   5.965   4.228  1.00 20.00     0.195 C 
BRANCH   3   4
HETATM    4  O8  UNL     1     -35.100   4.577   4.338  1.00 20.00    -0.383 OA
BRANCH   4   5
HETATM    5  C7  UNL     1     -33.723   4.308   4.112  1.00 20.00     0.113 C 
HETATM    6  C3  UNL     1     -33.342   3.018   4.822  1.00 20.00     0.039 C 
HETATM    7  C4  UNL     1     -33.467   4.228   2.615  1.00 20.00     0.039 C 
ENDBRANCH   4   5
ENDBRANCH   3   4
ENDBRANCH   1   3
BRANCH   2   8
HETATM    8  C6  UNL     1     -32.512   8.459   3.389  1.00 20.00     0.097 C 
BRANCH   8   9
HETATM    9  S9  UNL     1     -32.128   7.661   1.808  1.00 20.00    -0.178 SA
HETATM   10  H23 UNL     1     -30.807   7.561   2.014  1.00 20.00     0.101 HD
ENDBRANCH   8   9
ENDBRANCH   2   8
TORSDOF 5
ENDMDL
