MODEL 1
REMARK VINA RESULT:      -1.5      0.000      0.000
REMARK  5 active torsions:
REMARK  status: ('A' for Active; 'I' for Inactive)
REMARK    1  A    between atoms: C3_3  and  C6_6 
REMARK    2  A    between atoms: C4_4  and  C6_6 
REMARK    3  A    between atoms: C4_4  and  O7_7 
REMARK    4  A    between atoms: C5_5  and  C6_6 
REMARK    5  A    between atoms: C5_5  and  S8_8 
ROOT
HETATM    1  C6  UNL     1     -33.226   7.124   2.063  1.00 20.00     0.018 C 
ENDROOT
BRANCH   1   2
HETATM    2  C3  UNL     1     -33.073   5.658   1.605  1.00 20.00     0.003 C 
HETATM    3  C1  UNL     1     -31.683   5.316   1.088  1.00 20.00     0.005 C 
ENDBRANCH   1   2
BRANCH   1   4
HETATM    4  C4  UNL     1     -31.949   7.906   1.710  1.00 20.00     0.172 C 
BRANCH   4   5
HETATM    5  O7  UNL     1     -32.258   9.272   1.468  1.00 20.00    -0.396 OA
HETATM    6  C2  UNL     1     -32.366   9.544   0.078  1.00 20.00     0.201 C 
ENDBRANCH   4   5
ENDBRANCH   1   4
BRANCH   1   7
HETATM    7  C5  UNL     1     -33.650   7.295   3.537  1.00 20.00     0.077 C 
BRANCH   7   8
HETATM    8  S8  UNL     1     -35.080   6.295   4.058  1.00 20.00    -0.182 SA
HETATM    9  H22 UNL     1     -35.358   7.013   5.154  1.00 20.00     0.101 HD
ENDBRANCH   7   8
ENDBRANCH   1   7
TORSDOF 5
ENDMDL
MODEL 2
REMARK VINA RESULT:      -1.4      1.809      2.648
REMARK  5 active torsions:
REMARK  status: ('A' for Active; 'I' for Inactive)
REMARK    1  A    between atoms: C3_3  and  C6_6 
REMARK    2  A    between atoms: C4_4  and  C6_6 
REMARK    3  A    between atoms: C4_4  and  O7_7 
REMARK    4  A    between atoms: C5_5  and  C6_6 
REMARK    5  A    between atoms: C5_5  and  S8_8 
ROOT
HETATM    1  C6  UNL     1     -32.841   7.189   2.802  1.00 20.00     0.018 C 
ENDROOT
BRANCH   1   2
HETATM    2  C3  UNL     1     -33.987   7.511   3.783  1.00 20.00     0.003 C 
HETATM    3  C1  UNL     1     -35.031   6.409   3.894  1.00 20.00     0.005 C 
ENDBRANCH   1   2
BRANCH   1   4
HETATM    4  C4  UNL     1     -32.187   8.499   2.330  1.00 20.00     0.172 C 
BRANCH   4   5
HETATM    5  O7  UNL     1     -32.151   8.549   0.910  1.00 20.00    -0.396 OA
HETATM    6  C2  UNL     1     -32.454   9.850   0.427  1.00 20.00     0.201 C 
ENDBRANCH   4   5
ENDBRANCH   1   4
BRANCH   1   7
HETATM    7  C5  UNL     1     -33.238   6.258   1.636  1.00 20.00     0.077 C 
BRANCH   7   8
HETATM    8  S8  UNL     1     -32.001   5.000   1.186  1.00 20.00    -0.182 SA
HETATM    9  H22 UNL     1     -31.808   4.546   2.431  1.00 20.00     0.101 HD
ENDBRANCH   7   8
ENDBRANCH   1   7
TORSDOF 5
ENDMDL
MODEL 3
REMARK VINA RESULT:      -1.3      2.133      3.181
REMARK  5 active torsions:
REMARK  status: ('A' for Active; 'I' for Inactive)
REMARK    1  A    between atoms: C3_3  and  C6_6 
REMARK    2  A    between atoms: C4_4  and  C6_6 
REMARK    3  A    between atoms: C4_4  and  O7_7 
REMARK    4  A    between atoms: C5_5  and  C6_6 
REMARK    5  A    between atoms: C5_5  and  S8_8 
ROOT
HETATM    1  C6  UNL     1     -33.655   5.653   3.378  1.00 20.00     0.018 C 
ENDROOT
BRANCH   1   2
HETATM    2  C3  UNL     1     -34.589   6.809   3.795  1.00 20.00     0.003 C 
HETATM    3  C1  UNL     1     -33.889   7.917   4.570  1.00 20.00     0.005 C 
ENDBRANCH   1   2
BRANCH   1   4
HETATM    4  C4  UNL     1     -33.278   5.809   1.895  1.00 20.00     0.172 C 
BRANCH   4   5
HETATM    5  O7  UNL     1     -31.950   6.300   1.772  1.00 20.00    -0.396 OA
HETATM    6  C2  UNL     1     -31.931   7.707   1.573  1.00 20.00     0.201 C 
ENDBRANCH   4   5
ENDBRANCH   1   4
BRANCH   1   7
HETATM    7  C5  UNL     1     -34.186   4.245   3.722  1.00 20.00     0.077 C 
BRANCH   7   8
HETATM    8  S8  UNL     1     -33.059   3.205   4.703  1.00 20.00    -0.182 SA
HETATM    9  H22 UNL     1     -33.015   4.016   5.767  1.00 20.00     0.101 HD
ENDBRANCH   7   8
ENDBRANCH   1   7
TORSDOF 5
ENDMDL
MODEL 4
REMARK VINA RESULT:      -1.2      3.121      4.691
REMARK  5 active torsions:
REMARK  status: ('A' for Active; 'I' for Inactive)
REMARK    1  A    between atoms: C3_3  and  C6_6 
REMARK    2  A    between atoms: C4_4  and  C6_6 
REMARK    3  A    between atoms: C4_4  and  O7_7 
REMARK    4  A    between atoms: C5_5  and  C6_6 
REMARK    5  A    between atoms: C5_5  and  S8_8 
ROOT
HETATM    1  C6  UNL     1     -34.240   6.326   3.172  1.00 20.00     0.018 C 
ENDROOT
BRANCH   1   2
HETATM    2  C3  UNL     1     -34.352   7.686   3.892  1.00 20.00     0.003 C 
HETATM    3  C1  UNL     1     -33.377   7.852   5.050  1.00 20.00     0.005 C 
ENDBRANCH   1   2
BRANCH   1   4
HETATM    4  C4  UNL     1     -34.370   5.190   4.201  1.00 20.00     0.172 C 
BRANCH   4   5
HETATM    5  O7  UNL     1     -33.767   4.003   3.704  1.00 20.00    -0.396 OA
HETATM    6  C2  UNL     1     -33.354   3.146   4.759  1.00 20.00     0.201 C 
ENDBRANCH   4   5
ENDBRANCH   1   4
BRANCH   1   7
HETATM    7  C5  UNL     1     -32.999   6.181   2.265  1.00 20.00     0.077 C 
BRANCH   7   8
HETATM    8  S8  UNL     1     -32.183   7.741   1.804  1.00 20.00    -0.182 SA
HETATM    9  H22 UNL     1     -33.028   8.540   2.469  1.00 20.00     0.101 HD
ENDBRANCH   7   8
ENDBRANCH   1   7
TORSDOF 5
ENDMDL
MODEL 5
REMARK VINA RESULT:      -1.2      2.516      3.707
REMARK  5 active torsions:
REMARK  status: ('A' for Active; 'I' for Inactive)
REMARK    1  A    between atoms: C3_3  and  C6_6 
REMARK    2  A    between atoms: C4_4  and  C6_6 
REMARK    3  A    between atoms: C4_4  and  O7_7 
REMARK    4  A    between atoms: C5_5  and  C6_6 
REMARK    5  A    between atoms: C5_5  and  S8_8 
ROOT
HETATM    1  C6  UNL     1     -33.249   7.249   2.182  1.00 20.00     0.018 C 
ENDROOT
BRANCH   1   2
HETATM    2  C3  UNL     1     -33.747   7.367   3.638  1.00 20.00     0.003 C 
HETATM    3  C1  UNL     1     -34.963   6.504   3.945  1.00 20.00     0.005 C 
ENDBRANCH   1   2
BRANCH   1   4
HETATM    4  C4  UNL     1     -33.061   5.765   1.824  1.00 20.00     0.172 C 
BRANCH   4   5
HETATM    5  O7  UNL     1     -31.724   5.523   1.408  1.00 20.00    -0.396 OA
HETATM    6  C2  UNL     1     -31.661   4.501   0.424  1.00 20.00     0.201 C 
ENDBRANCH   4   5
ENDBRANCH   1   4
BRANCH   1   7
HETATM    7  C5  UNL     1     -32.009   8.110   1.857  1.00 20.00     0.077 C 
BRANCH   7   8
HETATM    8  S8  UNL     1     -32.251   9.367   0.563  1.00 20.00    -0.182 SA
HETATM    9  H22 UNL     1     -31.388   8.832  -0.311  1.00 20.00     0.101 HD
ENDBRANCH   7   8
ENDBRANCH   1   7
TORSDOF 5
ENDMDL
MODEL 6
REMARK VINA RESULT:      -1.0      2.593      3.486
REMARK  5 active torsions:
REMARK  status: ('A' for Active; 'I' for Inactive)
REMARK    1  A    between atoms: C3_3  and  C6_6 
REMARK    2  A    between atoms: C4_4  and  C6_6 
REMARK    3  A    between atoms: C4_4  and  O7_7 
REMARK    4  A    between atoms: C5_5  and  C6_6 
REMARK    5  A    between atoms: C5_5  and  S8_8 
ROOT
HETATM    1  C6  UNL     1     -32.337   7.163   2.247  1.00 20.00     0.018 C 
ENDROOT
BRANCH   1   2
HETATM    2  C3  UNL     1     -32.802   6.258   1.087  1.00 20.00     0.003 C 
HETATM    3  C1  UNL     1     -32.049   4.938   0.995  1.00 20.00     0.005 C 
ENDBRANCH   1   2
BRANCH   1   4
HETATM    4  C4  UNL     1     -33.510   7.402   3.212  1.00 20.00     0.172 C 
BRANCH   4   5
HETATM    5  O7  UNL     1     -34.079   6.163   3.614  1.00 20.00    -0.396 OA
HETATM    6  C2  UNL     1     -35.436   6.315   4.005  1.00 20.00     0.201 C 
ENDBRANCH   4   5
ENDBRANCH   1   4
BRANCH   1   7
HETATM    7  C5  UNL     1     -31.645   8.470   1.802  1.00 20.00     0.077 C 
BRANCH   7   8
HETATM    8  S8  UNL     1     -32.479   9.379   0.464  1.00 20.00    -0.182 SA
HETATM    9  H22 UNL     1     -33.624   8.684   0.519  1.00 20.00     0.101 HD
ENDBRANCH   7   8
ENDBRANCH   1   7
TORSDOF 5
ENDMDL
MODEL 7
REMARK VINA RESULT:      -0.8      3.014      4.194
REMARK  5 active torsions:
REMARK  status: ('A' for Active; 'I' for Inactive)
REMARK    1  A    between atoms: C3_3  and  C6_6 
REMARK    2  A    between atoms: C4_4  and  C6_6 
REMARK    3  A    between atoms: C4_4  and  O7_7 
REMARK    4  A    between atoms: C5_5  and  C6_6 
REMARK    5  A    between atoms: C5_5  and  S8_8 
ROOT
HETATM    1  C6  UNL     1     -33.404   5.820   3.105  1.00 20.00     0.018 C 
ENDROOT
BRANCH   1   2
HETATM    2  C3  UNL     1     -32.921   6.222   1.696  1.00 20.00     0.003 C 
HETATM    3  C1  UNL     1     -32.024   7.452   1.680  1.00 20.00     0.005 C 
ENDBRANCH   1   2
BRANCH   1   4
HETATM    4  C4  UNL     1     -33.856   4.349   3.092  1.00 20.00     0.172 C 
BRANCH   4   5
HETATM    5  O7  UNL     1     -34.112   3.900   4.416  1.00 20.00    -0.396 OA
HETATM    6  C2  UNL     1     -33.168   2.920   4.825  1.00 20.00     0.201 C 
ENDBRANCH   4   5
ENDBRANCH   1   4
BRANCH   1   7
HETATM    7  C5  UNL     1     -34.456   6.770   3.718  1.00 20.00     0.077 C 
BRANCH   7   8
HETATM    8  S8  UNL     1     -33.793   8.066   4.811  1.00 20.00    -0.182 SA
HETATM    9  H22 UNL     1     -33.843   9.050   3.903  1.00 20.00     0.101 HD
ENDBRANCH   7   8
ENDBRANCH   1   7
TORSDOF 5
ENDMDL
MODEL 8
REMARK VINA RESULT:      -0.8      2.801      3.695
REMARK  5 active torsions:
REMARK  status: ('A' for Active; 'I' for Inactive)
REMARK    1  A    between atoms: C3_3  and  C6_6 
REMARK    2  A    between atoms: C4_4  and  C6_6 
REMARK    3  A    between atoms: C4_4  and  O7_7 
REMARK    4  A    between atoms: C5_5  and  C6_6 
REMARK    5  A    between atoms: C5_5  and  S8_8 
ROOT
HETATM    1  C6  UNL     1     -33.763   5.501   3.508  1.00 20.00     0.018 C 
ENDROOT
BRANCH   1   2
HETATM    2  C3  UNL     1     -34.163   4.062   3.897  1.00 20.00     0.003 C 
HETATM    3  C1  UNL     1     -33.102   3.323   4.700  1.00 20.00     0.005 C 
ENDBRANCH   1   2
BRANCH   1   4
HETATM    4  C4  UNL     1     -34.891   6.471   3.901  1.00 20.00     0.172 C 
BRANCH   4   5
HETATM    5  O7  UNL     1     -34.402   7.805   3.942  1.00 20.00    -0.396 OA
HETATM    6  C2  UNL     1     -33.489   7.992   5.015  1.00 20.00     0.201 C 
ENDBRANCH   4   5
ENDBRANCH   1   4
BRANCH   1   7
HETATM    7  C5  UNL     1     -33.308   5.666   2.042  1.00 20.00     0.077 C 
BRANCH   7   8
HETATM    8  S8  UNL     1     -32.094   6.990   1.747  1.00 20.00    -0.182 SA
HETATM    9  H22 UNL     1     -31.061   6.361   2.324  1.00 20.00     0.101 HD
ENDBRANCH   7   8
ENDBRANCH   1   7
TORSDOF 5
ENDMDL
MODEL 9
REMARK VINA RESULT:      -0.7      2.327      3.690
REMARK  5 active torsions:
REMARK  status: ('A' for Active; 'I' for Inactive)
REMARK    1  A    between atoms: C3_3  and  C6_6 
REMARK    2  A    between atoms: C4_4  and  C6_6 
REMARK    3  A    between atoms: C4_4  and  O7_7 
REMARK    4  A    between atoms: C5_5  and  C6_6 
REMARK    5  A    between atoms: C5_5  and  S8_8 
ROOT
HETATM    1  C6  UNL     1     -33.141   7.228   2.135  1.00 20.00     0.018 C 
ENDROOT
BRANCH   1   2
HETATM    2  C3  UNL     1     -31.890   8.014   1.691  1.00 20.00     0.003 C 
HETATM    3  C1  UNL     1     -32.192   9.172   0.749  1.00 20.00     0.005 C 
ENDBRANCH   1   2
BRANCH   1   4
HETATM    4  C4  UNL     1     -33.290   7.324   3.663  1.00 20.00     0.172 C 
BRANCH   4   5
HETATM    5  O7  UNL     1     -34.661   7.448   4.017  1.00 20.00    -0.396 OA
HETATM    6  C2  UNL     1     -35.284   6.178   4.141  1.00 20.00     0.201 C 
ENDBRANCH   4   5
ENDBRANCH   1   4
BRANCH   1   7
HETATM    7  C5  UNL     1     -33.205   5.777   1.611  1.00 20.00     0.077 C 
BRANCH   7   8
HETATM    8  S8  UNL     1     -31.625   5.089   1.025  1.00 20.00    -0.182 SA
HETATM    9  H22 UNL     1     -32.167   4.145   0.244  1.00 20.00     0.101 HD
ENDBRANCH   7   8
ENDBRANCH   1   7
TORSDOF 5
ENDMDL
