MODEL 1
REMARK VINA RESULT:      -0.5      0.000      0.000
REMARK  4 active torsions:
REMARK  status: ('A' for Active; 'I' for Inactive)
REMARK    1  A    between atoms: C3_3  and  C5_5 
REMARK    2  A    between atoms: C3_3  and  C6_6 
REMARK    3  A    between atoms: C5_5  and  S7_7 
REMARK    4  A    between atoms: C6_6  and  S8_8 
ROOT
HETATM    1  C1  UNL     1     -31.929   5.378   1.505  1.00 20.00     0.012 A 
HETATM    2  C2  UNL     1     -33.037   5.899   0.634  1.00 20.00     0.012 A 
HETATM    3  C3  UNL     1     -32.805   6.507   1.997  1.00 20.00    -0.024 A 
ENDROOT
BRANCH   3   4
HETATM    4  C5  UNL     1     -33.801   6.207   3.082  1.00 20.00     0.080 C 
BRANCH   4   5
HETATM    5  S7  UNL     1     -34.039   7.650   4.163  1.00 20.00    -0.181 SA
HETATM    6  H20 UNL     1     -33.022   7.373   4.990  1.00 20.00     0.101 HD
ENDBRANCH   4   5
ENDBRANCH   3   4
BRANCH   3   7
HETATM    7  C6  UNL     1     -32.206   7.886   2.062  1.00 20.00     0.083 C 
BRANCH   7   8
HETATM    8  S8  UNL     1     -31.791   8.493   0.399  1.00 20.00    -0.173 SA
HETATM    9  C4  UNL     1     -32.605  10.103   0.499  1.00 20.00     0.089 C 
ENDBRANCH   7   8
ENDBRANCH   3   7
TORSDOF 4
ENDMDL
MODEL 2
REMARK VINA RESULT:      -0.2      1.926      2.815
REMARK  4 active torsions:
REMARK  status: ('A' for Active; 'I' for Inactive)
REMARK    1  A    between atoms: C3_3  and  C5_5 
REMARK    2  A    between atoms: C3_3  and  C6_6 
REMARK    3  A    between atoms: C5_5  and  S7_7 
REMARK    4  A    between atoms: C6_6  and  S8_8 
ROOT
HETATM    1  C1  UNL     1     -35.554   6.795   3.217  1.00 20.00     0.012 A 
HETATM    2  C2  UNL     1     -34.991   6.483   4.575  1.00 20.00     0.012 A 
HETATM    3  C3  UNL     1     -34.075   6.523   3.375  1.00 20.00    -0.024 A 
ENDROOT
BRANCH   3   4
HETATM    4  C5  UNL     1     -33.538   5.220   2.854  1.00 20.00     0.080 C 
BRANCH   4   5
HETATM    5  S7  UNL     1     -33.707   3.903   4.097  1.00 20.00    -0.181 SA
HETATM    6  H20 UNL     1     -34.100   4.704   5.095  1.00 20.00     0.101 HD
ENDBRANCH   4   5
ENDBRANCH   3   4
BRANCH   3   7
HETATM    7  C6  UNL     1     -33.128   7.685   3.250  1.00 20.00     0.083 C 
BRANCH   7   8
HETATM    8  S8  UNL     1     -32.024   7.472   1.822  1.00 20.00    -0.173 SA
HETATM    9  C4  UNL     1     -32.345   9.053   1.007  1.00 20.00     0.089 C 
ENDBRANCH   7   8
ENDBRANCH   3   7
TORSDOF 4
ENDMDL
MODEL 3
REMARK VINA RESULT:      -0.1      2.197      4.602
REMARK  4 active torsions:
REMARK  status: ('A' for Active; 'I' for Inactive)
REMARK    1  A    between atoms: C3_3  and  C5_5 
REMARK    2  A    between atoms: C3_3  and  C6_6 
REMARK    3  A    between atoms: C5_5  and  S7_7 
REMARK    4  A    between atoms: C6_6  and  S8_8 
ROOT
HETATM    1  C1  UNL     1     -34.069   7.458   4.200  1.00 20.00     0.012 A 
HETATM    2  C2  UNL     1     -35.199   6.653   3.623  1.00 20.00     0.012 A 
HETATM    3  C3  UNL     1     -33.794   6.449   3.108  1.00 20.00    -0.024 A 
ENDROOT
BRANCH   3   4
HETATM    4  C5  UNL     1     -33.464   6.966   1.736  1.00 20.00     0.080 C 
BRANCH   4   5
HETATM    5  S7  UNL     1     -31.875   7.851   1.741  1.00 20.00    -0.181 SA
HETATM    6  H20 UNL     1     -32.055   8.466   0.565  1.00 20.00     0.101 HD
ENDBRANCH   4   5
ENDBRANCH   3   4
BRANCH   3   7
HETATM    7  C6  UNL     1     -33.083   5.178   3.486  1.00 20.00     0.083 C 
BRANCH   7   8
HETATM    8  S8  UNL     1     -34.210   4.029   4.331  1.00 20.00    -0.173 SA
HETATM    9  C4  UNL     1     -32.989   2.801   4.848  1.00 20.00     0.089 C 
ENDBRANCH   7   8
ENDBRANCH   3   7
TORSDOF 4
ENDMDL
MODEL 4
REMARK VINA RESULT:      -0.1      1.952      2.860
REMARK  4 active torsions:
REMARK  status: ('A' for Active; 'I' for Inactive)
REMARK    1  A    between atoms: C3_3  and  C5_5 
REMARK    2  A    between atoms: C3_3  and  C6_6 
REMARK    3  A    between atoms: C5_5  and  S7_7 
REMARK    4  A    between atoms: C6_6  and  S8_8 
ROOT
HETATM    1  C1  UNL     1     -34.575   8.148   3.801  1.00 20.00     0.012 A 
HETATM    2  C2  UNL     1     -33.352   7.619   4.496  1.00 20.00     0.012 A 
HETATM    3  C3  UNL     1     -34.064   6.763   3.476  1.00 20.00    -0.024 A 
ENDROOT
BRANCH   3   4
HETATM    4  C5  UNL     1     -34.855   5.585   3.971  1.00 20.00     0.080 C 
BRANCH   4   5
HETATM    5  S7  UNL     1     -33.811   4.099   4.073  1.00 20.00    -0.181 SA
HETATM    6  H20 UNL     1     -33.704   4.095   5.408  1.00 20.00     0.101 HD
ENDBRANCH   4   5
ENDBRANCH   3   4
BRANCH   3   7
HETATM    7  C6  UNL     1     -33.398   6.554   2.143  1.00 20.00     0.083 C 
BRANCH   7   8
HETATM    8  S8  UNL     1     -31.852   7.502   2.033  1.00 20.00    -0.173 SA
HETATM    9  C4  UNL     1     -32.432   8.821   0.942  1.00 20.00     0.089 C 
ENDBRANCH   7   8
ENDBRANCH   3   7
TORSDOF 4
ENDMDL
MODEL 5
REMARK VINA RESULT:       0.2      1.232      3.463
REMARK  4 active torsions:
REMARK  status: ('A' for Active; 'I' for Inactive)
REMARK    1  A    between atoms: C3_3  and  C5_5 
REMARK    2  A    between atoms: C3_3  and  C6_6 
REMARK    3  A    between atoms: C5_5  and  S7_7 
REMARK    4  A    between atoms: C6_6  and  S8_8 
ROOT
HETATM    1  C1  UNL     1     -32.918   5.782   0.887  1.00 20.00     0.012 A 
HETATM    2  C2  UNL     1     -32.348   5.569   2.261  1.00 20.00     0.012 A 
HETATM    3  C3  UNL     1     -32.721   6.961   1.811  1.00 20.00    -0.024 A 
ENDROOT
BRANCH   3   4
HETATM    4  C5  UNL     1     -31.609   7.924   1.500  1.00 20.00     0.080 C 
BRANCH   4   5
HETATM    5  S7  UNL     1     -32.241   9.386   0.623  1.00 20.00    -0.181 SA
HETATM    6  H20 UNL     1     -33.508   8.959   0.536  1.00 20.00     0.101 HD
ENDBRANCH   4   5
ENDBRANCH   3   4
BRANCH   3   7
HETATM    7  C6  UNL     1     -33.944   7.594   2.417  1.00 20.00     0.083 C 
BRANCH   7   8
HETATM    8  S8  UNL     1     -34.035   7.256   4.200  1.00 20.00    -0.173 SA
HETATM    9  C4  UNL     1     -35.356   6.023   4.164  1.00 20.00     0.089 C 
ENDBRANCH   7   8
ENDBRANCH   3   7
TORSDOF 4
ENDMDL
MODEL 6
REMARK VINA RESULT:       0.5      2.185      4.052
REMARK  4 active torsions:
REMARK  status: ('A' for Active; 'I' for Inactive)
REMARK    1  A    between atoms: C3_3  and  C5_5 
REMARK    2  A    between atoms: C3_3  and  C6_6 
REMARK    3  A    between atoms: C5_5  and  S7_7 
REMARK    4  A    between atoms: C6_6  and  S8_8 
ROOT
HETATM    1  C1  UNL     1     -33.254   6.404   1.048  1.00 20.00     0.012 A 
HETATM    2  C2  UNL     1     -32.209   7.027   1.930  1.00 20.00     0.012 A 
HETATM    3  C3  UNL     1     -33.277   6.150   2.538  1.00 20.00    -0.024 A 
ENDROOT
BRANCH   3   4
HETATM    4  C5  UNL     1     -34.356   6.811   3.350  1.00 20.00     0.080 C 
BRANCH   4   5
HETATM    5  S7  UNL     1     -33.646   8.005   4.524  1.00 20.00    -0.181 SA
HETATM    6  H20 UNL     1     -34.068   7.380   5.630  1.00 20.00     0.101 HD
ENDBRANCH   4   5
ENDBRANCH   3   4
BRANCH   3   7
HETATM    7  C6  UNL     1     -32.875   4.785   3.027  1.00 20.00     0.083 C 
BRANCH   7   8
HETATM    8  S8  UNL     1     -34.080   4.144   4.228  1.00 20.00    -0.173 SA
HETATM    9  C4  UNL     1     -33.090   2.784   4.889  1.00 20.00     0.089 C 
ENDBRANCH   7   8
ENDBRANCH   3   7
TORSDOF 4
ENDMDL
MODEL 7
REMARK VINA RESULT:       0.5      1.748      2.692
REMARK  4 active torsions:
REMARK  status: ('A' for Active; 'I' for Inactive)
REMARK    1  A    between atoms: C3_3  and  C5_5 
REMARK    2  A    between atoms: C3_3  and  C6_6 
REMARK    3  A    between atoms: C5_5  and  S7_7 
REMARK    4  A    between atoms: C6_6  and  S8_8 
ROOT
HETATM    1  C1  UNL     1     -34.980   6.881   3.696  1.00 20.00     0.012 A 
HETATM    2  C2  UNL     1     -33.696   7.421   4.259  1.00 20.00     0.012 A 
HETATM    3  C3  UNL     1     -33.682   6.659   2.955  1.00 20.00    -0.024 A 
ENDROOT
BRANCH   3   4
HETATM    4  C5  UNL     1     -33.097   5.274   2.954  1.00 20.00     0.080 C 
BRANCH   4   5
HETATM    5  S7  UNL     1     -32.292   4.910   1.364  1.00 20.00    -0.181 SA
HETATM    6  H20 UNL     1     -33.375   5.129   0.607  1.00 20.00     0.101 HD
ENDBRANCH   4   5
ENDBRANCH   3   4
BRANCH   3   7
HETATM    7  C6  UNL     1     -33.452   7.436   1.687  1.00 20.00     0.083 C 
BRANCH   7   8
HETATM    8  S8  UNL     1     -31.930   8.424   1.798  1.00 20.00    -0.173 SA
HETATM    9  C4  UNL     1     -32.285   9.597   0.469  1.00 20.00     0.089 C 
ENDBRANCH   7   8
ENDBRANCH   3   7
TORSDOF 4
ENDMDL
MODEL 8
REMARK VINA RESULT:       0.6      1.751      3.732
REMARK  4 active torsions:
REMARK  status: ('A' for Active; 'I' for Inactive)
REMARK    1  A    between atoms: C3_3  and  C5_5 
REMARK    2  A    between atoms: C3_3  and  C6_6 
REMARK    3  A    between atoms: C5_5  and  S7_7 
REMARK    4  A    between atoms: C6_6  and  S8_8 
ROOT
HETATM    1  C1  UNL     1     -31.395   8.038   1.820  1.00 20.00     0.012 A 
HETATM    2  C2  UNL     1     -32.674   8.740   1.457  1.00 20.00     0.012 A 
HETATM    3  C3  UNL     1     -32.724   7.378   2.109  1.00 20.00    -0.024 A 
ENDROOT
BRANCH   3   4
HETATM    4  C5  UNL     1     -33.128   6.204   1.260  1.00 20.00     0.080 C 
BRANCH   4   5
HETATM    5  S7  UNL     1     -31.902   4.866   1.377  1.00 20.00    -0.181 SA
HETATM    6  H20 UNL     1     -32.532   4.184   2.342  1.00 20.00     0.101 HD
ENDBRANCH   4   5
ENDBRANCH   3   4
BRANCH   3   7
HETATM    7  C6  UNL     1     -33.174   7.298   3.542  1.00 20.00     0.083 C 
BRANCH   7   8
HETATM    8  S8  UNL     1     -34.883   6.689   3.652  1.00 20.00    -0.173 SA
HETATM    9  C4  UNL     1     -34.527   5.018   4.243  1.00 20.00     0.089 C 
ENDBRANCH   7   8
ENDBRANCH   3   7
TORSDOF 4
ENDMDL
MODEL 9
REMARK VINA RESULT:       0.9      1.462      3.762
REMARK  4 active torsions:
REMARK  status: ('A' for Active; 'I' for Inactive)
REMARK    1  A    between atoms: C3_3  and  C5_5 
REMARK    2  A    between atoms: C3_3  and  C6_6 
REMARK    3  A    between atoms: C5_5  and  S7_7 
REMARK    4  A    between atoms: C6_6  and  S8_8 
ROOT
HETATM    1  C1  UNL     1     -30.926   7.487   1.849  1.00 20.00     0.012 A 
HETATM    2  C2  UNL     1     -31.571   8.611   2.610  1.00 20.00     0.012 A 
HETATM    3  C3  UNL     1     -32.384   7.813   1.617  1.00 20.00    -0.024 A 
ENDROOT
BRANCH   3   4
HETATM    4  C5  UNL     1     -32.761   8.474   0.321  1.00 20.00     0.080 C 
BRANCH   4   5
HETATM    5  S7  UNL     1     -32.572  10.279   0.433  1.00 20.00    -0.181 SA
HETATM    6  H20 UNL     1     -32.064  10.289   1.672  1.00 20.00     0.101 HD
ENDBRANCH   4   5
ENDBRANCH   3   4
BRANCH   3   7
HETATM    7  C6  UNL     1     -33.414   6.857   2.156  1.00 20.00     0.083 C 
BRANCH   7   8
HETATM    8  S8  UNL     1     -34.035   7.414   3.770  1.00 20.00    -0.173 SA
HETATM    9  C4  UNL     1     -35.292   6.140   4.019  1.00 20.00     0.089 C 
ENDBRANCH   7   8
ENDBRANCH   3   7
TORSDOF 4
ENDMDL
