MODEL 1
REMARK VINA RESULT:       0.0      0.000      0.000
REMARK  5 active torsions:
REMARK  status: ('A' for Active; 'I' for Inactive)
REMARK    1  A    between atoms: C5_5  and  C8_8 
REMARK    2  A    between atoms: C5_5  and  N9_9 
REMARK    3  A    between atoms: C6_6  and  C8_8 
REMARK    4  A    between atoms: C6_6  and  S10_10 
REMARK    5  A    between atoms: C7_7  and  C8_8 
ROOT
HETATM    1  C8  UNL     1     -33.391   7.193   2.343  1.00 20.00     0.024 C 
ENDROOT
BRANCH   1   2
HETATM    2  C5  UNL     1     -32.253   8.215   2.127  1.00 20.00     0.239 C 
BRANCH   2   3
HETATM    3  N9  UNL     1     -32.374   8.905   0.820  1.00 20.00    -0.078 N 
HETATM    4  C3  UNL     1     -32.740  10.362   0.963  1.00 20.00     0.269 C 
HETATM    5  C4  UNL     1     -31.146   8.735  -0.042  1.00 20.00     0.269 C 
HETATM    6  H29 UNL     1     -33.152   8.465   0.299  1.00 20.00     0.278 HD
ENDBRANCH   2   3
ENDBRANCH   1   2
BRANCH   1   7
HETATM    7  C6  UNL     1     -32.896   5.725   2.390  1.00 20.00     0.077 C 
BRANCH   7   8
HETATM    8  S10 UNL     1     -32.165   5.110   0.840  1.00 20.00    -0.182 SA
HETATM    9  H30 UNL     1     -30.892   5.327   1.195  1.00 20.00     0.101 HD
ENDBRANCH   7   8
ENDBRANCH   1   7
BRANCH   1  10
HETATM   10  C7  UNL     1     -34.263   7.506   3.608  1.00 20.00    -0.016 C 
HETATM   11  C1  UNL     1     -33.419   7.960   4.808  1.00 20.00     0.010 C 
HETATM   12  C2  UNL     1     -35.105   6.300   4.048  1.00 20.00     0.010 C 
ENDBRANCH   1  10
TORSDOF 5
ENDMDL
MODEL 2
REMARK VINA RESULT:       0.3      0.592      1.258
REMARK  5 active torsions:
REMARK  status: ('A' for Active; 'I' for Inactive)
REMARK    1  A    between atoms: C5_5  and  C8_8 
REMARK    2  A    between atoms: C5_5  and  N9_9 
REMARK    3  A    between atoms: C6_6  and  C8_8 
REMARK    4  A    between atoms: C6_6  and  S10_10 
REMARK    5  A    between atoms: C7_7  and  C8_8 
ROOT
HETATM    1  C8  UNL     1     -33.212   7.094   2.255  1.00 20.00     0.024 C 
ENDROOT
BRANCH   1   2
HETATM    2  C5  UNL     1     -32.273   8.313   2.118  1.00 20.00     0.239 C 
BRANCH   2   3
HETATM    3  N9  UNL     1     -32.383   8.945   0.782  1.00 20.00    -0.078 N 
HETATM    4  C3  UNL     1     -32.746  10.408   0.858  1.00 20.00     0.269 C 
HETATM    5  C4  UNL     1     -31.150   8.733  -0.064  1.00 20.00     0.269 C 
HETATM    6  H29 UNL     1     -33.159   8.484   0.276  1.00 20.00     0.278 HD
ENDBRANCH   2   3
ENDBRANCH   1   2
BRANCH   1   7
HETATM    7  C6  UNL     1     -32.587   5.778   1.726  1.00 20.00     0.077 C 
BRANCH   7   8
HETATM    8  S10 UNL     1     -33.455   5.028   0.311  1.00 20.00    -0.182 SA
HETATM    9  H30 UNL     1     -34.215   4.201   1.042  1.00 20.00     0.101 HD
ENDBRANCH   7   8
ENDBRANCH   1   7
BRANCH   1  10
HETATM   10  C7  UNL     1     -33.738   6.888   3.717  1.00 20.00    -0.016 C 
HETATM   11  C1  UNL     1     -35.190   6.390   3.757  1.00 20.00     0.010 C 
HETATM   12  C2  UNL     1     -33.653   8.173   4.554  1.00 20.00     0.010 C 
ENDBRANCH   1  10
TORSDOF 5
ENDMDL
MODEL 3
REMARK VINA RESULT:       0.5      2.243      4.287
REMARK  5 active torsions:
REMARK  status: ('A' for Active; 'I' for Inactive)
REMARK    1  A    between atoms: C5_5  and  C8_8 
REMARK    2  A    between atoms: C5_5  and  N9_9 
REMARK    3  A    between atoms: C6_6  and  C8_8 
REMARK    4  A    between atoms: C6_6  and  S10_10 
REMARK    5  A    between atoms: C7_7  and  C8_8 
ROOT
HETATM    1  C8  UNL     1     -32.927   6.870   1.676  1.00 20.00     0.024 C 
ENDROOT
BRANCH   1   2
HETATM    2  C5  UNL     1     -33.228   6.329   3.091  1.00 20.00     0.239 C 
BRANCH   2   3
HETATM    3  N9  UNL     1     -34.346   7.060   3.734  1.00 20.00    -0.078 N 
HETATM    4  C3  UNL     1     -35.450   6.142   4.199  1.00 20.00     0.269 C 
HETATM    5  C4  UNL     1     -33.883   7.963   4.852  1.00 20.00     0.269 C 
HETATM    6  H29 UNL     1     -34.770   7.680   3.023  1.00 20.00     0.278 HD
ENDBRANCH   2   3
ENDBRANCH   1   2
BRANCH   1   7
HETATM    7  C6  UNL     1     -31.885   8.017   1.667  1.00 20.00     0.077 C 
BRANCH   7   8
HETATM    8  S10 UNL     1     -32.271   9.399   0.546  1.00 20.00    -0.182 SA
HETATM    9  H30 UNL     1     -32.221   8.677  -0.581  1.00 20.00     0.101 HD
ENDBRANCH   7   8
ENDBRANCH   1   7
BRANCH   1  10
HETATM   10  C7  UNL     1     -32.498   5.748   0.670  1.00 20.00    -0.016 C 
HETATM   11  C1  UNL     1     -33.690   4.929   0.155  1.00 20.00     0.010 C 
HETATM   12  C2  UNL     1     -31.481   4.774   1.283  1.00 20.00     0.010 C 
ENDBRANCH   1  10
TORSDOF 5
ENDMDL
MODEL 4
REMARK VINA RESULT:       0.7      2.205      3.064
REMARK  5 active torsions:
REMARK  status: ('A' for Active; 'I' for Inactive)
REMARK    1  A    between atoms: C5_5  and  C8_8 
REMARK    2  A    between atoms: C5_5  and  N9_9 
REMARK    3  A    between atoms: C6_6  and  C8_8 
REMARK    4  A    between atoms: C6_6  and  S10_10 
REMARK    5  A    between atoms: C7_7  and  C8_8 
ROOT
HETATM    1  C8  UNL     1     -34.288   5.234   3.530  1.00 20.00     0.024 C 
ENDROOT
BRANCH   1   2
HETATM    2  C5  UNL     1     -32.853   5.565   3.065  1.00 20.00     0.239 C 
BRANCH   2   3
HETATM    3  N9  UNL     1     -32.829   6.067   1.670  1.00 20.00    -0.078 N 
HETATM    4  C3  UNL     1     -32.050   7.352   1.527  1.00 20.00     0.269 C 
HETATM    5  C4  UNL     1     -32.347   5.027   0.687  1.00 20.00     0.269 C 
HETATM    6  H29 UNL     1     -33.801   6.290   1.396  1.00 20.00     0.278 HD
ENDBRANCH   2   3
ENDBRANCH   1   2
BRANCH   1   7
HETATM    7  C6  UNL     1     -34.341   4.116   4.603  1.00 20.00     0.077 C 
BRANCH   7   8
HETATM    8  S10 UNL     1     -32.999   2.889   4.503  1.00 20.00    -0.182 SA
HETATM    9  H30 UNL     1     -32.106   3.711   3.935  1.00 20.00     0.101 HD
ENDBRANCH   7   8
ENDBRANCH   1   7
BRANCH   1  10
HETATM   10  C7  UNL     1     -35.075   6.494   4.030  1.00 20.00    -0.016 C 
HETATM   11  C1  UNL     1     -36.148   6.953   3.031  1.00 20.00     0.010 C 
HETATM   12  C2  UNL     1     -34.149   7.685   4.315  1.00 20.00     0.010 C 
ENDBRANCH   1  10
TORSDOF 5
ENDMDL
MODEL 5
REMARK VINA RESULT:       0.8      1.423      4.014
REMARK  5 active torsions:
REMARK  status: ('A' for Active; 'I' for Inactive)
REMARK    1  A    between atoms: C5_5  and  C8_8 
REMARK    2  A    between atoms: C5_5  and  N9_9 
REMARK    3  A    between atoms: C6_6  and  C8_8 
REMARK    4  A    between atoms: C6_6  and  S10_10 
REMARK    5  A    between atoms: C7_7  and  C8_8 
ROOT
HETATM    1  C8  UNL     1     -32.357   8.264   1.922  1.00 20.00     0.024 C 
ENDROOT
BRANCH   1   2
HETATM    2  C5  UNL     1     -33.750   8.144   2.579  1.00 20.00     0.239 C 
BRANCH   2   3
HETATM    3  N9  UNL     1     -33.711   7.311   3.805  1.00 20.00    -0.078 N 
HETATM    4  C3  UNL     1     -33.428   8.117   5.049  1.00 20.00     0.269 C 
HETATM    5  C4  UNL     1     -34.952   6.468   3.973  1.00 20.00     0.269 C 
HETATM    6  H29 UNL     1     -32.925   6.645   3.711  1.00 20.00     0.278 HD
ENDBRANCH   2   3
ENDBRANCH   1   2
BRANCH   1   7
HETATM    7  C6  UNL     1     -31.644   6.898   1.746  1.00 20.00     0.077 C 
BRANCH   7   8
HETATM    8  S10 UNL     1     -32.690   5.564   1.082  1.00 20.00    -0.182 SA
HETATM    9  H30 UNL     1     -33.193   5.184   2.264  1.00 20.00     0.101 HD
ENDBRANCH   7   8
ENDBRANCH   1   7
BRANCH   1  10
HETATM   10  C7  UNL     1     -32.389   9.032   0.556  1.00 20.00    -0.016 C 
HETATM   11  C1  UNL     1     -31.055   8.945  -0.200  1.00 20.00     0.010 C 
HETATM   12  C2  UNL     1     -32.740  10.517   0.730  1.00 20.00     0.010 C 
ENDBRANCH   1  10
TORSDOF 5
ENDMDL
MODEL 6
REMARK VINA RESULT:       0.8      2.908      5.024
REMARK  5 active torsions:
REMARK  status: ('A' for Active; 'I' for Inactive)
REMARK    1  A    between atoms: C5_5  and  C8_8 
REMARK    2  A    between atoms: C5_5  and  N9_9 
REMARK    3  A    between atoms: C6_6  and  C8_8 
REMARK    4  A    between atoms: C6_6  and  S10_10 
REMARK    5  A    between atoms: C7_7  and  C8_8 
ROOT
HETATM    1  C8  UNL     1     -33.717   6.321   2.667  1.00 20.00     0.024 C 
ENDROOT
BRANCH   1   2
HETATM    2  C5  UNL     1     -33.106   5.279   3.630  1.00 20.00     0.239 C 
BRANCH   2   3
HETATM    3  N9  UNL     1     -34.073   4.207   3.966  1.00 20.00    -0.078 N 
HETATM    4  C3  UNL     1     -33.433   3.053   4.698  1.00 20.00     0.269 C 
HETATM    5  C4  UNL     1     -35.278   4.725   4.715  1.00 20.00     0.269 C 
HETATM    6  H29 UNL     1     -34.435   3.817   3.079  1.00 20.00     0.278 HD
ENDBRANCH   2   3
ENDBRANCH   1   2
BRANCH   1   7
HETATM    7  C6  UNL     1     -34.101   7.650   3.366  1.00 20.00     0.077 C 
BRANCH   7   8
HETATM    8  S10 UNL     1     -33.273   7.948   4.960  1.00 20.00    -0.182 SA
HETATM    9  H30 UNL     1     -33.761   9.183   5.138  1.00 20.00     0.101 HD
ENDBRANCH   7   8
ENDBRANCH   1   7
BRANCH   1  10
HETATM   10  C7  UNL     1     -32.807   6.613   1.424  1.00 20.00    -0.016 C 
HETATM   11  C1  UNL     1     -31.914   5.420   1.053  1.00 20.00     0.010 C 
HETATM   12  C2  UNL     1     -31.902   7.835   1.639  1.00 20.00     0.010 C 
ENDBRANCH   1  10
TORSDOF 5
ENDMDL
MODEL 7
REMARK VINA RESULT:       1.0      1.480      3.854
REMARK  5 active torsions:
REMARK  status: ('A' for Active; 'I' for Inactive)
REMARK    1  A    between atoms: C5_5  and  C8_8 
REMARK    2  A    between atoms: C5_5  and  N9_9 
REMARK    3  A    between atoms: C6_6  and  C8_8 
REMARK    4  A    between atoms: C6_6  and  S10_10 
REMARK    5  A    between atoms: C7_7  and  C8_8 
ROOT
HETATM    1  C8  UNL     1     -32.165   8.211   1.913  1.00 20.00     0.024 C 
ENDROOT
BRANCH   1   2
HETATM    2  C5  UNL     1     -33.617   7.998   2.395  1.00 20.00     0.239 C 
BRANCH   2   3
HETATM    3  N9  UNL     1     -33.665   7.303   3.703  1.00 20.00    -0.078 N 
HETATM    4  C3  UNL     1     -33.359   8.221   4.861  1.00 20.00     0.269 C 
HETATM    5  C4  UNL     1     -34.965   6.566   3.922  1.00 20.00     0.269 C 
HETATM    6  H29 UNL     1     -32.924   6.581   3.707  1.00 20.00     0.278 HD
ENDBRANCH   2   3
ENDBRANCH   1   2
BRANCH   1   7
HETATM    7  C6  UNL     1     -31.497   6.915   1.385  1.00 20.00     0.077 C 
BRANCH   7   8
HETATM    8  S10 UNL     1     -32.626   5.504   1.164  1.00 20.00    -0.182 SA
HETATM    9  H30 UNL     1     -32.601   5.518  -0.175  1.00 20.00     0.101 HD
ENDBRANCH   7   8
ENDBRANCH   1   7
BRANCH   1  10
HETATM   10  C7  UNL     1     -32.036   9.353   0.846  1.00 20.00    -0.016 C 
HETATM   11  C1  UNL     1     -32.876  10.589   1.200  1.00 20.00     0.010 C 
HETATM   12  C2  UNL     1     -32.444   8.887  -0.559  1.00 20.00     0.010 C 
ENDBRANCH   1  10
TORSDOF 5
ENDMDL
MODEL 8
REMARK VINA RESULT:       1.0      2.344      3.224
REMARK  5 active torsions:
REMARK  status: ('A' for Active; 'I' for Inactive)
REMARK    1  A    between atoms: C5_5  and  C8_8 
REMARK    2  A    between atoms: C5_5  and  N9_9 
REMARK    3  A    between atoms: C6_6  and  C8_8 
REMARK    4  A    between atoms: C6_6  and  S10_10 
REMARK    5  A    between atoms: C7_7  and  C8_8 
ROOT
HETATM    1  C8  UNL     1     -33.756   6.075   3.283  1.00 20.00     0.024 C 
ENDROOT
BRANCH   1   2
HETATM    2  C5  UNL     1     -33.736   6.244   1.747  1.00 20.00     0.239 C 
BRANCH   2   3
HETATM    3  N9  UNL     1     -32.357   6.414   1.230  1.00 20.00    -0.078 N 
HETATM    4  C3  UNL     1     -31.722   7.708   1.679  1.00 20.00     0.269 C 
HETATM    5  C4  UNL     1     -31.469   5.234   1.545  1.00 20.00     0.269 C 
HETATM    6  H29 UNL     1     -32.409   6.465   0.198  1.00 20.00     0.278 HD
ENDBRANCH   2   3
ENDBRANCH   1   2
BRANCH   1   7
HETATM    7  C6  UNL     1     -34.351   7.298   4.026  1.00 20.00     0.077 C 
BRANCH   7   8
HETATM    8  S10 UNL     1     -33.157   8.255   5.012  1.00 20.00    -0.182 SA
HETATM    9  H30 UNL     1     -33.051   7.360   6.003  1.00 20.00     0.101 HD
ENDBRANCH   7   8
ENDBRANCH   1   7
BRANCH   1  10
HETATM   10  C7  UNL     1     -34.478   4.763   3.744  1.00 20.00    -0.016 C 
HETATM   11  C1  UNL     1     -35.543   5.023   4.820  1.00 20.00     0.010 C 
HETATM   12  C2  UNL     1     -33.495   3.717   4.291  1.00 20.00     0.010 C 
ENDBRANCH   1  10
TORSDOF 5
ENDMDL
MODEL 9
REMARK VINA RESULT:       1.0      2.169      3.128
REMARK  5 active torsions:
REMARK  status: ('A' for Active; 'I' for Inactive)
REMARK    1  A    between atoms: C5_5  and  C8_8 
REMARK    2  A    between atoms: C5_5  and  N9_9 
REMARK    3  A    between atoms: C6_6  and  C8_8 
REMARK    4  A    between atoms: C6_6  and  S10_10 
REMARK    5  A    between atoms: C7_7  and  C8_8 
ROOT
HETATM    1  C8  UNL     1     -32.851   7.183   2.619  1.00 20.00     0.024 C 
ENDROOT
BRANCH   1   2
HETATM    2  C5  UNL     1     -33.392   6.502   1.342  1.00 20.00     0.239 C 
BRANCH   2   3
HETATM    3  N9  UNL     1     -32.907   5.107   1.215  1.00 20.00    -0.078 N 
HETATM    4  C3  UNL     1     -33.427   4.420  -0.024  1.00 20.00     0.269 C 
HETATM    5  C4  UNL     1     -31.403   5.004   1.304  1.00 20.00     0.269 C 
HETATM    6  H29 UNL     1     -33.278   4.568   2.017  1.00 20.00     0.278 HD
ENDBRANCH   2   3
ENDBRANCH   1   2
BRANCH   1   7
HETATM    7  C6  UNL     1     -31.955   8.413   2.325  1.00 20.00     0.077 C 
BRANCH   7   8
HETATM    8  S10 UNL     1     -32.257   9.218   0.720  1.00 20.00    -0.182 SA
HETATM    9  H30 UNL     1     -31.732   8.236  -0.025  1.00 20.00     0.101 HD
ENDBRANCH   7   8
ENDBRANCH   1   7
BRANCH   1  10
HETATM   10  C7  UNL     1     -33.984   7.574   3.630  1.00 20.00    -0.016 C 
HETATM   11  C1  UNL     1     -33.429   8.082   4.969  1.00 20.00     0.010 C 
HETATM   12  C2  UNL     1     -34.934   6.404   3.923  1.00 20.00     0.010 C 
ENDBRANCH   1  10
TORSDOF 5
ENDMDL
