MODEL 1
REMARK VINA RESULT:      -0.7      0.000      0.000
REMARK  6 active torsions:
REMARK  status: ('A' for Active; 'I' for Inactive)
REMARK    1  A    between atoms: C3_3  and  C4_4 
REMARK    2  A    between atoms: C4_4  and  C7_7 
REMARK    3  A    between atoms: C5_5  and  C7_7 
REMARK    4  A    between atoms: C5_5  and  S8_8 
REMARK    5  A    between atoms: C6_6  and  C7_7 
REMARK    6  A    between atoms: C6_6  and  S9_9 
ROOT
HETATM    1  C7  UNL     1     -32.781   7.145   2.755  1.00 20.00     0.004 C 
ENDROOT
BRANCH   1   2
HETATM    2  C4  UNL     1     -32.074   8.434   2.259  1.00 20.00     0.006 C 
BRANCH   2   3
HETATM    3  C3  UNL     1     -32.110   8.688   0.748  1.00 20.00    -0.004 C 
HETATM    4  C1  UNL     1     -32.519  10.105   0.380  1.00 20.00     0.005 C 
ENDBRANCH   2   3
ENDBRANCH   1   2
BRANCH   1   5
HETATM    5  C5  UNL     1     -33.245   6.340   1.520  1.00 20.00     0.076 C 
BRANCH   5   6
HETATM    6  S8  UNL     1     -32.113   4.995   1.056  1.00 20.00    -0.182 SA
HETATM    7  H25 UNL     1     -31.986   4.489   2.289  1.00 20.00     0.101 HD
ENDBRANCH   5   6
ENDBRANCH   1   5
BRANCH   1   8
HETATM    8  C6  UNL     1     -33.890   7.414   3.797  1.00 20.00     0.078 C 
BRANCH   8   9
HETATM    9  S9  UNL     1     -35.270   6.228   3.794  1.00 20.00    -0.173 SA
HETATM   10  C2  UNL     1     -34.345   4.754   4.282  1.00 20.00     0.089 C 
ENDBRANCH   8   9
ENDBRANCH   1   8
TORSDOF 6
ENDMDL
MODEL 2
REMARK VINA RESULT:      -0.7      1.576      4.314
REMARK  6 active torsions:
REMARK  status: ('A' for Active; 'I' for Inactive)
REMARK    1  A    between atoms: C3_3  and  C4_4 
REMARK    2  A    between atoms: C4_4  and  C7_7 
REMARK    3  A    between atoms: C5_5  and  C7_7 
REMARK    4  A    between atoms: C5_5  and  S8_8 
REMARK    5  A    between atoms: C6_6  and  C7_7 
REMARK    6  A    between atoms: C6_6  and  S9_9 
ROOT
HETATM    1  C7  UNL     1     -33.109   7.233   2.260  1.00 20.00     0.004 C 
ENDROOT
BRANCH   1   2
HETATM    2  C4  UNL     1     -33.748   7.216   3.673  1.00 20.00     0.006 C 
BRANCH   2   3
HETATM    3  C3  UNL     1     -35.128   6.558   3.785  1.00 20.00    -0.004 C 
HETATM    4  C1  UNL     1     -35.090   5.167   4.398  1.00 20.00     0.005 C 
ENDBRANCH   2   3
ENDBRANCH   1   2
BRANCH   1   5
HETATM    5  C5  UNL     1     -32.625   5.803   1.928  1.00 20.00     0.076 C 
BRANCH   5   6
HETATM    6  S8  UNL     1     -33.359   5.115   0.414  1.00 20.00    -0.182 SA
HETATM    7  H25 UNL     1     -32.351   5.456  -0.397  1.00 20.00     0.101 HD
ENDBRANCH   5   6
ENDBRANCH   1   5
BRANCH   1   8
HETATM    8  C6  UNL     1     -32.034   8.329   2.084  1.00 20.00     0.078 C 
BRANCH   8   9
HETATM    9  S9  UNL     1     -31.718   8.845   0.368  1.00 20.00    -0.173 SA
HETATM   10  C2  UNL     1     -32.684  10.372   0.375  1.00 20.00     0.089 C 
ENDBRANCH   8   9
ENDBRANCH   1   8
TORSDOF 6
ENDMDL
MODEL 3
REMARK VINA RESULT:      -0.6      1.733      5.034
REMARK  6 active torsions:
REMARK  status: ('A' for Active; 'I' for Inactive)
REMARK    1  A    between atoms: C3_3  and  C4_4 
REMARK    2  A    between atoms: C4_4  and  C7_7 
REMARK    3  A    between atoms: C5_5  and  C7_7 
REMARK    4  A    between atoms: C5_5  and  S8_8 
REMARK    5  A    between atoms: C6_6  and  C7_7 
REMARK    6  A    between atoms: C6_6  and  S9_9 
ROOT
HETATM    1  C7  UNL     1     -33.370   6.113   3.107  1.00 20.00     0.004 C 
ENDROOT
BRANCH   1   2
HETATM    2  C4  UNL     1     -33.905   4.657   3.108  1.00 20.00     0.006 C 
BRANCH   2   3
HETATM    3  C3  UNL     1     -34.078   3.999   4.481  1.00 20.00    -0.004 C 
HETATM    4  C1  UNL     1     -33.109   2.854   4.734  1.00 20.00     0.005 C 
ENDBRANCH   2   3
ENDBRANCH   1   2
BRANCH   1   5
HETATM    5  C5  UNL     1     -34.395   7.008   3.838  1.00 20.00     0.076 C 
BRANCH   5   6
HETATM    6  S8  UNL     1     -33.639   8.214   4.969  1.00 20.00    -0.182 SA
HETATM    7  H25 UNL     1     -33.228   7.317   5.875  1.00 20.00     0.101 HD
ENDBRANCH   5   6
ENDBRANCH   1   5
BRANCH   1   8
HETATM    8  C6  UNL     1     -32.964   6.619   1.705  1.00 20.00     0.078 C 
BRANCH   8   9
HETATM    9  S9  UNL     1     -31.649   7.876   1.678  1.00 20.00    -0.173 SA
HETATM   10  C2  UNL     1     -32.519   9.140   0.723  1.00 20.00     0.089 C 
ENDBRANCH   8   9
ENDBRANCH   1   8
TORSDOF 6
ENDMDL
MODEL 4
REMARK VINA RESULT:      -0.5      1.911      2.975
REMARK  6 active torsions:
REMARK  status: ('A' for Active; 'I' for Inactive)
REMARK    1  A    between atoms: C3_3  and  C4_4 
REMARK    2  A    between atoms: C4_4  and  C7_7 
REMARK    3  A    between atoms: C5_5  and  C7_7 
REMARK    4  A    between atoms: C5_5  and  S8_8 
REMARK    5  A    between atoms: C6_6  and  C7_7 
REMARK    6  A    between atoms: C6_6  and  S9_9 
ROOT
HETATM    1  C7  UNL     1     -33.263   7.304   2.155  1.00 20.00     0.004 C 
ENDROOT
BRANCH   1   2
HETATM    2  C4  UNL     1     -33.111   5.941   1.432  1.00 20.00     0.006 C 
BRANCH   2   3
HETATM    3  C3  UNL     1     -31.696   5.356   1.378  1.00 20.00    -0.004 C 
HETATM    4  C1  UNL     1     -31.511   4.309   0.291  1.00 20.00     0.005 C 
ENDBRANCH   2   3
ENDBRANCH   1   2
BRANCH   1   5
HETATM    5  C5  UNL     1     -31.993   8.143   1.884  1.00 20.00     0.076 C 
BRANCH   5   6
HETATM    6  S8  UNL     1     -32.207   9.393   0.582  1.00 20.00    -0.182 SA
HETATM    7  H25 UNL     1     -31.253   8.916  -0.227  1.00 20.00     0.101 HD
ENDBRANCH   5   6
ENDBRANCH   1   5
BRANCH   1   8
HETATM    8  C6  UNL     1     -33.633   7.171   3.650  1.00 20.00     0.078 C 
BRANCH   8   9
HETATM    9  S9  UNL     1     -35.175   6.268   3.995  1.00 20.00    -0.173 SA
HETATM   10  C2  UNL     1     -34.457   4.641   4.313  1.00 20.00     0.089 C 
ENDBRANCH   8   9
ENDBRANCH   1   8
TORSDOF 6
ENDMDL
MODEL 5
REMARK VINA RESULT:      -0.3      1.254      1.328
REMARK  6 active torsions:
REMARK  status: ('A' for Active; 'I' for Inactive)
REMARK    1  A    between atoms: C3_3  and  C4_4 
REMARK    2  A    between atoms: C4_4  and  C7_7 
REMARK    3  A    between atoms: C5_5  and  C7_7 
REMARK    4  A    between atoms: C5_5  and  S8_8 
REMARK    5  A    between atoms: C6_6  and  C7_7 
REMARK    6  A    between atoms: C6_6  and  S9_9 
ROOT
HETATM    1  C7  UNL     1     -32.172   7.417   2.111  1.00 20.00     0.004 C 
ENDROOT
BRANCH   1   2
HETATM    2  C4  UNL     1     -31.609   8.477   1.129  1.00 20.00     0.006 C 
BRANCH   2   3
HETATM    3  C3  UNL     1     -32.470   9.726   0.913  1.00 20.00    -0.004 C 
HETATM    4  C1  UNL     1     -32.730  10.041  -0.551  1.00 20.00     0.005 C 
ENDBRANCH   2   3
ENDBRANCH   1   2
BRANCH   1   5
HETATM    5  C5  UNL     1     -31.868   6.013   1.540  1.00 20.00     0.076 C 
BRANCH   5   6
HETATM    6  S8  UNL     1     -33.294   5.228   0.730  1.00 20.00    -0.182 SA
HETATM    7  H25 UNL     1     -34.229   5.875   1.436  1.00 20.00     0.101 HD
ENDBRANCH   5   6
ENDBRANCH   1   5
BRANCH   1   8
HETATM    8  C6  UNL     1     -33.654   7.648   2.483  1.00 20.00     0.078 C 
BRANCH   8   9
HETATM    9  S9  UNL     1     -34.060   7.436   4.245  1.00 20.00    -0.173 SA
HETATM   10  C2  UNL     1     -35.295   6.129   4.070  1.00 20.00     0.089 C 
ENDBRANCH   8   9
ENDBRANCH   1   8
TORSDOF 6
ENDMDL
MODEL 6
REMARK VINA RESULT:      -0.3      1.714      2.420
REMARK  6 active torsions:
REMARK  status: ('A' for Active; 'I' for Inactive)
REMARK    1  A    between atoms: C3_3  and  C4_4 
REMARK    2  A    between atoms: C4_4  and  C7_7 
REMARK    3  A    between atoms: C5_5  and  C7_7 
REMARK    4  A    between atoms: C5_5  and  S8_8 
REMARK    5  A    between atoms: C6_6  and  C7_7 
REMARK    6  A    between atoms: C6_6  and  S9_9 
ROOT
HETATM    1  C7  UNL     1     -33.544   6.782   2.679  1.00 20.00     0.004 C 
ENDROOT
BRANCH   1   2
HETATM    2  C4  UNL     1     -32.250   7.606   2.451  1.00 20.00     0.006 C 
BRANCH   2   3
HETATM    3  C3  UNL     1     -31.951   8.010   1.003  1.00 20.00    -0.004 C 
HETATM    4  C1  UNL     1     -32.364   9.436   0.672  1.00 20.00     0.005 C 
ENDBRANCH   2   3
ENDBRANCH   1   2
BRANCH   1   5
HETATM    5  C5  UNL     1     -34.341   7.437   3.830  1.00 20.00     0.076 C 
BRANCH   5   6
HETATM    6  S8  UNL     1     -33.295   8.249   5.075  1.00 20.00    -0.182 SA
HETATM    7  H25 UNL     1     -32.129   7.972   4.480  1.00 20.00     0.101 HD
ENDBRANCH   5   6
ENDBRANCH   1   5
BRANCH   1   8
HETATM    8  C6  UNL     1     -33.285   5.269   2.861  1.00 20.00     0.078 C 
BRANCH   8   9
HETATM    9  S9  UNL     1     -34.301   4.449   4.130  1.00 20.00    -0.173 SA
HETATM   10  C2  UNL     1     -33.167   3.102   4.538  1.00 20.00     0.089 C 
ENDBRANCH   8   9
ENDBRANCH   1   8
TORSDOF 6
ENDMDL
MODEL 7
REMARK VINA RESULT:      -0.3      1.684      4.230
REMARK  6 active torsions:
REMARK  status: ('A' for Active; 'I' for Inactive)
REMARK    1  A    between atoms: C3_3  and  C4_4 
REMARK    2  A    between atoms: C4_4  and  C7_7 
REMARK    3  A    between atoms: C5_5  and  C7_7 
REMARK    4  A    between atoms: C5_5  and  S8_8 
REMARK    5  A    between atoms: C6_6  and  C7_7 
REMARK    6  A    between atoms: C6_6  and  S9_9 
ROOT
HETATM    1  C7  UNL     1     -32.763   7.359   2.930  1.00 20.00     0.004 C 
ENDROOT
BRANCH   1   2
HETATM    2  C4  UNL     1     -33.154   6.342   1.826  1.00 20.00     0.006 C 
BRANCH   2   3
HETATM    3  C3  UNL     1     -32.108   5.276   1.486  1.00 20.00    -0.004 C 
HETATM    4  C1  UNL     1     -32.459   4.447   0.261  1.00 20.00     0.005 C 
ENDBRANCH   2   3
ENDBRANCH   1   2
BRANCH   1   5
HETATM    5  C5  UNL     1     -33.994   7.590   3.836  1.00 20.00     0.076 C 
BRANCH   5   6
HETATM    6  S8  UNL     1     -35.087   6.144   3.968  1.00 20.00    -0.182 SA
HETATM    7  H25 UNL     1     -35.060   6.071   5.305  1.00 20.00     0.101 HD
ENDBRANCH   5   6
ENDBRANCH   1   5
BRANCH   1   8
HETATM    8  C6  UNL     1     -32.125   8.653   2.377  1.00 20.00     0.078 C 
BRANCH   8   9
HETATM    9  S9  UNL     1     -31.908   8.708   0.571  1.00 20.00    -0.173 SA
HETATM   10  C2  UNL     1     -32.606  10.348   0.276  1.00 20.00     0.089 C 
ENDBRANCH   8   9
ENDBRANCH   1   8
TORSDOF 6
ENDMDL
MODEL 8
REMARK VINA RESULT:      -0.2      1.890      3.918
REMARK  6 active torsions:
REMARK  status: ('A' for Active; 'I' for Inactive)
REMARK    1  A    between atoms: C3_3  and  C4_4 
REMARK    2  A    between atoms: C4_4  and  C7_7 
REMARK    3  A    between atoms: C5_5  and  C7_7 
REMARK    4  A    between atoms: C5_5  and  S8_8 
REMARK    5  A    between atoms: C6_6  and  C7_7 
REMARK    6  A    between atoms: C6_6  and  S9_9 
ROOT
HETATM    1  C7  UNL     1     -34.299   5.251   3.486  1.00 20.00     0.004 C 
ENDROOT
BRANCH   1   2
HETATM    2  C4  UNL     1     -35.024   6.541   3.949  1.00 20.00     0.006 C 
BRANCH   2   3
HETATM    3  C3  UNL     1     -34.197   7.831   3.919  1.00 20.00    -0.004 C 
HETATM    4  C1  UNL     1     -33.392   8.066   5.187  1.00 20.00     0.005 C 
ENDBRANCH   2   3
ENDBRANCH   1   2
BRANCH   1   5
HETATM    5  C5  UNL     1     -34.402   4.203   4.617  1.00 20.00     0.076 C 
BRANCH   5   6
HETATM    6  S8  UNL     1     -33.109   2.927   4.552  1.00 20.00    -0.182 SA
HETATM    7  H25 UNL     1     -32.212   3.599   5.284  1.00 20.00     0.101 HD
ENDBRANCH   5   6
ENDBRANCH   1   5
BRANCH   1   8
HETATM    8  C6  UNL     1     -32.863   5.501   2.975  1.00 20.00     0.078 C 
BRANCH   8   9
HETATM    9  S9  UNL     1     -32.730   6.007   1.232  1.00 20.00    -0.173 SA
HETATM   10  C2  UNL     1     -31.858   7.570   1.482  1.00 20.00     0.089 C 
ENDBRANCH   8   9
ENDBRANCH   1   8
TORSDOF 6
ENDMDL
MODEL 9
REMARK VINA RESULT:      -0.1      1.818      2.819
REMARK  6 active torsions:
REMARK  status: ('A' for Active; 'I' for Inactive)
REMARK    1  A    between atoms: C3_3  and  C4_4 
REMARK    2  A    between atoms: C4_4  and  C7_7 
REMARK    3  A    between atoms: C5_5  and  C7_7 
REMARK    4  A    between atoms: C5_5  and  S8_8 
REMARK    5  A    between atoms: C6_6  and  C7_7 
REMARK    6  A    between atoms: C6_6  and  S9_9 
ROOT
HETATM    1  C7  UNL     1     -32.776   7.219   2.060  1.00 20.00     0.004 C 
ENDROOT
BRANCH   1   2
HETATM    2  C4  UNL     1     -32.035   5.901   1.716  1.00 20.00     0.006 C 
BRANCH   2   3
HETATM    3  C3  UNL     1     -32.702   5.001   0.670  1.00 20.00    -0.004 C 
HETATM    4  C1  UNL     1     -33.997   5.572   0.114  1.00 20.00     0.005 C 
ENDBRANCH   2   3
ENDBRANCH   1   2
BRANCH   1   5
HETATM    5  C5  UNL     1     -31.846   8.404   1.716  1.00 20.00     0.076 C 
BRANCH   5   6
HETATM    6  S8  UNL     1     -32.487   9.478   0.396  1.00 20.00    -0.182 SA
HETATM    7  H25 UNL     1     -33.340   8.580  -0.112  1.00 20.00     0.101 HD
ENDBRANCH   5   6
ENDBRANCH   1   5
BRANCH   1   8
HETATM    8  C6  UNL     1     -33.345   7.248   3.497  1.00 20.00     0.078 C 
BRANCH   8   9
HETATM    9  S9  UNL     1     -34.985   6.486   3.704  1.00 20.00    -0.173 SA
HETATM   10  C2  UNL     1     -34.442   4.816   4.127  1.00 20.00     0.089 C 
ENDBRANCH   8   9
ENDBRANCH   1   8
TORSDOF 6
ENDMDL
