MODEL 1
REMARK VINA RESULT:      -1.0      0.000      0.000
REMARK  1 active torsions:
REMARK  status: ('A' for Active; 'I' for Inactive)
REMARK    1  A    between atoms: C5_5  and  C12_12 
ROOT
HETATM    1  C1  UNL     1     -31.764   6.670   0.965  1.00 20.00     0.008 A 
HETATM    2  C2  UNL     1     -32.180   5.446   1.498  1.00 20.00     0.009 A 
HETATM    3  C3  UNL     1     -33.229   7.883   2.481  1.00 20.00     0.023 A 
HETATM    4  C4  UNL     1     -33.619   6.658   2.987  1.00 20.00     0.017 A 
HETATM    5  C5  UNL     1     -32.286   7.881   1.453  1.00 20.00    -0.053 A 
HETATM    6  C6  UNL     1     -33.116   5.451   2.519  1.00 20.00    -0.044 A 
HETATM    7  C7  UNL     1     -34.572   6.373   4.048  1.00 20.00     0.160 A 
HETATM    8  C8  UNL     1     -33.693   4.267   3.227  1.00 20.00     0.047 A 
HETATM    9  C9  UNL     1     -34.668   4.880   4.249  1.00 20.00     0.088 A 
HETATM   10  O13 UNL     1     -35.188   7.224   4.664  1.00 20.00    -0.292 OA
ENDROOT
BRANCH   5  11
HETATM   11  C12 UNL     1     -31.827   9.172   0.866  1.00 20.00     0.018 A 
HETATM   12  C10 UNL     1     -32.748  10.364   0.910  1.00 20.00     0.010 A 
HETATM   13  C11 UNL     1     -32.482   9.679  -0.394  1.00 20.00     0.010 A 
ENDBRANCH   5  11
TORSDOF 1
ENDMDL
MODEL 2
REMARK VINA RESULT:       1.5      1.522      2.308
REMARK  1 active torsions:
REMARK  status: ('A' for Active; 'I' for Inactive)
REMARK    1  A    between atoms: C5_5  and  C12_12 
ROOT
HETATM    1  C1  UNL     1     -33.730   8.851   2.720  1.00 20.00     0.008 A 
HETATM    2  C2  UNL     1     -34.534   8.140   3.618  1.00 20.00     0.009 A 
HETATM    3  C3  UNL     1     -32.630   6.802   2.007  1.00 20.00     0.023 A 
HETATM    4  C4  UNL     1     -33.439   6.129   2.903  1.00 20.00     0.017 A 
HETATM    5  C5  UNL     1     -32.785   8.186   1.921  1.00 20.00    -0.053 A 
HETATM    6  C6  UNL     1     -34.379   6.766   3.702  1.00 20.00    -0.044 A 
HETATM    7  C7  UNL     1     -33.489   4.704   3.192  1.00 20.00     0.160 A 
HETATM    8  C8  UNL     1     -35.128   5.821   4.586  1.00 20.00     0.047 A 
HETATM    9  C9  UNL     1     -34.535   4.442   4.248  1.00 20.00     0.088 A 
HETATM   10  O13 UNL     1     -32.784   3.870   2.652  1.00 20.00    -0.292 OA
ENDROOT
BRANCH   5  11
HETATM   11  C12 UNL     1     -31.939   8.967   0.973  1.00 20.00     0.018 A 
HETATM   12  C10 UNL     1     -32.411  10.323   0.518  1.00 20.00     0.010 A 
HETATM   13  C11 UNL     1     -32.420   9.173  -0.440  1.00 20.00     0.010 A 
ENDBRANCH   5  11
TORSDOF 1
ENDMDL
MODEL 3
REMARK VINA RESULT:       1.7      1.763      4.669
REMARK  1 active torsions:
REMARK  status: ('A' for Active; 'I' for Inactive)
REMARK    1  A    between atoms: C5_5  and  C12_12 
ROOT
HETATM    1  C1  UNL     1     -32.702   6.115   2.297  1.00 20.00     0.008 A 
HETATM    2  C2  UNL     1     -31.898   6.466   1.207  1.00 20.00     0.009 A 
HETATM    3  C3  UNL     1     -33.496   8.404   2.510  1.00 20.00     0.023 A 
HETATM    4  C4  UNL     1     -32.691   8.719   1.432  1.00 20.00     0.017 A 
HETATM    5  C5  UNL     1     -33.496   7.078   2.943  1.00 20.00    -0.053 A 
HETATM    6  C6  UNL     1     -31.900   7.783   0.778  1.00 20.00    -0.044 A 
HETATM    7  C7  UNL     1     -32.503  10.006   0.781  1.00 20.00     0.160 A 
HETATM    8  C8  UNL     1     -31.122   8.370  -0.356  1.00 20.00     0.047 A 
HETATM    9  C9  UNL     1     -31.522   9.856  -0.357  1.00 20.00     0.088 A 
HETATM   10  O13 UNL     1     -33.062  11.034   1.120  1.00 20.00    -0.292 OA
ENDROOT
BRANCH   5  11
HETATM   11  C12 UNL     1     -34.343   6.679   4.103  1.00 20.00     0.018 A 
HETATM   12  C10 UNL     1     -34.733   5.232   4.260  1.00 20.00     0.010 A 
HETATM   13  C11 UNL     1     -35.763   6.240   3.858  1.00 20.00     0.010 A 
ENDBRANCH   5  11
TORSDOF 1
ENDMDL
MODEL 4
REMARK VINA RESULT:       1.7      1.952      5.231
REMARK  1 active torsions:
REMARK  status: ('A' for Active; 'I' for Inactive)
REMARK    1  A    between atoms: C5_5  and  C12_12 
ROOT
HETATM    1  C1  UNL     1     -34.729   6.082   4.395  1.00 20.00     0.008 A 
HETATM    2  C2  UNL     1     -34.578   7.383   3.906  1.00 20.00     0.009 A 
HETATM    3  C3  UNL     1     -32.998   5.264   2.895  1.00 20.00     0.023 A 
HETATM    4  C4  UNL     1     -32.872   6.561   2.432  1.00 20.00     0.017 A 
HETATM    5  C5  UNL     1     -33.944   5.029   3.893  1.00 20.00    -0.053 A 
HETATM    6  C6  UNL     1     -33.637   7.615   2.915  1.00 20.00    -0.044 A 
HETATM    7  C7  UNL     1     -31.976   7.080   1.412  1.00 20.00     0.160 A 
HETATM    8  C8  UNL     1     -33.314   8.917   2.256  1.00 20.00     0.047 A 
HETATM    9  C9  UNL     1     -32.205   8.564   1.249  1.00 20.00     0.088 A 
HETATM   10  O13 UNL     1     -31.173   6.403   0.795  1.00 20.00    -0.292 OA
ENDROOT
BRANCH   5  11
HETATM   11  C12 UNL     1     -34.126   3.651   4.430  1.00 20.00     0.018 A 
HETATM   12  C10 UNL     1     -33.157   3.134   5.462  1.00 20.00     0.010 A 
HETATM   13  C11 UNL     1     -33.124   2.584   4.070  1.00 20.00     0.010 A 
ENDBRANCH   5  11
TORSDOF 1
ENDMDL
