MODEL 1
REMARK VINA RESULT:      -1.2      0.000      0.000
REMARK  5 active torsions:
REMARK  status: ('A' for Active; 'I' for Inactive)
REMARK    1  A    between atoms: C1_1  and  C7_7 
REMARK    2  A    between atoms: C2_2  and  C8_8 
REMARK    3  A    between atoms: C5_5  and  N9_9 
REMARK    4  A    between atoms: C7_7  and  N9_9 
REMARK    5  A    between atoms: C8_8  and  S10_10 
ROOT
HETATM    1  C7  UNL     1     -32.867   8.324   2.918  1.00 20.00     0.299 C 
ENDROOT
BRANCH   1   2
HETATM    2  C1  UNL     1     -33.428   7.135   3.638  1.00 20.00    -0.000 C 
HETATM    3  C2  UNL     1     -34.725   6.792   3.613  1.00 20.00    -0.019 C 
BRANCH   3   4
HETATM    4  C8  UNL     1     -35.282   5.602   4.328  1.00 20.00     0.097 C 
BRANCH   4   5
HETATM    5  S10 UNL     1     -34.118   4.216   4.234  1.00 20.00    -0.178 SA
HETATM    6  H25 UNL     1     -34.623   3.679   3.115  1.00 20.00     0.101 HD
ENDBRANCH   4   5
ENDBRANCH   3   4
ENDBRANCH   1   2
BRANCH   1   7
HETATM    7  N9  UNL     1     -32.617   8.030   1.510  1.00 20.00     0.092 N 
HETATM    8  C6  UNL     1     -31.752   6.857   1.375  1.00 20.00     0.310 C 
BRANCH   7   9
HETATM    9  C5  UNL     1     -32.016   9.185   0.842  1.00 20.00     0.223 A 
HETATM   10  C3  UNL     1     -32.594   9.706  -0.444  1.00 20.00     0.038 A 
HETATM   11  C4  UNL     1     -32.728  10.509   0.816  1.00 20.00     0.038 A 
ENDBRANCH   7   9
ENDBRANCH   1   7
TORSDOF 5
ENDMDL
MODEL 2
REMARK VINA RESULT:      -0.2      2.872      4.829
REMARK  5 active torsions:
REMARK  status: ('A' for Active; 'I' for Inactive)
REMARK    1  A    between atoms: C1_1  and  C7_7 
REMARK    2  A    between atoms: C2_2  and  C8_8 
REMARK    3  A    between atoms: C5_5  and  N9_9 
REMARK    4  A    between atoms: C7_7  and  N9_9 
REMARK    5  A    between atoms: C8_8  and  S10_10 
ROOT
HETATM    1  C7  UNL     1     -33.605   5.258   2.151  1.00 20.00     0.299 C 
ENDROOT
BRANCH   1   2
HETATM    2  C1  UNL     1     -32.541   6.195   1.664  1.00 20.00    -0.000 C 
HETATM    3  C2  UNL     1     -32.672   7.531   1.655  1.00 20.00    -0.019 C 
BRANCH   3   4
HETATM    4  C8  UNL     1     -31.607   8.465   1.174  1.00 20.00     0.097 C 
BRANCH   4   5
HETATM    5  S10 UNL     1     -32.351   9.846   0.266  1.00 20.00    -0.178 SA
HETATM    6  H25 UNL     1     -31.262  10.149  -0.455  1.00 20.00     0.101 HD
ENDBRANCH   4   5
ENDBRANCH   3   4
ENDBRANCH   1   2
BRANCH   1   7
HETATM    7  N9  UNL     1     -33.560   5.102   3.601  1.00 20.00     0.092 N 
HETATM    8  C6  UNL     1     -33.601   3.685   3.968  1.00 20.00     0.310 C 
BRANCH   7   9
HETATM    9  C5  UNL     1     -34.668   5.822   4.230  1.00 20.00     0.223 A 
HETATM   10  C3  UNL     1     -34.604   7.314   4.404  1.00 20.00     0.038 A 
HETATM   11  C4  UNL     1     -35.560   6.716   3.415  1.00 20.00     0.038 A 
ENDBRANCH   7   9
ENDBRANCH   1   7
TORSDOF 5
ENDMDL
MODEL 3
REMARK VINA RESULT:      -0.1      2.743      4.770
REMARK  5 active torsions:
REMARK  status: ('A' for Active; 'I' for Inactive)
REMARK    1  A    between atoms: C1_1  and  C7_7 
REMARK    2  A    between atoms: C2_2  and  C8_8 
REMARK    3  A    between atoms: C5_5  and  N9_9 
REMARK    4  A    between atoms: C7_7  and  N9_9 
REMARK    5  A    between atoms: C8_8  and  S10_10 
ROOT
HETATM    1  C7  UNL     1     -31.817   7.093   2.170  1.00 20.00     0.299 C 
ENDROOT
BRANCH   1   2
HETATM    2  C1  UNL     1     -32.269   8.336   1.464  1.00 20.00    -0.000 C 
HETATM    3  C2  UNL     1     -31.895   8.663   0.217  1.00 20.00    -0.019 C 
BRANCH   3   4
HETATM    4  C8  UNL     1     -32.352   9.901  -0.487  1.00 20.00     0.097 C 
BRANCH   4   5
HETATM    5  S10 UNL     1     -32.925  11.129   0.717  1.00 20.00    -0.178 SA
HETATM    6  H25 UNL     1     -34.043  11.467   0.058  1.00 20.00     0.101 HD
ENDBRANCH   4   5
ENDBRANCH   3   4
ENDBRANCH   1   2
BRANCH   1   7
HETATM    7  N9  UNL     1     -32.925   6.171   2.396  1.00 20.00     0.092 N 
HETATM    8  C6  UNL     1     -33.240   5.434   1.172  1.00 20.00     0.310 C 
BRANCH   7   9
HETATM    9  C5  UNL     1     -34.105   6.893   2.874  1.00 20.00     0.223 A 
HETATM   10  C3  UNL     1     -34.991   6.290   3.928  1.00 20.00     0.038 A 
HETATM   11  C4  UNL     1     -34.136   7.477   4.258  1.00 20.00     0.038 A 
ENDBRANCH   7   9
ENDBRANCH   1   7
TORSDOF 5
ENDMDL
MODEL 4
REMARK VINA RESULT:       0.0      1.332      1.804
REMARK  5 active torsions:
REMARK  status: ('A' for Active; 'I' for Inactive)
REMARK    1  A    between atoms: C1_1  and  C7_7 
REMARK    2  A    between atoms: C2_2  and  C8_8 
REMARK    3  A    between atoms: C5_5  and  N9_9 
REMARK    4  A    between atoms: C7_7  and  N9_9 
REMARK    5  A    between atoms: C8_8  and  S10_10 
ROOT
HETATM    1  C7  UNL     1     -32.064   6.937   1.263  1.00 20.00     0.299 C 
ENDROOT
BRANCH   1   2
HETATM    2  C1  UNL     1     -33.139   6.441   2.182  1.00 20.00    -0.000 C 
HETATM    3  C2  UNL     1     -33.128   5.227   2.755  1.00 20.00    -0.019 C 
BRANCH   3   4
HETATM    4  C8  UNL     1     -34.200   4.736   3.677  1.00 20.00     0.097 C 
BRANCH   4   5
HETATM    5  S10 UNL     1     -35.297   6.101   4.142  1.00 20.00    -0.178 SA
HETATM    6  H25 UNL     1     -36.423   5.374   4.180  1.00 20.00     0.101 HD
ENDBRANCH   4   5
ENDBRANCH   3   4
ENDBRANCH   1   2
BRANCH   1   7
HETATM    7  N9  UNL     1     -31.754   8.342   1.508  1.00 20.00     0.092 N 
HETATM    8  C6  UNL     1     -31.719   8.617   2.946  1.00 20.00     0.310 C 
BRANCH   7   9
HETATM    9  C5  UNL     1     -32.731   9.207   0.848  1.00 20.00     0.223 A 
HETATM   10  C3  UNL     1     -32.350  10.597   0.418  1.00 20.00     0.038 A 
HETATM   11  C4  UNL     1     -32.598   9.535  -0.613  1.00 20.00     0.038 A 
ENDBRANCH   7   9
ENDBRANCH   1   7
TORSDOF 5
ENDMDL
MODEL 5
REMARK VINA RESULT:       0.2      2.028      3.130
REMARK  5 active torsions:
REMARK  status: ('A' for Active; 'I' for Inactive)
REMARK    1  A    between atoms: C1_1  and  C7_7 
REMARK    2  A    between atoms: C2_2  and  C8_8 
REMARK    3  A    between atoms: C5_5  and  N9_9 
REMARK    4  A    between atoms: C7_7  and  N9_9 
REMARK    5  A    between atoms: C8_8  and  S10_10 
ROOT
HETATM    1  C7  UNL     1     -34.860   6.314   3.731  1.00 20.00     0.299 C 
ENDROOT
BRANCH   1   2
HETATM    2  C1  UNL     1     -34.587   4.982   4.362  1.00 20.00    -0.000 C 
HETATM    3  C2  UNL     1     -33.725   4.082   3.863  1.00 20.00    -0.019 C 
BRANCH   3   4
HETATM    4  C8  UNL     1     -33.451   2.756   4.498  1.00 20.00     0.097 C 
BRANCH   4   5
HETATM    5  S10 UNL     1     -32.596   2.985   6.080  1.00 20.00    -0.178 SA
HETATM    6  H25 UNL     1     -33.007   4.245   6.284  1.00 20.00     0.101 HD
ENDBRANCH   4   5
ENDBRANCH   3   4
ENDBRANCH   1   2
BRANCH   1   7
HETATM    7  N9  UNL     1     -33.656   7.137   3.674  1.00 20.00     0.092 N 
HETATM    8  C6  UNL     1     -33.836   8.365   4.451  1.00 20.00     0.310 C 
BRANCH   7   9
HETATM    9  C5  UNL     1     -33.318   7.458   2.288  1.00 20.00     0.223 A 
HETATM   10  C3  UNL     1     -31.899   7.778   1.905  1.00 20.00     0.038 A 
HETATM   11  C4  UNL     1     -32.525   6.492   1.452  1.00 20.00     0.038 A 
ENDBRANCH   7   9
ENDBRANCH   1   7
TORSDOF 5
ENDMDL
MODEL 6
REMARK VINA RESULT:       0.2      3.174      5.576
REMARK  5 active torsions:
REMARK  status: ('A' for Active; 'I' for Inactive)
REMARK    1  A    between atoms: C1_1  and  C7_7 
REMARK    2  A    between atoms: C2_2  and  C8_8 
REMARK    3  A    between atoms: C5_5  and  N9_9 
REMARK    4  A    between atoms: C7_7  and  N9_9 
REMARK    5  A    between atoms: C8_8  and  S10_10 
ROOT
HETATM    1  C7  UNL     1     -33.154   5.397   2.655  1.00 20.00     0.299 C 
ENDROOT
BRANCH   1   2
HETATM    2  C1  UNL     1     -33.004   6.887   2.593  1.00 20.00    -0.000 C 
HETATM    3  C2  UNL     1     -32.243   7.524   1.689  1.00 20.00    -0.019 C 
BRANCH   3   4
HETATM    4  C8  UNL     1     -32.100   9.011   1.626  1.00 20.00     0.097 C 
BRANCH   4   5
HETATM    5  S10 UNL     1     -32.468   9.604  -0.047  1.00 20.00    -0.178 SA
HETATM    6  H25 UNL     1     -33.666  10.131   0.247  1.00 20.00     0.101 HD
ENDBRANCH   4   5
ENDBRANCH   3   4
ENDBRANCH   1   2
BRANCH   1   7
HETATM    7  N9  UNL     1     -34.301   5.006   3.468  1.00 20.00     0.092 N 
HETATM    8  C6  UNL     1     -34.991   6.189   3.987  1.00 20.00     0.310 C 
BRANCH   7   9
HETATM    9  C5  UNL     1     -33.881   4.139   4.569  1.00 20.00     0.223 A 
HETATM   10  C3  UNL     1     -33.578   2.687   4.321  1.00 20.00     0.038 A 
HETATM   11  C4  UNL     1     -32.465   3.639   4.649  1.00 20.00     0.038 A 
ENDBRANCH   7   9
ENDBRANCH   1   7
TORSDOF 5
ENDMDL
MODEL 7
REMARK VINA RESULT:       0.2      2.894      5.443
REMARK  5 active torsions:
REMARK  status: ('A' for Active; 'I' for Inactive)
REMARK    1  A    between atoms: C1_1  and  C7_7 
REMARK    2  A    between atoms: C2_2  and  C8_8 
REMARK    3  A    between atoms: C5_5  and  N9_9 
REMARK    4  A    between atoms: C7_7  and  N9_9 
REMARK    5  A    between atoms: C8_8  and  S10_10 
ROOT
HETATM    1  C7  UNL     1     -33.041   6.206   2.224  1.00 20.00     0.299 C 
ENDROOT
BRANCH   1   2
HETATM    2  C1  UNL     1     -32.434   7.550   1.955  1.00 20.00    -0.000 C 
HETATM    3  C2  UNL     1     -31.974   7.935   0.755  1.00 20.00    -0.019 C 
BRANCH   3   4
HETATM    4  C8  UNL     1     -31.373   9.279   0.488  1.00 20.00     0.097 C 
BRANCH   4   5
HETATM    5  S10 UNL     1     -32.664  10.452  -0.003  1.00 20.00    -0.178 SA
HETATM    6  H25 UNL     1     -32.949   9.870  -1.177  1.00 20.00     0.101 HD
ENDBRANCH   4   5
ENDBRANCH   3   4
ENDBRANCH   1   2
BRANCH   1   7
HETATM    7  N9  UNL     1     -34.068   6.278   3.258  1.00 20.00     0.092 N 
HETATM    8  C6  UNL     1     -34.096   7.610   3.864  1.00 20.00     0.310 C 
BRANCH   7   9
HETATM    9  C5  UNL     1     -33.840   5.258   4.282  1.00 20.00     0.223 A 
HETATM   10  C3  UNL     1     -34.955   4.343   4.706  1.00 20.00     0.038 A 
HETATM   11  C4  UNL     1     -33.803   3.801   3.914  1.00 20.00     0.038 A 
ENDBRANCH   7   9
ENDBRANCH   1   7
TORSDOF 5
ENDMDL
MODEL 8
REMARK VINA RESULT:       0.9      2.881      4.726
REMARK  5 active torsions:
REMARK  status: ('A' for Active; 'I' for Inactive)
REMARK    1  A    between atoms: C1_1  and  C7_7 
REMARK    2  A    between atoms: C2_2  and  C8_8 
REMARK    3  A    between atoms: C5_5  and  N9_9 
REMARK    4  A    between atoms: C7_7  and  N9_9 
REMARK    5  A    between atoms: C8_8  and  S10_10 
ROOT
HETATM    1  C7  UNL     1     -32.757   7.542   3.169  1.00 20.00     0.299 C 
ENDROOT
BRANCH   1   2
HETATM    2  C1  UNL     1     -32.532   8.604   2.135  1.00 20.00    -0.000 C 
HETATM    3  C2  UNL     1     -31.801   8.422   1.025  1.00 20.00    -0.019 C 
BRANCH   3   4
HETATM    4  C8  UNL     1     -31.582   9.482  -0.008  1.00 20.00     0.097 C 
BRANCH   4   5
HETATM    5  S10 UNL     1     -32.829  10.786   0.163  1.00 20.00    -0.178 SA
HETATM    6  H25 UNL     1     -33.146  10.854  -1.138  1.00 20.00     0.101 HD
ENDBRANCH   4   5
ENDBRANCH   3   4
ENDBRANCH   1   2
BRANCH   1   7
HETATM    7  N9  UNL     1     -33.872   6.671   2.810  1.00 20.00     0.092 N 
HETATM    8  C6  UNL     1     -34.750   6.459   3.962  1.00 20.00     0.310 C 
BRANCH   7   9
HETATM    9  C5  UNL     1     -33.381   5.390   2.301  1.00 20.00     0.223 A 
HETATM   10  C3  UNL     1     -33.313   5.135   0.821  1.00 20.00     0.038 A 
HETATM   11  C4  UNL     1     -32.049   5.302   1.612  1.00 20.00     0.038 A 
ENDBRANCH   7   9
ENDBRANCH   1   7
TORSDOF 5
ENDMDL
MODEL 9
REMARK VINA RESULT:       1.0      2.724      4.649
REMARK  5 active torsions:
REMARK  status: ('A' for Active; 'I' for Inactive)
REMARK    1  A    between atoms: C1_1  and  C7_7 
REMARK    2  A    between atoms: C2_2  and  C8_8 
REMARK    3  A    between atoms: C5_5  and  N9_9 
REMARK    4  A    between atoms: C7_7  and  N9_9 
REMARK    5  A    between atoms: C8_8  and  S10_10 
ROOT
HETATM    1  C7  UNL     1     -33.397   6.106   2.441  1.00 20.00     0.299 C 
ENDROOT
BRANCH   1   2
HETATM    2  C1  UNL     1     -32.951   7.336   1.709  1.00 20.00    -0.000 C 
HETATM    3  C2  UNL     1     -31.692   7.540   1.291  1.00 20.00    -0.019 C 
BRANCH   3   4
HETATM    4  C8  UNL     1     -31.251   8.766   0.556  1.00 20.00     0.097 C 
BRANCH   4   5
HETATM    5  S10 UNL     1     -32.662   9.868   0.276  1.00 20.00    -0.178 SA
HETATM    6  H25 UNL     1     -33.554   9.136   0.958  1.00 20.00     0.101 HD
ENDBRANCH   4   5
ENDBRANCH   3   4
ENDBRANCH   1   2
BRANCH   1   7
HETATM    7  N9  UNL     1     -33.992   6.436   3.732  1.00 20.00     0.092 N 
HETATM    8  C6  UNL     1     -35.405   6.052   3.759  1.00 20.00     0.310 C 
BRANCH   7   9
HETATM    9  C5  UNL     1     -33.847   7.864   4.015  1.00 20.00     0.223 A 
HETATM   10  C3  UNL     1     -33.868   8.364   5.433  1.00 20.00     0.038 A 
HETATM   11  C4  UNL     1     -32.590   8.393   4.647  1.00 20.00     0.038 A 
ENDBRANCH   7   9
ENDBRANCH   1   7
TORSDOF 5
ENDMDL
