MODEL 1
REMARK VINA RESULT:       0.8      0.000      0.000
REMARK  4 active torsions:
REMARK  status: ('A' for Active; 'I' for Inactive)
REMARK    1  A    between atoms: C1_1  and  C9_9 
REMARK    2  A    between atoms: C2_2  and  C10_10 
REMARK    3  A    between atoms: C9_9  and  N11_11 
REMARK    4  A    between atoms: C10_10  and  S12_12 
ROOT
HETATM    1  C3  UNL     1     -34.499   4.776   4.360  1.00 20.00     0.002 C 
HETATM    2  C4  UNL     1     -35.364   6.016   4.173  1.00 20.00     0.002 C 
HETATM    3  C5  UNL     1     -33.747   4.313   3.116  1.00 20.00     0.030 C 
HETATM    4  C6  UNL     1     -34.551   7.306   4.246  1.00 20.00     0.030 C 
HETATM    5  C7  UNL     1     -33.324   5.380   2.107  1.00 20.00     0.272 C 
HETATM    6  C8  UNL     1     -33.660   7.597   3.037  1.00 20.00     0.272 C 
HETATM    7  N11 UNL     1     -32.674   6.545   2.726  1.00 20.00     0.091 N 
ENDROOT
BRANCH   7   8
HETATM    8  C9  UNL     1     -31.669   7.094   1.806  1.00 20.00     0.299 C 
BRANCH   8   9
HETATM    9  C1  UNL     1     -32.067   8.446   1.297  1.00 20.00    -0.000 C 
HETATM   10  C2  UNL     1     -32.083   8.781  -0.003  1.00 20.00    -0.019 C 
BRANCH  10  11
HETATM   11  C10 UNL     1     -32.486  10.130  -0.507  1.00 20.00     0.097 C 
BRANCH  11  12
HETATM   12  S12 UNL     1     -32.879  11.224   0.885  1.00 20.00    -0.178 SA
HETATM   13  H31 UNL     1     -31.615  11.586   1.144  1.00 20.00     0.101 HD
ENDBRANCH  11  12
ENDBRANCH  10  11
ENDBRANCH   8   9
ENDBRANCH   7   8
TORSDOF 4
ENDMDL
MODEL 2
REMARK VINA RESULT:       0.9      0.475      1.833
REMARK  4 active torsions:
REMARK  status: ('A' for Active; 'I' for Inactive)
REMARK    1  A    between atoms: C1_1  and  C9_9 
REMARK    2  A    between atoms: C2_2  and  C10_10 
REMARK    3  A    between atoms: C9_9  and  N11_11 
REMARK    4  A    between atoms: C10_10  and  S12_12 
ROOT
HETATM    1  C3  UNL     1     -35.555   6.112   4.124  1.00 20.00     0.002 C 
HETATM    2  C4  UNL     1     -34.759   4.898   4.586  1.00 20.00     0.002 C 
HETATM    3  C5  UNL     1     -34.749   7.397   3.961  1.00 20.00     0.030 C 
HETATM    4  C6  UNL     1     -34.011   4.225   3.438  1.00 20.00     0.030 C 
HETATM    5  C7  UNL     1     -33.280   7.264   3.561  1.00 20.00     0.272 C 
HETATM    6  C8  UNL     1     -32.788   4.978   2.911  1.00 20.00     0.272 C 
HETATM    7  N11 UNL     1     -33.061   6.346   2.433  1.00 20.00     0.091 N 
ENDROOT
BRANCH   7   8
HETATM    8  C9  UNL     1     -31.917   6.809   1.637  1.00 20.00     0.299 C 
BRANCH   8   9
HETATM    9  C1  UNL     1     -32.058   8.251   1.256  1.00 20.00    -0.000 C 
HETATM   10  C2  UNL     1     -32.171   8.682  -0.010  1.00 20.00    -0.019 C 
BRANCH  10  11
HETATM   11  C10 UNL     1     -32.317  10.123  -0.386  1.00 20.00     0.097 C 
BRANCH  11  12
HETATM   12  S12 UNL     1     -32.876  11.087   1.045  1.00 20.00    -0.178 SA
HETATM   13  H31 UNL     1     -31.739  11.778   1.204  1.00 20.00     0.101 HD
ENDBRANCH  11  12
ENDBRANCH  10  11
ENDBRANCH   8   9
ENDBRANCH   7   8
TORSDOF 4
ENDMDL
MODEL 3
REMARK VINA RESULT:       1.7      1.111      1.151
REMARK  4 active torsions:
REMARK  status: ('A' for Active; 'I' for Inactive)
REMARK    1  A    between atoms: C1_1  and  C9_9 
REMARK    2  A    between atoms: C2_2  and  C10_10 
REMARK    3  A    between atoms: C9_9  and  N11_11 
REMARK    4  A    between atoms: C10_10  and  S12_12 
ROOT
HETATM    1  C3  UNL     1     -34.398   4.275   4.902  1.00 20.00     0.002 C 
HETATM    2  C4  UNL     1     -35.469   5.264   4.458  1.00 20.00     0.002 C 
HETATM    3  C5  UNL     1     -33.595   3.635   3.774  1.00 20.00     0.030 C 
HETATM    4  C6  UNL     1     -34.893   6.644   4.152  1.00 20.00     0.030 C 
HETATM    5  C7  UNL     1     -33.379   4.458   2.504  1.00 20.00     0.272 C 
HETATM    6  C8  UNL     1     -34.084   6.753   2.859  1.00 20.00     0.272 C 
HETATM    7  N11 UNL     1     -32.934   5.835   2.767  1.00 20.00     0.091 N 
ENDROOT
BRANCH   7   8
HETATM    8  C9  UNL     1     -32.054   6.283   1.680  1.00 20.00     0.299 C 
BRANCH   8   9
HETATM    9  C1  UNL     1     -32.472   7.621   1.149  1.00 20.00    -0.000 C 
HETATM   10  C2  UNL     1     -31.930   8.783   1.543  1.00 20.00    -0.019 C 
BRANCH  10  11
HETATM   11  C10 UNL     1     -32.345  10.116   1.007  1.00 20.00     0.097 C 
BRANCH  11  12
HETATM   12  S12 UNL     1     -32.682   9.996  -0.770  1.00 20.00    -0.178 SA
HETATM   13  H31 UNL     1     -33.523  11.037  -0.828  1.00 20.00     0.101 HD
ENDBRANCH  11  12
ENDBRANCH  10  11
ENDBRANCH   8   9
ENDBRANCH   7   8
TORSDOF 4
ENDMDL
MODEL 4
REMARK VINA RESULT:       2.0      3.058      5.282
REMARK  4 active torsions:
REMARK  status: ('A' for Active; 'I' for Inactive)
REMARK    1  A    between atoms: C1_1  and  C9_9 
REMARK    2  A    between atoms: C2_2  and  C10_10 
REMARK    3  A    between atoms: C9_9  and  N11_11 
REMARK    4  A    between atoms: C10_10  and  S12_12 
ROOT
HETATM    1  C3  UNL     1     -32.003   8.090   1.472  1.00 20.00     0.002 C 
HETATM    2  C4  UNL     1     -31.418   8.315   2.861  1.00 20.00     0.002 C 
HETATM    3  C5  UNL     1     -32.614   6.712   1.238  1.00 20.00     0.030 C 
HETATM    4  C6  UNL     1     -32.488   8.670   3.890  1.00 20.00     0.030 C 
HETATM    5  C7  UNL     1     -33.234   6.000   2.440  1.00 20.00     0.272 C 
HETATM    6  C8  UNL     1     -33.396   7.519   4.327  1.00 20.00     0.272 C 
HETATM    7  N11 UNL     1     -34.130   6.858   3.231  1.00 20.00     0.091 N 
ENDROOT
BRANCH   7   8
HETATM    8  C9  UNL     1     -35.209   6.045   3.806  1.00 20.00     0.299 C 
BRANCH   8   9
HETATM    9  C1  UNL     1     -34.673   4.835   4.510  1.00 20.00    -0.000 C 
HETATM   10  C2  UNL     1     -33.901   3.909   3.920  1.00 20.00    -0.019 C 
BRANCH  10  11
HETATM   11  C10 UNL     1     -33.364   2.705   4.627  1.00 20.00     0.097 C 
BRANCH  11  12
HETATM   12  S12 UNL     1     -32.592   3.195   6.193  1.00 20.00    -0.178 SA
HETATM   13  H31 UNL     1     -31.600   2.295   6.152  1.00 20.00     0.101 HD
ENDBRANCH  11  12
ENDBRANCH  10  11
ENDBRANCH   8   9
ENDBRANCH   7   8
TORSDOF 4
ENDMDL
MODEL 5
REMARK VINA RESULT:       2.3      1.269      1.302
REMARK  4 active torsions:
REMARK  status: ('A' for Active; 'I' for Inactive)
REMARK    1  A    between atoms: C1_1  and  C9_9 
REMARK    2  A    between atoms: C2_2  and  C10_10 
REMARK    3  A    between atoms: C9_9  and  N11_11 
REMARK    4  A    between atoms: C10_10  and  S12_12 
ROOT
HETATM    1  C3  UNL     1     -34.210   4.733   3.691  1.00 20.00     0.002 C 
HETATM    2  C4  UNL     1     -35.289   5.789   3.896  1.00 20.00     0.002 C 
HETATM    3  C5  UNL     1     -33.296   4.958   2.491  1.00 20.00     0.030 C 
HETATM    4  C6  UNL     1     -34.754   7.034   4.600  1.00 20.00     0.030 C 
HETATM    5  C7  UNL     1     -33.023   6.402   2.072  1.00 20.00     0.272 C 
HETATM    6  C8  UNL     1     -33.856   7.939   3.755  1.00 20.00     0.272 C 
HETATM    7  N11 UNL     1     -32.662   7.280   3.195  1.00 20.00     0.091 N 
ENDROOT
BRANCH   7   8
HETATM    8  C9  UNL     1     -31.724   8.311   2.733  1.00 20.00     0.299 C 
BRANCH   8   9
HETATM    9  C1  UNL     1     -32.010   8.722   1.320  1.00 20.00    -0.000 C 
HETATM   10  C2  UNL     1     -32.548   9.903   0.979  1.00 20.00    -0.019 C 
BRANCH  10  11
HETATM   11  C10 UNL     1     -32.826  10.312  -0.432  1.00 20.00     0.097 C 
BRANCH  11  12
HETATM   12  S12 UNL     1     -31.855   9.296  -1.578  1.00 20.00    -0.178 SA
HETATM   13  H31 UNL     1     -31.489  10.302  -2.386  1.00 20.00     0.101 HD
ENDBRANCH  11  12
ENDBRANCH  10  11
ENDBRANCH   8   9
ENDBRANCH   7   8
TORSDOF 4
ENDMDL
MODEL 6
REMARK VINA RESULT:       2.4      3.151      5.616
REMARK  4 active torsions:
REMARK  status: ('A' for Active; 'I' for Inactive)
REMARK    1  A    between atoms: C1_1  and  C9_9 
REMARK    2  A    between atoms: C2_2  and  C10_10 
REMARK    3  A    between atoms: C9_9  and  N11_11 
REMARK    4  A    between atoms: C10_10  and  S12_12 
ROOT
HETATM    1  C3  UNL     1     -31.409   8.349   2.982  1.00 20.00     0.002 C 
HETATM    2  C4  UNL     1     -31.831   8.161   1.531  1.00 20.00     0.002 C 
HETATM    3  C5  UNL     1     -32.551   8.576   3.968  1.00 20.00     0.030 C 
HETATM    4  C6  UNL     1     -32.296   6.736   1.242  1.00 20.00     0.030 C 
HETATM    5  C7  UNL     1     -33.897   7.923   3.654  1.00 20.00     0.272 C 
HETATM    6  C8  UNL     1     -33.663   6.357   1.815  1.00 20.00     0.272 C 
HETATM    7  N11 UNL     1     -33.786   6.506   3.277  1.00 20.00     0.091 N 
ENDROOT
BRANCH   7   8
HETATM    8  C9  UNL     1     -34.981   5.782   3.729  1.00 20.00     0.299 C 
BRANCH   8   9
HETATM    9  C1  UNL     1     -34.619   4.553   4.507  1.00 20.00    -0.000 C 
HETATM   10  C2  UNL     1     -33.569   3.768   4.218  1.00 20.00    -0.019 C 
BRANCH  10  11
HETATM   11  C10 UNL     1     -33.207   2.546   5.001  1.00 20.00     0.097 C 
BRANCH  11  12
HETATM   12  S12 UNL     1     -32.418   3.017   6.563  1.00 20.00    -0.178 SA
HETATM   13  H31 UNL     1     -33.544   3.048   7.290  1.00 20.00     0.101 HD
ENDBRANCH  11  12
ENDBRANCH  10  11
ENDBRANCH   8   9
ENDBRANCH   7   8
TORSDOF 4
ENDMDL
MODEL 7
REMARK VINA RESULT:       3.0      2.615      5.469
REMARK  4 active torsions:
REMARK  status: ('A' for Active; 'I' for Inactive)
REMARK    1  A    between atoms: C1_1  and  C9_9 
REMARK    2  A    between atoms: C2_2  and  C10_10 
REMARK    3  A    between atoms: C9_9  and  N11_11 
REMARK    4  A    between atoms: C10_10  and  S12_12 
ROOT
HETATM    1  C3  UNL     1     -32.065  10.488  -0.242  1.00 20.00     0.002 C 
HETATM    2  C4  UNL     1     -32.122   9.063  -0.777  1.00 20.00     0.002 C 
HETATM    3  C5  UNL     1     -33.029  10.793   0.901  1.00 20.00     0.030 C 
HETATM    4  C6  UNL     1     -31.327   8.087   0.088  1.00 20.00     0.030 C 
HETATM    5  C7  UNL     1     -33.390   9.648   1.847  1.00 20.00     0.272 C 
HETATM    6  C8  UNL     1     -31.955   7.734   1.437  1.00 20.00     0.272 C 
HETATM    7  N11 UNL     1     -32.223   8.887   2.317  1.00 20.00     0.091 N 
ENDROOT
BRANCH   7   8
HETATM    8  C9  UNL     1     -32.471   8.398   3.679  1.00 20.00     0.299 C 
BRANCH   8   9
HETATM    9  C1  UNL     1     -33.303   7.151   3.673  1.00 20.00    -0.000 C 
HETATM   10  C2  UNL     1     -34.539   7.075   4.192  1.00 20.00    -0.019 C 
BRANCH  10  11
HETATM   11  C10 UNL     1     -35.368   5.831   4.180  1.00 20.00     0.097 C 
BRANCH  11  12
HETATM   12  S12 UNL     1     -34.297   4.368   4.140  1.00 20.00    -0.178 SA
HETATM   13  H31 UNL     1     -34.429   4.058   5.438  1.00 20.00     0.101 HD
ENDBRANCH  11  12
ENDBRANCH  10  11
ENDBRANCH   8   9
ENDBRANCH   7   8
TORSDOF 4
ENDMDL
MODEL 8
REMARK VINA RESULT:       3.4      2.677      5.216
REMARK  4 active torsions:
REMARK  status: ('A' for Active; 'I' for Inactive)
REMARK    1  A    between atoms: C1_1  and  C9_9 
REMARK    2  A    between atoms: C2_2  and  C10_10 
REMARK    3  A    between atoms: C9_9  and  N11_11 
REMARK    4  A    between atoms: C10_10  and  S12_12 
ROOT
HETATM    1  C3  UNL     1     -31.432   7.940  -0.034  1.00 20.00     0.002 C 
HETATM    2  C4  UNL     1     -31.368   9.462   0.002  1.00 20.00     0.002 C 
HETATM    3  C5  UNL     1     -31.368   7.253   1.327  1.00 20.00     0.030 C 
HETATM    4  C6  UNL     1     -32.721  10.091   0.327  1.00 20.00     0.030 C 
HETATM    5  C7  UNL     1     -31.949   8.003   2.525  1.00 20.00     0.272 C 
HETATM    6  C8  UNL     1     -33.182   9.956   1.779  1.00 20.00     0.272 C 
HETATM    7  N11 UNL     1     -33.283   8.570   2.272  1.00 20.00     0.091 N 
ENDROOT
BRANCH   7   8
HETATM    8  C9  UNL     1     -34.065   8.563   3.514  1.00 20.00     0.299 C 
BRANCH   8   9
HETATM    9  C1  UNL     1     -34.150   7.187   4.104  1.00 20.00    -0.000 C 
HETATM   10  C2  UNL     1     -35.192   6.360   3.923  1.00 20.00    -0.019 C 
BRANCH  10  11
HETATM   11  C10 UNL     1     -35.271   4.986   4.508  1.00 20.00     0.097 C 
BRANCH  11  12
HETATM   12  S12 UNL     1     -33.797   4.031   4.058  1.00 20.00    -0.178 SA
HETATM   13  H31 UNL     1     -33.231   4.987   3.308  1.00 20.00     0.101 HD
ENDBRANCH  11  12
ENDBRANCH  10  11
ENDBRANCH   8   9
ENDBRANCH   7   8
TORSDOF 4
ENDMDL
MODEL 9
REMARK VINA RESULT:       3.6      2.563      5.216
REMARK  4 active torsions:
REMARK  status: ('A' for Active; 'I' for Inactive)
REMARK    1  A    between atoms: C1_1  and  C9_9 
REMARK    2  A    between atoms: C2_2  and  C10_10 
REMARK    3  A    between atoms: C9_9  and  N11_11 
REMARK    4  A    between atoms: C10_10  and  S12_12 
ROOT
HETATM    1  C3  UNL     1     -32.789  10.239  -0.834  1.00 20.00     0.002 C 
HETATM    2  C4  UNL     1     -32.437  11.027   0.422  1.00 20.00     0.002 C 
HETATM    3  C5  UNL     1     -31.910   9.022  -1.107  1.00 20.00     0.030 C 
HETATM    4  C6  UNL     1     -33.012  10.391   1.685  1.00 20.00     0.030 C 
HETATM    5  C7  UNL     1     -31.319   8.292   0.099  1.00 20.00     0.272 C 
HETATM    6  C8  UNL     1     -32.324   9.107   2.152  1.00 20.00     0.272 C 
HETATM    7  N11 UNL     1     -32.302   8.018   1.158  1.00 20.00     0.091 N 
ENDROOT
BRANCH   7   8
HETATM    8  C9  UNL     1     -31.957   6.762   1.836  1.00 20.00     0.299 C 
BRANCH   8   9
HETATM    9  C1  UNL     1     -33.152   6.151   2.505  1.00 20.00    -0.000 C 
HETATM   10  C2  UNL     1     -33.976   6.826   3.321  1.00 20.00    -0.019 C 
BRANCH  10  11
HETATM   11  C10 UNL     1     -35.170   6.215   3.983  1.00 20.00     0.097 C 
BRANCH  11  12
HETATM   12  S12 UNL     1     -34.781   4.534   4.542  1.00 20.00    -0.178 SA
HETATM   13  H31 UNL     1     -35.957   4.307   5.144  1.00 20.00     0.101 HD
ENDBRANCH  11  12
ENDBRANCH  10  11
ENDBRANCH   8   9
ENDBRANCH   7   8
TORSDOF 4
ENDMDL
