MODEL 1
REMARK VINA RESULT:       0.6      0.000      0.000
REMARK  5 active torsions:
REMARK  status: ('A' for Active; 'I' for Inactive)
REMARK    1  A    between atoms: C5_5  and  C7_7 
REMARK    2  A    between atoms: C5_5  and  S9_9 
REMARK    3  A    between atoms: C6_6  and  C7_7 
REMARK    4  A    between atoms: C6_6  and  S10_10 
REMARK    5  A    between atoms: C7_7  and  C8_8 
ROOT
HETATM    1  C7  UNL     1     -33.346   6.897   2.166  1.00 20.00     0.011 C 
ENDROOT
BRANCH   1   2
HETATM    2  C5  UNL     1     -32.654   5.609   1.646  1.00 20.00     0.077 C 
BRANCH   2   3
HETATM    3  S9  UNL     1     -33.475   4.852   0.204  1.00 20.00    -0.182 SA
HETATM    4  H28 UNL     1     -33.923   3.772   0.856  1.00 20.00     0.101 HD
ENDBRANCH   2   3
ENDBRANCH   1   2
BRANCH   1   5
HETATM    5  C6  UNL     1     -32.406   8.133   2.237  1.00 20.00     0.079 C 
BRANCH   5   6
HETATM    6  S10 UNL     1     -31.618   8.670   0.688  1.00 20.00    -0.173 SA
HETATM    7  C4  UNL     1     -32.627  10.136   0.378  1.00 20.00     0.089 C 
ENDBRANCH   5   6
ENDBRANCH   1   5
BRANCH   1   8
HETATM    8  C8  UNL     1     -34.189   6.654   3.490  1.00 20.00    -0.046 C 
HETATM    9  C1  UNL     1     -33.763   7.625   4.613  1.00 20.00     0.015 C 
HETATM   10  C2  UNL     1     -35.710   6.792   3.290  1.00 20.00     0.015 C 
HETATM   11  C3  UNL     1     -33.922   5.222   4.019  1.00 20.00     0.015 C 
ENDBRANCH   1   8
TORSDOF 5
ENDMDL
MODEL 2
REMARK VINA RESULT:       0.6      0.045      1.367
REMARK  5 active torsions:
REMARK  status: ('A' for Active; 'I' for Inactive)
REMARK    1  A    between atoms: C5_5  and  C7_7 
REMARK    2  A    between atoms: C5_5  and  S9_9 
REMARK    3  A    between atoms: C6_6  and  C7_7 
REMARK    4  A    between atoms: C6_6  and  S10_10 
REMARK    5  A    between atoms: C7_7  and  C8_8 
ROOT
HETATM    1  C7  UNL     1     -33.365   6.901   2.184  1.00 20.00     0.011 C 
ENDROOT
BRANCH   1   2
HETATM    2  C5  UNL     1     -32.675   5.616   1.655  1.00 20.00     0.077 C 
BRANCH   2   3
HETATM    3  S9  UNL     1     -33.501   4.866   0.212  1.00 20.00    -0.182 SA
HETATM    4  H28 UNL     1     -34.623   4.532   0.860  1.00 20.00     0.101 HD
ENDBRANCH   2   3
ENDBRANCH   1   2
BRANCH   1   5
HETATM    5  C6  UNL     1     -32.431   8.143   2.238  1.00 20.00     0.079 C 
BRANCH   5   6
HETATM    6  S10 UNL     1     -31.642   8.660   0.684  1.00 20.00    -0.173 SA
HETATM    7  C4  UNL     1     -32.623  10.146   0.376  1.00 20.00     0.089 C 
ENDBRANCH   5   6
ENDBRANCH   1   5
BRANCH   1   8
HETATM    8  C8  UNL     1     -34.186   6.655   3.521  1.00 20.00    -0.046 C 
HETATM    9  C1  UNL     1     -33.993   5.213   4.041  1.00 20.00     0.015 C 
HETATM   10  C2  UNL     1     -33.823   7.627   4.659  1.00 20.00     0.015 C 
HETATM   11  C3  UNL     1     -35.701   6.823   3.237  1.00 20.00     0.015 C 
ENDBRANCH   1   8
TORSDOF 5
ENDMDL
MODEL 3
REMARK VINA RESULT:       1.6      2.000      3.881
REMARK  5 active torsions:
REMARK  status: ('A' for Active; 'I' for Inactive)
REMARK    1  A    between atoms: C5_5  and  C7_7 
REMARK    2  A    between atoms: C5_5  and  S9_9 
REMARK    3  A    between atoms: C6_6  and  C7_7 
REMARK    4  A    between atoms: C6_6  and  S10_10 
REMARK    5  A    between atoms: C7_7  and  C8_8 
ROOT
HETATM    1  C7  UNL     1     -32.813   7.195   1.942  1.00 20.00     0.011 C 
ENDROOT
BRANCH   1   2
HETATM    2  C5  UNL     1     -31.740   8.099   1.279  1.00 20.00     0.077 C 
BRANCH   2   3
HETATM    3  S9  UNL     1     -32.421   9.559   0.423  1.00 20.00    -0.182 SA
HETATM    4  H28 UNL     1     -31.647   9.449  -0.664  1.00 20.00     0.101 HD
ENDBRANCH   2   3
ENDBRANCH   1   2
BRANCH   1   5
HETATM    5  C6  UNL     1     -32.889   7.335   3.488  1.00 20.00     0.079 C 
BRANCH   5   6
HETATM    6  S10 UNL     1     -34.482   7.844   4.201  1.00 20.00    -0.173 SA
HETATM    7  C4  UNL     1     -35.351   6.267   4.047  1.00 20.00     0.089 C 
ENDBRANCH   5   6
ENDBRANCH   1   5
BRANCH   1   8
HETATM    8  C8  UNL     1     -32.752   5.691   1.435  1.00 20.00    -0.046 C 
HETATM    9  C1  UNL     1     -33.793   5.431   0.323  1.00 20.00     0.015 C 
HETATM   10  C2  UNL     1     -31.369   5.272   0.902  1.00 20.00     0.015 C 
HETATM   11  C3  UNL     1     -33.105   4.736   2.603  1.00 20.00     0.015 C 
ENDBRANCH   1   8
TORSDOF 5
ENDMDL
MODEL 4
REMARK VINA RESULT:       1.6      2.001      3.772
REMARK  5 active torsions:
REMARK  status: ('A' for Active; 'I' for Inactive)
REMARK    1  A    between atoms: C5_5  and  C7_7 
REMARK    2  A    between atoms: C5_5  and  S9_9 
REMARK    3  A    between atoms: C6_6  and  C7_7 
REMARK    4  A    between atoms: C6_6  and  S10_10 
REMARK    5  A    between atoms: C7_7  and  C8_8 
ROOT
HETATM    1  C7  UNL     1     -32.839   7.204   1.959  1.00 20.00     0.011 C 
ENDROOT
BRANCH   1   2
HETATM    2  C5  UNL     1     -31.746   8.096   1.314  1.00 20.00     0.077 C 
BRANCH   2   3
HETATM    3  S9  UNL     1     -32.399   9.536   0.404  1.00 20.00    -0.182 SA
HETATM    4  H28 UNL     1     -33.478   8.910  -0.081  1.00 20.00     0.101 HD
ENDBRANCH   2   3
ENDBRANCH   1   2
BRANCH   1   5
HETATM    5  C6  UNL     1     -32.927   7.334   3.506  1.00 20.00     0.079 C 
BRANCH   5   6
HETATM    6  S10 UNL     1     -34.532   7.815   4.212  1.00 20.00    -0.173 SA
HETATM    7  C4  UNL     1     -35.360   6.213   4.091  1.00 20.00     0.089 C 
ENDBRANCH   5   6
ENDBRANCH   1   5
BRANCH   1   8
HETATM    8  C8  UNL     1     -32.799   5.704   1.441  1.00 20.00    -0.046 C 
HETATM    9  C1  UNL     1     -33.083   4.706   2.586  1.00 20.00     0.015 C 
HETATM   10  C2  UNL     1     -33.790   5.415   0.298  1.00 20.00     0.015 C 
HETATM   11  C3  UNL     1     -31.378   5.376   0.914  1.00 20.00     0.015 C 
ENDBRANCH   1   8
TORSDOF 5
ENDMDL
MODEL 5
REMARK VINA RESULT:       1.7      2.084      2.974
REMARK  5 active torsions:
REMARK  status: ('A' for Active; 'I' for Inactive)
REMARK    1  A    between atoms: C5_5  and  C7_7 
REMARK    2  A    between atoms: C5_5  and  S9_9 
REMARK    3  A    between atoms: C6_6  and  C7_7 
REMARK    4  A    between atoms: C6_6  and  S10_10 
REMARK    5  A    between atoms: C7_7  and  C8_8 
ROOT
HETATM    1  C7  UNL     1     -32.495   7.234   2.312  1.00 20.00     0.011 C 
ENDROOT
BRANCH   1   2
HETATM    2  C5  UNL     1     -33.676   7.858   3.102  1.00 20.00     0.077 C 
BRANCH   2   3
HETATM    3  S9  UNL     1     -33.340   8.101   4.878  1.00 20.00    -0.182 SA
HETATM    4  H28 UNL     1     -33.398   6.805   5.204  1.00 20.00     0.101 HD
ENDBRANCH   2   3
ENDBRANCH   1   2
BRANCH   1   5
HETATM    5  C6  UNL     1     -31.861   8.192   1.264  1.00 20.00     0.079 C 
BRANCH   5   6
HETATM    6  S10 UNL     1     -32.570   9.861   1.125  1.00 20.00    -0.173 SA
HETATM    7  C4  UNL     1     -32.703   9.938  -0.675  1.00 20.00     0.089 C 
ENDBRANCH   5   6
ENDBRANCH   1   5
BRANCH   1   8
HETATM    8  C8  UNL     1     -32.827   5.789   1.744  1.00 20.00    -0.046 C 
HETATM    9  C1  UNL     1     -33.548   4.922   2.801  1.00 20.00     0.015 C 
HETATM   10  C2  UNL     1     -33.692   5.807   0.469  1.00 20.00     0.015 C 
HETATM   11  C3  UNL     1     -31.507   5.053   1.396  1.00 20.00     0.015 C 
ENDBRANCH   1   8
TORSDOF 5
ENDMDL
MODEL 6
REMARK VINA RESULT:       1.7      2.086      3.140
REMARK  5 active torsions:
REMARK  status: ('A' for Active; 'I' for Inactive)
REMARK    1  A    between atoms: C5_5  and  C7_7 
REMARK    2  A    between atoms: C5_5  and  S9_9 
REMARK    3  A    between atoms: C6_6  and  C7_7 
REMARK    4  A    between atoms: C6_6  and  S10_10 
REMARK    5  A    between atoms: C7_7  and  C8_8 
ROOT
HETATM    1  C7  UNL     1     -32.480   7.241   2.300  1.00 20.00     0.011 C 
ENDROOT
BRANCH   1   2
HETATM    2  C5  UNL     1     -33.677   7.840   3.086  1.00 20.00     0.077 C 
BRANCH   2   3
HETATM    3  S9  UNL     1     -33.349   8.100   4.861  1.00 20.00    -0.182 SA
HETATM    4  H28 UNL     1     -32.875   9.345   4.729  1.00 20.00     0.101 HD
ENDBRANCH   2   3
ENDBRANCH   1   2
BRANCH   1   5
HETATM    5  C6  UNL     1     -31.854   8.216   1.263  1.00 20.00     0.079 C 
BRANCH   5   6
HETATM    6  S10 UNL     1     -32.599   9.869   1.120  1.00 20.00    -0.173 SA
HETATM    7  C4  UNL     1     -32.690   9.958  -0.683  1.00 20.00     0.089 C 
ENDBRANCH   5   6
ENDBRANCH   1   5
BRANCH   1   8
HETATM    8  C8  UNL     1     -32.783   5.794   1.721  1.00 20.00    -0.046 C 
HETATM    9  C1  UNL     1     -33.704   5.867   0.482  1.00 20.00     0.015 C 
HETATM   10  C2  UNL     1     -31.520   5.005   1.330  1.00 20.00     0.015 C 
HETATM   11  C3  UNL     1     -33.540   4.958   2.784  1.00 20.00     0.015 C 
ENDBRANCH   1   8
TORSDOF 5
ENDMDL
MODEL 7
REMARK VINA RESULT:       1.7      2.089      3.092
REMARK  5 active torsions:
REMARK  status: ('A' for Active; 'I' for Inactive)
REMARK    1  A    between atoms: C5_5  and  C7_7 
REMARK    2  A    between atoms: C5_5  and  S9_9 
REMARK    3  A    between atoms: C6_6  and  C7_7 
REMARK    4  A    between atoms: C6_6  and  S10_10 
REMARK    5  A    between atoms: C7_7  and  C8_8 
ROOT
HETATM    1  C7  UNL     1     -32.488   7.247   2.307  1.00 20.00     0.011 C 
ENDROOT
BRANCH   1   2
HETATM    2  C5  UNL     1     -33.672   7.875   3.089  1.00 20.00     0.077 C 
BRANCH   2   3
HETATM    3  S9  UNL     1     -33.363   8.078   4.875  1.00 20.00    -0.182 SA
HETATM    4  H28 UNL     1     -32.311   8.894   4.737  1.00 20.00     0.101 HD
ENDBRANCH   2   3
ENDBRANCH   1   2
BRANCH   1   5
HETATM    5  C6  UNL     1     -31.868   8.190   1.237  1.00 20.00     0.079 C 
BRANCH   5   6
HETATM    6  S10 UNL     1     -32.560   9.866   1.103  1.00 20.00    -0.173 SA
HETATM    7  C4  UNL     1     -32.702   9.945  -0.697  1.00 20.00     0.089 C 
ENDBRANCH   5   6
ENDBRANCH   1   5
BRANCH   1   8
HETATM    8  C8  UNL     1     -32.806   5.787   1.771  1.00 20.00    -0.046 C 
HETATM    9  C1  UNL     1     -31.516   5.050   1.349  1.00 20.00     0.015 C 
HETATM   10  C2  UNL     1     -33.551   4.902   2.788  1.00 20.00     0.015 C 
HETATM   11  C3  UNL     1     -33.694   5.882   0.505  1.00 20.00     0.015 C 
ENDBRANCH   1   8
TORSDOF 5
ENDMDL
MODEL 8
REMARK VINA RESULT:       2.0      1.773      1.942
REMARK  5 active torsions:
REMARK  status: ('A' for Active; 'I' for Inactive)
REMARK    1  A    between atoms: C5_5  and  C7_7 
REMARK    2  A    between atoms: C5_5  and  S9_9 
REMARK    3  A    between atoms: C6_6  and  C7_7 
REMARK    4  A    between atoms: C6_6  and  S10_10 
REMARK    5  A    between atoms: C7_7  and  C8_8 
ROOT
HETATM    1  C7  UNL     1     -33.829   5.595   2.738  1.00 20.00     0.011 C 
ENDROOT
BRANCH   1   2
HETATM    2  C5  UNL     1     -32.761   4.785   3.521  1.00 20.00     0.077 C 
BRANCH   2   3
HETATM    3  S9  UNL     1     -33.378   3.218   4.221  1.00 20.00    -0.182 SA
HETATM    4  H28 UNL     1     -34.557   3.707   4.624  1.00 20.00     0.101 HD
ENDBRANCH   2   3
ENDBRANCH   1   2
BRANCH   1   5
HETATM    5  C6  UNL     1     -33.244   6.463   1.588  1.00 20.00     0.079 C 
BRANCH   5   6
HETATM    6  S10 UNL     1     -31.885   7.595   2.007  1.00 20.00    -0.173 SA
HETATM    7  C4  UNL     1     -32.301   8.935   0.869  1.00 20.00     0.089 C 
ENDBRANCH   5   6
ENDBRANCH   1   5
BRANCH   1   8
HETATM    8  C8  UNL     1     -34.830   6.378   3.690  1.00 20.00    -0.046 C 
HETATM    9  C1  UNL     1     -34.097   7.473   4.497  1.00 20.00     0.015 C 
HETATM   10  C2  UNL     1     -36.005   7.039   2.945  1.00 20.00     0.015 C 
HETATM   11  C3  UNL     1     -35.435   5.397   4.726  1.00 20.00     0.015 C 
ENDBRANCH   1   8
TORSDOF 5
ENDMDL
MODEL 9
REMARK VINA RESULT:       2.0      2.181      4.189
REMARK  5 active torsions:
REMARK  status: ('A' for Active; 'I' for Inactive)
REMARK    1  A    between atoms: C5_5  and  C7_7 
REMARK    2  A    between atoms: C5_5  and  S9_9 
REMARK    3  A    between atoms: C6_6  and  C7_7 
REMARK    4  A    between atoms: C6_6  and  S10_10 
REMARK    5  A    between atoms: C7_7  and  C8_8 
ROOT
HETATM    1  C7  UNL     1     -33.408   5.640   3.219  1.00 20.00     0.011 C 
ENDROOT
BRANCH   1   2
HETATM    2  C5  UNL     1     -33.019   6.065   1.779  1.00 20.00     0.077 C 
BRANCH   2   3
HETATM    3  S9  UNL     1     -31.970   7.555   1.698  1.00 20.00    -0.182 SA
HETATM    4  H28 UNL     1     -32.323   8.032   2.898  1.00 20.00     0.101 HD
ENDBRANCH   2   3
ENDBRANCH   1   2
BRANCH   1   5
HETATM    5  C6  UNL     1     -33.569   4.104   3.402  1.00 20.00     0.079 C 
BRANCH   5   6
HETATM    6  S10 UNL     1     -32.844   3.362   4.895  1.00 20.00    -0.173 SA
HETATM    7  C4  UNL     1     -33.338   1.649   4.602  1.00 20.00     0.089 C 
ENDBRANCH   5   6
ENDBRANCH   1   5
BRANCH   1   8
HETATM    8  C8  UNL     1     -34.614   6.487   3.810  1.00 20.00    -0.046 C 
HETATM    9  C1  UNL     1     -34.106   7.646   4.696  1.00 20.00     0.015 C 
HETATM   10  C2  UNL     1     -35.542   7.080   2.732  1.00 20.00     0.015 C 
HETATM   11  C3  UNL     1     -35.485   5.584   4.721  1.00 20.00     0.015 C 
ENDBRANCH   1   8
TORSDOF 5
ENDMDL
