MODEL 1
REMARK VINA RESULT:      -1.8      0.000      0.000
REMARK  4 active torsions:
REMARK  status: ('A' for Active; 'I' for Inactive)
REMARK    1  A    between atoms: C2_2  and  C6_6 
REMARK    2  A    between atoms: C2_2  and  C7_7 
REMARK    3  A    between atoms: C7_7  and  C8_8 
REMARK    4  A    between atoms: C8_8  and  C9_9 
ROOT
HETATM    1  C7  UNL     1     -32.032   8.012   2.247  1.00 20.00     0.039 C 
ENDROOT
BRANCH   1   2
HETATM    2  C2  UNL     1     -31.922   8.844   0.984  1.00 20.00    -0.089 C 
HETATM    3  C1  UNL     1     -31.119   8.462  -0.023  1.00 20.00     0.014 C 
BRANCH   2   4
HETATM    4  C6  UNL     1     -32.740  10.112   0.881  1.00 20.00     0.029 C 
HETATM    5  C3  UNL     1     -32.982  10.553  -0.556  1.00 20.00     0.010 C 
ENDBRANCH   2   4
ENDBRANCH   1   2
BRANCH   1   6
HETATM    6  C8  UNL     1     -33.245   7.050   2.292  1.00 20.00     0.003 C 
HETATM    7  C4  UNL     1     -32.915   5.703   1.628  1.00 20.00     0.011 C 
BRANCH   6   8
HETATM    8  C9  UNL     1     -33.809   6.838   3.722  1.00 20.00     0.082 C 
HETATM    9  C5  UNL     1     -33.676   8.071   4.611  1.00 20.00     0.027 C 
HETATM   10 CL10 UNL     1     -35.520   6.308   3.719  1.00 20.00    -0.125 Cl
ENDBRANCH   6   8
ENDBRANCH   1   6
TORSDOF 4
ENDMDL
MODEL 2
REMARK VINA RESULT:      -1.7      2.014      4.595
REMARK  4 active torsions:
REMARK  status: ('A' for Active; 'I' for Inactive)
REMARK    1  A    between atoms: C2_2  and  C6_6 
REMARK    2  A    between atoms: C2_2  and  C7_7 
REMARK    3  A    between atoms: C7_7  and  C8_8 
REMARK    4  A    between atoms: C8_8  and  C9_9 
ROOT
HETATM    1  C7  UNL     1     -33.922   6.688   2.254  1.00 20.00     0.039 C 
ENDROOT
BRANCH   1   2
HETATM    2  C2  UNL     1     -34.368   6.615   3.702  1.00 20.00    -0.089 C 
HETATM    3  C1  UNL     1     -34.167   7.649   4.536  1.00 20.00     0.014 C 
BRANCH   2   4
HETATM    4  C6  UNL     1     -35.047   5.353   4.186  1.00 20.00     0.029 C 
HETATM    5  C3  UNL     1     -34.116   4.150   4.233  1.00 20.00     0.010 C 
ENDBRANCH   2   4
ENDBRANCH   1   2
BRANCH   1   6
HETATM    6  C8  UNL     1     -32.396   6.534   2.033  1.00 20.00     0.003 C 
HETATM    7  C4  UNL     1     -32.093   5.499   0.936  1.00 20.00     0.011 C 
BRANCH   6   8
HETATM    8  C9  UNL     1     -31.680   7.878   1.738  1.00 20.00     0.082 C 
HETATM    9  C5  UNL     1     -32.487   8.805   0.834  1.00 20.00     0.027 C 
HETATM   10 CL10 UNL     1     -31.234   8.765   3.229  1.00 20.00    -0.125 Cl
ENDBRANCH   6   8
ENDBRANCH   1   6
TORSDOF 4
ENDMDL
MODEL 3
REMARK VINA RESULT:      -1.6      1.130      1.172
REMARK  4 active torsions:
REMARK  status: ('A' for Active; 'I' for Inactive)
REMARK    1  A    between atoms: C2_2  and  C6_6 
REMARK    2  A    between atoms: C2_2  and  C7_7 
REMARK    3  A    between atoms: C7_7  and  C8_8 
REMARK    4  A    between atoms: C8_8  and  C9_9 
ROOT
HETATM    1  C7  UNL     1     -32.326   7.847   2.476  1.00 20.00     0.039 C 
ENDROOT
BRANCH   1   2
HETATM    2  C2  UNL     1     -32.039   8.662   1.230  1.00 20.00    -0.089 C 
HETATM    3  C1  UNL     1     -31.120   8.255   0.338  1.00 20.00     0.014 C 
BRANCH   2   4
HETATM    4  C6  UNL     1     -32.814   9.942   1.009  1.00 20.00     0.029 C 
HETATM    5  C3  UNL     1     -32.849  10.377  -0.450  1.00 20.00     0.010 C 
ENDBRANCH   2   4
ENDBRANCH   1   2
BRANCH   1   6
HETATM    6  C8  UNL     1     -33.321   6.676   2.274  1.00 20.00     0.003 C 
HETATM    7  C4  UNL     1     -32.681   5.532   1.470  1.00 20.00     0.011 C 
BRANCH   6   8
HETATM    8  C9  UNL     1     -33.924   6.147   3.603  1.00 20.00     0.082 C 
HETATM    9  C5  UNL     1     -35.372   6.576   3.820  1.00 20.00     0.027 C 
HETATM   10 CL10 UNL     1     -33.820   4.364   3.747  1.00 20.00    -0.125 Cl
ENDBRANCH   6   8
ENDBRANCH   1   6
TORSDOF 4
ENDMDL
MODEL 4
REMARK VINA RESULT:      -1.6      1.116      1.272
REMARK  4 active torsions:
REMARK  status: ('A' for Active; 'I' for Inactive)
REMARK    1  A    between atoms: C2_2  and  C6_6 
REMARK    2  A    between atoms: C2_2  and  C7_7 
REMARK    3  A    between atoms: C7_7  and  C8_8 
REMARK    4  A    between atoms: C8_8  and  C9_9 
ROOT
HETATM    1  C7  UNL     1     -32.120   8.016   2.306  1.00 20.00     0.039 C 
ENDROOT
BRANCH   1   2
HETATM    2  C2  UNL     1     -31.941   8.832   1.040  1.00 20.00    -0.089 C 
HETATM    3  C1  UNL     1     -31.122   8.412   0.061  1.00 20.00     0.014 C 
BRANCH   2   4
HETATM    4  C6  UNL     1     -32.710  10.127   0.899  1.00 20.00     0.029 C 
HETATM    5  C3  UNL     1     -32.961  10.521  -0.549  1.00 20.00     0.010 C 
ENDBRANCH   2   4
ENDBRANCH   1   2
BRANCH   1   6
HETATM    6  C8  UNL     1     -33.404   7.150   2.348  1.00 20.00     0.003 C 
HETATM    7  C4  UNL     1     -33.075   5.656   2.194  1.00 20.00     0.011 C 
BRANCH   6   8
HETATM    8  C9  UNL     1     -34.270   7.397   3.612  1.00 20.00     0.082 C 
HETATM    9  C5  UNL     1     -35.045   6.163   4.061  1.00 20.00     0.027 C 
HETATM   10 CL10 UNL     1     -33.313   8.016   4.994  1.00 20.00    -0.125 Cl
ENDBRANCH   6   8
ENDBRANCH   1   6
TORSDOF 4
ENDMDL
MODEL 5
REMARK VINA RESULT:      -1.5      1.282      2.208
REMARK  4 active torsions:
REMARK  status: ('A' for Active; 'I' for Inactive)
REMARK    1  A    between atoms: C2_2  and  C6_6 
REMARK    2  A    between atoms: C2_2  and  C7_7 
REMARK    3  A    between atoms: C7_7  and  C8_8 
REMARK    4  A    between atoms: C8_8  and  C9_9 
ROOT
HETATM    1  C7  UNL     1     -32.953   6.722   1.845  1.00 20.00     0.039 C 
ENDROOT
BRANCH   1   2
HETATM    2  C2  UNL     1     -32.085   7.952   1.657  1.00 20.00    -0.089 C 
HETATM    3  C1  UNL     1     -31.273   8.377   2.639  1.00 20.00     0.014 C 
BRANCH   2   4
HETATM    4  C6  UNL     1     -32.150   8.687   0.337  1.00 20.00     0.029 C 
HETATM    5  C3  UNL     1     -32.565  10.145   0.483  1.00 20.00     0.010 C 
ENDBRANCH   2   4
ENDBRANCH   1   2
BRANCH   1   6
HETATM    6  C8  UNL     1     -33.386   6.447   3.307  1.00 20.00     0.003 C 
HETATM    7  C4  UNL     1     -34.091   7.668   3.919  1.00 20.00     0.011 C 
BRANCH   6   8
HETATM    8  C9  UNL     1     -34.257   5.171   3.459  1.00 20.00     0.082 C 
HETATM    9  C5  UNL     1     -33.480   3.971   3.992  1.00 20.00     0.027 C 
HETATM   10 CL10 UNL     1     -35.694   5.437   4.494  1.00 20.00    -0.125 Cl
ENDBRANCH   6   8
ENDBRANCH   1   6
TORSDOF 4
ENDMDL
MODEL 6
REMARK VINA RESULT:      -1.4      1.223      2.387
REMARK  4 active torsions:
REMARK  status: ('A' for Active; 'I' for Inactive)
REMARK    1  A    between atoms: C2_2  and  C6_6 
REMARK    2  A    between atoms: C2_2  and  C7_7 
REMARK    3  A    between atoms: C7_7  and  C8_8 
REMARK    4  A    between atoms: C8_8  and  C9_9 
ROOT
HETATM    1  C7  UNL     1     -33.542   7.835   2.577  1.00 20.00     0.039 C 
ENDROOT
BRANCH   1   2
HETATM    2  C2  UNL     1     -32.392   7.429   1.676  1.00 20.00    -0.089 C 
HETATM    3  C1  UNL     1     -32.114   6.132   1.457  1.00 20.00     0.014 C 
BRANCH   2   4
HETATM    4  C6  UNL     1     -31.567   8.515   1.022  1.00 20.00     0.029 C 
HETATM    5  C3  UNL     1     -32.412   9.623   0.409  1.00 20.00     0.010 C 
ENDBRANCH   2   4
ENDBRANCH   1   2
BRANCH   1   6
HETATM    6  C8  UNL     1     -33.537   7.173   3.978  1.00 20.00     0.003 C 
HETATM    7  C4  UNL     1     -33.451   8.228   5.094  1.00 20.00     0.011 C 
BRANCH   6   8
HETATM    8  C9  UNL     1     -34.738   6.219   4.212  1.00 20.00     0.082 C 
HETATM    9  C5  UNL     1     -35.930   6.519   3.307  1.00 20.00     0.027 C 
HETATM   10 CL10 UNL     1     -34.295   4.493   4.032  1.00 20.00    -0.125 Cl
ENDBRANCH   6   8
ENDBRANCH   1   6
TORSDOF 4
ENDMDL
MODEL 7
REMARK VINA RESULT:      -1.3      2.394      5.107
REMARK  4 active torsions:
REMARK  status: ('A' for Active; 'I' for Inactive)
REMARK    1  A    between atoms: C2_2  and  C6_6 
REMARK    2  A    between atoms: C2_2  and  C7_7 
REMARK    3  A    between atoms: C7_7  and  C8_8 
REMARK    4  A    between atoms: C8_8  and  C9_9 
ROOT
HETATM    1  C7  UNL     1     -33.478   6.110   2.986  1.00 20.00     0.039 C 
ENDROOT
BRANCH   1   2
HETATM    2  C2  UNL     1     -34.697   5.726   3.803  1.00 20.00    -0.089 C 
HETATM    3  C1  UNL     1     -35.792   6.505   3.812  1.00 20.00     0.014 C 
BRANCH   2   4
HETATM    4  C6  UNL     1     -34.656   4.444   4.605  1.00 20.00     0.029 C 
HETATM    5  C3  UNL     1     -33.527   3.512   4.188  1.00 20.00     0.010 C 
ENDBRANCH   2   4
ENDBRANCH   1   2
BRANCH   1   6
HETATM    6  C8  UNL     1     -33.171   7.627   2.947  1.00 20.00     0.003 C 
HETATM    7  C4  UNL     1     -32.866   8.172   4.353  1.00 20.00     0.011 C 
BRANCH   6   8
HETATM    8  C9  UNL     1     -32.038   7.999   1.954  1.00 20.00     0.082 C 
HETATM    9  C5  UNL     1     -31.568   6.820   1.108  1.00 20.00     0.027 C 
HETATM   10 CL10 UNL     1     -32.489   9.350   0.867  1.00 20.00    -0.125 Cl
ENDBRANCH   6   8
ENDBRANCH   1   6
TORSDOF 4
ENDMDL
MODEL 8
REMARK VINA RESULT:      -1.2      1.619      2.836
REMARK  4 active torsions:
REMARK  status: ('A' for Active; 'I' for Inactive)
REMARK    1  A    between atoms: C2_2  and  C6_6 
REMARK    2  A    between atoms: C2_2  and  C7_7 
REMARK    3  A    between atoms: C7_7  and  C8_8 
REMARK    4  A    between atoms: C8_8  and  C9_9 
ROOT
HETATM    1  C7  UNL     1     -33.587   6.257   1.903  1.00 20.00     0.039 C 
ENDROOT
BRANCH   1   2
HETATM    2  C2  UNL     1     -32.156   6.294   1.403  1.00 20.00    -0.089 C 
HETATM    3  C1  UNL     1     -31.566   5.186   0.923  1.00 20.00     0.014 C 
BRANCH   2   4
HETATM    4  C6  UNL     1     -31.407   7.607   1.451  1.00 20.00     0.029 C 
HETATM    5  C3  UNL     1     -32.278   8.807   1.107  1.00 20.00     0.010 C 
ENDBRANCH   2   4
ENDBRANCH   1   2
BRANCH   1   6
HETATM    6  C8  UNL     1     -33.739   6.048   3.431  1.00 20.00     0.003 C 
HETATM    7  C4  UNL     1     -34.422   7.256   4.094  1.00 20.00     0.011 C 
BRANCH   6   8
HETATM    8  C9  UNL     1     -34.468   4.729   3.801  1.00 20.00     0.082 C 
HETATM    9  C5  UNL     1     -33.524   3.636   4.290  1.00 20.00     0.027 C 
HETATM   10 CL10 UNL     1     -35.756   4.972   5.023  1.00 20.00    -0.125 Cl
ENDBRANCH   6   8
ENDBRANCH   1   6
TORSDOF 4
ENDMDL
MODEL 9
REMARK VINA RESULT:      -1.1      2.259      5.001
REMARK  4 active torsions:
REMARK  status: ('A' for Active; 'I' for Inactive)
REMARK    1  A    between atoms: C2_2  and  C6_6 
REMARK    2  A    between atoms: C2_2  and  C7_7 
REMARK    3  A    between atoms: C7_7  and  C8_8 
REMARK    4  A    between atoms: C8_8  and  C9_9 
ROOT
HETATM    1  C7  UNL     1     -33.886   6.709   3.027  1.00 20.00     0.039 C 
ENDROOT
BRANCH   1   2
HETATM    2  C2  UNL     1     -34.341   5.451   3.741  1.00 20.00    -0.089 C 
HETATM    3  C1  UNL     1     -35.449   5.455   4.501  1.00 20.00     0.014 C 
BRANCH   2   4
HETATM    4  C6  UNL     1     -33.523   4.190   3.576  1.00 20.00     0.029 C 
HETATM    5  C3  UNL     1     -33.531   3.304   4.815  1.00 20.00     0.010 C 
ENDBRANCH   2   4
ENDBRANCH   1   2
BRANCH   1   6
HETATM    6  C8  UNL     1     -32.633   6.534   2.132  1.00 20.00     0.003 C 
HETATM    7  C4  UNL     1     -33.006   5.956   0.757  1.00 20.00     0.011 C 
BRANCH   6   8
HETATM    8  C9  UNL     1     -31.802   7.835   1.977  1.00 20.00     0.082 C 
HETATM    9  C5  UNL     1     -32.353   8.779   0.912  1.00 20.00     0.027 C 
HETATM   10 CL10 UNL     1     -31.634   8.735   3.517  1.00 20.00    -0.125 Cl
ENDBRANCH   6   8
ENDBRANCH   1   6
TORSDOF 4
ENDMDL
