MODEL 1
REMARK VINA RESULT:      -0.6      0.000      0.000
REMARK  3 active torsions:
REMARK  status: ('A' for Active; 'I' for Inactive)
REMARK    1  A    between atoms: C4_4  and  C10_10 
REMARK    2  A    between atoms: C8_8  and  C10_10 
REMARK    3  A    between atoms: C9_9  and  C10_10 
ROOT
HETATM    1  C1  UNL     1     -34.917   6.287   3.560  1.00 20.00     0.006 C 
HETATM    2  C2  UNL     1     -35.012   5.084   4.486  1.00 20.00     0.020 C 
HETATM    3  C3  UNL     1     -32.819   5.019   3.499  1.00 20.00     0.025 C 
HETATM    4  C4  UNL     1     -33.416   6.421   3.273  1.00 20.00    -0.009 C 
HETATM    5  C5  UNL     1     -34.004   4.128   3.866  1.00 20.00     0.082 C 
HETATM    6 CL11 UNL     1     -33.554   2.818   4.967  1.00 20.00    -0.125 Cl
ENDROOT
BRANCH   4   7
HETATM    7  C10 UNL     1     -33.137   6.970   1.881  1.00 20.00    -0.011 C 
BRANCH   7   8
HETATM    8  C8  UNL     1     -32.607   5.872   0.935  1.00 20.00     0.000 C 
HETATM    9  C6  UNL     1     -33.699   5.150   0.158  1.00 20.00     0.005 C 
ENDBRANCH   7   8
BRANCH   7  10
HETATM   10  C9  UNL     1     -32.124   8.132   1.922  1.00 20.00     0.000 C 
HETATM   11  C7  UNL     1     -32.287   9.132   0.786  1.00 20.00     0.005 C 
ENDBRANCH   7  10
ENDBRANCH   4   7
TORSDOF 3
ENDMDL
MODEL 2
REMARK VINA RESULT:      -0.2      3.100      5.213
REMARK  3 active torsions:
REMARK  status: ('A' for Active; 'I' for Inactive)
REMARK    1  A    between atoms: C4_4  and  C10_10 
REMARK    2  A    between atoms: C8_8  and  C10_10 
REMARK    3  A    between atoms: C9_9  and  C10_10 
ROOT
HETATM    1  C1  UNL     1     -31.801   7.065   1.435  1.00 20.00     0.006 C 
HETATM    2  C2  UNL     1     -31.304   8.268   0.647  1.00 20.00     0.020 C 
HETATM    3  C3  UNL     1     -33.186   9.025   1.941  1.00 20.00     0.025 C 
HETATM    4  C4  UNL     1     -32.714   7.673   2.509  1.00 20.00    -0.009 C 
HETATM    5  C5  UNL     1     -32.559   9.123   0.552  1.00 20.00     0.082 C 
HETATM    6 CL11 UNL     1     -32.202  10.791   0.082  1.00 20.00    -0.125 Cl
ENDROOT
BRANCH   4   7
HETATM    7  C10 UNL     1     -33.865   6.750   2.882  1.00 20.00    -0.011 C 
BRANCH   7   8
HETATM    8  C8  UNL     1     -34.511   7.162   4.221  1.00 20.00     0.000 C 
HETATM    9  C6  UNL     1     -33.618   8.035   5.092  1.00 20.00     0.005 C 
ENDBRANCH   7   8
BRANCH   7  10
HETATM   10  C9  UNL     1     -33.406   5.280   2.976  1.00 20.00     0.000 C 
HETATM   11  C7  UNL     1     -34.182   4.456   3.994  1.00 20.00     0.005 C 
ENDBRANCH   7  10
ENDBRANCH   4   7
TORSDOF 3
ENDMDL
MODEL 3
REMARK VINA RESULT:      -0.1      1.337      1.661
REMARK  3 active torsions:
REMARK  status: ('A' for Active; 'I' for Inactive)
REMARK    1  A    between atoms: C4_4  and  C10_10 
REMARK    2  A    between atoms: C8_8  and  C10_10 
REMARK    3  A    between atoms: C9_9  and  C10_10 
ROOT
HETATM    1  C1  UNL     1     -33.694   8.076   3.520  1.00 20.00     0.006 C 
HETATM    2  C2  UNL     1     -34.612   7.425   4.544  1.00 20.00     0.020 C 
HETATM    3  C3  UNL     1     -33.716   5.645   3.197  1.00 20.00     0.025 C 
HETATM    4  C4  UNL     1     -32.866   6.909   2.965  1.00 20.00    -0.009 C 
HETATM    5  C5  UNL     1     -35.011   6.138   3.837  1.00 20.00     0.082 C 
HETATM    6 CL11 UNL     1     -35.716   4.954   4.946  1.00 20.00    -0.125 Cl
ENDROOT
BRANCH   4   7
HETATM    7  C10 UNL     1     -32.484   7.110   1.506  1.00 20.00    -0.011 C 
BRANCH   7   8
HETATM    8  C8  UNL     1     -31.688   5.908   0.957  1.00 20.00     0.000 C 
HETATM    9  C6  UNL     1     -32.564   4.791   0.405  1.00 20.00     0.005 C 
ENDBRANCH   7   8
BRANCH   7  10
HETATM   10  C9  UNL     1     -31.654   8.396   1.309  1.00 20.00     0.000 C 
HETATM   11  C7  UNL     1     -32.341   9.448   0.450  1.00 20.00     0.005 C 
ENDBRANCH   7  10
ENDBRANCH   4   7
TORSDOF 3
ENDMDL
MODEL 4
REMARK VINA RESULT:      -0.1      3.198      4.956
REMARK  3 active torsions:
REMARK  status: ('A' for Active; 'I' for Inactive)
REMARK    1  A    between atoms: C4_4  and  C10_10 
REMARK    2  A    between atoms: C8_8  and  C10_10 
REMARK    3  A    between atoms: C9_9  and  C10_10 
ROOT
HETATM    1  C1  UNL     1     -31.165   7.697   1.305  1.00 20.00     0.006 C 
HETATM    2  C2  UNL     1     -31.109   8.912   0.391  1.00 20.00     0.020 C 
HETATM    3  C3  UNL     1     -33.075   9.168   1.754  1.00 20.00     0.025 C 
HETATM    4  C4  UNL     1     -32.175   8.091   2.390  1.00 20.00    -0.009 C 
HETATM    5  C5  UNL     1     -32.573   9.321   0.320  1.00 20.00     0.082 C 
HETATM    6 CL11 UNL     1     -32.783  10.963  -0.303  1.00 20.00    -0.125 Cl
ENDROOT
BRANCH   4   7
HETATM    7  C10 UNL     1     -32.958   6.897   2.917  1.00 20.00    -0.011 C 
BRANCH   7   8
HETATM    8  C8  UNL     1     -33.442   5.986   1.770  1.00 20.00     0.000 C 
HETATM    9  C6  UNL     1     -32.386   5.008   1.273  1.00 20.00     0.005 C 
ENDBRANCH   7   8
BRANCH   7  10
HETATM   10  C9  UNL     1     -34.174   7.341   3.755  1.00 20.00     0.000 C 
HETATM   11  C7  UNL     1     -35.208   6.245   3.970  1.00 20.00     0.005 C 
ENDBRANCH   7  10
ENDBRANCH   4   7
TORSDOF 3
ENDMDL
MODEL 5
REMARK VINA RESULT:       0.1      1.527      2.783
REMARK  3 active torsions:
REMARK  status: ('A' for Active; 'I' for Inactive)
REMARK    1  A    between atoms: C4_4  and  C10_10 
REMARK    2  A    between atoms: C8_8  and  C10_10 
REMARK    3  A    between atoms: C9_9  and  C10_10 
ROOT
HETATM    1  C1  UNL     1     -33.383   8.361   3.781  1.00 20.00     0.006 C 
HETATM    2  C2  UNL     1     -34.388   7.614   4.644  1.00 20.00     0.020 C 
HETATM    3  C3  UNL     1     -33.506   6.016   3.076  1.00 20.00     0.025 C 
HETATM    4  C4  UNL     1     -32.584   7.250   3.089  1.00 20.00    -0.009 C 
HETATM    5  C5  UNL     1     -34.810   6.478   3.724  1.00 20.00     0.082 C 
HETATM    6 CL11 UNL     1     -35.634   5.178   4.596  1.00 20.00    -0.125 Cl
ENDROOT
BRANCH   4   7
HETATM    7  C10 UNL     1     -32.111   7.653   1.700  1.00 20.00    -0.011 C 
BRANCH   7   8
HETATM    8  C8  UNL     1     -32.719   9.002   1.263  1.00 20.00     0.000 C 
HETATM    9  C6  UNL     1     -32.185   9.515  -0.067  1.00 20.00     0.005 C 
ENDBRANCH   7   8
BRANCH   7  10
HETATM   10  C9  UNL     1     -32.460   6.579   0.648  1.00 20.00     0.000 C 
HETATM   11  C7  UNL     1     -31.747   5.252   0.863  1.00 20.00     0.005 C 
ENDBRANCH   7  10
ENDBRANCH   4   7
TORSDOF 3
ENDMDL
MODEL 6
REMARK VINA RESULT:       0.2      2.483      4.622
REMARK  3 active torsions:
REMARK  status: ('A' for Active; 'I' for Inactive)
REMARK    1  A    between atoms: C4_4  and  C10_10 
REMARK    2  A    between atoms: C8_8  and  C10_10 
REMARK    3  A    between atoms: C9_9  and  C10_10 
ROOT
HETATM    1  C1  UNL     1     -32.771   5.274   1.627  1.00 20.00     0.006 C 
HETATM    2  C2  UNL     1     -31.996   6.430   1.014  1.00 20.00     0.020 C 
HETATM    3  C3  UNL     1     -33.036   7.281   3.009  1.00 20.00     0.025 C 
HETATM    4  C4  UNL     1     -33.075   5.742   3.056  1.00 20.00    -0.009 C 
HETATM    5  C5  UNL     1     -32.751   7.636   1.551  1.00 20.00     0.082 C 
HETATM    6 CL11 UNL     1     -31.829   9.137   1.383  1.00 20.00    -0.125 Cl
ENDROOT
BRANCH   4   7
HETATM    7  C10 UNL     1     -34.396   5.197   3.578  1.00 20.00    -0.011 C 
BRANCH   7   8
HETATM    8  C8  UNL     1     -35.320   6.328   4.076  1.00 20.00     0.000 C 
HETATM    9  C6  UNL     1     -36.361   6.766   3.056  1.00 20.00     0.005 C 
ENDBRANCH   7   8
BRANCH   7  10
HETATM   10  C9  UNL     1     -34.179   4.183   4.720  1.00 20.00     0.000 C 
HETATM   11  C7  UNL     1     -33.255   3.030   4.354  1.00 20.00     0.005 C 
ENDBRANCH   7  10
ENDBRANCH   4   7
TORSDOF 3
ENDMDL
MODEL 7
REMARK VINA RESULT:       0.2      2.177      3.864
REMARK  3 active torsions:
REMARK  status: ('A' for Active; 'I' for Inactive)
REMARK    1  A    between atoms: C4_4  and  C10_10 
REMARK    2  A    between atoms: C8_8  and  C10_10 
REMARK    3  A    between atoms: C9_9  and  C10_10 
ROOT
HETATM    1  C1  UNL     1     -32.280   7.653   2.048  1.00 20.00     0.006 C 
HETATM    2  C2  UNL     1     -31.551   6.910   0.939  1.00 20.00     0.020 C 
HETATM    3  C3  UNL     1     -33.169   5.378   1.843  1.00 20.00     0.025 C 
HETATM    4  C4  UNL     1     -33.527   6.801   2.313  1.00 20.00    -0.009 C 
HETATM    5  C5  UNL     1     -31.721   5.460   1.365  1.00 20.00     0.082 C 
HETATM    6 CL11 UNL     1     -31.373   4.327   0.052  1.00 20.00    -0.125 Cl
ENDROOT
BRANCH   4   7
HETATM    7  C10 UNL     1     -33.969   6.854   3.768  1.00 20.00    -0.011 C 
BRANCH   7   8
HETATM    8  C8  UNL     1     -35.384   6.269   3.953  1.00 20.00     0.000 C 
HETATM    9  C6  UNL     1     -35.405   4.917   4.654  1.00 20.00     0.005 C 
ENDBRANCH   7   8
BRANCH   7  10
HETATM   10  C9  UNL     1     -33.944   8.295   4.316  1.00 20.00     0.000 C 
HETATM   11  C7  UNL     1     -33.013   8.487   5.505  1.00 20.00     0.005 C 
ENDBRANCH   7  10
ENDBRANCH   4   7
TORSDOF 3
ENDMDL
MODEL 8
REMARK VINA RESULT:       0.3      3.199      5.167
REMARK  3 active torsions:
REMARK  status: ('A' for Active; 'I' for Inactive)
REMARK    1  A    between atoms: C4_4  and  C10_10 
REMARK    2  A    between atoms: C8_8  and  C10_10 
REMARK    3  A    between atoms: C9_9  and  C10_10 
ROOT
HETATM    1  C1  UNL     1     -31.382   7.574   1.248  1.00 20.00     0.006 C 
HETATM    2  C2  UNL     1     -30.980   8.827   0.485  1.00 20.00     0.020 C 
HETATM    3  C3  UNL     1     -33.098   9.304   1.521  1.00 20.00     0.025 C 
HETATM    4  C4  UNL     1     -32.500   8.049   2.185  1.00 20.00    -0.009 C 
HETATM    5  C5  UNL     1     -32.328   9.478   0.214  1.00 20.00     0.082 C 
HETATM    6 CL11 UNL     1     -32.173  11.174  -0.265  1.00 20.00    -0.125 Cl
ENDROOT
BRANCH   4   7
HETATM    7  C10 UNL     1     -33.535   6.966   2.450  1.00 20.00    -0.011 C 
BRANCH   7   8
HETATM    8  C8  UNL     1     -34.106   7.063   3.880  1.00 20.00     0.000 C 
HETATM    9  C6  UNL     1     -35.307   6.161   4.126  1.00 20.00     0.005 C 
ENDBRANCH   7   8
BRANCH   7  10
HETATM   10  C9  UNL     1     -32.947   5.556   2.237  1.00 20.00     0.000 C 
HETATM   11  C7  UNL     1     -33.091   5.035   0.814  1.00 20.00     0.005 C 
ENDBRANCH   7  10
ENDBRANCH   4   7
TORSDOF 3
ENDMDL
MODEL 9
REMARK VINA RESULT:       0.5      3.051      4.762
REMARK  3 active torsions:
REMARK  status: ('A' for Active; 'I' for Inactive)
REMARK    1  A    between atoms: C4_4  and  C10_10 
REMARK    2  A    between atoms: C8_8  and  C10_10 
REMARK    3  A    between atoms: C9_9  and  C10_10 
ROOT
HETATM    1  C1  UNL     1     -31.836   6.908   1.340  1.00 20.00     0.006 C 
HETATM    2  C2  UNL     1     -31.608   8.101   0.424  1.00 20.00     0.020 C 
HETATM    3  C3  UNL     1     -32.729   8.941   2.380  1.00 20.00     0.025 C 
HETATM    4  C4  UNL     1     -32.178   7.538   2.697  1.00 20.00    -0.009 C 
HETATM    5  C5  UNL     1     -32.718   9.047   0.856  1.00 20.00     0.082 C 
HETATM    6 CL11 UNL     1     -32.450  10.702   0.291  1.00 20.00    -0.125 Cl
ENDROOT
BRANCH   4   7
HETATM    7  C10 UNL     1     -33.147   6.686   3.504  1.00 20.00    -0.011 C 
BRANCH   7   8
HETATM    8  C8  UNL     1     -33.492   5.372   2.773  1.00 20.00     0.000 C 
HETATM    9  C6  UNL     1     -33.592   4.164   3.694  1.00 20.00     0.005 C 
ENDBRANCH   7   8
BRANCH   7  10
HETATM   10  C9  UNL     1     -34.452   7.450   3.810  1.00 20.00     0.000 C 
HETATM   11  C7  UNL     1     -35.692   6.565   3.838  1.00 20.00     0.005 C 
ENDBRANCH   7  10
ENDBRANCH   4   7
TORSDOF 3
ENDMDL
