MODEL 1
REMARK VINA RESULT:       0.5      0.000      0.000
REMARK  5 active torsions:
REMARK  status: ('A' for Active; 'I' for Inactive)
REMARK    1  A    between atoms: C1_1  and  C7_7 
REMARK    2  A    between atoms: C1_1  and  C11_11 
REMARK    3  A    between atoms: C7_7  and  C10_10 
REMARK    4  A    between atoms: C8_8  and  C10_10 
REMARK    5  A    between atoms: C9_9  and  C10_10 
ROOT
HETATM    1  C1  UNL     1     -32.361   6.546   1.593  1.00 20.00     0.134 C 
HETATM    2  O12 UNL     1     -31.602   5.621   1.291  1.00 20.00    -0.297 OA
ENDROOT
BRANCH   1   3
HETATM    3  C7  UNL     1     -33.780   6.266   2.086  1.00 20.00     0.083 C 
BRANCH   3   4
HETATM    4  C10 UNL     1     -33.879   6.086   3.616  1.00 20.00    -0.008 C 
BRANCH   4   5
HETATM    5  C8  UNL     1     -34.569   4.748   3.963  1.00 20.00     0.000 C 
HETATM    6  C2  UNL     1     -33.628   3.599   4.296  1.00 20.00     0.005 C 
ENDBRANCH   4   5
BRANCH   4   7
HETATM    7  C9  UNL     1     -34.555   7.318   4.258  1.00 20.00     0.000 C 
HETATM    8  C3  UNL     1     -33.597   8.199   5.047  1.00 20.00     0.005 C 
ENDBRANCH   4   7
ENDBRANCH   3   4
ENDBRANCH   1   3
BRANCH   1   9
HETATM    9  C11 UNL     1     -31.915   8.019   1.475  1.00 20.00     0.009 C 
HETATM   10  C4  UNL     1     -31.040   8.372   2.683  1.00 20.00     0.022 C 
HETATM   11  C5  UNL     1     -31.088   8.202   0.190  1.00 20.00     0.022 C 
HETATM   12  C6  UNL     1     -33.132   8.950   1.405  1.00 20.00     0.022 C 
ENDBRANCH   1   9
TORSDOF 5
ENDMDL
MODEL 2
REMARK VINA RESULT:       0.7      1.061      1.513
REMARK  5 active torsions:
REMARK  status: ('A' for Active; 'I' for Inactive)
REMARK    1  A    between atoms: C1_1  and  C7_7 
REMARK    2  A    between atoms: C1_1  and  C11_11 
REMARK    3  A    between atoms: C7_7  and  C10_10 
REMARK    4  A    between atoms: C8_8  and  C10_10 
REMARK    5  A    between atoms: C9_9  and  C10_10 
ROOT
HETATM    1  C1  UNL     1     -32.436   6.277   1.781  1.00 20.00     0.134 C 
HETATM    2  O12 UNL     1     -31.580   5.556   1.263  1.00 20.00    -0.297 OA
ENDROOT
BRANCH   1   3
HETATM    3  C7  UNL     1     -33.788   5.705   2.208  1.00 20.00     0.083 C 
BRANCH   3   4
HETATM    4  C10 UNL     1     -33.786   5.111   3.633  1.00 20.00    -0.008 C 
BRANCH   4   5
HETATM    5  C8  UNL     1     -33.509   3.592   3.588  1.00 20.00     0.000 C 
HETATM    6  C2  UNL     1     -33.148   2.958   4.925  1.00 20.00     0.005 C 
ENDBRANCH   4   5
BRANCH   4   7
HETATM    7  C9  UNL     1     -35.091   5.483   4.370  1.00 20.00     0.000 C 
HETATM    8  C3  UNL     1     -35.869   6.610   3.706  1.00 20.00     0.005 C 
ENDBRANCH   4   7
ENDBRANCH   3   4
ENDBRANCH   1   3
BRANCH   1   9
HETATM    9  C11 UNL     1     -32.185   7.783   2.007  1.00 20.00     0.009 C 
HETATM   10  C4  UNL     1     -32.925   8.226   3.276  1.00 20.00     0.022 C 
HETATM   11  C5  UNL     1     -30.679   8.029   2.199  1.00 20.00     0.022 C 
HETATM   12  C6  UNL     1     -32.660   8.600   0.799  1.00 20.00     0.022 C 
ENDBRANCH   1   9
TORSDOF 5
ENDMDL
MODEL 3
REMARK VINA RESULT:       0.8      0.700      2.212
REMARK  5 active torsions:
REMARK  status: ('A' for Active; 'I' for Inactive)
REMARK    1  A    between atoms: C1_1  and  C7_7 
REMARK    2  A    between atoms: C1_1  and  C11_11 
REMARK    3  A    between atoms: C7_7  and  C10_10 
REMARK    4  A    between atoms: C8_8  and  C10_10 
REMARK    5  A    between atoms: C9_9  and  C10_10 
ROOT
HETATM    1  C1  UNL     1     -32.774   6.685   1.559  1.00 20.00     0.134 C 
HETATM    2  O12 UNL     1     -33.177   6.105   0.547  1.00 20.00    -0.297 OA
ENDROOT
BRANCH   1   3
HETATM    3  C7  UNL     1     -33.003   6.089   2.947  1.00 20.00     0.083 C 
BRANCH   3   4
HETATM    4  C10 UNL     1     -34.462   6.211   3.439  1.00 20.00    -0.008 C 
BRANCH   4   5
HETATM    5  C8  UNL     1     -34.690   7.571   4.133  1.00 20.00     0.000 C 
HETATM    6  C2  UNL     1     -33.568   8.028   5.054  1.00 20.00     0.005 C 
ENDBRANCH   4   5
BRANCH   4   7
HETATM    7  C9  UNL     1     -34.834   4.996   4.316  1.00 20.00     0.000 C 
HETATM    8  C3  UNL     1     -33.834   3.851   4.233  1.00 20.00     0.005 C 
ENDBRANCH   4   7
ENDBRANCH   3   4
ENDBRANCH   1   3
BRANCH   1   9
HETATM    9  C11 UNL     1     -32.035   8.037   1.466  1.00 20.00     0.009 C 
HETATM   10  C4  UNL     1     -31.168   8.218   2.719  1.00 20.00     0.022 C 
HETATM   11  C5  UNL     1     -31.123   8.039   0.226  1.00 20.00     0.022 C 
HETATM   12  C6  UNL     1     -33.034   9.193   1.336  1.00 20.00     0.022 C 
ENDBRANCH   1   9
TORSDOF 5
ENDMDL
MODEL 4
REMARK VINA RESULT:       0.8      0.713      2.534
REMARK  5 active torsions:
REMARK  status: ('A' for Active; 'I' for Inactive)
REMARK    1  A    between atoms: C1_1  and  C7_7 
REMARK    2  A    between atoms: C1_1  and  C11_11 
REMARK    3  A    between atoms: C7_7  and  C10_10 
REMARK    4  A    between atoms: C8_8  and  C10_10 
REMARK    5  A    between atoms: C9_9  and  C10_10 
ROOT
HETATM    1  C1  UNL     1     -32.797   6.697   1.543  1.00 20.00     0.134 C 
HETATM    2  O12 UNL     1     -33.233   6.153   0.525  1.00 20.00    -0.297 OA
ENDROOT
BRANCH   1   3
HETATM    3  C7  UNL     1     -33.016   6.073   2.920  1.00 20.00     0.083 C 
BRANCH   3   4
HETATM    4  C10 UNL     1     -34.470   6.184   3.425  1.00 20.00    -0.008 C 
BRANCH   4   5
HETATM    5  C8  UNL     1     -34.709   7.551   4.101  1.00 20.00     0.000 C 
HETATM    6  C2  UNL     1     -33.601   8.017   5.036  1.00 20.00     0.005 C 
ENDBRANCH   4   5
BRANCH   4   7
HETATM    7  C9  UNL     1     -34.819   4.977   4.324  1.00 20.00     0.000 C 
HETATM    8  C3  UNL     1     -33.814   3.837   4.234  1.00 20.00     0.005 C 
ENDBRANCH   4   7
ENDBRANCH   3   4
ENDBRANCH   1   3
BRANCH   1   9
HETATM    9  C11 UNL     1     -32.026   8.033   1.469  1.00 20.00     0.009 C 
HETATM   10  C4  UNL     1     -31.129   8.021   0.225  1.00 20.00     0.022 C 
HETATM   11  C5  UNL     1     -33.026   9.196   1.350  1.00 20.00     0.022 C 
HETATM   12  C6  UNL     1     -31.184   8.244   2.733  1.00 20.00     0.022 C 
ENDBRANCH   1   9
TORSDOF 5
ENDMDL
MODEL 5
REMARK VINA RESULT:       0.8      0.692      2.544
REMARK  5 active torsions:
REMARK  status: ('A' for Active; 'I' for Inactive)
REMARK    1  A    between atoms: C1_1  and  C7_7 
REMARK    2  A    between atoms: C1_1  and  C11_11 
REMARK    3  A    between atoms: C7_7  and  C10_10 
REMARK    4  A    between atoms: C8_8  and  C10_10 
REMARK    5  A    between atoms: C9_9  and  C10_10 
ROOT
HETATM    1  C1  UNL     1     -32.767   6.665   1.562  1.00 20.00     0.134 C 
HETATM    2  O12 UNL     1     -33.170   6.081   0.553  1.00 20.00    -0.297 OA
ENDROOT
BRANCH   1   3
HETATM    3  C7  UNL     1     -32.993   6.074   2.953  1.00 20.00     0.083 C 
BRANCH   3   4
HETATM    4  C10 UNL     1     -34.456   6.169   3.436  1.00 20.00    -0.008 C 
BRANCH   4   5
HETATM    5  C8  UNL     1     -34.719   7.534   4.109  1.00 20.00     0.000 C 
HETATM    6  C2  UNL     1     -33.633   8.007   5.065  1.00 20.00     0.005 C 
ENDBRANCH   4   5
BRANCH   4   7
HETATM    7  C9  UNL     1     -34.805   4.959   4.329  1.00 20.00     0.000 C 
HETATM    8  C3  UNL     1     -33.799   3.820   4.238  1.00 20.00     0.005 C 
ENDBRANCH   4   7
ENDBRANCH   3   4
ENDBRANCH   1   3
BRANCH   1   9
HETATM    9  C11 UNL     1     -32.033   8.020   1.463  1.00 20.00     0.009 C 
HETATM   10  C4  UNL     1     -33.073   9.144   1.377  1.00 20.00     0.022 C 
HETATM   11  C5  UNL     1     -31.175   8.231   2.723  1.00 20.00     0.022 C 
HETATM   12  C6  UNL     1     -31.111   8.049   0.238  1.00 20.00     0.022 C 
ENDBRANCH   1   9
TORSDOF 5
ENDMDL
MODEL 6
REMARK VINA RESULT:       0.9      1.114      4.354
REMARK  5 active torsions:
REMARK  status: ('A' for Active; 'I' for Inactive)
REMARK    1  A    between atoms: C1_1  and  C7_7 
REMARK    2  A    between atoms: C1_1  and  C11_11 
REMARK    3  A    between atoms: C7_7  and  C10_10 
REMARK    4  A    between atoms: C8_8  and  C10_10 
REMARK    5  A    between atoms: C9_9  and  C10_10 
ROOT
HETATM    1  C1  UNL     1     -33.556   6.439   2.437  1.00 20.00     0.134 C 
HETATM    2  O12 UNL     1     -33.009   5.455   1.933  1.00 20.00    -0.297 OA
ENDROOT
BRANCH   1   3
HETATM    3  C7  UNL     1     -33.313   7.842   1.881  1.00 20.00     0.083 C 
BRANCH   3   4
HETATM    4  C10 UNL     1     -31.893   8.042   1.308  1.00 20.00    -0.008 C 
BRANCH   4   5
HETATM    5  C8  UNL     1     -30.904   8.427   2.430  1.00 20.00     0.000 C 
HETATM    6  C2  UNL     1     -31.541   8.982   3.696  1.00 20.00     0.005 C 
ENDBRANCH   4   5
BRANCH   4   7
HETATM    7  C9  UNL     1     -31.925   9.048   0.137  1.00 20.00     0.000 C 
HETATM    8  C3  UNL     1     -32.685  10.329   0.450  1.00 20.00     0.005 C 
ENDBRANCH   4   7
ENDBRANCH   3   4
ENDBRANCH   1   3
BRANCH   1   9
HETATM    9  C11 UNL     1     -34.496   6.298   3.653  1.00 20.00     0.009 C 
HETATM   10  C4  UNL     1     -34.110   7.345   4.705  1.00 20.00     0.022 C 
HETATM   11  C5  UNL     1     -35.948   6.549   3.211  1.00 20.00     0.022 C 
HETATM   12  C6  UNL     1     -34.407   4.886   4.247  1.00 20.00     0.022 C 
ENDBRANCH   1   9
TORSDOF 5
ENDMDL
MODEL 7
REMARK VINA RESULT:       1.0      1.361      1.670
REMARK  5 active torsions:
REMARK  status: ('A' for Active; 'I' for Inactive)
REMARK    1  A    between atoms: C1_1  and  C7_7 
REMARK    2  A    between atoms: C1_1  and  C11_11 
REMARK    3  A    between atoms: C7_7  and  C10_10 
REMARK    4  A    between atoms: C8_8  and  C10_10 
REMARK    5  A    between atoms: C9_9  and  C10_10 
ROOT
HETATM    1  C1  UNL     1     -32.036   8.084   1.757  1.00 20.00     0.134 C 
HETATM    2  O12 UNL     1     -31.337   8.354   2.736  1.00 20.00    -0.297 OA
ENDROOT
BRANCH   1   3
HETATM    3  C7  UNL     1     -32.836   6.783   1.700  1.00 20.00     0.083 C 
BRANCH   3   4
HETATM    4  C10 UNL     1     -33.337   6.305   3.080  1.00 20.00    -0.008 C 
BRANCH   4   5
HETATM    5  C8  UNL     1     -33.918   4.877   2.983  1.00 20.00     0.000 C 
HETATM    6  C2  UNL     1     -33.865   4.065   4.269  1.00 20.00     0.005 C 
ENDBRANCH   4   5
BRANCH   4   7
HETATM    7  C9  UNL     1     -34.319   7.335   3.680  1.00 20.00     0.000 C 
HETATM    8  C3  UNL     1     -33.817   7.983   4.963  1.00 20.00     0.005 C 
ENDBRANCH   4   7
ENDBRANCH   3   4
ENDBRANCH   1   3
BRANCH   1   9
HETATM    9  C11 UNL     1     -32.122   9.038   0.546  1.00 20.00     0.009 C 
HETATM   10  C4  UNL     1     -30.724   9.193  -0.066  1.00 20.00     0.022 C 
HETATM   11  C5  UNL     1     -33.064   8.440  -0.513  1.00 20.00     0.022 C 
HETATM   12  C6  UNL     1     -32.674  10.405   0.971  1.00 20.00     0.022 C 
ENDBRANCH   1   9
TORSDOF 5
ENDMDL
MODEL 8
REMARK VINA RESULT:       1.3      1.582      2.474
REMARK  5 active torsions:
REMARK  status: ('A' for Active; 'I' for Inactive)
REMARK    1  A    between atoms: C1_1  and  C7_7 
REMARK    2  A    between atoms: C1_1  and  C11_11 
REMARK    3  A    between atoms: C7_7  and  C10_10 
REMARK    4  A    between atoms: C8_8  and  C10_10 
REMARK    5  A    between atoms: C9_9  and  C10_10 
ROOT
HETATM    1  C1  UNL     1     -32.094   8.410   1.866  1.00 20.00     0.134 C 
HETATM    2  O12 UNL     1     -31.069   8.377   2.550  1.00 20.00    -0.297 OA
ENDROOT
BRANCH   1   3
HETATM    3  C7  UNL     1     -33.349   7.651   2.296  1.00 20.00     0.083 C 
BRANCH   3   4
HETATM    4  C10 UNL     1     -33.104   6.148   2.551  1.00 20.00    -0.008 C 
BRANCH   4   5
HETATM    5  C8  UNL     1     -32.953   5.387   1.215  1.00 20.00     0.000 C 
HETATM    6  C2  UNL     1     -31.550   4.883   0.909  1.00 20.00     0.005 C 
ENDBRANCH   4   5
BRANCH   4   7
HETATM    7  C9  UNL     1     -34.204   5.574   3.471  1.00 20.00     0.000 C 
HETATM    8  C3  UNL     1     -35.163   6.628   4.007  1.00 20.00     0.005 C 
ENDBRANCH   4   7
ENDBRANCH   3   4
ENDBRANCH   1   3
BRANCH   1   9
HETATM    9  C11 UNL     1     -32.150   9.207   0.544  1.00 20.00     0.009 C 
HETATM   10  C4  UNL     1     -30.744   9.252  -0.068  1.00 20.00     0.022 C 
HETATM   11  C5  UNL     1     -33.099   8.502  -0.440  1.00 20.00     0.022 C 
HETATM   12  C6  UNL     1     -32.672  10.628   0.789  1.00 20.00     0.022 C 
ENDBRANCH   1   9
TORSDOF 5
ENDMDL
MODEL 9
REMARK VINA RESULT:       1.4      1.898      4.798
REMARK  5 active torsions:
REMARK  status: ('A' for Active; 'I' for Inactive)
REMARK    1  A    between atoms: C1_1  and  C7_7 
REMARK    2  A    between atoms: C1_1  and  C11_11 
REMARK    3  A    between atoms: C7_7  and  C10_10 
REMARK    4  A    between atoms: C8_8  and  C10_10 
REMARK    5  A    between atoms: C9_9  and  C10_10 
ROOT
HETATM    1  C1  UNL     1     -34.108   4.156   4.219  1.00 20.00     0.134 C 
HETATM    2  O12 UNL     1     -35.130   4.356   4.880  1.00 20.00    -0.297 OA
ENDROOT
BRANCH   1   3
HETATM    3  C7  UNL     1     -33.888   4.865   2.883  1.00 20.00     0.083 C 
BRANCH   3   4
HETATM    4  C10 UNL     1     -33.234   6.257   3.022  1.00 20.00    -0.008 C 
BRANCH   4   5
HETATM    5  C8  UNL     1     -34.244   7.278   3.591  1.00 20.00     0.000 C 
HETATM    6  C2  UNL     1     -33.808   7.980   4.869  1.00 20.00     0.005 C 
ENDBRANCH   4   5
BRANCH   4   7
HETATM    7  C9  UNL     1     -32.604   6.689   1.680  1.00 20.00     0.000 C 
HETATM    8  C3  UNL     1     -31.937   8.057   1.730  1.00 20.00     0.005 C 
ENDBRANCH   4   7
ENDBRANCH   3   4
ENDBRANCH   1   3
BRANCH   1   9
HETATM    9  C11 UNL     1     -33.018   3.177   4.706  1.00 20.00     0.009 C 
HETATM   10  C4  UNL     1     -33.503   1.740   4.476  1.00 20.00     0.022 C 
HETATM   11  C5  UNL     1     -31.729   3.402   3.898  1.00 20.00     0.022 C 
HETATM   12  C6  UNL     1     -32.707   3.405   6.190  1.00 20.00     0.022 C 
ENDBRANCH   1   9
TORSDOF 5
ENDMDL
