MODEL 1
REMARK VINA RESULT:      -1.8      0.000      0.000
REMARK  6 active torsions:
REMARK  status: ('A' for Active; 'I' for Inactive)
REMARK    1  A    between atoms: C4_4  and  C7_7 
REMARK    2  A    between atoms: C5_5  and  C9_9 
REMARK    3  A    between atoms: C6_6  and  C9_9 
REMARK    4  A    between atoms: C7_7  and  C10_10 
REMARK    5  A    between atoms: C8_8  and  C10_10 
REMARK    6  A    between atoms: C9_9  and  C10_10 
ROOT
HETATM    1  C10 UNL     1     -32.885   6.809   1.960  1.00 20.00     0.003 C 
ENDROOT
BRANCH   1   2
HETATM    2  C7  UNL     1     -32.099   8.148   1.872  1.00 20.00     0.005 C 
BRANCH   2   3
HETATM    3  C4  UNL     1     -31.952   8.715   0.456  1.00 20.00    -0.004 C 
HETATM    4  C1  UNL     1     -32.515  10.125   0.362  1.00 20.00     0.005 C 
ENDBRANCH   2   3
ENDBRANCH   1   2
BRANCH   1   5
HETATM    5  C8  UNL     1     -32.068   5.612   1.422  1.00 20.00     0.119 C 
HETATM    6 CL11 UNL     1     -32.973   4.606   0.265  1.00 20.00    -0.130 Cl
ENDBRANCH   1   5
BRANCH   1   7
HETATM    7  C9  UNL     1     -33.446   6.558   3.413  1.00 20.00    -0.010 C 
BRANCH   7   8
HETATM    8  C5  UNL     1     -34.036   7.834   4.069  1.00 20.00     0.000 C 
HETATM    9  C2  UNL     1     -33.310   8.305   5.322  1.00 20.00     0.005 C 
ENDBRANCH   7   8
BRANCH   7  10
HETATM   10  C6  UNL     1     -34.450   5.375   3.440  1.00 20.00     0.000 C 
HETATM   11  C3  UNL     1     -33.955   4.133   4.174  1.00 20.00     0.005 C 
ENDBRANCH   7  10
ENDBRANCH   1   7
TORSDOF 6
ENDMDL
MODEL 2
REMARK VINA RESULT:      -1.5      2.134      5.059
REMARK  6 active torsions:
REMARK  status: ('A' for Active; 'I' for Inactive)
REMARK    1  A    between atoms: C4_4  and  C7_7 
REMARK    2  A    between atoms: C5_5  and  C9_9 
REMARK    3  A    between atoms: C6_6  and  C9_9 
REMARK    4  A    between atoms: C7_7  and  C10_10 
REMARK    5  A    between atoms: C8_8  and  C10_10 
REMARK    6  A    between atoms: C9_9  and  C10_10 
ROOT
HETATM    1  C10 UNL     1     -34.301   6.300   3.292  1.00 20.00     0.003 C 
ENDROOT
BRANCH   1   2
HETATM    2  C7  UNL     1     -34.415   5.093   4.267  1.00 20.00     0.005 C 
BRANCH   2   3
HETATM    3  C4  UNL     1     -33.743   3.805   3.776  1.00 20.00    -0.004 C 
HETATM    4  C1  UNL     1     -33.163   3.007   4.934  1.00 20.00     0.005 C 
ENDBRANCH   2   3
ENDBRANCH   1   2
BRANCH   1   5
HETATM    5  C8  UNL     1     -34.604   7.646   3.988  1.00 20.00     0.119 C 
HETATM    6 CL11 UNL     1     -33.431   8.058   5.262  1.00 20.00    -0.130 Cl
ENDBRANCH   1   5
BRANCH   1   7
HETATM    7  C9  UNL     1     -32.918   6.305   2.533  1.00 20.00    -0.010 C 
BRANCH   7   8
HETATM    8  C5  UNL     1     -32.995   5.679   1.116  1.00 20.00     0.000 C 
HETATM    9  C2  UNL     1     -31.827   4.773   0.751  1.00 20.00     0.005 C 
ENDBRANCH   7   8
BRANCH   7  10
HETATM   10  C6  UNL     1     -32.288   7.723   2.506  1.00 20.00     0.000 C 
HETATM   11  C3  UNL     1     -32.067   8.299   1.112  1.00 20.00     0.005 C 
ENDBRANCH   7  10
ENDBRANCH   1   7
TORSDOF 6
ENDMDL
MODEL 3
REMARK VINA RESULT:      -1.5      1.990      4.652
REMARK  6 active torsions:
REMARK  status: ('A' for Active; 'I' for Inactive)
REMARK    1  A    between atoms: C4_4  and  C7_7 
REMARK    2  A    between atoms: C5_5  and  C9_9 
REMARK    3  A    between atoms: C6_6  and  C9_9 
REMARK    4  A    between atoms: C7_7  and  C10_10 
REMARK    5  A    between atoms: C8_8  and  C10_10 
REMARK    6  A    between atoms: C9_9  and  C10_10 
ROOT
HETATM    1  C10 UNL     1     -33.915   6.305   2.996  1.00 20.00     0.003 C 
ENDROOT
BRANCH   1   2
HETATM    2  C7  UNL     1     -33.240   5.233   3.898  1.00 20.00     0.005 C 
BRANCH   2   3
HETATM    3  C4  UNL     1     -34.072   3.966   4.123  1.00 20.00    -0.004 C 
HETATM    4  C1  UNL     1     -33.230   2.849   4.723  1.00 20.00     0.005 C 
ENDBRANCH   2   3
ENDBRANCH   1   2
BRANCH   1   5
HETATM    5  C8  UNL     1     -34.417   7.522   3.806  1.00 20.00     0.119 C 
HETATM    6 CL11 UNL     1     -33.323   7.984   5.131  1.00 20.00    -0.130 Cl
ENDBRANCH   1   5
BRANCH   1   7
HETATM    7  C9  UNL     1     -32.986   6.718   1.790  1.00 20.00    -0.010 C 
BRANCH   7   8
HETATM    8  C5  UNL     1     -32.204   8.033   2.043  1.00 20.00     0.000 C 
HETATM    9  C2  UNL     1     -32.148   8.986   0.856  1.00 20.00     0.005 C 
ENDBRANCH   7   8
BRANCH   7  10
HETATM   10  C6  UNL     1     -32.047   5.557   1.370  1.00 20.00     0.000 C 
HETATM   11  C3  UNL     1     -32.644   4.584   0.359  1.00 20.00     0.005 C 
ENDBRANCH   7  10
ENDBRANCH   1   7
TORSDOF 6
ENDMDL
MODEL 4
REMARK VINA RESULT:      -1.4      0.630      2.018
REMARK  6 active torsions:
REMARK  status: ('A' for Active; 'I' for Inactive)
REMARK    1  A    between atoms: C4_4  and  C7_7 
REMARK    2  A    between atoms: C5_5  and  C9_9 
REMARK    3  A    between atoms: C6_6  and  C9_9 
REMARK    4  A    between atoms: C7_7  and  C10_10 
REMARK    5  A    between atoms: C8_8  and  C10_10 
REMARK    6  A    between atoms: C9_9  and  C10_10 
ROOT
HETATM    1  C10 UNL     1     -32.949   6.913   1.735  1.00 20.00     0.003 C 
ENDROOT
BRANCH   1   2
HETATM    2  C7  UNL     1     -32.073   8.197   1.763  1.00 20.00     0.005 C 
BRANCH   2   3
HETATM    3  C4  UNL     1     -31.878   8.872   0.401  1.00 20.00    -0.004 C 
HETATM    4  C1  UNL     1     -32.591  10.215   0.340  1.00 20.00     0.005 C 
ENDBRANCH   2   3
ENDBRANCH   1   2
BRANCH   1   5
HETATM    5  C8  UNL     1     -32.098   5.623   1.726  1.00 20.00     0.119 C 
HETATM    6 CL11 UNL     1     -32.454   4.556   0.346  1.00 20.00    -0.130 Cl
ENDBRANCH   1   5
BRANCH   1   7
HETATM    7  C9  UNL     1     -34.030   6.921   2.884  1.00 20.00    -0.010 C 
BRANCH   7   8
HETATM    8  C5  UNL     1     -34.050   5.611   3.715  1.00 20.00     0.000 C 
HETATM    9  C2  UNL     1     -35.381   5.295   4.383  1.00 20.00     0.005 C 
ENDBRANCH   7   8
BRANCH   7  10
HETATM   10  C6  UNL     1     -33.895   8.177   3.785  1.00 20.00     0.000 C 
HETATM   11  C3  UNL     1     -33.173   7.941   5.108  1.00 20.00     0.005 C 
ENDBRANCH   7  10
ENDBRANCH   1   7
TORSDOF 6
ENDMDL
MODEL 5
REMARK VINA RESULT:      -1.2      1.686      3.738
REMARK  6 active torsions:
REMARK  status: ('A' for Active; 'I' for Inactive)
REMARK    1  A    between atoms: C4_4  and  C7_7 
REMARK    2  A    between atoms: C5_5  and  C9_9 
REMARK    3  A    between atoms: C6_6  and  C9_9 
REMARK    4  A    between atoms: C7_7  and  C10_10 
REMARK    5  A    between atoms: C8_8  and  C10_10 
REMARK    6  A    between atoms: C9_9  and  C10_10 
ROOT
HETATM    1  C10 UNL     1     -33.571   5.699   3.280  1.00 20.00     0.003 C 
ENDROOT
BRANCH   1   2
HETATM    2  C7  UNL     1     -34.746   6.538   3.859  1.00 20.00     0.005 C 
BRANCH   2   3
HETATM    3  C4  UNL     1     -34.399   7.997   4.174  1.00 20.00    -0.004 C 
HETATM    4  C1  UNL     1     -33.200   8.093   5.106  1.00 20.00     0.005 C 
ENDBRANCH   2   3
ENDBRANCH   1   2
BRANCH   1   5
HETATM    5  C8  UNL     1     -33.870   4.183   3.296  1.00 20.00     0.119 C 
HETATM    6 CL11 UNL     1     -33.314   3.372   4.780  1.00 20.00    -0.130 Cl
ENDBRANCH   1   5
BRANCH   1   7
HETATM    7  C9  UNL     1     -33.133   6.217   1.856  1.00 20.00    -0.010 C 
BRANCH   7   8
HETATM    8  C5  UNL     1     -31.907   7.166   1.901  1.00 20.00     0.000 C 
HETATM    9  C2  UNL     1     -32.131   8.534   1.271  1.00 20.00     0.005 C 
ENDBRANCH   7   8
BRANCH   7  10
HETATM   10  C6  UNL     1     -32.922   5.044   0.862  1.00 20.00     0.000 C 
HETATM   11  C3  UNL     1     -31.465   4.670   0.614  1.00 20.00     0.005 C 
ENDBRANCH   7  10
ENDBRANCH   1   7
TORSDOF 6
ENDMDL
MODEL 6
REMARK VINA RESULT:      -1.2      0.987      4.109
REMARK  6 active torsions:
REMARK  status: ('A' for Active; 'I' for Inactive)
REMARK    1  A    between atoms: C4_4  and  C7_7 
REMARK    2  A    between atoms: C5_5  and  C9_9 
REMARK    3  A    between atoms: C6_6  and  C9_9 
REMARK    4  A    between atoms: C7_7  and  C10_10 
REMARK    5  A    between atoms: C8_8  and  C10_10 
REMARK    6  A    between atoms: C9_9  and  C10_10 
ROOT
HETATM    1  C10 UNL     1     -33.119   5.724   2.690  1.00 20.00     0.003 C 
ENDROOT
BRANCH   1   2
HETATM    2  C7  UNL     1     -34.010   4.905   3.668  1.00 20.00     0.005 C 
BRANCH   2   3
HETATM    3  C4  UNL     1     -33.634   3.425   3.793  1.00 20.00    -0.004 C 
HETATM    4  C1  UNL     1     -33.006   3.124   5.146  1.00 20.00     0.005 C 
ENDBRANCH   2   3
ENDBRANCH   1   2
BRANCH   1   5
HETATM    5  C8  UNL     1     -33.174   5.174   1.247  1.00 20.00     0.119 C 
HETATM    6 CL11 UNL     1     -31.575   4.734   0.601  1.00 20.00    -0.130 Cl
ENDBRANCH   1   5
BRANCH   1   7
HETATM    7  C9  UNL     1     -33.438   7.267   2.767  1.00 20.00    -0.010 C 
BRANCH   7   8
HETATM    8  C5  UNL     1     -34.111   7.687   4.099  1.00 20.00     0.000 C 
HETATM    9  C2  UNL     1     -33.167   8.281   5.135  1.00 20.00     0.005 C 
ENDBRANCH   7   8
BRANCH   7  10
HETATM   10  C6  UNL     1     -32.183   8.125   2.455  1.00 20.00     0.000 C 
HETATM   11  C3  UNL     1     -32.174   8.767   1.072  1.00 20.00     0.005 C 
ENDBRANCH   7  10
ENDBRANCH   1   7
TORSDOF 6
ENDMDL
MODEL 7
REMARK VINA RESULT:      -0.9      1.091      2.154
REMARK  6 active torsions:
REMARK  status: ('A' for Active; 'I' for Inactive)
REMARK    1  A    between atoms: C4_4  and  C7_7 
REMARK    2  A    between atoms: C5_5  and  C9_9 
REMARK    3  A    between atoms: C6_6  and  C9_9 
REMARK    4  A    between atoms: C7_7  and  C10_10 
REMARK    5  A    between atoms: C8_8  and  C10_10 
REMARK    6  A    between atoms: C9_9  and  C10_10 
ROOT
HETATM    1  C10 UNL     1     -32.716   6.329   1.608  1.00 20.00     0.003 C 
ENDROOT
BRANCH   1   2
HETATM    2  C7  UNL     1     -32.417   7.811   1.974  1.00 20.00     0.005 C 
BRANCH   2   3
HETATM    3  C4  UNL     1     -31.712   8.615   0.876  1.00 20.00    -0.004 C 
HETATM    4  C1  UNL     1     -32.539   9.821   0.454  1.00 20.00     0.005 C 
ENDBRANCH   2   3
ENDBRANCH   1   2
BRANCH   1   5
HETATM    5  C8  UNL     1     -31.429   5.526   1.316  1.00 20.00     0.119 C 
HETATM    6 CL11 UNL     1     -31.664   4.233   0.114  1.00 20.00    -0.130 Cl
ENDBRANCH   1   5
BRANCH   1   7
HETATM    7  C9  UNL     1     -33.633   5.637   2.689  1.00 20.00    -0.010 C 
BRANCH   7   8
HETATM    8  C5  UNL     1     -32.946   4.442   3.400  1.00 20.00     0.000 C 
HETATM    9  C2  UNL     1     -33.836   3.675   4.369  1.00 20.00     0.005 C 
ENDBRANCH   7   8
BRANCH   7  10
HETATM   10  C6  UNL     1     -34.197   6.668   3.702  1.00 20.00     0.000 C 
HETATM   11  C3  UNL     1     -35.689   6.533   3.990  1.00 20.00     0.005 C 
ENDBRANCH   7  10
ENDBRANCH   1   7
TORSDOF 6
ENDMDL
MODEL 8
REMARK VINA RESULT:      -0.9      2.079      4.905
REMARK  6 active torsions:
REMARK  status: ('A' for Active; 'I' for Inactive)
REMARK    1  A    between atoms: C4_4  and  C7_7 
REMARK    2  A    between atoms: C5_5  and  C9_9 
REMARK    3  A    between atoms: C6_6  and  C9_9 
REMARK    4  A    between atoms: C7_7  and  C10_10 
REMARK    5  A    between atoms: C8_8  and  C10_10 
REMARK    6  A    between atoms: C9_9  and  C10_10 
ROOT
HETATM    1  C10 UNL     1     -34.047   7.432   3.406  1.00 20.00     0.003 C 
ENDROOT
BRANCH   1   2
HETATM    2  C7  UNL     1     -35.139   6.328   3.313  1.00 20.00     0.005 C 
BRANCH   2   3
HETATM    3  C4  UNL     1     -35.152   5.337   4.482  1.00 20.00    -0.004 C 
HETATM    4  C1  UNL     1     -34.187   4.185   4.243  1.00 20.00     0.005 C 
ENDBRANCH   2   3
ENDBRANCH   1   2
BRANCH   1   5
HETATM    5  C8  UNL     1     -33.749   7.840   4.866  1.00 20.00     0.119 C 
HETATM    6 CL11 UNL     1     -32.230   8.751   5.045  1.00 20.00    -0.130 Cl
ENDBRANCH   1   5
BRANCH   1   7
HETATM    7  C9  UNL     1     -32.746   7.031   2.609  1.00 20.00    -0.010 C 
BRANCH   7   8
HETATM    8  C5  UNL     1     -33.022   6.042   1.446  1.00 20.00     0.000 C 
HETATM    9  C2  UNL     1     -31.869   5.104   1.115  1.00 20.00     0.005 C 
ENDBRANCH   7   8
BRANCH   7  10
HETATM   10  C6  UNL     1     -31.962   8.282   2.132  1.00 20.00     0.000 C 
HETATM   11  C3  UNL     1     -32.478   8.908   0.841  1.00 20.00     0.005 C 
ENDBRANCH   7  10
ENDBRANCH   1   7
TORSDOF 6
ENDMDL
MODEL 9
REMARK VINA RESULT:      -0.8      2.084      3.142
REMARK  6 active torsions:
REMARK  status: ('A' for Active; 'I' for Inactive)
REMARK    1  A    between atoms: C4_4  and  C7_7 
REMARK    2  A    between atoms: C5_5  and  C9_9 
REMARK    3  A    between atoms: C6_6  and  C9_9 
REMARK    4  A    between atoms: C7_7  and  C10_10 
REMARK    5  A    between atoms: C8_8  and  C10_10 
REMARK    6  A    between atoms: C9_9  and  C10_10 
ROOT
HETATM    1  C10 UNL     1     -32.567   7.312   2.730  1.00 20.00     0.003 C 
ENDROOT
BRANCH   1   2
HETATM    2  C7  UNL     1     -32.091   8.011   1.424  1.00 20.00     0.005 C 
BRANCH   2   3
HETATM    3  C4  UNL     1     -32.521   9.475   1.286  1.00 20.00    -0.004 C 
HETATM    4  C1  UNL     1     -32.529   9.915  -0.171  1.00 20.00     0.005 C 
ENDBRANCH   2   3
ENDBRANCH   1   2
BRANCH   1   5
HETATM    5  C8  UNL     1     -33.737   8.063   3.404  1.00 20.00     0.119 C 
HETATM    6 CL11 UNL     1     -33.558   8.206   5.169  1.00 20.00    -0.130 Cl
ENDBRANCH   1   5
BRANCH   1   7
HETATM    7  C9  UNL     1     -32.882   5.785   2.491  1.00 20.00    -0.010 C 
BRANCH   7   8
HETATM    8  C5  UNL     1     -34.124   5.286   3.273  1.00 20.00     0.000 C 
HETATM    9  C2  UNL     1     -33.892   4.041   4.119  1.00 20.00     0.005 C 
ENDBRANCH   7   8
BRANCH   7  10
HETATM   10  C6  UNL     1     -32.978   5.453   0.978  1.00 20.00     0.000 C 
HETATM   11  C3  UNL     1     -31.878   4.537   0.452  1.00 20.00     0.005 C 
ENDBRANCH   7  10
ENDBRANCH   1   7
TORSDOF 6
ENDMDL
