MODEL 1
REMARK VINA RESULT:       1.0      0.000      0.000
REMARK  2 active torsions:
REMARK  status: ('A' for Active; 'I' for Inactive)
REMARK    1  A    between atoms: C4_4  and  C7_7 
REMARK    2  A    between atoms: C4_4  and  C8_8 
ROOT
HETATM    1  C1  UNL     1     -34.966   5.914   3.434  1.00 20.00     0.039 C 
HETATM    2  C2  UNL     1     -35.364   7.348   3.726  1.00 20.00     0.168 C 
HETATM    3  C3  UNL     1     -33.099   7.096   4.222  1.00 20.00     0.178 C 
HETATM    4  C4  UNL     1     -33.464   6.011   3.212  1.00 20.00    -0.001 C 
HETATM    5  O9  UNL     1     -34.211   8.003   4.275  1.00 20.00    -0.390 OA
ENDROOT
BRANCH   4   6
HETATM    6  C7  UNL     1     -32.745   4.694   3.497  1.00 20.00     0.126 C 
HETATM    7 CL10 UNL     1     -33.823   3.584   4.361  1.00 20.00    -0.130 Cl
ENDBRANCH   4   6
BRANCH   4   8
HETATM    8  C8  UNL     1     -33.146   6.469   1.780  1.00 20.00    -0.011 C 
HETATM    9  C5  UNL     1     -32.160   7.630   1.804  1.00 20.00     0.010 C 
HETATM   10  C6  UNL     1     -32.598   5.305   0.965  1.00 20.00     0.010 C 
ENDBRANCH   4   8
TORSDOF 2
ENDMDL
MODEL 2
REMARK VINA RESULT:       1.0      2.897      3.966
REMARK  2 active torsions:
REMARK  status: ('A' for Active; 'I' for Inactive)
REMARK    1  A    between atoms: C4_4  and  C7_7 
REMARK    2  A    between atoms: C4_4  and  C8_8 
ROOT
HETATM    1  C1  UNL     1     -33.634   6.657   1.178  1.00 20.00     0.039 C 
HETATM    2  C2  UNL     1     -32.848   5.359   1.167  1.00 20.00     0.168 C 
HETATM    3  C3  UNL     1     -31.436   7.069   1.888  1.00 20.00     0.178 C 
HETATM    4  C4  UNL     1     -32.868   7.516   2.173  1.00 20.00    -0.001 C 
HETATM    5  O9  UNL     1     -31.499   5.679   1.533  1.00 20.00    -0.390 OA
ENDROOT
BRANCH   4   6
HETATM    6  C7  UNL     1     -33.065   9.011   1.929  1.00 20.00     0.126 C 
HETATM    7 CL10 UNL     1     -32.311   9.483   0.396  1.00 20.00    -0.130 Cl
ENDBRANCH   4   6
BRANCH   4   8
HETATM    8  C8  UNL     1     -33.267   7.175   3.618  1.00 20.00    -0.011 C 
HETATM    9  C5  UNL     1     -32.942   8.341   4.543  1.00 20.00     0.010 C 
HETATM   10  C6  UNL     1     -34.747   6.823   3.685  1.00 20.00     0.010 C 
ENDBRANCH   4   8
TORSDOF 2
ENDMDL
MODEL 3
REMARK VINA RESULT:       1.0      1.858      2.728
REMARK  2 active torsions:
REMARK  status: ('A' for Active; 'I' for Inactive)
REMARK    1  A    between atoms: C4_4  and  C7_7 
REMARK    2  A    between atoms: C4_4  and  C8_8 
ROOT
HETATM    1  C1  UNL     1     -35.236   6.427   3.142  1.00 20.00     0.039 C 
HETATM    2  C2  UNL     1     -35.461   5.657   4.430  1.00 20.00     0.168 C 
HETATM    3  C3  UNL     1     -33.507   4.868   3.430  1.00 20.00     0.178 C 
HETATM    4  C4  UNL     1     -33.739   6.285   2.911  1.00 20.00    -0.001 C 
HETATM    5  O9  UNL     1     -34.423   4.670   4.518  1.00 20.00    -0.390 OA
ENDROOT
BRANCH   4   6
HETATM    6  C7  UNL     1     -33.358   6.429   1.439  1.00 20.00     0.126 C 
HETATM    7 CL10 UNL     1     -32.105   5.250   1.015  1.00 20.00    -0.130 Cl
ENDBRANCH   4   6
BRANCH   4   8
HETATM    8  C8  UNL     1     -32.953   7.307   3.747  1.00 20.00    -0.011 C 
HETATM    9  C5  UNL     1     -32.096   8.182   2.840  1.00 20.00     0.010 C 
HETATM   10  C6  UNL     1     -33.908   8.155   4.577  1.00 20.00     0.010 C 
ENDBRANCH   4   8
TORSDOF 2
ENDMDL
MODEL 4
REMARK VINA RESULT:       1.2      2.797      3.974
REMARK  2 active torsions:
REMARK  status: ('A' for Active; 'I' for Inactive)
REMARK    1  A    between atoms: C4_4  and  C7_7 
REMARK    2  A    between atoms: C4_4  and  C8_8 
ROOT
HETATM    1  C1  UNL     1     -33.539   6.684   0.534  1.00 20.00     0.039 C 
HETATM    2  C2  UNL     1     -33.581   5.223   0.125  1.00 20.00     0.168 C 
HETATM    3  C3  UNL     1     -31.937   5.484   1.759  1.00 20.00     0.178 C 
HETATM    4  C4  UNL     1     -32.926   6.635   1.926  1.00 20.00    -0.001 C 
HETATM    5  O9  UNL     1     -32.537   4.553   0.844  1.00 20.00    -0.390 OA
ENDROOT
BRANCH   4   6
HETATM    6  C7  UNL     1     -32.231   7.941   2.305  1.00 20.00     0.126 C 
HETATM    7 CL10 UNL     1     -32.187   9.036   0.913  1.00 20.00    -0.130 Cl
ENDBRANCH   4   6
BRANCH   4   8
HETATM    8  C8  UNL     1     -33.988   6.293   2.984  1.00 20.00    -0.011 C 
HETATM    9  C5  UNL     1     -33.638   4.982   3.677  1.00 20.00     0.010 C 
HETATM   10  C6  UNL     1     -34.108   7.427   3.994  1.00 20.00     0.010 C 
ENDBRANCH   4   8
TORSDOF 2
ENDMDL
MODEL 5
REMARK VINA RESULT:       1.4      2.056      3.227
REMARK  2 active torsions:
REMARK  status: ('A' for Active; 'I' for Inactive)
REMARK    1  A    between atoms: C4_4  and  C7_7 
REMARK    2  A    between atoms: C4_4  and  C8_8 
ROOT
HETATM    1  C1  UNL     1     -32.549   5.501   2.670  1.00 20.00     0.039 C 
HETATM    2  C2  UNL     1     -32.307   4.912   1.293  1.00 20.00     0.168 C 
HETATM    3  C3  UNL     1     -33.896   6.609   1.100  1.00 20.00     0.178 C 
HETATM    4  C4  UNL     1     -33.084   6.892   2.362  1.00 20.00    -0.001 C 
HETATM    5  O9  UNL     1     -33.206   5.570   0.389  1.00 20.00    -0.390 OA
ENDROOT
BRANCH   4   6
HETATM    6  C7  UNL     1     -33.950   7.449   3.491  1.00 20.00     0.126 C 
HETATM    7 CL10 UNL     1     -35.228   6.295   3.906  1.00 20.00    -0.130 Cl
ENDBRANCH   4   6
BRANCH   4   8
HETATM    8  C8  UNL     1     -31.937   7.871   2.064  1.00 20.00    -0.011 C 
HETATM    9  C5  UNL     1     -32.329   8.812   0.932  1.00 20.00     0.010 C 
HETATM   10  C6  UNL     1     -31.573   8.651   3.320  1.00 20.00     0.010 C 
ENDBRANCH   4   8
TORSDOF 2
ENDMDL
MODEL 6
REMARK VINA RESULT:       1.4      2.057      3.489
REMARK  2 active torsions:
REMARK  status: ('A' for Active; 'I' for Inactive)
REMARK    1  A    between atoms: C4_4  and  C7_7 
REMARK    2  A    between atoms: C4_4  and  C8_8 
ROOT
HETATM    1  C1  UNL     1     -31.539   7.687   2.413  1.00 20.00     0.039 C 
HETATM    2  C2  UNL     1     -31.693   9.032   1.727  1.00 20.00     0.168 C 
HETATM    3  C3  UNL     1     -33.311   7.581   0.878  1.00 20.00     0.178 C 
HETATM    4  C4  UNL     1     -32.916   7.060   2.258  1.00 20.00    -0.001 C 
HETATM    5  O9  UNL     1     -32.734   8.889   0.750  1.00 20.00    -0.390 OA
ENDROOT
BRANCH   4   6
HETATM    6  C7  UNL     1     -32.873   5.534   2.308  1.00 20.00     0.126 C 
HETATM    7 CL10 UNL     1     -31.869   4.909   0.988  1.00 20.00    -0.130 Cl
ENDBRANCH   4   6
BRANCH   4   8
HETATM    8  C8  UNL     1     -33.883   7.581   3.334  1.00 20.00    -0.011 C 
HETATM    9  C5  UNL     1     -34.883   6.496   3.714  1.00 20.00     0.010 C 
HETATM   10  C6  UNL     1     -33.106   8.056   4.554  1.00 20.00     0.010 C 
ENDBRANCH   4   8
TORSDOF 2
ENDMDL
MODEL 7
REMARK VINA RESULT:       1.6      1.942      2.399
REMARK  2 active torsions:
REMARK  status: ('A' for Active; 'I' for Inactive)
REMARK    1  A    between atoms: C4_4  and  C7_7 
REMARK    2  A    between atoms: C4_4  and  C8_8 
ROOT
HETATM    1  C1  UNL     1     -33.438   5.648   4.083  1.00 20.00     0.039 C 
HETATM    2  C2  UNL     1     -34.827   5.100   3.814  1.00 20.00     0.168 C 
HETATM    3  C3  UNL     1     -34.925   7.430   3.737  1.00 20.00     0.178 C 
HETATM    4  C4  UNL     1     -33.481   7.028   3.445  1.00 20.00    -0.001 C 
HETATM    5  O9  UNL     1     -35.707   6.226   3.686  1.00 20.00    -0.390 OA
ENDROOT
BRANCH   4   6
HETATM    6  C7  UNL     1     -32.477   7.994   4.071  1.00 20.00     0.126 C 
HETATM    7 CL10 UNL     1     -33.038   8.505   5.672  1.00 20.00    -0.130 Cl
ENDBRANCH   4   6
BRANCH   4   8
HETATM    8  C8  UNL     1     -33.235   6.944   1.929  1.00 20.00    -0.011 C 
HETATM    9  C5  UNL     1     -32.304   8.064   1.483  1.00 20.00     0.010 C 
HETATM   10  C6  UNL     1     -32.660   5.581   1.566  1.00 20.00     0.010 C 
ENDBRANCH   4   8
TORSDOF 2
ENDMDL
MODEL 8
REMARK VINA RESULT:       1.7      2.391      3.434
REMARK  2 active torsions:
REMARK  status: ('A' for Active; 'I' for Inactive)
REMARK    1  A    between atoms: C4_4  and  C7_7 
REMARK    2  A    between atoms: C4_4  and  C8_8 
ROOT
HETATM    1  C1  UNL     1     -33.189   9.009   1.712  1.00 20.00     0.039 C 
HETATM    2  C2  UNL     1     -32.501   9.228   0.377  1.00 20.00     0.168 C 
HETATM    3  C3  UNL     1     -31.061   8.020   1.759  1.00 20.00     0.178 C 
HETATM    4  C4  UNL     1     -32.481   7.782   2.267  1.00 20.00    -0.001 C 
HETATM    5  O9  UNL     1     -31.182   8.674   0.486  1.00 20.00    -0.390 OA
ENDROOT
BRANCH   4   6
HETATM    6  C7  UNL     1     -32.543   7.711   3.792  1.00 20.00     0.126 C 
HETATM    7 CL10 UNL     1     -34.180   8.089   4.355  1.00 20.00    -0.130 Cl
ENDBRANCH   4   6
BRANCH   4   8
HETATM    8  C8  UNL     1     -33.064   6.491   1.670  1.00 20.00    -0.011 C 
HETATM    9  C5  UNL     1     -31.945   5.604   1.138  1.00 20.00     0.010 C 
HETATM   10  C6  UNL     1     -33.892   5.755   2.715  1.00 20.00     0.010 C 
ENDBRANCH   4   8
TORSDOF 2
ENDMDL
MODEL 9
REMARK VINA RESULT:       1.9      2.452      3.607
REMARK  2 active torsions:
REMARK  status: ('A' for Active; 'I' for Inactive)
REMARK    1  A    between atoms: C4_4  and  C7_7 
REMARK    2  A    between atoms: C4_4  and  C8_8 
ROOT
HETATM    1  C1  UNL     1     -31.292   6.782   1.764  1.00 20.00     0.039 C 
HETATM    2  C2  UNL     1     -32.186   5.743   1.113  1.00 20.00     0.168 C 
HETATM    3  C3  UNL     1     -33.513   7.140   2.428  1.00 20.00     0.178 C 
HETATM    4  C4  UNL     1     -32.251   7.921   2.070  1.00 20.00    -0.001 C 
HETATM    5  O9  UNL     1     -33.515   5.959   1.611  1.00 20.00    -0.390 OA
ENDROOT
BRANCH   4   6
HETATM    6  C7  UNL     1     -31.770   8.798   3.224  1.00 20.00     0.126 C 
HETATM    7 CL10 UNL     1     -32.657   8.398   4.706  1.00 20.00    -0.130 Cl
ENDBRANCH   4   6
BRANCH   4   8
HETATM    8  C8  UNL     1     -32.486   8.794   0.826  1.00 20.00    -0.011 C 
HETATM    9  C5  UNL     1     -32.890  10.204   1.240  1.00 20.00     0.010 C 
HETATM   10  C6  UNL     1     -31.235   8.819  -0.042  1.00 20.00     0.010 C 
ENDBRANCH   4   8
TORSDOF 2
ENDMDL
