MODEL 1
REMARK VINA RESULT:       0.2      0.000      0.000
REMARK  4 active torsions:
REMARK  status: ('A' for Active; 'I' for Inactive)
REMARK    1  A    between atoms: C1_1  and  C9_9 
REMARK    2  A    between atoms: C1_1  and  C10_10 
REMARK    3  A    between atoms: C7_7  and  C9_9 
REMARK    4  A    between atoms: C8_8  and  C9_9 
ROOT
HETATM    1  C1  UNL     1     -33.669   5.699   2.974  1.00 20.00     0.138 C 
HETATM    2  O11 UNL     1     -33.170   4.641   3.367  1.00 20.00    -0.297 OA
ENDROOT
BRANCH   1   3
HETATM    3  C9  UNL     1     -33.218   6.309   1.639  1.00 20.00     0.055 C 
BRANCH   3   4
HETATM    4  C7  UNL     1     -31.969   7.169   1.908  1.00 20.00     0.007 C 
HETATM    5  C2  UNL     1     -32.071   8.574   1.332  1.00 20.00     0.006 C 
ENDBRANCH   3   4
BRANCH   3   6
HETATM    6  C8  UNL     1     -32.933   5.202   0.605  1.00 20.00     0.007 C 
HETATM    7  C3  UNL     1     -31.473   4.767   0.581  1.00 20.00     0.006 C 
ENDBRANCH   3   6
ENDBRANCH   1   3
BRANCH   1   8
HETATM    8  C10 UNL     1     -34.739   6.441   3.809  1.00 20.00     0.010 C 
HETATM    9  C4  UNL     1     -34.101   7.569   4.629  1.00 20.00     0.022 C 
HETATM   10  C5  UNL     1     -35.824   7.006   2.884  1.00 20.00     0.022 C 
HETATM   11  C6  UNL     1     -35.400   5.450   4.786  1.00 20.00     0.022 C 
ENDBRANCH   1   8
TORSDOF 4
ENDMDL
MODEL 2
REMARK VINA RESULT:       0.4      1.696      2.467
REMARK  4 active torsions:
REMARK  status: ('A' for Active; 'I' for Inactive)
REMARK    1  A    between atoms: C1_1  and  C9_9 
REMARK    2  A    between atoms: C1_1  and  C10_10 
REMARK    3  A    between atoms: C7_7  and  C9_9 
REMARK    4  A    between atoms: C8_8  and  C9_9 
ROOT
HETATM    1  C1  UNL     1     -32.495   7.958   2.979  1.00 20.00     0.138 C 
HETATM    2  O11 UNL     1     -31.500   8.511   3.456  1.00 20.00    -0.297 OA
ENDROOT
BRANCH   1   3
HETATM    3  C9  UNL     1     -32.484   7.494   1.516  1.00 20.00     0.055 C 
BRANCH   3   4
HETATM    4  C7  UNL     1     -31.708   8.537   0.691  1.00 20.00     0.007 C 
HETATM    5  C2  UNL     1     -32.540   9.758   0.328  1.00 20.00     0.006 C 
ENDBRANCH   3   4
BRANCH   3   6
HETATM    6  C8  UNL     1     -31.855   6.092   1.395  1.00 20.00     0.007 C 
HETATM    7  C3  UNL     1     -32.753   5.092   0.678  1.00 20.00     0.006 C 
ENDBRANCH   3   6
ENDBRANCH   1   3
BRANCH   1   8
HETATM    8  C10 UNL     1     -33.771   7.732   3.824  1.00 20.00     0.010 C 
HETATM    9  C4  UNL     1     -34.264   6.286   3.685  1.00 20.00     0.022 C 
HETATM   10  C5  UNL     1     -33.487   8.056   5.296  1.00 20.00     0.022 C 
HETATM   11  C6  UNL     1     -34.885   8.671   3.325  1.00 20.00     0.022 C 
ENDBRANCH   1   8
TORSDOF 4
ENDMDL
MODEL 3
REMARK VINA RESULT:       0.5      1.700      3.024
REMARK  4 active torsions:
REMARK  status: ('A' for Active; 'I' for Inactive)
REMARK    1  A    between atoms: C1_1  and  C9_9 
REMARK    2  A    between atoms: C1_1  and  C10_10 
REMARK    3  A    between atoms: C7_7  and  C9_9 
REMARK    4  A    between atoms: C8_8  and  C9_9 
ROOT
HETATM    1  C1  UNL     1     -34.300   6.410   3.708  1.00 20.00     0.138 C 
HETATM    2  O11 UNL     1     -35.471   6.200   4.038  1.00 20.00    -0.297 OA
ENDROOT
BRANCH   1   3
HETATM    3  C9  UNL     1     -33.419   5.247   3.228  1.00 20.00     0.055 C 
BRANCH   3   4
HETATM    4  C7  UNL     1     -34.011   3.940   3.789  1.00 20.00     0.007 C 
HETATM    5  C2  UNL     1     -33.063   3.205   4.725  1.00 20.00     0.006 C 
ENDBRANCH   3   4
BRANCH   3   6
HETATM    6  C8  UNL     1     -33.344   5.222   1.689  1.00 20.00     0.007 C 
HETATM    7  C3  UNL     1     -31.929   5.019   1.162  1.00 20.00     0.006 C 
ENDBRANCH   3   6
ENDBRANCH   1   3
BRANCH   1   8
HETATM    8  C10 UNL     1     -33.688   7.828   3.780  1.00 20.00     0.010 C 
HETATM    9  C4  UNL     1     -32.463   7.938   2.863  1.00 20.00     0.022 C 
HETATM   10  C5  UNL     1     -34.741   8.872   3.385  1.00 20.00     0.022 C 
HETATM   11  C6  UNL     1     -33.236   8.116   5.224  1.00 20.00     0.022 C 
ENDBRANCH   1   8
TORSDOF 4
ENDMDL
MODEL 4
REMARK VINA RESULT:       0.6      1.773      4.364
REMARK  4 active torsions:
REMARK  status: ('A' for Active; 'I' for Inactive)
REMARK    1  A    between atoms: C1_1  and  C9_9 
REMARK    2  A    between atoms: C1_1  and  C10_10 
REMARK    3  A    between atoms: C7_7  and  C9_9 
REMARK    4  A    between atoms: C8_8  and  C9_9 
ROOT
HETATM    1  C1  UNL     1     -32.147   8.209   1.932  1.00 20.00     0.138 C 
HETATM    2  O11 UNL     1     -31.229   8.324   2.749  1.00 20.00    -0.297 OA
ENDROOT
BRANCH   1   3
HETATM    3  C9  UNL     1     -33.274   7.197   2.186  1.00 20.00     0.055 C 
BRANCH   3   4
HETATM    4  C7  UNL     1     -32.655   5.787   2.187  1.00 20.00     0.007 C 
HETATM    5  C2  UNL     1     -32.329   5.271   0.793  1.00 20.00     0.006 C 
ENDBRANCH   3   4
BRANCH   3   6
HETATM    6  C8  UNL     1     -33.991   7.503   3.515  1.00 20.00     0.007 C 
HETATM    7  C3  UNL     1     -35.005   6.436   3.908  1.00 20.00     0.006 C 
ENDBRANCH   3   6
ENDBRANCH   1   3
BRANCH   1   8
HETATM    8  C10 UNL     1     -32.183   9.057   0.640  1.00 20.00     0.010 C 
HETATM    9  C4  UNL     1     -32.694  10.473   0.935  1.00 20.00     0.022 C 
HETATM   10  C5  UNL     1     -30.784   9.118   0.015  1.00 20.00     0.022 C 
HETATM   11  C6  UNL     1     -33.140   8.402  -0.374  1.00 20.00     0.022 C 
ENDBRANCH   1   8
TORSDOF 4
ENDMDL
MODEL 5
REMARK VINA RESULT:       0.9      1.509      3.777
REMARK  4 active torsions:
REMARK  status: ('A' for Active; 'I' for Inactive)
REMARK    1  A    between atoms: C1_1  and  C9_9 
REMARK    2  A    between atoms: C1_1  and  C10_10 
REMARK    3  A    between atoms: C7_7  and  C9_9 
REMARK    4  A    between atoms: C8_8  and  C9_9 
ROOT
HETATM    1  C1  UNL     1     -32.986   6.466   2.109  1.00 20.00     0.138 C 
HETATM    2  O11 UNL     1     -33.203   5.796   1.095  1.00 20.00    -0.297 OA
ENDROOT
BRANCH   1   3
HETATM    3  C9  UNL     1     -33.496   5.979   3.473  1.00 20.00     0.055 C 
BRANCH   3   4
HETATM    4  C7  UNL     1     -34.598   6.947   3.941  1.00 20.00     0.007 C 
HETATM    5  C2  UNL     1     -35.994   6.526   3.506  1.00 20.00     0.006 C 
ENDBRANCH   3   4
BRANCH   3   6
HETATM    6  C8  UNL     1     -34.017   4.532   3.372  1.00 20.00     0.007 C 
HETATM    7  C3  UNL     1     -33.524   3.639   4.505  1.00 20.00     0.006 C 
ENDBRANCH   3   6
ENDBRANCH   1   3
BRANCH   1   8
HETATM    8  C10 UNL     1     -32.216   7.806   2.036  1.00 20.00     0.010 C 
HETATM    9  C4  UNL     1     -32.937   8.796   1.113  1.00 20.00     0.022 C 
HETATM   10  C5  UNL     1     -32.071   8.402   3.442  1.00 20.00     0.022 C 
HETATM   11  C6  UNL     1     -30.808   7.554   1.466  1.00 20.00     0.022 C 
ENDBRANCH   1   8
TORSDOF 4
ENDMDL
MODEL 6
REMARK VINA RESULT:       0.9      1.576      4.211
REMARK  4 active torsions:
REMARK  status: ('A' for Active; 'I' for Inactive)
REMARK    1  A    between atoms: C1_1  and  C9_9 
REMARK    2  A    between atoms: C1_1  and  C10_10 
REMARK    3  A    between atoms: C7_7  and  C9_9 
REMARK    4  A    between atoms: C8_8  and  C9_9 
ROOT
HETATM    1  C1  UNL     1     -33.348   6.507   3.076  1.00 20.00     0.138 C 
HETATM    2  O11 UNL     1     -33.150   7.466   3.827  1.00 20.00    -0.297 OA
ENDROOT
BRANCH   1   3
HETATM    3  C9  UNL     1     -34.272   5.364   3.520  1.00 20.00     0.055 C 
BRANCH   3   4
HETATM    4  C7  UNL     1     -33.508   4.509   4.548  1.00 20.00     0.007 C 
HETATM    5  C2  UNL     1     -33.492   3.027   4.204  1.00 20.00     0.006 C 
ENDBRANCH   3   4
BRANCH   3   6
HETATM    6  C8  UNL     1     -35.583   5.922   4.108  1.00 20.00     0.007 C 
HETATM    7  C3  UNL     1     -36.373   6.764   3.114  1.00 20.00     0.006 C 
ENDBRANCH   3   6
ENDBRANCH   1   3
BRANCH   1   8
HETATM    8  C10 UNL     1     -32.671   6.422   1.688  1.00 20.00     0.010 C 
HETATM    9  C4  UNL     1     -33.704   6.104   0.599  1.00 20.00     0.022 C 
HETATM   10  C5  UNL     1     -31.957   7.743   1.372  1.00 20.00     0.022 C 
HETATM   11  C6  UNL     1     -31.622   5.294   1.701  1.00 20.00     0.022 C 
ENDBRANCH   1   8
TORSDOF 4
ENDMDL
MODEL 7
REMARK VINA RESULT:       1.0      1.605      4.160
REMARK  4 active torsions:
REMARK  status: ('A' for Active; 'I' for Inactive)
REMARK    1  A    between atoms: C1_1  and  C9_9 
REMARK    2  A    between atoms: C1_1  and  C10_10 
REMARK    3  A    between atoms: C7_7  and  C9_9 
REMARK    4  A    between atoms: C8_8  and  C9_9 
ROOT
HETATM    1  C1  UNL     1     -33.183   7.384   3.248  1.00 20.00     0.138 C 
HETATM    2  O11 UNL     1     -33.237   8.029   4.298  1.00 20.00    -0.297 OA
ENDROOT
BRANCH   1   3
HETATM    3  C9  UNL     1     -34.072   6.145   3.064  1.00 20.00     0.055 C 
BRANCH   3   4
HETATM    4  C7  UNL     1     -33.254   4.908   3.478  1.00 20.00     0.007 C 
HETATM    5  C2  UNL     1     -34.039   3.928   4.338  1.00 20.00     0.006 C 
ENDBRANCH   3   4
BRANCH   3   6
HETATM    6  C8  UNL     1     -35.364   6.275   3.894  1.00 20.00     0.007 C 
HETATM    7  C3  UNL     1     -36.550   6.776   3.079  1.00 20.00     0.006 C 
ENDBRANCH   3   6
ENDBRANCH   1   3
BRANCH   1   8
HETATM    8  C10 UNL     1     -32.222   7.788   2.106  1.00 20.00     0.010 C 
HETATM    9  C4  UNL     1     -30.915   8.357   2.673  1.00 20.00     0.022 C 
HETATM   10  C5  UNL     1     -31.929   6.575   1.214  1.00 20.00     0.022 C 
HETATM   11  C6  UNL     1     -32.886   8.877   1.242  1.00 20.00     0.022 C 
ENDBRANCH   1   8
TORSDOF 4
ENDMDL
MODEL 8
REMARK VINA RESULT:       1.1      0.876      4.072
REMARK  4 active torsions:
REMARK  status: ('A' for Active; 'I' for Inactive)
REMARK    1  A    between atoms: C1_1  and  C9_9 
REMARK    2  A    between atoms: C1_1  and  C10_10 
REMARK    3  A    between atoms: C7_7  and  C9_9 
REMARK    4  A    between atoms: C8_8  and  C9_9 
ROOT
HETATM    1  C1  UNL     1     -33.354   5.975   2.900  1.00 20.00     0.138 C 
HETATM    2  O11 UNL     1     -33.121   4.939   3.529  1.00 20.00    -0.297 OA
ENDROOT
BRANCH   1   3
HETATM    3  C9  UNL     1     -34.320   7.019   3.477  1.00 20.00     0.055 C 
BRANCH   3   4
HETATM    4  C7  UNL     1     -35.680   6.334   3.706  1.00 20.00     0.007 C 
HETATM    5  C2  UNL     1     -35.607   5.159   4.670  1.00 20.00     0.006 C 
ENDBRANCH   3   4
BRANCH   3   6
HETATM    6  C8  UNL     1     -33.759   7.616   4.783  1.00 20.00     0.007 C 
HETATM    7  C3  UNL     1     -32.535   8.496   4.560  1.00 20.00     0.006 C 
ENDBRANCH   3   6
ENDBRANCH   1   3
BRANCH   1   8
HETATM    8  C10 UNL     1     -32.701   6.243   1.524  1.00 20.00     0.010 C 
HETATM    9  C4  UNL     1     -32.038   7.626   1.499  1.00 20.00     0.022 C 
HETATM   10  C5  UNL     1     -31.667   5.153   1.215  1.00 20.00     0.022 C 
HETATM   11  C6  UNL     1     -33.785   6.208   0.430  1.00 20.00     0.022 C 
ENDBRANCH   1   8
TORSDOF 4
ENDMDL
MODEL 9
REMARK VINA RESULT:       1.2      1.301      2.663
REMARK  4 active torsions:
REMARK  status: ('A' for Active; 'I' for Inactive)
REMARK    1  A    between atoms: C1_1  and  C9_9 
REMARK    2  A    between atoms: C1_1  and  C10_10 
REMARK    3  A    between atoms: C7_7  and  C9_9 
REMARK    4  A    between atoms: C8_8  and  C9_9 
ROOT
HETATM    1  C1  UNL     1     -33.614   6.789   2.203  1.00 20.00     0.138 C 
HETATM    2  O11 UNL     1     -34.012   6.250   1.167  1.00 20.00    -0.297 OA
ENDROOT
BRANCH   1   3
HETATM    3  C9  UNL     1     -32.393   7.719   2.162  1.00 20.00     0.055 C 
BRANCH   3   4
HETATM    4  C7  UNL     1     -31.277   7.004   1.378  1.00 20.00     0.007 C 
HETATM    5  C2  UNL     1     -31.459   5.494   1.313  1.00 20.00     0.006 C 
ENDBRANCH   3   4
BRANCH   3   6
HETATM    6  C8  UNL     1     -32.761   9.071   1.520  1.00 20.00     0.007 C 
HETATM    7  C3  UNL     1     -32.072   9.305   0.181  1.00 20.00     0.006 C 
ENDBRANCH   3   6
ENDBRANCH   1   3
BRANCH   1   8
HETATM    8  C10 UNL     1     -34.314   6.537   3.559  1.00 20.00     0.010 C 
HETATM    9  C4  UNL     1     -34.040   5.111   4.054  1.00 20.00     0.022 C 
HETATM   10  C5  UNL     1     -33.830   7.559   4.595  1.00 20.00     0.022 C 
HETATM   11  C6  UNL     1     -35.835   6.703   3.386  1.00 20.00     0.022 C 
ENDBRANCH   1   8
TORSDOF 4
ENDMDL
