MODEL 1
REMARK VINA RESULT:      -3.3      0.000      0.000
REMARK  3 active torsions:
REMARK  status: ('A' for Active; 'I' for Inactive)
REMARK    1  A    between atoms: C5_5  and  C6_6 
REMARK    2  A    between atoms: C6_6  and  C7_7 
REMARK    3  A    between atoms: C7_7  and  C8_8 
ROOT
HETATM    1  C1  UNL     1     -32.683  10.207  -0.042  1.00 20.00     0.012 C 
HETATM    2  C2  UNL     1     -32.240   9.291   0.595  1.00 20.00    -0.117 C 
HETATM    3  C5  UNL     1     -31.695   8.170   1.373  1.00 20.00     0.093 C 
ENDROOT
BRANCH   3   4
HETATM    4  C6  UNL     1     -32.618   7.811   2.541  1.00 20.00     0.018 C 
BRANCH   4   5
HETATM    5  C7  UNL     1     -33.428   6.512   2.310  1.00 20.00     0.000 C 
HETATM    6  C3  UNL     1     -32.614   5.470   1.533  1.00 20.00     0.011 C 
BRANCH   5   7
HETATM    7  C8  UNL     1     -33.988   5.982   3.658  1.00 20.00     0.082 C 
HETATM    8  C4  UNL     1     -35.431   6.401   3.921  1.00 20.00     0.027 C 
HETATM    9 CL9  UNL     1     -33.868   4.199   3.787  1.00 20.00    -0.125 Cl
ENDBRANCH   5   7
ENDBRANCH   4   5
ENDBRANCH   3   4
TORSDOF 3
ENDMDL
MODEL 2
REMARK VINA RESULT:      -2.7      1.349      1.868
REMARK  3 active torsions:
REMARK  status: ('A' for Active; 'I' for Inactive)
REMARK    1  A    between atoms: C5_5  and  C6_6 
REMARK    2  A    between atoms: C6_6  and  C7_7 
REMARK    3  A    between atoms: C7_7  and  C8_8 
ROOT
HETATM    1  C1  UNL     1     -32.533   9.908   0.018  1.00 20.00     0.012 C 
HETATM    2  C2  UNL     1     -32.201   9.058   0.797  1.00 20.00    -0.117 C 
HETATM    3  C5  UNL     1     -31.790   8.018   1.751  1.00 20.00     0.093 C 
ENDROOT
BRANCH   3   4
HETATM    4  C6  UNL     1     -32.861   6.930   1.873  1.00 20.00     0.018 C 
BRANCH   4   5
HETATM    5  C7  UNL     1     -33.267   6.625   3.335  1.00 20.00     0.000 C 
HETATM    6  C3  UNL     1     -33.755   7.886   4.060  1.00 20.00     0.011 C 
BRANCH   5   7
HETATM    7  C8  UNL     1     -34.286   5.454   3.376  1.00 20.00     0.082 C 
HETATM    8  C4  UNL     1     -33.716   4.176   3.984  1.00 20.00     0.027 C 
HETATM    9 CL9  UNL     1     -35.788   5.892   4.249  1.00 20.00    -0.125 Cl
ENDBRANCH   5   7
ENDBRANCH   4   5
ENDBRANCH   3   4
TORSDOF 3
ENDMDL
MODEL 3
REMARK VINA RESULT:      -2.7      2.542      4.877
REMARK  3 active torsions:
REMARK  status: ('A' for Active; 'I' for Inactive)
REMARK    1  A    between atoms: C5_5  and  C6_6 
REMARK    2  A    between atoms: C6_6  and  C7_7 
REMARK    3  A    between atoms: C7_7  and  C8_8 
ROOT
HETATM    1  C1  UNL     1     -33.486   3.216   4.438  1.00 20.00     0.012 C 
HETATM    2  C2  UNL     1     -34.169   4.203   4.473  1.00 20.00    -0.117 C 
HETATM    3  C5  UNL     1     -35.007   5.409   4.519  1.00 20.00     0.093 C 
ENDROOT
BRANCH   3   4
HETATM    4  C6  UNL     1     -34.919   6.190   3.204  1.00 20.00     0.018 C 
BRANCH   4   5
HETATM    5  C7  UNL     1     -33.955   7.400   3.269  1.00 20.00     0.000 C 
HETATM    6  C3  UNL     1     -33.692   7.835   4.716  1.00 20.00     0.011 C 
BRANCH   5   7
HETATM    7  C8  UNL     1     -32.660   7.097   2.468  1.00 20.00     0.082 C 
HETATM    8  C4  UNL     1     -32.779   5.874   1.562  1.00 20.00     0.027 C 
HETATM    9 CL9  UNL     1     -32.128   8.497   1.485  1.00 20.00    -0.125 Cl
ENDBRANCH   5   7
ENDBRANCH   4   5
ENDBRANCH   3   4
TORSDOF 3
ENDMDL
MODEL 4
REMARK VINA RESULT:      -2.0      1.962      4.807
REMARK  3 active torsions:
REMARK  status: ('A' for Active; 'I' for Inactive)
REMARK    1  A    between atoms: C5_5  and  C6_6 
REMARK    2  A    between atoms: C6_6  and  C7_7 
REMARK    3  A    between atoms: C7_7  and  C8_8 
ROOT
HETATM    1  C1  UNL     1     -33.260   2.888   4.563  1.00 20.00     0.012 C 
HETATM    2  C2  UNL     1     -33.898   3.904   4.520  1.00 20.00    -0.117 C 
HETATM    3  C5  UNL     1     -34.681   5.147   4.470  1.00 20.00     0.093 C 
ENDROOT
BRANCH   3   4
HETATM    4  C6  UNL     1     -34.667   5.749   3.061  1.00 20.00     0.018 C 
BRANCH   4   5
HETATM    5  C7  UNL     1     -34.040   7.163   3.001  1.00 20.00     0.000 C 
HETATM    6  C3  UNL     1     -33.557   7.625   4.381  1.00 20.00     0.011 C 
BRANCH   5   7
HETATM    7  C8  UNL     1     -32.937   7.214   1.909  1.00 20.00     0.082 C 
HETATM    8  C4  UNL     1     -31.764   8.120   2.275  1.00 20.00     0.027 C 
HETATM    9 CL9  UNL     1     -32.309   5.587   1.503  1.00 20.00    -0.125 Cl
ENDBRANCH   5   7
ENDBRANCH   4   5
ENDBRANCH   3   4
TORSDOF 3
ENDMDL
MODEL 5
REMARK VINA RESULT:      -1.9      2.577      4.726
REMARK  3 active torsions:
REMARK  status: ('A' for Active; 'I' for Inactive)
REMARK    1  A    between atoms: C5_5  and  C6_6 
REMARK    2  A    between atoms: C6_6  and  C7_7 
REMARK    3  A    between atoms: C7_7  and  C8_8 
ROOT
HETATM    1  C1  UNL     1     -33.147   2.985   4.498  1.00 20.00     0.012 C 
HETATM    2  C2  UNL     1     -33.983   3.846   4.553  1.00 20.00    -0.117 C 
HETATM    3  C5  UNL     1     -35.008   4.897   4.625  1.00 20.00     0.093 C 
ENDROOT
BRANCH   3   4
HETATM    4  C6  UNL     1     -34.915   5.837   3.419  1.00 20.00     0.018 C 
BRANCH   4   5
HETATM    5  C7  UNL     1     -33.462   6.210   3.037  1.00 20.00     0.000 C 
HETATM    6  C3  UNL     1     -33.091   5.681   1.646  1.00 20.00     0.011 C 
BRANCH   5   7
HETATM    7  C8  UNL     1     -33.241   7.738   3.198  1.00 20.00     0.082 C 
HETATM    8  C4  UNL     1     -33.080   8.177   4.651  1.00 20.00     0.027 C 
HETATM    9 CL9  UNL     1     -31.834   8.322   2.256  1.00 20.00    -0.125 Cl
ENDBRANCH   5   7
ENDBRANCH   4   5
ENDBRANCH   3   4
TORSDOF 3
ENDMDL
MODEL 6
REMARK VINA RESULT:      -1.7      2.067      4.705
REMARK  3 active torsions:
REMARK  status: ('A' for Active; 'I' for Inactive)
REMARK    1  A    between atoms: C5_5  and  C6_6 
REMARK    2  A    between atoms: C6_6  and  C7_7 
REMARK    3  A    between atoms: C7_7  and  C8_8 
ROOT
HETATM    1  C1  UNL     1     -33.142   2.981   4.498  1.00 20.00     0.012 C 
HETATM    2  C2  UNL     1     -33.969   3.852   4.488  1.00 20.00    -0.117 C 
HETATM    3  C5  UNL     1     -34.984   4.915   4.478  1.00 20.00     0.093 C 
ENDROOT
BRANCH   3   4
HETATM    4  C6  UNL     1     -34.739   5.897   3.328  1.00 20.00     0.018 C 
BRANCH   4   5
HETATM    5  C7  UNL     1     -33.253   5.995   2.906  1.00 20.00     0.000 C 
HETATM    6  C3  UNL     1     -33.062   5.628   1.429  1.00 20.00     0.011 C 
BRANCH   5   7
HETATM    7  C8  UNL     1     -32.680   7.389   3.278  1.00 20.00     0.082 C 
HETATM    8  C4  UNL     1     -32.312   8.236   2.064  1.00 20.00     0.027 C 
HETATM    9 CL9  UNL     1     -33.795   8.323   4.323  1.00 20.00    -0.125 Cl
ENDBRANCH   5   7
ENDBRANCH   4   5
ENDBRANCH   3   4
TORSDOF 3
ENDMDL
MODEL 7
REMARK VINA RESULT:      -1.5      1.281      1.946
REMARK  3 active torsions:
REMARK  status: ('A' for Active; 'I' for Inactive)
REMARK    1  A    between atoms: C5_5  and  C6_6 
REMARK    2  A    between atoms: C6_6  and  C7_7 
REMARK    3  A    between atoms: C7_7  and  C8_8 
ROOT
HETATM    1  C1  UNL     1     -32.299   9.943   0.039  1.00 20.00     0.012 C 
HETATM    2  C2  UNL     1     -32.284   9.138   0.930  1.00 20.00    -0.117 C 
HETATM    3  C5  UNL     1     -32.263   8.152   2.020  1.00 20.00     0.093 C 
ENDROOT
BRANCH   3   4
HETATM    4  C6  UNL     1     -33.651   7.543   2.237  1.00 20.00     0.018 C 
BRANCH   4   5
HETATM    5  C7  UNL     1     -33.743   6.650   3.499  1.00 20.00     0.000 C 
HETATM    6  C3  UNL     1     -35.181   6.562   4.024  1.00 20.00     0.011 C 
BRANCH   5   7
HETATM    7  C8  UNL     1     -33.098   5.265   3.224  1.00 20.00     0.082 C 
HETATM    8  C4  UNL     1     -33.908   4.098   3.783  1.00 20.00     0.027 C 
HETATM    9 CL9  UNL     1     -32.808   4.986   1.478  1.00 20.00    -0.125 Cl
ENDBRANCH   5   7
ENDBRANCH   4   5
ENDBRANCH   3   4
TORSDOF 3
ENDMDL
MODEL 8
REMARK VINA RESULT:      -1.4      1.821      4.333
REMARK  3 active torsions:
REMARK  status: ('A' for Active; 'I' for Inactive)
REMARK    1  A    between atoms: C5_5  and  C6_6 
REMARK    2  A    between atoms: C6_6  and  C7_7 
REMARK    3  A    between atoms: C7_7  and  C8_8 
ROOT
HETATM    1  C1  UNL     1     -33.837   3.653   4.455  1.00 20.00     0.012 C 
HETATM    2  C2  UNL     1     -34.296   4.723   4.163  1.00 20.00    -0.117 C 
HETATM    3  C5  UNL     1     -34.862   6.031   3.805  1.00 20.00     0.093 C 
ENDROOT
BRANCH   3   4
HETATM    4  C6  UNL     1     -33.755   7.066   3.580  1.00 20.00     0.018 C 
BRANCH   4   5
HETATM    5  C7  UNL     1     -33.248   7.120   2.118  1.00 20.00     0.000 C 
HETATM    6  C3  UNL     1     -31.988   7.985   1.990  1.00 20.00     0.011 C 
BRANCH   5   7
HETATM    7  C8  UNL     1     -33.072   5.683   1.558  1.00 20.00     0.082 C 
HETATM    8  C4  UNL     1     -33.804   5.454   0.238  1.00 20.00     0.027 C 
HETATM    9 CL9  UNL     1     -31.349   5.242   1.350  1.00 20.00    -0.125 Cl
ENDBRANCH   5   7
ENDBRANCH   4   5
ENDBRANCH   3   4
TORSDOF 3
ENDMDL
MODEL 9
REMARK VINA RESULT:      -1.3      2.518      4.580
REMARK  3 active torsions:
REMARK  status: ('A' for Active; 'I' for Inactive)
REMARK    1  A    between atoms: C5_5  and  C6_6 
REMARK    2  A    between atoms: C6_6  and  C7_7 
REMARK    3  A    between atoms: C7_7  and  C8_8 
ROOT
HETATM    1  C1  UNL     1     -35.383   5.849   4.045  1.00 20.00     0.012 C 
HETATM    2  C2  UNL     1     -34.511   6.673   4.006  1.00 20.00    -0.117 C 
HETATM    3  C5  UNL     1     -33.443   7.682   3.962  1.00 20.00     0.093 C 
ENDROOT
BRANCH   3   4
HETATM    4  C6  UNL     1     -33.425   8.406   2.612  1.00 20.00     0.018 C 
BRANCH   4   5
HETATM    5  C7  UNL     1     -32.200   8.047   1.736  1.00 20.00     0.000 C 
HETATM    6  C3  UNL     1     -32.090   6.534   1.514  1.00 20.00     0.011 C 
BRANCH   5   7
HETATM    7  C8  UNL     1     -32.225   8.867   0.418  1.00 20.00     0.082 C 
HETATM    8  C4  UNL     1     -32.653  10.319   0.615  1.00 20.00     0.027 C 
HETATM    9 CL9  UNL     1     -30.648   8.836  -0.429  1.00 20.00    -0.125 Cl
ENDBRANCH   5   7
ENDBRANCH   4   5
ENDBRANCH   3   4
TORSDOF 3
ENDMDL
