MODEL 1
REMARK VINA RESULT:      -0.9      0.000      0.000
REMARK  5 active torsions:
REMARK  status: ('A' for Active; 'I' for Inactive)
REMARK    1  A    between atoms: C5_5  and  C7_7 
REMARK    2  A    between atoms: C6_6  and  C9_9 
REMARK    3  A    between atoms: C7_7  and  C10_10 
REMARK    4  A    between atoms: C8_8  and  C10_10 
REMARK    5  A    between atoms: C9_9  and  C10_10 
ROOT
HETATM    1  C4  UNL     1     -35.057   6.467   3.357  1.00 20.00     0.016 C 
HETATM    2  C10 UNL     1     -33.520   6.447   3.171  1.00 20.00    -0.028 C 
ENDROOT
BRANCH   2   3
HETATM    3  C7  UNL     1     -33.039   4.992   3.500  1.00 20.00     0.010 C 
BRANCH   3   4
HETATM    4  C5  UNL     1     -34.038   4.123   4.275  1.00 20.00    -0.004 C 
HETATM    5  C1  UNL     1     -33.373   2.859   4.801  1.00 20.00     0.005 C 
ENDBRANCH   3   4
ENDBRANCH   2   3
BRANCH   2   6
HETATM    6  C8  UNL     1     -32.881   7.475   4.158  1.00 20.00     0.124 C 
HETATM    7 CL11 UNL     1     -34.035   8.277   5.260  1.00 20.00    -0.130 Cl
ENDBRANCH   2   6
BRANCH   2   8
HETATM    8  C9  UNL     1     -33.134   6.866   1.681  1.00 20.00    -0.010 C 
HETATM    9  C3  UNL     1     -32.769   5.668   0.784  1.00 20.00     0.011 C 
BRANCH   8  10
HETATM   10  C6  UNL     1     -32.005   7.931   1.610  1.00 20.00     0.000 C 
HETATM   11  C2  UNL     1     -32.345   9.137   0.740  1.00 20.00     0.005 C 
ENDBRANCH   8  10
ENDBRANCH   2   8
TORSDOF 5
ENDMDL
MODEL 2
REMARK VINA RESULT:      -0.7      2.310      4.909
REMARK  5 active torsions:
REMARK  status: ('A' for Active; 'I' for Inactive)
REMARK    1  A    between atoms: C5_5  and  C7_7 
REMARK    2  A    between atoms: C6_6  and  C9_9 
REMARK    3  A    between atoms: C7_7  and  C10_10 
REMARK    4  A    between atoms: C8_8  and  C10_10 
REMARK    5  A    between atoms: C9_9  and  C10_10 
ROOT
HETATM    1  C4  UNL     1     -33.585   6.648   0.396  1.00 20.00     0.016 C 
HETATM    2  C10 UNL     1     -32.886   6.744   1.775  1.00 20.00    -0.028 C 
ENDROOT
BRANCH   2   3
HETATM    3  C7  UNL     1     -32.064   8.079   1.777  1.00 20.00     0.010 C 
BRANCH   3   4
HETATM    4  C5  UNL     1     -31.947   8.788   0.422  1.00 20.00    -0.004 C 
HETATM    5  C1  UNL     1     -32.590  10.167   0.467  1.00 20.00     0.005 C 
ENDBRANCH   3   4
ENDBRANCH   2   3
BRANCH   2   6
HETATM    6  C8  UNL     1     -31.940   5.513   1.945  1.00 20.00     0.124 C 
HETATM    7 CL11 UNL     1     -31.601   4.610   0.441  1.00 20.00    -0.130 Cl
ENDBRANCH   2   6
BRANCH   2   8
HETATM    8  C9  UNL     1     -33.965   6.722   2.948  1.00 20.00    -0.010 C 
HETATM    9  C3  UNL     1     -33.719   7.794   4.027  1.00 20.00     0.011 C 
BRANCH   8  10
HETATM   10  C6  UNL     1     -34.115   5.331   3.624  1.00 20.00     0.000 C 
HETATM   11  C2  UNL     1     -35.341   5.209   4.525  1.00 20.00     0.005 C 
ENDBRANCH   8  10
ENDBRANCH   2   8
TORSDOF 5
ENDMDL
MODEL 3
REMARK VINA RESULT:      -0.4      2.319      4.728
REMARK  5 active torsions:
REMARK  status: ('A' for Active; 'I' for Inactive)
REMARK    1  A    between atoms: C5_5  and  C7_7 
REMARK    2  A    between atoms: C6_6  and  C9_9 
REMARK    3  A    between atoms: C7_7  and  C10_10 
REMARK    4  A    between atoms: C8_8  and  C10_10 
REMARK    5  A    between atoms: C9_9  and  C10_10 
ROOT
HETATM    1  C4  UNL     1     -33.683   6.372   0.742  1.00 20.00     0.016 C 
HETATM    2  C10 UNL     1     -32.612   6.510   1.853  1.00 20.00    -0.028 C 
ENDROOT
BRANCH   2   3
HETATM    3  C7  UNL     1     -32.122   7.999   1.830  1.00 20.00     0.010 C 
BRANCH   3   4
HETATM    4  C5  UNL     1     -31.889   8.599   0.438  1.00 20.00    -0.004 C 
HETATM    5  C1  UNL     1     -32.506   9.986   0.328  1.00 20.00     0.005 C 
ENDBRANCH   3   4
ENDBRANCH   2   3
BRANCH   2   6
HETATM    6  C8  UNL     1     -31.432   5.537   1.537  1.00 20.00     0.124 C 
HETATM    7 CL11 UNL     1     -31.757   4.359   0.234  1.00 20.00    -0.130 Cl
ENDBRANCH   2   6
BRANCH   2   8
HETATM    8  C9  UNL     1     -33.228   6.120   3.271  1.00 20.00    -0.010 C 
HETATM    9  C3  UNL     1     -33.695   4.654   3.352  1.00 20.00     0.011 C 
BRANCH   8  10
HETATM   10  C6  UNL     1     -34.380   7.057   3.725  1.00 20.00     0.000 C 
HETATM   11  C2  UNL     1     -35.678   6.328   4.056  1.00 20.00     0.005 C 
ENDBRANCH   8  10
ENDBRANCH   2   8
TORSDOF 5
ENDMDL
MODEL 4
REMARK VINA RESULT:      -0.3      2.257      4.894
REMARK  5 active torsions:
REMARK  status: ('A' for Active; 'I' for Inactive)
REMARK    1  A    between atoms: C5_5  and  C7_7 
REMARK    2  A    between atoms: C6_6  and  C9_9 
REMARK    3  A    between atoms: C7_7  and  C10_10 
REMARK    4  A    between atoms: C8_8  and  C10_10 
REMARK    5  A    between atoms: C9_9  and  C10_10 
ROOT
HETATM    1  C4  UNL     1     -33.782   6.136   0.433  1.00 20.00     0.016 C 
HETATM    2  C10 UNL     1     -33.021   6.241   1.779  1.00 20.00    -0.028 C 
ENDROOT
BRANCH   2   3
HETATM    3  C7  UNL     1     -32.736   7.762   2.024  1.00 20.00     0.010 C 
BRANCH   3   4
HETATM    4  C5  UNL     1     -31.752   8.418   1.047  1.00 20.00    -0.004 C 
HETATM    5  C1  UNL     1     -32.366   9.647   0.392  1.00 20.00     0.005 C 
ENDBRANCH   3   4
ENDBRANCH   2   3
BRANCH   2   6
HETATM    6  C8  UNL     1     -31.685   5.440   1.664  1.00 20.00     0.124 C 
HETATM    7 CL11 UNL     1     -31.573   4.362   0.245  1.00 20.00    -0.130 Cl
ENDBRANCH   2   6
BRANCH   2   8
HETATM    8  C9  UNL     1     -33.891   5.612   2.959  1.00 20.00    -0.010 C 
HETATM    9  C3  UNL     1     -34.634   6.667   3.800  1.00 20.00     0.011 C 
BRANCH   8  10
HETATM   10  C6  UNL     1     -33.077   4.680   3.898  1.00 20.00     0.000 C 
HETATM   11  C2  UNL     1     -33.831   3.429   4.335  1.00 20.00     0.005 C 
ENDBRANCH   8  10
ENDBRANCH   2   8
TORSDOF 5
ENDMDL
MODEL 5
REMARK VINA RESULT:      -0.1      2.393      3.272
REMARK  5 active torsions:
REMARK  status: ('A' for Active; 'I' for Inactive)
REMARK    1  A    between atoms: C5_5  and  C7_7 
REMARK    2  A    between atoms: C6_6  and  C9_9 
REMARK    3  A    between atoms: C7_7  and  C10_10 
REMARK    4  A    between atoms: C8_8  and  C10_10 
REMARK    5  A    between atoms: C9_9  and  C10_10 
ROOT
HETATM    1  C4  UNL     1     -31.528   8.527   3.207  1.00 20.00     0.016 C 
HETATM    2  C10 UNL     1     -32.413   7.849   2.131  1.00 20.00    -0.028 C 
ENDROOT
BRANCH   2   3
HETATM    3  C7  UNL     1     -33.881   7.857   2.678  1.00 20.00     0.010 C 
BRANCH   3   4
HETATM    4  C5  UNL     1     -34.075   7.235   4.067  1.00 20.00    -0.004 C 
HETATM    5  C1  UNL     1     -35.181   6.190   4.051  1.00 20.00     0.005 C 
ENDBRANCH   3   4
ENDBRANCH   2   3
BRANCH   2   6
HETATM    6  C8  UNL     1     -31.912   6.385   1.917  1.00 20.00     0.124 C 
HETATM    7 CL11 UNL     1     -33.015   5.342   0.976  1.00 20.00    -0.130 Cl
ENDBRANCH   2   6
BRANCH   2   8
HETATM    8  C9  UNL     1     -32.302   8.632   0.746  1.00 20.00    -0.010 C 
HETATM    9  C3  UNL     1     -30.909   8.531   0.097  1.00 20.00     0.011 C 
BRANCH   8  10
HETATM   10  C6  UNL     1     -32.722  10.124   0.843  1.00 20.00     0.000 C 
HETATM   11  C2  UNL     1     -32.967  10.788  -0.508  1.00 20.00     0.005 C 
ENDBRANCH   8  10
ENDBRANCH   2   8
TORSDOF 5
ENDMDL
MODEL 6
REMARK VINA RESULT:       0.0      1.059      4.389
REMARK  5 active torsions:
REMARK  status: ('A' for Active; 'I' for Inactive)
REMARK    1  A    between atoms: C5_5  and  C7_7 
REMARK    2  A    between atoms: C6_6  and  C9_9 
REMARK    3  A    between atoms: C7_7  and  C10_10 
REMARK    4  A    between atoms: C8_8  and  C10_10 
REMARK    5  A    between atoms: C9_9  and  C10_10 
ROOT
HETATM    1  C4  UNL     1     -31.420   8.031   3.047  1.00 20.00     0.016 C 
HETATM    2  C10 UNL     1     -32.805   7.522   2.575  1.00 20.00    -0.028 C 
ENDROOT
BRANCH   2   3
HETATM    3  C7  UNL     1     -33.057   8.139   1.156  1.00 20.00     0.010 C 
BRANCH   3   4
HETATM    4  C5  UNL     1     -32.036   9.187   0.698  1.00 20.00    -0.004 C 
HETATM    5  C1  UNL     1     -32.682  10.219  -0.216  1.00 20.00     0.005 C 
ENDBRANCH   3   4
ENDBRANCH   2   3
BRANCH   2   6
HETATM    6  C8  UNL     1     -33.891   8.007   3.587  1.00 20.00     0.124 C 
HETATM    7 CL11 UNL     1     -33.324   8.183   5.272  1.00 20.00    -0.130 Cl
ENDBRANCH   2   6
BRANCH   2   8
HETATM    8  C9  UNL     1     -32.827   5.928   2.531  1.00 20.00    -0.010 C 
HETATM    9  C3  UNL     1     -32.666   5.353   1.111  1.00 20.00     0.011 C 
BRANCH   8  10
HETATM   10  C6  UNL     1     -34.083   5.308   3.203  1.00 20.00     0.000 C 
HETATM   11  C2  UNL     1     -33.790   4.060   4.030  1.00 20.00     0.005 C 
ENDBRANCH   8  10
ENDBRANCH   2   8
TORSDOF 5
ENDMDL
MODEL 7
REMARK VINA RESULT:       0.0      2.217      4.000
REMARK  5 active torsions:
REMARK  status: ('A' for Active; 'I' for Inactive)
REMARK    1  A    between atoms: C5_5  and  C7_7 
REMARK    2  A    between atoms: C6_6  and  C9_9 
REMARK    3  A    between atoms: C7_7  and  C10_10 
REMARK    4  A    between atoms: C8_8  and  C10_10 
REMARK    5  A    between atoms: C9_9  and  C10_10 
ROOT
HETATM    1  C4  UNL     1     -31.250   8.593   2.747  1.00 20.00     0.016 C 
HETATM    2  C10 UNL     1     -32.392   7.722   2.168  1.00 20.00    -0.028 C 
ENDROOT
BRANCH   2   3
HETATM    3  C7  UNL     1     -31.781   6.311   1.866  1.00 20.00     0.010 C 
BRANCH   3   4
HETATM    4  C5  UNL     1     -32.507   5.490   0.793  1.00 20.00    -0.004 C 
HETATM    5  C1  UNL     1     -31.637   4.342   0.299  1.00 20.00     0.005 C 
ENDBRANCH   3   4
ENDBRANCH   2   3
BRANCH   2   6
HETATM    6  C8  UNL     1     -32.918   8.388   0.857  1.00 20.00     0.124 C 
HETATM    7 CL11 UNL     1     -32.417  10.086   0.622  1.00 20.00    -0.130 Cl
ENDBRANCH   2   6
BRANCH   2   8
HETATM    8  C9  UNL     1     -33.598   7.626   3.207  1.00 20.00    -0.010 C 
HETATM    9  C3  UNL     1     -33.269   8.232   4.584  1.00 20.00     0.011 C 
BRANCH   8  10
HETATM   10  C6  UNL     1     -34.142   6.182   3.393  1.00 20.00     0.000 C 
HETATM   11  C2  UNL     1     -35.447   6.107   4.178  1.00 20.00     0.005 C 
ENDBRANCH   8  10
ENDBRANCH   2   8
TORSDOF 5
ENDMDL
MODEL 8
REMARK VINA RESULT:       0.2      1.053      1.922
REMARK  5 active torsions:
REMARK  status: ('A' for Active; 'I' for Inactive)
REMARK    1  A    between atoms: C5_5  and  C7_7 
REMARK    2  A    between atoms: C6_6  and  C9_9 
REMARK    3  A    between atoms: C7_7  and  C10_10 
REMARK    4  A    between atoms: C8_8  and  C10_10 
REMARK    5  A    between atoms: C9_9  and  C10_10 
ROOT
HETATM    1  C4  UNL     1     -35.549   6.540   2.625  1.00 20.00     0.016 C 
HETATM    2  C10 UNL     1     -34.255   6.588   3.475  1.00 20.00    -0.028 C 
ENDROOT
BRANCH   2   3
HETATM    3  C7  UNL     1     -34.311   5.368   4.457  1.00 20.00     0.010 C 
BRANCH   3   4
HETATM    4  C5  UNL     1     -33.962   4.006   3.845  1.00 20.00    -0.004 C 
HETATM    5  C1  UNL     1     -33.227   3.126   4.846  1.00 20.00     0.005 C 
ENDBRANCH   3   4
ENDBRANCH   2   3
BRANCH   2   6
HETATM    6  C8  UNL     1     -34.224   7.933   4.267  1.00 20.00     0.124 C 
HETATM    7 CL11 UNL     1     -32.891   8.081   5.447  1.00 20.00    -0.130 Cl
ENDBRANCH   2   6
BRANCH   2   8
HETATM    8  C9  UNL     1     -32.969   6.522   2.534  1.00 20.00    -0.010 C 
HETATM    9  C3  UNL     1     -32.420   7.909   2.151  1.00 20.00     0.011 C 
BRANCH   8  10
HETATM   10  C6  UNL     1     -33.185   5.676   1.249  1.00 20.00     0.000 C 
HETATM   11  C2  UNL     1     -31.959   4.876   0.820  1.00 20.00     0.005 C 
ENDBRANCH   8  10
ENDBRANCH   2   8
TORSDOF 5
ENDMDL
MODEL 9
REMARK VINA RESULT:       0.4      2.431      3.276
REMARK  5 active torsions:
REMARK  status: ('A' for Active; 'I' for Inactive)
REMARK    1  A    between atoms: C5_5  and  C7_7 
REMARK    2  A    between atoms: C6_6  and  C9_9 
REMARK    3  A    between atoms: C7_7  and  C10_10 
REMARK    4  A    between atoms: C8_8  and  C10_10 
REMARK    5  A    between atoms: C9_9  and  C10_10 
ROOT
HETATM    1  C4  UNL     1     -31.715   5.316   1.461  1.00 20.00     0.016 C 
HETATM    2  C10 UNL     1     -32.606   6.556   1.716  1.00 20.00    -0.028 C 
ENDROOT
BRANCH   2   3
HETATM    3  C7  UNL     1     -33.102   6.463   3.200  1.00 20.00     0.010 C 
BRANCH   3   4
HETATM    4  C5  UNL     1     -34.556   6.888   3.441  1.00 20.00    -0.004 C 
HETATM    5  C1  UNL     1     -35.358   5.764   4.083  1.00 20.00     0.005 C 
ENDBRANCH   3   4
ENDBRANCH   2   3
BRANCH   2   6
HETATM    6  C8  UNL     1     -33.815   6.519   0.727  1.00 20.00     0.124 C 
HETATM    7 CL11 UNL     1     -34.007   4.985  -0.168  1.00 20.00    -0.130 Cl
ENDBRANCH   2   6
BRANCH   2   8
HETATM    8  C9  UNL     1     -31.781   7.897   1.460  1.00 20.00    -0.010 C 
HETATM    9  C3  UNL     1     -31.612   8.762   2.723  1.00 20.00     0.011 C 
BRANCH   8  10
HETATM   10  C6  UNL     1     -32.356   8.767   0.308  1.00 20.00     0.000 C 
HETATM   11  C2  UNL     1     -32.537  10.237   0.673  1.00 20.00     0.005 C 
ENDBRANCH   8  10
ENDBRANCH   2   8
TORSDOF 5
ENDMDL
