MODEL 1
REMARK VINA RESULT:       0.0      0.000      0.000
REMARK  4 active torsions:
REMARK  status: ('A' for Active; 'I' for Inactive)
REMARK    1  A    between atoms: C5_5  and  C8_8 
REMARK    2  A    between atoms: C6_6  and  C8_8 
REMARK    3  A    between atoms: C7_7  and  C8_8 
REMARK    4  A    between atoms: C7_7  and  S10_10 
ROOT
HETATM    1  C1  UNL     1     -33.666   7.629   4.357  1.00 20.00     0.074 C 
HETATM    2  C7  UNL     1     -33.455   6.436   3.512  1.00 20.00     0.157 C 
HETATM    3  N9  UNL     1     -33.825   8.566   5.023  1.00 20.00    -0.196 NA
ENDROOT
BRANCH   2   4
HETATM    4  C8  UNL     1     -33.208   6.830   2.024  1.00 20.00     0.012 C 
BRANCH   4   5
HETATM    5  C5  UNL     1     -33.063   5.595   1.093  1.00 20.00     0.002 C 
HETATM    6  C2  UNL     1     -31.656   5.009   1.070  1.00 20.00     0.005 C 
ENDBRANCH   4   5
BRANCH   4   7
HETATM    7  C6  UNL     1     -32.007   7.791   1.834  1.00 20.00     0.002 C 
HETATM    8  C3  UNL     1     -32.289   8.977   0.922  1.00 20.00     0.005 C 
ENDBRANCH   4   7
ENDBRANCH   2   4
BRANCH   2   9
HETATM    9  S10 UNL     1     -34.816   5.235   3.755  1.00 20.00    -0.154 SA
HETATM   10  C4  UNL     1     -33.810   3.825   4.266  1.00 20.00     0.091 C 
ENDBRANCH   2   9
TORSDOF 4
ENDMDL
MODEL 2
REMARK VINA RESULT:       0.1      1.662      3.504
REMARK  4 active torsions:
REMARK  status: ('A' for Active; 'I' for Inactive)
REMARK    1  A    between atoms: C5_5  and  C8_8 
REMARK    2  A    between atoms: C6_6  and  C8_8 
REMARK    3  A    between atoms: C7_7  and  C8_8 
REMARK    4  A    between atoms: C7_7  and  S10_10 
ROOT
HETATM    1  C1  UNL     1     -33.342   7.902   3.993  1.00 20.00     0.074 C 
HETATM    2  C7  UNL     1     -33.140   7.421   2.612  1.00 20.00     0.157 C 
HETATM    3  N9  UNL     1     -33.508   8.280   5.078  1.00 20.00    -0.196 NA
ENDROOT
BRANCH   2   4
HETATM    4  C8  UNL     1     -33.125   5.864   2.548  1.00 20.00     0.012 C 
BRANCH   4   5
HETATM    5  C5  UNL     1     -33.169   5.323   1.092  1.00 20.00     0.002 C 
HETATM    6  C2  UNL     1     -31.861   4.685   0.638  1.00 20.00     0.005 C 
ENDBRANCH   4   5
BRANCH   4   7
HETATM    7  C6  UNL     1     -34.239   5.204   3.401  1.00 20.00     0.002 C 
HETATM    8  C3  UNL     1     -33.818   3.917   4.097  1.00 20.00     0.005 C 
ENDBRANCH   4   7
ENDBRANCH   2   4
BRANCH   2   9
HETATM    9  S10 UNL     1     -31.667   8.217   1.870  1.00 20.00    -0.154 SA
HETATM   10  C4  UNL     1     -32.531   9.307   0.718  1.00 20.00     0.091 C 
ENDBRANCH   2   9
TORSDOF 4
ENDMDL
MODEL 3
REMARK VINA RESULT:       0.1      1.980      3.444
REMARK  4 active torsions:
REMARK  status: ('A' for Active; 'I' for Inactive)
REMARK    1  A    between atoms: C5_5  and  C8_8 
REMARK    2  A    between atoms: C6_6  and  C8_8 
REMARK    3  A    between atoms: C7_7  and  C8_8 
REMARK    4  A    between atoms: C7_7  and  S10_10 
ROOT
HETATM    1  C1  UNL     1     -32.366   7.445   1.781  1.00 20.00     0.074 C 
HETATM    2  C7  UNL     1     -33.130   6.186   1.887  1.00 20.00     0.157 C 
HETATM    3  N9  UNL     1     -31.770   8.438   1.696  1.00 20.00    -0.196 NA
ENDROOT
BRANCH   2   4
HETATM    4  C8  UNL     1     -33.568   5.908   3.357  1.00 20.00     0.012 C 
BRANCH   4   5
HETATM    5  C5  UNL     1     -34.232   4.514   3.531  1.00 20.00     0.002 C 
HETATM    6  C2  UNL     1     -33.512   3.615   4.530  1.00 20.00     0.005 C 
ENDBRANCH   4   5
BRANCH   4   7
HETATM    7  C6  UNL     1     -34.477   7.015   3.946  1.00 20.00     0.002 C 
HETATM    8  C3  UNL     1     -33.756   8.006   4.851  1.00 20.00     0.005 C 
ENDBRANCH   4   7
ENDBRANCH   2   4
BRANCH   2   9
HETATM    9  S10 UNL     1     -32.206   4.812   1.106  1.00 20.00    -0.154 SA
HETATM   10  C4  UNL     1     -33.436   4.363  -0.137  1.00 20.00     0.091 C 
ENDBRANCH   2   9
TORSDOF 4
ENDMDL
MODEL 4
REMARK VINA RESULT:       0.2      1.729      3.439
REMARK  4 active torsions:
REMARK  status: ('A' for Active; 'I' for Inactive)
REMARK    1  A    between atoms: C5_5  and  C8_8 
REMARK    2  A    between atoms: C6_6  and  C8_8 
REMARK    3  A    between atoms: C7_7  and  C8_8 
REMARK    4  A    between atoms: C7_7  and  S10_10 
ROOT
HETATM    1  C1  UNL     1     -33.259   7.987   4.078  1.00 20.00     0.074 C 
HETATM    2  C7  UNL     1     -33.319   7.654   2.640  1.00 20.00     0.157 C 
HETATM    3  N9  UNL     1     -33.219   8.252   5.207  1.00 20.00    -0.196 NA
ENDROOT
BRANCH   2   4
HETATM    4  C8  UNL     1     -33.728   6.167   2.418  1.00 20.00     0.012 C 
BRANCH   4   5
HETATM    5  C5  UNL     1     -34.428   5.545   3.658  1.00 20.00     0.002 C 
HETATM    6  C2  UNL     1     -33.936   4.143   3.998  1.00 20.00     0.005 C 
ENDBRANCH   4   5
BRANCH   4   7
HETATM    7  C6  UNL     1     -32.551   5.268   1.958  1.00 20.00     0.002 C 
HETATM    8  C3  UNL     1     -32.647   4.799   0.513  1.00 20.00     0.005 C 
ENDBRANCH   4   7
ENDBRANCH   2   4
BRANCH   2   9
HETATM    9  S10 UNL     1     -31.759   8.135   1.810  1.00 20.00    -0.154 SA
HETATM   10  C4  UNL     1     -32.451   9.363   0.680  1.00 20.00     0.091 C 
ENDBRANCH   2   9
TORSDOF 4
ENDMDL
MODEL 5
REMARK VINA RESULT:       0.4      1.883      3.151
REMARK  4 active torsions:
REMARK  status: ('A' for Active; 'I' for Inactive)
REMARK    1  A    between atoms: C5_5  and  C8_8 
REMARK    2  A    between atoms: C6_6  and  C8_8 
REMARK    3  A    between atoms: C7_7  and  C8_8 
REMARK    4  A    between atoms: C7_7  and  S10_10 
ROOT
HETATM    1  C1  UNL     1     -33.913   4.369   3.811  1.00 20.00     0.074 C 
HETATM    2  C7  UNL     1     -34.147   5.575   2.992  1.00 20.00     0.157 C 
HETATM    3  N9  UNL     1     -33.731   3.416   4.449  1.00 20.00    -0.196 NA
ENDROOT
BRANCH   2   4
HETATM    4  C8  UNL     1     -32.814   6.136   2.412  1.00 20.00     0.012 C 
BRANCH   4   5
HETATM    5  C5  UNL     1     -32.995   7.514   1.718  1.00 20.00     0.002 C 
HETATM    6  C2  UNL     1     -31.695   8.294   1.560  1.00 20.00     0.005 C 
ENDBRANCH   4   5
BRANCH   4   7
HETATM    7  C6  UNL     1     -32.093   5.146   1.462  1.00 20.00     0.002 C 
HETATM    8  C3  UNL     1     -32.931   4.689   0.276  1.00 20.00     0.005 C 
ENDBRANCH   4   7
ENDBRANCH   2   4
BRANCH   2   9
HETATM    9  S10 UNL     1     -35.133   6.800   3.931  1.00 20.00    -0.154 SA
HETATM   10  C4  UNL     1     -33.758   7.692   4.689  1.00 20.00     0.091 C 
ENDBRANCH   2   9
TORSDOF 4
ENDMDL
MODEL 6
REMARK VINA RESULT:       0.6      1.987      3.387
REMARK  4 active torsions:
REMARK  status: ('A' for Active; 'I' for Inactive)
REMARK    1  A    between atoms: C5_5  and  C8_8 
REMARK    2  A    between atoms: C6_6  and  C8_8 
REMARK    3  A    between atoms: C7_7  and  C8_8 
REMARK    4  A    between atoms: C7_7  and  S10_10 
ROOT
HETATM    1  C1  UNL     1     -33.747   4.836   3.401  1.00 20.00     0.074 C 
HETATM    2  C7  UNL     1     -33.038   5.722   2.456  1.00 20.00     0.157 C 
HETATM    3  N9  UNL     1     -34.298   4.140   4.148  1.00 20.00    -0.196 NA
ENDROOT
BRANCH   2   4
HETATM    4  C8  UNL     1     -33.442   7.213   2.662  1.00 20.00     0.012 C 
BRANCH   4   5
HETATM    5  C5  UNL     1     -32.244   8.188   2.494  1.00 20.00     0.002 C 
HETATM    6  C2  UNL     1     -32.104   8.746   1.082  1.00 20.00     0.005 C 
ENDBRANCH   4   5
BRANCH   4   7
HETATM    7  C6  UNL     1     -34.161   7.473   4.011  1.00 20.00     0.002 C 
HETATM    8  C3  UNL     1     -33.318   8.213   5.040  1.00 20.00     0.005 C 
ENDBRANCH   4   7
ENDBRANCH   2   4
BRANCH   2   9
HETATM    9  S10 UNL     1     -33.247   5.119   0.739  1.00 20.00    -0.154 SA
HETATM   10  C4  UNL     1     -31.563   4.521   0.482  1.00 20.00     0.091 C 
ENDBRANCH   2   9
TORSDOF 4
ENDMDL
MODEL 7
REMARK VINA RESULT:       0.7      2.597      4.572
REMARK  4 active torsions:
REMARK  status: ('A' for Active; 'I' for Inactive)
REMARK    1  A    between atoms: C5_5  and  C8_8 
REMARK    2  A    between atoms: C6_6  and  C8_8 
REMARK    3  A    between atoms: C7_7  and  C8_8 
REMARK    4  A    between atoms: C7_7  and  S10_10 
ROOT
HETATM    1  C1  UNL     1     -32.255   6.260   1.595  1.00 20.00     0.074 C 
HETATM    2  C7  UNL     1     -32.681   7.444   2.366  1.00 20.00     0.157 C 
HETATM    3  N9  UNL     1     -31.916   5.327   0.993  1.00 20.00    -0.196 NA
ENDROOT
BRANCH   2   4
HETATM    4  C8  UNL     1     -34.006   7.172   3.142  1.00 20.00     0.012 C 
BRANCH   4   5
HETATM    5  C5  UNL     1     -34.112   7.996   4.455  1.00 20.00     0.002 C 
HETATM    6  C2  UNL     1     -32.761   8.390   5.040  1.00 20.00     0.005 C 
ENDBRANCH   4   5
BRANCH   4   7
HETATM    7  C6  UNL     1     -34.250   5.668   3.429  1.00 20.00     0.002 C 
HETATM    8  C3  UNL     1     -35.368   5.392   4.425  1.00 20.00     0.005 C 
ENDBRANCH   4   7
ENDBRANCH   2   4
BRANCH   2   9
HETATM    9  S10 UNL     1     -32.735   8.922   1.286  1.00 20.00    -0.154 SA
HETATM   10  C4  UNL     1     -31.194   8.630   0.392  1.00 20.00     0.091 C 
ENDBRANCH   2   9
TORSDOF 4
ENDMDL
MODEL 8
REMARK VINA RESULT:       0.8      1.838      3.026
REMARK  4 active torsions:
REMARK  status: ('A' for Active; 'I' for Inactive)
REMARK    1  A    between atoms: C5_5  and  C8_8 
REMARK    2  A    between atoms: C6_6  and  C8_8 
REMARK    3  A    between atoms: C7_7  and  C8_8 
REMARK    4  A    between atoms: C7_7  and  S10_10 
ROOT
HETATM    1  C1  UNL     1     -32.453   7.913   2.065  1.00 20.00     0.074 C 
HETATM    2  C7  UNL     1     -32.886   6.957   3.102  1.00 20.00     0.157 C 
HETATM    3  N9  UNL     1     -32.106   8.664   1.250  1.00 20.00    -0.196 NA
ENDROOT
BRANCH   2   4
HETATM    4  C8  UNL     1     -33.325   5.598   2.476  1.00 20.00     0.012 C 
BRANCH   4   5
HETATM    5  C5  UNL     1     -32.767   4.373   3.251  1.00 20.00     0.002 C 
HETATM    6  C2  UNL     1     -33.785   3.724   4.181  1.00 20.00     0.005 C 
ENDBRANCH   4   5
BRANCH   4   7
HETATM    7  C6  UNL     1     -32.987   5.480   0.968  1.00 20.00     0.002 C 
HETATM    8  C3  UNL     1     -31.723   4.688   0.667  1.00 20.00     0.005 C 
ENDBRANCH   4   7
ENDBRANCH   2   4
BRANCH   2   9
HETATM    9  S10 UNL     1     -34.144   7.723   4.190  1.00 20.00    -0.154 SA
HETATM   10  C4  UNL     1     -35.476   6.539   3.898  1.00 20.00     0.091 C 
ENDBRANCH   2   9
TORSDOF 4
ENDMDL
MODEL 9
REMARK VINA RESULT:       0.8      2.279      3.297
REMARK  4 active torsions:
REMARK  status: ('A' for Active; 'I' for Inactive)
REMARK    1  A    between atoms: C5_5  and  C8_8 
REMARK    2  A    between atoms: C6_6  and  C8_8 
REMARK    3  A    between atoms: C7_7  and  C8_8 
REMARK    4  A    between atoms: C7_7  and  S10_10 
ROOT
HETATM    1  C1  UNL     1     -32.594   5.272   1.250  1.00 20.00     0.074 C 
HETATM    2  C7  UNL     1     -33.356   6.022   2.269  1.00 20.00     0.157 C 
HETATM    3  N9  UNL     1     -31.999   4.686   0.444  1.00 20.00    -0.196 NA
ENDROOT
BRANCH   2   4
HETATM    4  C8  UNL     1     -32.559   7.263   2.774  1.00 20.00     0.012 C 
BRANCH   4   5
HETATM    5  C5  UNL     1     -33.455   8.284   3.529  1.00 20.00     0.002 C 
HETATM    6  C2  UNL     1     -33.176   8.352   5.026  1.00 20.00     0.005 C 
ENDBRANCH   4   5
BRANCH   4   7
HETATM    7  C6  UNL     1     -31.757   7.975   1.656  1.00 20.00     0.002 C 
HETATM    8  C3  UNL     1     -32.496   9.125   0.986  1.00 20.00     0.005 C 
ENDBRANCH   4   7
ENDBRANCH   2   4
BRANCH   2   9
HETATM    9  S10 UNL     1     -33.917   4.897   3.600  1.00 20.00    -0.154 SA
HETATM   10  C4  UNL     1     -35.429   5.779   4.045  1.00 20.00     0.091 C 
ENDBRANCH   2   9
TORSDOF 4
ENDMDL
