MODEL 1
REMARK VINA RESULT:      -0.5      0.000      0.000
REMARK  2 active torsions:
REMARK  status: ('A' for Active; 'I' for Inactive)
REMARK    1  A    between atoms: C4_4  and  C7_7 
REMARK    2  A    between atoms: C7_7  and  C8_8 
ROOT
HETATM    1  C1  UNL     1     -34.511   6.851   3.746  1.00 20.00     0.033 C 
HETATM    2  C2  UNL     1     -35.518   5.917   4.385  1.00 20.00     0.168 C 
HETATM    3  C3  UNL     1     -33.772   4.635   3.528  1.00 20.00     0.172 C 
HETATM    4  C4  UNL     1     -33.838   5.937   2.747  1.00 20.00     0.016 C 
HETATM    5  O9  UNL     1     -34.938   4.605   4.366  1.00 20.00    -0.391 OA
ENDROOT
BRANCH   4   6
HETATM    6  C7  UNL     1     -32.486   6.429   2.266  1.00 20.00     0.002 C 
HETATM    7  C5  UNL     1     -32.143   5.777   0.947  1.00 20.00     0.011 C 
BRANCH   6   8
HETATM    8  C8  UNL     1     -32.450   7.970   2.230  1.00 20.00     0.058 C 
HETATM    9  C6  UNL     1     -31.535   8.642   3.242  1.00 20.00     0.022 C 
HETATM   10 BR10 UNL     1     -31.947   8.591   0.431  1.00 20.00    -0.091 Br
ENDBRANCH   6   8
ENDBRANCH   4   6
TORSDOF 2
ENDMDL
MODEL 2
REMARK VINA RESULT:      -0.3      0.944      1.894
REMARK  2 active torsions:
REMARK  status: ('A' for Active; 'I' for Inactive)
REMARK    1  A    between atoms: C4_4  and  C7_7 
REMARK    2  A    between atoms: C7_7  and  C8_8 
ROOT
HETATM    1  C1  UNL     1     -35.274   6.395   4.240  1.00 20.00     0.033 C 
HETATM    2  C2  UNL     1     -35.551   4.927   4.488  1.00 20.00     0.168 C 
HETATM    3  C3  UNL     1     -33.389   5.132   3.644  1.00 20.00     0.172 C 
HETATM    4  C4  UNL     1     -34.201   6.328   3.176  1.00 20.00     0.016 C 
HETATM    5  O9  UNL     1     -34.318   4.228   4.262  1.00 20.00    -0.391 OA
ENDROOT
BRANCH   4   6
HETATM    6  C7  UNL     1     -33.386   7.600   3.034  1.00 20.00     0.002 C 
HETATM    7  C5  UNL     1     -32.910   8.057   4.393  1.00 20.00     0.011 C 
BRANCH   6   8
HETATM    8  C8  UNL     1     -32.253   7.408   2.006  1.00 20.00     0.058 C 
HETATM    9  C6  UNL     1     -32.349   6.169   1.128  1.00 20.00     0.022 C 
HETATM   10 BR10 UNL     1     -32.126   8.987   0.839  1.00 20.00    -0.091 Br
ENDBRANCH   6   8
ENDBRANCH   4   6
TORSDOF 2
ENDMDL
MODEL 3
REMARK VINA RESULT:      -0.1      3.267      4.765
REMARK  2 active torsions:
REMARK  status: ('A' for Active; 'I' for Inactive)
REMARK    1  A    between atoms: C4_4  and  C7_7 
REMARK    2  A    between atoms: C7_7  and  C8_8 
ROOT
HETATM    1  C1  UNL     1     -32.691  10.204   1.348  1.00 20.00     0.033 C 
HETATM    2  C2  UNL     1     -32.894  10.831  -0.016  1.00 20.00     0.168 C 
HETATM    3  C3  UNL     1     -32.500   8.554  -0.308  1.00 20.00     0.172 C 
HETATM    4  C4  UNL     1     -31.866   8.984   1.004  1.00 20.00     0.016 C 
HETATM    5  O9  UNL     1     -32.928   9.757  -0.966  1.00 20.00    -0.391 OA
ENDROOT
BRANCH   4   6
HETATM    6  C7  UNL     1     -31.878   7.905   2.070  1.00 20.00     0.002 C 
HETATM    7  C5  UNL     1     -31.901   8.541   3.441  1.00 20.00     0.011 C 
BRANCH   6   8
HETATM    8  C8  UNL     1     -33.029   6.909   1.823  1.00 20.00     0.058 C 
HETATM    9  C6  UNL     1     -32.618   5.491   1.455  1.00 20.00     0.022 C 
HETATM   10 BR10 UNL     1     -34.199   6.826   3.402  1.00 20.00    -0.091 Br
ENDBRANCH   6   8
ENDBRANCH   4   6
TORSDOF 2
ENDMDL
MODEL 4
REMARK VINA RESULT:       0.3      3.219      4.304
REMARK  2 active torsions:
REMARK  status: ('A' for Active; 'I' for Inactive)
REMARK    1  A    between atoms: C4_4  and  C7_7 
REMARK    2  A    between atoms: C7_7  and  C8_8 
ROOT
HETATM    1  C1  UNL     1     -33.216   9.097   0.847  1.00 20.00     0.033 C 
HETATM    2  C2  UNL     1     -32.048   9.888   0.294  1.00 20.00     0.168 C 
HETATM    3  C3  UNL     1     -31.261   7.808   0.986  1.00 20.00     0.172 C 
HETATM    4  C4  UNL     1     -32.517   8.132   1.778  1.00 20.00     0.016 C 
HETATM    5  O9  UNL     1     -30.924   8.997   0.255  1.00 20.00    -0.391 OA
ENDROOT
BRANCH   4   6
HETATM    6  C7  UNL     1     -33.342   6.911   2.140  1.00 20.00     0.002 C 
HETATM    7  C5  UNL     1     -32.690   5.668   1.579  1.00 20.00     0.011 C 
BRANCH   6   8
HETATM    8  C8  UNL     1     -33.591   6.855   3.660  1.00 20.00     0.058 C 
HETATM    9  C6  UNL     1     -33.547   8.187   4.395  1.00 20.00     0.022 C 
HETATM   10 BR10 UNL     1     -35.325   6.001   4.028  1.00 20.00    -0.091 Br
ENDBRANCH   6   8
ENDBRANCH   4   6
TORSDOF 2
ENDMDL
MODEL 5
REMARK VINA RESULT:       0.4      1.490      1.836
REMARK  2 active torsions:
REMARK  status: ('A' for Active; 'I' for Inactive)
REMARK    1  A    between atoms: C4_4  and  C7_7 
REMARK    2  A    between atoms: C7_7  and  C8_8 
ROOT
HETATM    1  C1  UNL     1     -33.912   7.778   3.835  1.00 20.00     0.033 C 
HETATM    2  C2  UNL     1     -34.766   6.569   4.156  1.00 20.00     0.168 C 
HETATM    3  C3  UNL     1     -33.270   5.981   2.470  1.00 20.00     0.172 C 
HETATM    4  C4  UNL     1     -33.489   7.484   2.413  1.00 20.00     0.016 C 
HETATM    5  O9  UNL     1     -34.224   5.468   3.413  1.00 20.00    -0.391 OA
ENDROOT
BRANCH   4   6
HETATM    6  C7  UNL     1     -32.269   8.261   1.955  1.00 20.00     0.002 C 
HETATM    7  C5  UNL     1     -31.115   7.313   1.723  1.00 20.00     0.011 C 
BRANCH   6   8
HETATM    8  C8  UNL     1     -32.611   9.140   0.736  1.00 20.00     0.058 C 
HETATM    9  C6  UNL     1     -32.802  10.624   1.014  1.00 20.00     0.022 C 
HETATM   10 BR10 UNL     1     -31.226   8.942  -0.648  1.00 20.00    -0.091 Br
ENDBRANCH   6   8
ENDBRANCH   4   6
TORSDOF 2
ENDMDL
MODEL 6
REMARK VINA RESULT:       0.6      0.959      2.259
REMARK  2 active torsions:
REMARK  status: ('A' for Active; 'I' for Inactive)
REMARK    1  A    between atoms: C4_4  and  C7_7 
REMARK    2  A    between atoms: C7_7  and  C8_8 
ROOT
HETATM    1  C1  UNL     1     -33.409   4.740   3.361  1.00 20.00     0.033 C 
HETATM    2  C2  UNL     1     -34.113   3.850   4.363  1.00 20.00     0.168 C 
HETATM    3  C3  UNL     1     -35.293   5.852   4.207  1.00 20.00     0.172 C 
HETATM    4  C4  UNL     1     -33.850   6.115   3.811  1.00 20.00     0.016 C 
HETATM    5  O9  UNL     1     -35.335   4.511   4.720  1.00 20.00    -0.391 OA
ENDROOT
BRANCH   4   6
HETATM    6  C7  UNL     1     -33.694   7.194   2.756  1.00 20.00     0.002 C 
HETATM    7  C5  UNL     1     -33.909   8.554   3.379  1.00 20.00     0.011 C 
BRANCH   6   8
HETATM    8  C8  UNL     1     -32.344   7.048   2.025  1.00 20.00     0.058 C 
HETATM    9  C6  UNL     1     -32.236   5.888   1.046  1.00 20.00     0.022 C 
HETATM   10 BR10 UNL     1     -31.913   8.711   1.066  1.00 20.00    -0.091 Br
ENDBRANCH   6   8
ENDBRANCH   4   6
TORSDOF 2
ENDMDL
MODEL 7
REMARK VINA RESULT:       0.6      3.381      4.994
REMARK  2 active torsions:
REMARK  status: ('A' for Active; 'I' for Inactive)
REMARK    1  A    between atoms: C4_4  and  C7_7 
REMARK    2  A    between atoms: C7_7  and  C8_8 
ROOT
HETATM    1  C1  UNL     1     -31.632   9.011  -0.173  1.00 20.00     0.033 C 
HETATM    2  C2  UNL     1     -32.065  10.368  -0.689  1.00 20.00     0.168 C 
HETATM    3  C3  UNL     1     -32.754  10.174   1.528  1.00 20.00     0.172 C 
HETATM    4  C4  UNL     1     -32.626   8.777   0.943  1.00 20.00     0.016 C 
HETATM    5  O9  UNL     1     -32.595  11.089   0.432  1.00 20.00    -0.391 OA
ENDROOT
BRANCH   4   6
HETATM    6  C7  UNL     1     -32.193   7.730   1.951  1.00 20.00     0.002 C 
HETATM    7  C5  UNL     1     -32.163   8.335   3.336  1.00 20.00     0.011 C 
BRANCH   6   8
HETATM    8  C8  UNL     1     -33.073   6.470   1.839  1.00 20.00     0.058 C 
HETATM    9  C6  UNL     1     -32.341   5.165   1.561  1.00 20.00     0.022 C 
HETATM   10 BR10 UNL     1     -34.141   6.245   3.475  1.00 20.00    -0.091 Br
ENDBRANCH   6   8
ENDBRANCH   4   6
TORSDOF 2
ENDMDL
MODEL 8
REMARK VINA RESULT:       0.7      2.873      4.139
REMARK  2 active torsions:
REMARK  status: ('A' for Active; 'I' for Inactive)
REMARK    1  A    between atoms: C4_4  and  C7_7 
REMARK    2  A    between atoms: C7_7  and  C8_8 
ROOT
HETATM    1  C1  UNL     1     -31.967   7.324   1.068  1.00 20.00     0.033 C 
HETATM    2  C2  UNL     1     -31.474   8.716   1.405  1.00 20.00     0.168 C 
HETATM    3  C3  UNL     1     -32.616   7.877   3.254  1.00 20.00     0.172 C 
HETATM    4  C4  UNL     1     -33.142   7.180   2.010  1.00 20.00     0.016 C 
HETATM    5  O9  UNL     1     -31.756   8.932   2.795  1.00 20.00    -0.391 OA
ENDROOT
BRANCH   4   6
HETATM    6  C7  UNL     1     -33.573   5.746   2.250  1.00 20.00     0.002 C 
HETATM    7  C5  UNL     1     -32.504   4.800   1.754  1.00 20.00     0.011 C 
BRANCH   6   8
HETATM    8  C8  UNL     1     -33.959   5.534   3.727  1.00 20.00     0.058 C 
HETATM    9  C6  UNL     1     -35.377   5.930   4.112  1.00 20.00     0.022 C 
HETATM   10 BR10 UNL     1     -33.682   3.653   4.234  1.00 20.00    -0.091 Br
ENDBRANCH   6   8
ENDBRANCH   4   6
TORSDOF 2
ENDMDL
MODEL 9
REMARK VINA RESULT:       0.8      2.891      4.391
REMARK  2 active torsions:
REMARK  status: ('A' for Active; 'I' for Inactive)
REMARK    1  A    between atoms: C4_4  and  C7_7 
REMARK    2  A    between atoms: C7_7  and  C8_8 
ROOT
HETATM    1  C1  UNL     1     -32.660   6.127   1.964  1.00 20.00     0.033 C 
HETATM    2  C2  UNL     1     -32.028   6.780   0.752  1.00 20.00     0.168 C 
HETATM    3  C3  UNL     1     -32.218   8.383   2.431  1.00 20.00     0.172 C 
HETATM    4  C4  UNL     1     -33.275   7.317   2.666  1.00 20.00     0.016 C 
HETATM    5  O9  UNL     1     -31.635   8.102   1.149  1.00 20.00    -0.391 OA
ENDROOT
BRANCH   4   6
HETATM    6  C7  UNL     1     -33.588   7.080   4.131  1.00 20.00     0.002 C 
HETATM    7  C5  UNL     1     -33.616   8.399   4.868  1.00 20.00     0.011 C 
BRANCH   6   8
HETATM    8  C8  UNL     1     -34.880   6.252   4.284  1.00 20.00     0.058 C 
HETATM    9  C6  UNL     1     -35.956   6.492   3.236  1.00 20.00     0.022 C 
HETATM   10 BR10 UNL     1     -34.451   4.332   4.305  1.00 20.00    -0.091 Br
ENDBRANCH   6   8
ENDBRANCH   4   6
TORSDOF 2
ENDMDL
