MODEL 1
REMARK VINA RESULT:      -1.3      0.000      0.000
REMARK  3 active torsions:
REMARK  status: ('A' for Active; 'I' for Inactive)
REMARK    1  A    between atoms: C4_4  and  C7_7 
REMARK    2  A    between atoms: C4_4  and  C9_9 
REMARK    3  A    between atoms: C8_8  and  C9_9 
ROOT
HETATM    1  C1  UNL     1     -34.636   7.858   4.097  1.00 20.00     0.002 C 
HETATM    2  C2  UNL     1     -33.201   7.322   4.266  1.00 20.00     0.011 C 
HETATM    3  C3  UNL     1     -35.020   6.494   3.490  1.00 20.00     0.011 C 
HETATM    4  C4  UNL     1     -33.514   6.270   3.161  1.00 20.00    -0.025 C 
ENDROOT
BRANCH   4   5
HETATM    5  C7  UNL     1     -33.011   4.866   3.481  1.00 20.00     0.124 C 
HETATM    6 CL10 UNL     1     -34.215   3.989   4.442  1.00 20.00    -0.130 Cl
ENDBRANCH   4   5
BRANCH   4   7
HETATM    7  C9  UNL     1     -33.108   6.702   1.752  1.00 20.00    -0.010 C 
HETATM    8  C6  UNL     1     -32.710   5.475   0.928  1.00 20.00     0.011 C 
BRANCH   7   9
HETATM    9  C8  UNL     1     -31.955   7.719   1.757  1.00 20.00     0.000 C 
HETATM   10  C5  UNL     1     -32.247   8.976   0.950  1.00 20.00     0.005 C 
ENDBRANCH   7   9
ENDBRANCH   4   7
TORSDOF 3
ENDMDL
MODEL 2
REMARK VINA RESULT:      -0.5      2.287      4.152
REMARK  3 active torsions:
REMARK  status: ('A' for Active; 'I' for Inactive)
REMARK    1  A    between atoms: C4_4  and  C7_7 
REMARK    2  A    between atoms: C4_4  and  C9_9 
REMARK    3  A    between atoms: C8_8  and  C9_9 
ROOT
HETATM    1  C1  UNL     1     -33.016   5.020   0.634  1.00 20.00     0.002 C 
HETATM    2  C2  UNL     1     -32.052   5.421   1.768  1.00 20.00     0.011 C 
HETATM    3  C3  UNL     1     -33.325   6.517   0.436  1.00 20.00     0.011 C 
HETATM    4  C4  UNL     1     -32.831   6.763   1.892  1.00 20.00    -0.025 C 
ENDROOT
BRANCH   4   5
HETATM    5  C7  UNL     1     -31.937   7.989   2.046  1.00 20.00     0.124 C 
HETATM    6 CL10 UNL     1     -32.358   9.210   0.831  1.00 20.00    -0.130 Cl
ENDBRANCH   4   5
BRANCH   4   7
HETATM    7  C9  UNL     1     -33.943   6.747   2.942  1.00 20.00    -0.010 C 
HETATM    8  C6  UNL     1     -33.720   7.876   3.950  1.00 20.00     0.011 C 
BRANCH   7   9
HETATM    9  C8  UNL     1     -34.034   5.402   3.682  1.00 20.00     0.000 C 
HETATM   10  C5  UNL     1     -35.330   5.221   4.460  1.00 20.00     0.005 C 
ENDBRANCH   7   9
ENDBRANCH   4   7
TORSDOF 3
ENDMDL
MODEL 3
REMARK VINA RESULT:      -0.4      1.679      3.688
REMARK  3 active torsions:
REMARK  status: ('A' for Active; 'I' for Inactive)
REMARK    1  A    between atoms: C4_4  and  C7_7 
REMARK    2  A    between atoms: C4_4  and  C9_9 
REMARK    3  A    between atoms: C8_8  and  C9_9 
ROOT
HETATM    1  C1  UNL     1     -32.158   9.192   1.070  1.00 20.00     0.002 C 
HETATM    2  C2  UNL     1     -32.844   7.908   0.563  1.00 20.00     0.011 C 
HETATM    3  C3  UNL     1     -31.392   8.322   2.085  1.00 20.00     0.011 C 
HETATM    4  C4  UNL     1     -32.505   7.244   1.930  1.00 20.00    -0.025 C 
ENDROOT
BRANCH   4   5
HETATM    5  C7  UNL     1     -31.977   5.818   1.813  1.00 20.00     0.124 C 
HETATM    6 CL10 UNL     1     -32.830   4.953   0.522  1.00 20.00    -0.130 Cl
ENDBRANCH   4   5
BRANCH   4   7
HETATM    7  C9  UNL     1     -33.623   7.342   2.969  1.00 20.00    -0.010 C 
HETATM    8  C6  UNL     1     -33.086   7.992   4.247  1.00 20.00     0.011 C 
BRANCH   7   9
HETATM    9  C8  UNL     1     -34.239   5.973   3.302  1.00 20.00     0.000 C 
HETATM   10  C5  UNL     1     -35.424   6.054   4.253  1.00 20.00     0.005 C 
ENDBRANCH   7   9
ENDBRANCH   4   7
TORSDOF 3
ENDMDL
MODEL 4
REMARK VINA RESULT:      -0.3      1.289      2.884
REMARK  3 active torsions:
REMARK  status: ('A' for Active; 'I' for Inactive)
REMARK    1  A    between atoms: C4_4  and  C7_7 
REMARK    2  A    between atoms: C4_4  and  C9_9 
REMARK    3  A    between atoms: C8_8  and  C9_9 
ROOT
HETATM    1  C1  UNL     1     -32.700   5.270   0.756  1.00 20.00     0.002 C 
HETATM    2  C2  UNL     1     -33.785   6.333   1.015  1.00 20.00     0.011 C 
HETATM    3  C3  UNL     1     -32.141   5.570   2.160  1.00 20.00     0.011 C 
HETATM    4  C4  UNL     1     -32.851   6.955   2.095  1.00 20.00    -0.025 C 
ENDROOT
BRANCH   4   5
HETATM    5  C7  UNL     1     -33.566   7.346   3.384  1.00 20.00     0.124 C 
HETATM    6 CL10 UNL     1     -34.873   6.200   3.732  1.00 20.00    -0.130 Cl
ENDBRANCH   4   5
BRANCH   4   7
HETATM    7  C9  UNL     1     -31.966   8.090   1.580  1.00 20.00    -0.010 C 
HETATM    8  C6  UNL     1     -31.003   8.538   2.683  1.00 20.00     0.011 C 
BRANCH   7   9
HETATM    9  C8  UNL     1     -32.783   9.294   1.084  1.00 20.00     0.000 C 
HETATM   10  C5  UNL     1     -32.298   9.854  -0.246  1.00 20.00     0.005 C 
ENDBRANCH   7   9
ENDBRANCH   4   7
TORSDOF 3
ENDMDL
MODEL 5
REMARK VINA RESULT:      -0.3      1.681      2.099
REMARK  3 active torsions:
REMARK  status: ('A' for Active; 'I' for Inactive)
REMARK    1  A    between atoms: C4_4  and  C7_7 
REMARK    2  A    between atoms: C4_4  and  C9_9 
REMARK    3  A    between atoms: C8_8  and  C9_9 
ROOT
HETATM    1  C1  UNL     1     -35.396   6.185   3.615  1.00 20.00     0.002 C 
HETATM    2  C2  UNL     1     -34.971   7.666   3.576  1.00 20.00     0.011 C 
HETATM    3  C3  UNL     1     -33.938   5.827   3.963  1.00 20.00     0.011 C 
HETATM    4  C4  UNL     1     -33.506   7.190   3.345  1.00 20.00    -0.025 C 
ENDROOT
BRANCH   4   5
HETATM    5  C7  UNL     1     -32.470   7.946   4.171  1.00 20.00     0.124 C 
HETATM    6 CL10 UNL     1     -33.176   8.465   5.711  1.00 20.00    -0.130 Cl
ENDBRANCH   4   5
BRANCH   4   7
HETATM    7  C9  UNL     1     -33.099   7.110   1.874  1.00 20.00    -0.010 C 
HETATM    8  C6  UNL     1     -32.654   5.686   1.535  1.00 20.00     0.011 C 
BRANCH   7   9
HETATM    9  C8  UNL     1     -31.977   8.101   1.519  1.00 20.00     0.000 C 
HETATM   10  C5  UNL     1     -32.447   9.275   0.670  1.00 20.00     0.005 C 
ENDBRANCH   7   9
ENDBRANCH   4   7
TORSDOF 3
ENDMDL
MODEL 6
REMARK VINA RESULT:      -0.2      2.217      4.170
REMARK  3 active torsions:
REMARK  status: ('A' for Active; 'I' for Inactive)
REMARK    1  A    between atoms: C4_4  and  C7_7 
REMARK    2  A    between atoms: C4_4  and  C9_9 
REMARK    3  A    between atoms: C8_8  and  C9_9 
ROOT
HETATM    1  C1  UNL     1     -32.646   4.854   0.576  1.00 20.00     0.002 C 
HETATM    2  C2  UNL     1     -31.868   5.376   1.800  1.00 20.00     0.011 C 
HETATM    3  C3  UNL     1     -33.570   6.080   0.703  1.00 20.00     0.011 C 
HETATM    4  C4  UNL     1     -33.132   6.197   2.193  1.00 20.00    -0.025 C 
ENDROOT
BRANCH   4   5
HETATM    5  C7  UNL     1     -32.830   7.623   2.642  1.00 20.00     0.124 C 
HETATM    6 CL10 UNL     1     -32.087   8.537   1.317  1.00 20.00    -0.130 Cl
ENDBRANCH   4   5
BRANCH   4   7
HETATM    7  C9  UNL     1     -34.060   5.486   3.178  1.00 20.00    -0.010 C 
HETATM    8  C6  UNL     1     -34.979   6.506   3.853  1.00 20.00     0.011 C 
BRANCH   7   9
HETATM    9  C8  UNL     1     -33.288   4.695   4.247  1.00 20.00     0.000 C 
HETATM   10  C5  UNL     1     -33.615   3.208   4.260  1.00 20.00     0.005 C 
ENDBRANCH   7   9
ENDBRANCH   4   7
TORSDOF 3
ENDMDL
MODEL 7
REMARK VINA RESULT:       0.2      2.088      3.500
REMARK  3 active torsions:
REMARK  status: ('A' for Active; 'I' for Inactive)
REMARK    1  A    between atoms: C4_4  and  C7_7 
REMARK    2  A    between atoms: C4_4  and  C9_9 
REMARK    3  A    between atoms: C8_8  and  C9_9 
ROOT
HETATM    1  C1  UNL     1     -34.206   7.541   4.831  1.00 20.00     0.002 C 
HETATM    2  C2  UNL     1     -34.872   7.171   3.492  1.00 20.00     0.011 C 
HETATM    3  C3  UNL     1     -32.911   7.834   4.049  1.00 20.00     0.011 C 
HETATM    4  C4  UNL     1     -33.451   6.922   2.907  1.00 20.00    -0.025 C 
ENDROOT
BRANCH   4   5
HETATM    5  C7  UNL     1     -33.246   7.492   1.508  1.00 20.00     0.124 C 
HETATM    6 CL10 UNL     1     -31.644   8.242   1.380  1.00 20.00    -0.130 Cl
ENDBRANCH   4   5
BRANCH   4   7
HETATM    7  C9  UNL     1     -32.984   5.468   2.992  1.00 20.00    -0.010 C 
HETATM    8  C6  UNL     1     -32.551   4.981   1.608  1.00 20.00     0.011 C 
BRANCH   7   9
HETATM    9  C8  UNL     1     -34.069   4.534   3.555  1.00 20.00     0.000 C 
HETATM   10  C5  UNL     1     -33.514   3.394   4.397  1.00 20.00     0.005 C 
ENDBRANCH   7   9
ENDBRANCH   4   7
TORSDOF 3
ENDMDL
MODEL 8
REMARK VINA RESULT:       0.4      1.692      3.482
REMARK  3 active torsions:
REMARK  status: ('A' for Active; 'I' for Inactive)
REMARK    1  A    between atoms: C4_4  and  C7_7 
REMARK    2  A    between atoms: C4_4  and  C9_9 
REMARK    3  A    between atoms: C8_8  and  C9_9 
ROOT
HETATM    1  C1  UNL     1     -31.725   8.479   1.837  1.00 20.00     0.002 C 
HETATM    2  C2  UNL     1     -33.132   8.034   1.391  1.00 20.00     0.011 C 
HETATM    3  C3  UNL     1     -31.276   7.010   1.714  1.00 20.00     0.011 C 
HETATM    4  C4  UNL     1     -32.769   6.591   1.852  1.00 20.00    -0.025 C 
ENDROOT
BRANCH   4   5
HETATM    5  C7  UNL     1     -33.201   5.501   0.877  1.00 20.00     0.124 C 
HETATM    6 CL10 UNL     1     -31.802   4.528   0.388  1.00 20.00    -0.130 Cl
ENDBRANCH   4   5
BRANCH   4   7
HETATM    7  C9  UNL     1     -33.199   6.264   3.282  1.00 20.00    -0.010 C 
HETATM    8  C6  UNL     1     -33.512   4.770   3.401  1.00 20.00     0.011 C 
BRANCH   7   9
HETATM    9  C8  UNL     1     -34.417   7.086   3.734  1.00 20.00     0.000 C 
HETATM   10  C5  UNL     1     -35.632   6.236   4.080  1.00 20.00     0.005 C 
ENDBRANCH   7   9
ENDBRANCH   4   7
TORSDOF 3
ENDMDL
MODEL 9
REMARK VINA RESULT:       0.5      1.682      3.408
REMARK  3 active torsions:
REMARK  status: ('A' for Active; 'I' for Inactive)
REMARK    1  A    between atoms: C4_4  and  C7_7 
REMARK    2  A    between atoms: C4_4  and  C9_9 
REMARK    3  A    between atoms: C8_8  and  C9_9 
ROOT
HETATM    1  C1  UNL     1     -31.575   8.191   1.477  1.00 20.00     0.002 C 
HETATM    2  C2  UNL     1     -31.699   8.010   3.002  1.00 20.00     0.011 C 
HETATM    3  C3  UNL     1     -33.108   8.067   1.388  1.00 20.00     0.011 C 
HETATM    4  C4  UNL     1     -33.081   7.334   2.762  1.00 20.00    -0.025 C 
ENDROOT
BRANCH   4   5
HETATM    5  C7  UNL     1     -34.170   7.788   3.729  1.00 20.00     0.124 C 
HETATM    6 CL10 UNL     1     -33.471   8.134   5.320  1.00 20.00    -0.130 Cl
ENDBRANCH   4   5
BRANCH   4   7
HETATM    7  C9  UNL     1     -33.024   5.810   2.659  1.00 20.00    -0.010 C 
HETATM    8  C6  UNL     1     -33.111   5.386   1.191  1.00 20.00     0.011 C 
BRANCH   7   9
HETATM    9  C8  UNL     1     -34.141   5.124   3.464  1.00 20.00     0.000 C 
HETATM   10  C5  UNL     1     -33.697   3.837   4.146  1.00 20.00     0.005 C 
ENDBRANCH   7   9
ENDBRANCH   4   7
TORSDOF 3
ENDMDL
