MODEL 1
REMARK VINA RESULT:      -0.4      0.000      0.000
REMARK  6 active torsions:
REMARK  status: ('A' for Active; 'I' for Inactive)
REMARK    1  A    between atoms: C5_5  and  C7_7 
REMARK    2  A    between atoms: C6_6  and  C11_11 
REMARK    3  A    between atoms: C7_7  and  C8_8 
REMARK    4  A    between atoms: C8_8  and  C11_11 
REMARK    5  A    between atoms: C9_9  and  C11_11 
REMARK    6  A    between atoms: C10_10  and  C11_11 
ROOT
HETATM    1  C11 UNL     1     -33.159   6.286   2.544  1.00 20.00    -0.025 C 
ENDROOT
BRANCH   1   2
HETATM    2  C6  UNL     1     -33.858   5.705   1.257  1.00 20.00     0.006 C 
HETATM    3  C2  UNL     1     -32.993   4.841   0.344  1.00 20.00     0.006 C 
ENDBRANCH   1   2
BRANCH   1   4
HETATM    4  C8  UNL     1     -31.956   7.173   2.067  1.00 20.00     0.011 C 
BRANCH   4   5
HETATM    5  C7  UNL     1     -32.279   8.641   1.742  1.00 20.00     0.000 C 
BRANCH   5   6
HETATM    6  C5  UNL     1     -31.923   8.972   0.290  1.00 20.00    -0.005 C 
HETATM    7  C1  UNL     1     -32.659  10.209  -0.196  1.00 20.00     0.005 C 
ENDBRANCH   5   6
ENDBRANCH   4   5
ENDBRANCH   1   4
BRANCH   1   8
HETATM    8  C9  UNL     1     -32.683   5.055   3.385  1.00 20.00     0.124 C 
HETATM    9 CL12 UNL     1     -33.961   3.953   3.966  1.00 20.00    -0.130 Cl
ENDBRANCH   1   8
BRANCH   1  10
HETATM   10  C10 UNL     1     -34.198   7.160   3.374  1.00 20.00    -0.013 C 
HETATM   11  C3  UNL     1     -35.476   6.397   3.768  1.00 20.00     0.010 C 
HETATM   12  C4  UNL     1     -33.645   7.824   4.642  1.00 20.00     0.010 C 
ENDBRANCH   1  10
TORSDOF 6
ENDMDL
MODEL 2
REMARK VINA RESULT:      -0.1      1.640      1.700
REMARK  6 active torsions:
REMARK  status: ('A' for Active; 'I' for Inactive)
REMARK    1  A    between atoms: C5_5  and  C7_7 
REMARK    2  A    between atoms: C6_6  and  C11_11 
REMARK    3  A    between atoms: C7_7  and  C8_8 
REMARK    4  A    between atoms: C8_8  and  C11_11 
REMARK    5  A    between atoms: C9_9  and  C11_11 
REMARK    6  A    between atoms: C10_10  and  C11_11 
ROOT
HETATM    1  C11 UNL     1     -32.982   6.331   1.893  1.00 20.00    -0.025 C 
ENDROOT
BRANCH   1   2
HETATM    2  C6  UNL     1     -33.624   6.410   0.456  1.00 20.00     0.006 C 
HETATM    3  C2  UNL     1     -34.241   5.124  -0.084  1.00 20.00     0.006 C 
ENDBRANCH   1   2
BRANCH   1   4
HETATM    4  C8  UNL     1     -32.112   7.622   2.091  1.00 20.00     0.011 C 
BRANCH   4   5
HETATM    5  C7  UNL     1     -31.722   8.383   0.814  1.00 20.00     0.000 C 
BRANCH   5   6
HETATM    6  C5  UNL     1     -32.375   9.768   0.780  1.00 20.00    -0.005 C 
HETATM    7  C1  UNL     1     -32.810  10.144  -0.627  1.00 20.00     0.005 C 
ENDBRANCH   5   6
ENDBRANCH   4   5
ENDBRANCH   1   4
BRANCH   1   8
HETATM    8  C9  UNL     1     -32.115   5.029   1.922  1.00 20.00     0.124 C 
HETATM    9 CL12 UNL     1     -31.263   4.613   0.410  1.00 20.00    -0.130 Cl
ENDBRANCH   1   8
BRANCH   1  10
HETATM   10  C10 UNL     1     -34.129   6.261   2.993  1.00 20.00    -0.013 C 
HETATM   11  C3  UNL     1     -34.168   4.931   3.767  1.00 20.00     0.010 C 
HETATM   12  C4  UNL     1     -34.132   7.398   4.025  1.00 20.00     0.010 C 
ENDBRANCH   1  10
TORSDOF 6
ENDMDL
MODEL 3
REMARK VINA RESULT:      -0.0      1.688      4.287
REMARK  6 active torsions:
REMARK  status: ('A' for Active; 'I' for Inactive)
REMARK    1  A    between atoms: C5_5  and  C7_7 
REMARK    2  A    between atoms: C6_6  and  C11_11 
REMARK    3  A    between atoms: C7_7  and  C8_8 
REMARK    4  A    between atoms: C8_8  and  C11_11 
REMARK    5  A    between atoms: C9_9  and  C11_11 
REMARK    6  A    between atoms: C10_10  and  C11_11 
ROOT
HETATM    1  C11 UNL     1     -33.256   6.314   2.553  1.00 20.00    -0.025 C 
ENDROOT
BRANCH   1   2
HETATM    2  C6  UNL     1     -31.964   7.157   2.227  1.00 20.00     0.006 C 
HETATM    3  C2  UNL     1     -32.156   8.376   1.329  1.00 20.00     0.006 C 
ENDBRANCH   1   2
BRANCH   1   4
HETATM    4  C8  UNL     1     -32.802   5.053   3.368  1.00 20.00     0.011 C 
BRANCH   4   5
HETATM    5  C7  UNL     1     -33.916   4.089   3.807  1.00 20.00     0.000 C 
BRANCH   5   6
HETATM    6  C5  UNL     1     -33.329   2.824   4.439  1.00 20.00    -0.005 C 
HETATM    7  C1  UNL     1     -32.669   3.124   5.775  1.00 20.00     0.005 C 
ENDBRANCH   5   6
ENDBRANCH   4   5
ENDBRANCH   1   4
BRANCH   1   8
HETATM    8  C9  UNL     1     -33.892   5.926   1.177  1.00 20.00     0.124 C 
HETATM    9 CL12 UNL     1     -33.042   4.667   0.241  1.00 20.00    -0.130 Cl
ENDBRANCH   1   8
BRANCH   1  10
HETATM   10  C10 UNL     1     -34.271   7.193   3.408  1.00 20.00    -0.013 C 
HETATM   11  C3  UNL     1     -35.510   6.417   3.889  1.00 20.00     0.010 C 
HETATM   12  C4  UNL     1     -33.669   7.908   4.625  1.00 20.00     0.010 C 
ENDBRANCH   1  10
TORSDOF 6
ENDMDL
MODEL 4
REMARK VINA RESULT:       0.3      1.976      4.328
REMARK  6 active torsions:
REMARK  status: ('A' for Active; 'I' for Inactive)
REMARK    1  A    between atoms: C5_5  and  C7_7 
REMARK    2  A    between atoms: C6_6  and  C11_11 
REMARK    3  A    between atoms: C7_7  and  C8_8 
REMARK    4  A    between atoms: C8_8  and  C11_11 
REMARK    5  A    between atoms: C9_9  and  C11_11 
REMARK    6  A    between atoms: C10_10  and  C11_11 
ROOT
HETATM    1  C11 UNL     1     -32.679   7.541   1.831  1.00 20.00    -0.025 C 
ENDROOT
BRANCH   1   2
HETATM    2  C6  UNL     1     -32.769   8.292   0.449  1.00 20.00     0.006 C 
HETATM    3  C2  UNL     1     -32.410   9.775   0.456  1.00 20.00     0.006 C 
ENDBRANCH   1   2
BRANCH   1   4
HETATM    4  C8  UNL     1     -33.898   8.009   2.701  1.00 20.00     0.011 C 
BRANCH   4   5
HETATM    5  C7  UNL     1     -34.114   7.263   4.028  1.00 20.00     0.000 C 
BRANCH   5   6
HETATM    6  C5  UNL     1     -35.312   6.315   3.936  1.00 20.00    -0.005 C 
HETATM    7  C1  UNL     1     -34.946   4.909   4.380  1.00 20.00     0.005 C 
ENDBRANCH   5   6
ENDBRANCH   4   5
ENDBRANCH   1   4
BRANCH   1   8
HETATM    8  C9  UNL     1     -31.311   7.948   2.470  1.00 20.00     0.124 C 
HETATM    9 CL12 UNL     1     -31.389   9.047   3.874  1.00 20.00    -0.130 Cl
ENDBRANCH   1   8
BRANCH   1  10
HETATM   10  C10 UNL     1     -32.738   5.968   1.594  1.00 20.00    -0.013 C 
HETATM   11  C3  UNL     1     -33.635   5.550   0.415  1.00 20.00     0.010 C 
HETATM   12  C4  UNL     1     -31.381   5.272   1.415  1.00 20.00     0.010 C 
ENDBRANCH   1  10
TORSDOF 6
ENDMDL
MODEL 5
REMARK VINA RESULT:       0.6      1.685      4.538
REMARK  6 active torsions:
REMARK  status: ('A' for Active; 'I' for Inactive)
REMARK    1  A    between atoms: C5_5  and  C7_7 
REMARK    2  A    between atoms: C6_6  and  C11_11 
REMARK    3  A    between atoms: C7_7  and  C8_8 
REMARK    4  A    between atoms: C8_8  and  C11_11 
REMARK    5  A    between atoms: C9_9  and  C11_11 
REMARK    6  A    between atoms: C10_10  and  C11_11 
ROOT
HETATM    1  C11 UNL     1     -32.335   7.891   1.856  1.00 20.00    -0.025 C 
ENDROOT
BRANCH   1   2
HETATM    2  C6  UNL     1     -31.191   8.392   2.817  1.00 20.00     0.006 C 
HETATM    3  C2  UNL     1     -31.638   9.077   4.106  1.00 20.00     0.006 C 
ENDBRANCH   1   2
BRANCH   1   4
HETATM    4  C8  UNL     1     -33.692   8.019   2.632  1.00 20.00     0.011 C 
BRANCH   4   5
HETATM    5  C7  UNL     1     -33.844   7.144   3.887  1.00 20.00     0.000 C 
BRANCH   5   6
HETATM    6  C5  UNL     1     -35.148   6.342   3.841  1.00 20.00    -0.005 C 
HETATM    7  C1  UNL     1     -34.950   4.928   4.361  1.00 20.00     0.005 C 
ENDBRANCH   5   6
ENDBRANCH   4   5
ENDBRANCH   1   4
BRANCH   1   8
HETATM    8  C9  UNL     1     -31.998   6.404   1.503  1.00 20.00     0.124 C 
HETATM    9 CL12 UNL     1     -33.313   5.449   0.766  1.00 20.00    -0.130 Cl
ENDBRANCH   1   8
BRANCH   1  10
HETATM   10  C10 UNL     1     -32.361   8.783   0.539  1.00 20.00    -0.013 C 
HETATM   11  C3  UNL     1     -32.782  10.243   0.786  1.00 20.00     0.010 C 
HETATM   12  C4  UNL     1     -31.060   8.807  -0.275  1.00 20.00     0.010 C 
ENDBRANCH   1  10
TORSDOF 6
ENDMDL
MODEL 6
REMARK VINA RESULT:       0.6      1.961      4.877
REMARK  6 active torsions:
REMARK  status: ('A' for Active; 'I' for Inactive)
REMARK    1  A    between atoms: C5_5  and  C7_7 
REMARK    2  A    between atoms: C6_6  and  C11_11 
REMARK    3  A    between atoms: C7_7  and  C8_8 
REMARK    4  A    between atoms: C8_8  and  C11_11 
REMARK    5  A    between atoms: C9_9  and  C11_11 
REMARK    6  A    between atoms: C10_10  and  C11_11 
ROOT
HETATM    1  C11 UNL     1     -33.401   6.497   3.174  1.00 20.00    -0.025 C 
ENDROOT
BRANCH   1   2
HETATM    2  C6  UNL     1     -34.973   6.563   3.242  1.00 20.00     0.006 C 
HETATM    3  C2  UNL     1     -35.632   5.874   4.434  1.00 20.00     0.006 C 
ENDBRANCH   1   2
BRANCH   1   4
HETATM    4  C8  UNL     1     -32.958   5.135   3.814  1.00 20.00     0.011 C 
BRANCH   4   5
HETATM    5  C7  UNL     1     -33.987   3.993   3.763  1.00 20.00     0.000 C 
BRANCH   5   6
HETATM    6  C5  UNL     1     -33.451   2.741   4.462  1.00 20.00    -0.005 C 
HETATM    7  C1  UNL     1     -32.593   3.100   5.664  1.00 20.00     0.005 C 
ENDBRANCH   5   6
ENDBRANCH   4   5
ENDBRANCH   1   4
BRANCH   1   8
HETATM    8  C9  UNL     1     -32.868   7.726   3.983  1.00 20.00     0.124 C 
HETATM    9 CL12 UNL     1     -33.919   8.324   5.295  1.00 20.00    -0.130 Cl
ENDBRANCH   1   8
BRANCH   1  10
HETATM   10  C10 UNL     1     -32.923   6.579   1.658  1.00 20.00    -0.013 C 
HETATM   11  C3  UNL     1     -31.975   7.756   1.368  1.00 20.00     0.010 C 
HETATM   12  C4  UNL     1     -32.270   5.308   1.097  1.00 20.00     0.010 C 
ENDBRANCH   1  10
TORSDOF 6
ENDMDL
MODEL 7
REMARK VINA RESULT:       0.6      1.658      4.314
REMARK  6 active torsions:
REMARK  status: ('A' for Active; 'I' for Inactive)
REMARK    1  A    between atoms: C5_5  and  C7_7 
REMARK    2  A    between atoms: C6_6  and  C11_11 
REMARK    3  A    between atoms: C7_7  and  C8_8 
REMARK    4  A    between atoms: C8_8  and  C11_11 
REMARK    5  A    between atoms: C9_9  and  C11_11 
REMARK    6  A    between atoms: C10_10  and  C11_11 
ROOT
HETATM    1  C11 UNL     1     -33.326   6.206   2.581  1.00 20.00    -0.025 C 
ENDROOT
BRANCH   1   2
HETATM    2  C6  UNL     1     -33.217   5.637   1.116  1.00 20.00     0.006 C 
HETATM    3  C2  UNL     1     -31.950   4.855   0.782  1.00 20.00     0.006 C 
ENDBRANCH   1   2
BRANCH   1   4
HETATM    4  C8  UNL     1     -32.911   5.056   3.565  1.00 20.00     0.011 C 
BRANCH   4   5
HETATM    5  C7  UNL     1     -33.954   3.952   3.801  1.00 20.00     0.000 C 
BRANCH   5   6
HETATM    6  C5  UNL     1     -33.320   2.734   4.477  1.00 20.00    -0.005 C 
HETATM    7  C1  UNL     1     -32.668   3.108   5.798  1.00 20.00     0.005 C 
ENDBRANCH   5   6
ENDBRANCH   4   5
ENDBRANCH   1   4
BRANCH   1   8
HETATM    8  C9  UNL     1     -34.817   6.639   2.781  1.00 20.00     0.124 C 
HETATM    9 CL12 UNL     1     -35.549   6.249   4.361  1.00 20.00    -0.130 Cl
ENDBRANCH   1   8
BRANCH   1  10
HETATM   10  C10 UNL     1     -32.356   7.456   2.747  1.00 20.00    -0.013 C 
HETATM   11  C3  UNL     1     -32.289   8.360   1.503  1.00 20.00     0.010 C 
HETATM   12  C4  UNL     1     -32.632   8.356   3.960  1.00 20.00     0.010 C 
ENDBRANCH   1  10
TORSDOF 6
ENDMDL
MODEL 8
REMARK VINA RESULT:       0.7      1.125      2.908
REMARK  6 active torsions:
REMARK  status: ('A' for Active; 'I' for Inactive)
REMARK    1  A    between atoms: C5_5  and  C7_7 
REMARK    2  A    between atoms: C6_6  and  C11_11 
REMARK    3  A    between atoms: C7_7  and  C8_8 
REMARK    4  A    between atoms: C8_8  and  C11_11 
REMARK    5  A    between atoms: C9_9  and  C11_11 
REMARK    6  A    between atoms: C10_10  and  C11_11 
ROOT
HETATM    1  C11 UNL     1     -33.667   6.867   2.878  1.00 20.00    -0.025 C 
ENDROOT
BRANCH   1   2
HETATM    2  C6  UNL     1     -32.738   7.278   4.083  1.00 20.00     0.006 C 
HETATM    3  C2  UNL     1     -33.325   8.265   5.088  1.00 20.00     0.006 C 
ENDBRANCH   1   2
BRANCH   1   4
HETATM    4  C8  UNL     1     -33.382   7.865   1.702  1.00 20.00     0.011 C 
BRANCH   4   5
HETATM    5  C7  UNL     1     -31.952   8.424   1.615  1.00 20.00     0.000 C 
BRANCH   5   6
HETATM    6  C5  UNL     1     -31.736   9.175   0.299  1.00 20.00    -0.005 C 
HETATM    7  C1  UNL     1     -32.664  10.374   0.184  1.00 20.00     0.005 C 
ENDBRANCH   5   6
ENDBRANCH   4   5
ENDBRANCH   1   4
BRANCH   1   8
HETATM    8  C9  UNL     1     -35.140   6.975   3.395  1.00 20.00     0.124 C 
HETATM    9 CL12 UNL     1     -35.706   5.651   4.450  1.00 20.00    -0.130 Cl
ENDBRANCH   1   8
BRANCH   1  10
HETATM   10  C10 UNL     1     -33.341   5.374   2.431  1.00 20.00    -0.013 C 
HETATM   11  C3  UNL     1     -32.173   5.265   1.435  1.00 20.00     0.010 C 
HETATM   12  C4  UNL     1     -33.073   4.383   3.572  1.00 20.00     0.010 C 
ENDBRANCH   1  10
TORSDOF 6
ENDMDL
MODEL 9
REMARK VINA RESULT:       0.7      1.414      2.907
REMARK  6 active torsions:
REMARK  status: ('A' for Active; 'I' for Inactive)
REMARK    1  A    between atoms: C5_5  and  C7_7 
REMARK    2  A    between atoms: C6_6  and  C11_11 
REMARK    3  A    between atoms: C7_7  and  C8_8 
REMARK    4  A    between atoms: C8_8  and  C11_11 
REMARK    5  A    between atoms: C9_9  and  C11_11 
REMARK    6  A    between atoms: C10_10  and  C11_11 
ROOT
HETATM    1  C11 UNL     1     -33.123   5.938   2.275  1.00 20.00    -0.025 C 
ENDROOT
BRANCH   1   2
HETATM    2  C6  UNL     1     -32.817   4.988   3.494  1.00 20.00     0.006 C 
HETATM    3  C2  UNL     1     -33.947   4.061   3.933  1.00 20.00     0.006 C 
ENDBRANCH   1   2
BRANCH   1   4
HETATM    4  C8  UNL     1     -31.879   6.875   2.084  1.00 20.00     0.011 C 
BRANCH   4   5
HETATM    5  C7  UNL     1     -32.176   8.373   1.904  1.00 20.00     0.000 C 
BRANCH   5   6
HETATM    6  C5  UNL     1     -31.955   8.805   0.452  1.00 20.00    -0.005 C 
HETATM    7  C1  UNL     1     -32.567  10.169   0.179  1.00 20.00     0.005 C 
ENDBRANCH   5   6
ENDBRANCH   4   5
ENDBRANCH   1   4
BRANCH   1   8
HETATM    8  C9  UNL     1     -34.411   6.743   2.650  1.00 20.00     0.124 C 
HETATM    9 CL12 UNL     1     -34.414   7.527   4.253  1.00 20.00    -0.130 Cl
ENDBRANCH   1   8
BRANCH   1  10
HETATM   10  C10 UNL     1     -33.371   5.070   0.964  1.00 20.00    -0.013 C 
HETATM   11  C3  UNL     1     -34.173   5.805  -0.125  1.00 20.00     0.010 C 
HETATM   12  C4  UNL     1     -32.113   4.491   0.303  1.00 20.00     0.010 C 
ENDBRANCH   1  10
TORSDOF 6
ENDMDL
