MODEL 1
REMARK VINA RESULT:      -1.7      0.000      0.000
REMARK  4 active torsions:
REMARK  status: ('A' for Active; 'I' for Inactive)
REMARK    1  A    between atoms: C2_2  and  C6_6 
REMARK    2  A    between atoms: C2_2  and  C7_7 
REMARK    3  A    between atoms: C7_7  and  C8_8 
REMARK    4  A    between atoms: C8_8  and  C9_9 
ROOT
HETATM    1  C7  UNL     1     -33.382   6.672   3.499  1.00 20.00     0.039 C 
ENDROOT
BRANCH   1   2
HETATM    2  C2  UNL     1     -34.779   6.136   3.749  1.00 20.00    -0.089 C 
HETATM    3  C1  UNL     1     -35.860   6.800   3.307  1.00 20.00     0.014 C 
BRANCH   2   4
HETATM    4  C6  UNL     1     -34.928   4.832   4.500  1.00 20.00     0.029 C 
HETATM    5  C3  UNL     1     -33.807   3.843   4.214  1.00 20.00     0.010 C 
ENDBRANCH   2   4
ENDBRANCH   1   2
BRANCH   1   6
HETATM    6  C8  UNL     1     -33.033   6.911   2.010  1.00 20.00     0.003 C 
HETATM    7  C4  UNL     1     -32.639   5.599   1.313  1.00 20.00     0.011 C 
BRANCH   6   8
HETATM    8  C9  UNL     1     -31.943   7.996   1.793  1.00 20.00     0.082 C 
HETATM    9  C5  UNL     1     -32.356   9.074   0.796  1.00 20.00     0.027 C 
HETATM   10 CL10 UNL     1     -31.439   8.781   3.323  1.00 20.00    -0.125 Cl
ENDBRANCH   6   8
ENDBRANCH   1   6
TORSDOF 4
ENDMDL
MODEL 2
REMARK VINA RESULT:      -1.7      1.361      4.472
REMARK  4 active torsions:
REMARK  status: ('A' for Active; 'I' for Inactive)
REMARK    1  A    between atoms: C2_2  and  C6_6 
REMARK    2  A    between atoms: C2_2  and  C7_7 
REMARK    3  A    between atoms: C7_7  and  C8_8 
REMARK    4  A    between atoms: C8_8  and  C9_9 
ROOT
HETATM    1  C7  UNL     1     -32.864   6.842   1.518  1.00 20.00     0.039 C 
ENDROOT
BRANCH   1   2
HETATM    2  C2  UNL     1     -32.010   8.095   1.471  1.00 20.00    -0.089 C 
HETATM    3  C1  UNL     1     -31.273   8.465   2.531  1.00 20.00     0.014 C 
BRANCH   2   4
HETATM    4  C6  UNL     1     -32.002   8.915   0.200  1.00 20.00     0.029 C 
HETATM    5  C3  UNL     1     -32.623  10.295   0.373  1.00 20.00     0.010 C 
ENDBRANCH   2   4
ENDBRANCH   1   2
BRANCH   1   6
HETATM    6  C8  UNL     1     -33.183   6.325   2.942  1.00 20.00     0.003 C 
HETATM    7  C4  UNL     1     -33.448   4.811   2.940  1.00 20.00     0.011 C 
BRANCH   6   8
HETATM    8  C9  UNL     1     -34.348   7.085   3.633  1.00 20.00     0.082 C 
HETATM    9  C5  UNL     1     -35.460   6.164   4.125  1.00 20.00     0.027 C 
HETATM   10 CL10 UNL     1     -33.792   8.105   4.996  1.00 20.00    -0.125 Cl
ENDBRANCH   6   8
ENDBRANCH   1   6
TORSDOF 4
ENDMDL
MODEL 3
REMARK VINA RESULT:      -1.5      1.794      4.664
REMARK  4 active torsions:
REMARK  status: ('A' for Active; 'I' for Inactive)
REMARK    1  A    between atoms: C2_2  and  C6_6 
REMARK    2  A    between atoms: C2_2  and  C7_7 
REMARK    3  A    between atoms: C7_7  and  C8_8 
REMARK    4  A    between atoms: C8_8  and  C9_9 
ROOT
HETATM    1  C7  UNL     1     -33.297   7.490   2.227  1.00 20.00     0.039 C 
ENDROOT
BRANCH   1   2
HETATM    2  C2  UNL     1     -32.071   8.294   1.837  1.00 20.00    -0.089 C 
HETATM    3  C1  UNL     1     -31.084   8.514   2.721  1.00 20.00     0.014 C 
BRANCH   2   4
HETATM    4  C6  UNL     1     -31.982   8.837   0.429  1.00 20.00     0.029 C 
HETATM    5  C3  UNL     1     -32.603  10.218   0.278  1.00 20.00     0.010 C 
ENDBRANCH   2   4
ENDBRANCH   1   2
BRANCH   1   6
HETATM    6  C8  UNL     1     -33.028   5.994   2.522  1.00 20.00     0.003 C 
HETATM    7  C4  UNL     1     -32.568   5.250   1.259  1.00 20.00     0.011 C 
BRANCH   6   8
HETATM    8  C9  UNL     1     -34.230   5.264   3.181  1.00 20.00     0.082 C 
HETATM    9  C5  UNL     1     -33.814   4.089   4.061  1.00 20.00     0.027 C 
HETATM   10 CL10 UNL     1     -35.265   6.369   4.140  1.00 20.00    -0.125 Cl
ENDBRANCH   6   8
ENDBRANCH   1   6
TORSDOF 4
ENDMDL
MODEL 4
REMARK VINA RESULT:      -1.2      2.206      4.819
REMARK  4 active torsions:
REMARK  status: ('A' for Active; 'I' for Inactive)
REMARK    1  A    between atoms: C2_2  and  C6_6 
REMARK    2  A    between atoms: C2_2  and  C7_7 
REMARK    3  A    between atoms: C7_7  and  C8_8 
REMARK    4  A    between atoms: C8_8  and  C9_9 
ROOT
HETATM    1  C7  UNL     1     -32.053   7.983   2.319  1.00 20.00     0.039 C 
ENDROOT
BRANCH   1   2
HETATM    2  C2  UNL     1     -31.935   8.834   1.069  1.00 20.00    -0.089 C 
HETATM    3  C1  UNL     1     -31.109   8.478   0.071  1.00 20.00     0.014 C 
BRANCH   2   4
HETATM    4  C6  UNL     1     -32.773  10.089   0.967  1.00 20.00     0.029 C 
HETATM    5  C3  UNL     1     -32.987  10.553  -0.467  1.00 20.00     0.010 C 
ENDBRANCH   2   4
ENDBRANCH   1   2
BRANCH   1   6
HETATM    6  C8  UNL     1     -33.437   7.323   2.529  1.00 20.00     0.003 C 
HETATM    7  C4  UNL     1     -33.949   7.542   3.961  1.00 20.00     0.011 C 
BRANCH   6   8
HETATM    8  C9  UNL     1     -33.467   5.814   2.160  1.00 20.00     0.082 C 
HETATM    9  C5  UNL     1     -32.191   5.335   1.476  1.00 20.00     0.027 C 
HETATM   10 CL10 UNL     1     -33.796   4.766   3.576  1.00 20.00    -0.125 Cl
ENDBRANCH   6   8
ENDBRANCH   1   6
TORSDOF 4
ENDMDL
MODEL 5
REMARK VINA RESULT:      -1.2      1.482      2.210
REMARK  4 active torsions:
REMARK  status: ('A' for Active; 'I' for Inactive)
REMARK    1  A    between atoms: C2_2  and  C6_6 
REMARK    2  A    between atoms: C2_2  and  C7_7 
REMARK    3  A    between atoms: C7_7  and  C8_8 
REMARK    4  A    between atoms: C8_8  and  C9_9 
ROOT
HETATM    1  C7  UNL     1     -34.608   6.464   3.567  1.00 20.00     0.039 C 
ENDROOT
BRANCH   1   2
HETATM    2  C2  UNL     1     -34.715   5.079   4.176  1.00 20.00    -0.089 C 
HETATM    3  C1  UNL     1     -35.662   4.800   5.087  1.00 20.00     0.014 C 
BRANCH   2   4
HETATM    4  C6  UNL     1     -33.736   4.016   3.729  1.00 20.00     0.029 C 
HETATM    5  C3  UNL     1     -33.318   3.076   4.852  1.00 20.00     0.010 C 
ENDBRANCH   2   4
ENDBRANCH   1   2
BRANCH   1   6
HETATM    6  C8  UNL     1     -33.161   6.968   3.347  1.00 20.00     0.003 C 
HETATM    7  C4  UNL     1     -32.905   8.277   4.110  1.00 20.00     0.011 C 
BRANCH   6   8
HETATM    8  C9  UNL     1     -32.776   7.122   1.850  1.00 20.00     0.082 C 
HETATM    9  C5  UNL     1     -31.829   8.288   1.588  1.00 20.00     0.027 C 
HETATM   10 CL10 UNL     1     -32.061   5.628   1.166  1.00 20.00    -0.125 Cl
ENDBRANCH   6   8
ENDBRANCH   1   6
TORSDOF 4
ENDMDL
MODEL 6
REMARK VINA RESULT:      -1.0      1.796      4.692
REMARK  4 active torsions:
REMARK  status: ('A' for Active; 'I' for Inactive)
REMARK    1  A    between atoms: C2_2  and  C6_6 
REMARK    2  A    between atoms: C2_2  and  C7_7 
REMARK    3  A    between atoms: C7_7  and  C8_8 
REMARK    4  A    between atoms: C8_8  and  C9_9 
ROOT
HETATM    1  C7  UNL     1     -32.973   7.973   3.180  1.00 20.00     0.039 C 
ENDROOT
BRANCH   1   2
HETATM    2  C2  UNL     1     -32.307   8.457   1.906  1.00 20.00    -0.089 C 
HETATM    3  C1  UNL     1     -31.301   7.762   1.350  1.00 20.00     0.014 C 
BRANCH   2   4
HETATM    4  C6  UNL     1     -32.806   9.736   1.271  1.00 20.00     0.029 C 
HETATM    5  C3  UNL     1     -32.457   9.849  -0.206  1.00 20.00     0.010 C 
ENDBRANCH   2   4
ENDBRANCH   1   2
BRANCH   1   6
HETATM    6  C8  UNL     1     -33.926   6.766   2.999  1.00 20.00     0.003 C 
HETATM    7  C4  UNL     1     -35.037   6.768   4.061  1.00 20.00     0.011 C 
BRANCH   6   8
HETATM    8  C9  UNL     1     -33.195   5.396   2.971  1.00 20.00     0.082 C 
HETATM    9  C5  UNL     1     -33.964   4.289   3.686  1.00 20.00     0.027 C 
HETATM   10 CL10 UNL     1     -32.810   4.854   1.308  1.00 20.00    -0.125 Cl
ENDBRANCH   6   8
ENDBRANCH   1   6
TORSDOF 4
ENDMDL
MODEL 7
REMARK VINA RESULT:      -0.9      1.912      4.199
REMARK  4 active torsions:
REMARK  status: ('A' for Active; 'I' for Inactive)
REMARK    1  A    between atoms: C2_2  and  C6_6 
REMARK    2  A    between atoms: C2_2  and  C7_7 
REMARK    3  A    between atoms: C7_7  and  C8_8 
REMARK    4  A    between atoms: C8_8  and  C9_9 
ROOT
HETATM    1  C7  UNL     1     -33.614   5.584   2.013  1.00 20.00     0.039 C 
ENDROOT
BRANCH   1   2
HETATM    2  C2  UNL     1     -32.241   5.925   1.464  1.00 20.00    -0.089 C 
HETATM    3  C1  UNL     1     -31.581   5.059   0.678  1.00 20.00     0.014 C 
BRANCH   2   4
HETATM    4  C6  UNL     1     -31.635   7.266   1.816  1.00 20.00     0.029 C 
HETATM    5  C3  UNL     1     -32.343   8.437   1.150  1.00 20.00     0.010 C 
ENDBRANCH   2   4
ENDBRANCH   1   2
BRANCH   1   6
HETATM    6  C8  UNL     1     -33.697   5.508   3.557  1.00 20.00     0.003 C 
HETATM    7  C4  UNL     1     -34.005   4.078   4.028  1.00 20.00     0.011 C 
BRANCH   6   8
HETATM    8  C9  UNL     1     -34.700   6.518   4.176  1.00 20.00     0.082 C 
HETATM    9  C5  UNL     1     -34.101   7.904   4.397  1.00 20.00     0.027 C 
HETATM   10 CL10 UNL     1     -36.200   6.681   3.209  1.00 20.00    -0.125 Cl
ENDBRANCH   6   8
ENDBRANCH   1   6
TORSDOF 4
ENDMDL
MODEL 8
REMARK VINA RESULT:      -0.8      1.649      2.232
REMARK  4 active torsions:
REMARK  status: ('A' for Active; 'I' for Inactive)
REMARK    1  A    between atoms: C2_2  and  C6_6 
REMARK    2  A    between atoms: C2_2  and  C7_7 
REMARK    3  A    between atoms: C7_7  and  C8_8 
REMARK    4  A    between atoms: C8_8  and  C9_9 
ROOT
HETATM    1  C7  UNL     1     -32.364   8.318   3.044  1.00 20.00     0.039 C 
ENDROOT
BRANCH   1   2
HETATM    2  C2  UNL     1     -33.460   7.677   3.875  1.00 20.00    -0.089 C 
HETATM    3  C1  UNL     1     -33.782   8.168   5.083  1.00 20.00     0.014 C 
BRANCH   2   4
HETATM    4  C6  UNL     1     -34.185   6.476   3.310  1.00 20.00     0.029 C 
HETATM    5  C3  UNL     1     -35.387   6.054   4.145  1.00 20.00     0.010 C 
ENDBRANCH   2   4
ENDBRANCH   1   2
BRANCH   1   6
HETATM    6  C8  UNL     1     -32.482   8.083   1.519  1.00 20.00     0.003 C 
HETATM    7  C4  UNL     1     -31.691   6.840   1.082  1.00 20.00     0.011 C 
BRANCH   6   8
HETATM    8  C9  UNL     1     -32.078   9.317   0.667  1.00 20.00     0.082 C 
HETATM    9  C5  UNL     1     -32.413   9.163  -0.814  1.00 20.00     0.027 C 
HETATM   10 CL10 UNL     1     -32.804  10.839   1.271  1.00 20.00    -0.125 Cl
ENDBRANCH   6   8
ENDBRANCH   1   6
TORSDOF 4
ENDMDL
MODEL 9
REMARK VINA RESULT:      -0.8      1.879      2.706
REMARK  4 active torsions:
REMARK  status: ('A' for Active; 'I' for Inactive)
REMARK    1  A    between atoms: C2_2  and  C6_6 
REMARK    2  A    between atoms: C2_2  and  C7_7 
REMARK    3  A    between atoms: C7_7  and  C8_8 
REMARK    4  A    between atoms: C8_8  and  C9_9 
ROOT
HETATM    1  C7  UNL     1     -33.891   7.439   2.402  1.00 20.00     0.039 C 
ENDROOT
BRANCH   1   2
HETATM    2  C2  UNL     1     -34.238   7.137   3.847  1.00 20.00    -0.089 C 
HETATM    3  C1  UNL     1     -33.737   7.885   4.845  1.00 20.00     0.014 C 
BRANCH   2   4
HETATM    4  C6  UNL     1     -35.165   5.980   4.141  1.00 20.00     0.029 C 
HETATM    5  C3  UNL     1     -34.454   4.634   4.173  1.00 20.00     0.010 C 
ENDBRANCH   2   4
ENDBRANCH   1   2
BRANCH   1   6
HETATM    6  C8  UNL     1     -32.410   7.194   2.023  1.00 20.00     0.003 C 
HETATM    7  C4  UNL     1     -31.766   8.462   1.440  1.00 20.00     0.011 C 
BRANCH   6   8
HETATM    8  C9  UNL     1     -32.204   5.987   1.069  1.00 20.00     0.082 C 
HETATM    9  C5  UNL     1     -31.443   4.832   1.713  1.00 20.00     0.027 C 
HETATM   10 CL10 UNL     1     -33.746   5.365   0.401  1.00 20.00    -0.125 Cl
ENDBRANCH   6   8
ENDBRANCH   1   6
TORSDOF 4
ENDMDL
