MODEL 1
REMARK VINA RESULT:      -0.7      0.000      0.000
REMARK  4 active torsions:
REMARK  status: ('A' for Active; 'I' for Inactive)
REMARK    1  A    between atoms: C5_5  and  C6_6 
REMARK    2  A    between atoms: C6_6  and  C9_9 
REMARK    3  A    between atoms: C7_7  and  C9_9 
REMARK    4  A    between atoms: C8_8  and  C9_9 
ROOT
HETATM    1  C4  UNL     1     -31.393   8.173   2.894  1.00 20.00     0.016 C 
HETATM    2  C9  UNL     1     -32.703   7.521   2.367  1.00 20.00    -0.029 C 
ENDROOT
BRANCH   2   3
HETATM    3  C6  UNL     1     -33.059   8.307   1.058  1.00 20.00     0.010 C 
BRANCH   3   4
HETATM    4  C5  UNL     1     -32.018   9.287   0.508  1.00 20.00    -0.004 C 
HETATM    5  C1  UNL     1     -32.686  10.535  -0.058  1.00 20.00     0.005 C 
ENDBRANCH   3   4
ENDBRANCH   2   3
BRANCH   2   6
HETATM    6  C7  UNL     1     -32.328   6.042   2.041  1.00 20.00     0.124 C 
HETATM    7 CL10 UNL     1     -33.065   5.358   0.572  1.00 20.00    -0.130 Cl
ENDBRANCH   2   6
BRANCH   2   8
HETATM    8  C8  UNL     1     -33.842   7.620   3.454  1.00 20.00    -0.014 C 
HETATM    9  C2  UNL     1     -33.353   8.123   4.823  1.00 20.00     0.010 C 
HETATM   10  C3  UNL     1     -34.612   6.308   3.677  1.00 20.00     0.010 C 
ENDBRANCH   2   8
TORSDOF 4
ENDMDL
MODEL 2
REMARK VINA RESULT:      -0.5      1.146      1.612
REMARK  4 active torsions:
REMARK  status: ('A' for Active; 'I' for Inactive)
REMARK    1  A    between atoms: C5_5  and  C6_6 
REMARK    2  A    between atoms: C6_6  and  C9_9 
REMARK    3  A    between atoms: C7_7  and  C9_9 
REMARK    4  A    between atoms: C8_8  and  C9_9 
ROOT
HETATM    1  C4  UNL     1     -31.832   5.424   1.872  1.00 20.00     0.016 C 
HETATM    2  C9  UNL     1     -32.988   6.461   1.781  1.00 20.00    -0.029 C 
ENDROOT
BRANCH   2   3
HETATM    3  C6  UNL     1     -32.296   7.863   1.889  1.00 20.00     0.010 C 
BRANCH   3   4
HETATM    4  C5  UNL     1     -31.803   8.519   0.596  1.00 20.00    -0.004 C 
HETATM    5  C1  UNL     1     -32.497   9.855   0.360  1.00 20.00     0.005 C 
ENDBRANCH   3   4
ENDBRANCH   2   3
BRANCH   2   6
HETATM    6  C7  UNL     1     -33.615   6.260   0.367  1.00 20.00     0.124 C 
HETATM    7 CL10 UNL     1     -33.738   4.575  -0.196  1.00 20.00    -0.130 Cl
ENDBRANCH   2   6
BRANCH   2   8
HETATM    8  C8  UNL     1     -34.035   6.218   2.936  1.00 20.00    -0.014 C 
HETATM    9  C2  UNL     1     -34.073   7.339   3.988  1.00 20.00     0.010 C 
HETATM   10  C3  UNL     1     -33.857   4.880   3.673  1.00 20.00     0.010 C 
ENDBRANCH   2   8
TORSDOF 4
ENDMDL
MODEL 3
REMARK VINA RESULT:      -0.4      1.759      4.358
REMARK  4 active torsions:
REMARK  status: ('A' for Active; 'I' for Inactive)
REMARK    1  A    between atoms: C5_5  and  C6_6 
REMARK    2  A    between atoms: C6_6  and  C9_9 
REMARK    3  A    between atoms: C7_7  and  C9_9 
REMARK    4  A    between atoms: C8_8  and  C9_9 
ROOT
HETATM    1  C4  UNL     1     -35.541   6.288   3.592  1.00 20.00     0.016 C 
HETATM    2  C9  UNL     1     -34.021   6.375   3.268  1.00 20.00    -0.029 C 
ENDROOT
BRANCH   2   3
HETATM    3  C6  UNL     1     -33.346   5.274   4.155  1.00 20.00     0.010 C 
BRANCH   3   4
HETATM    4  C5  UNL     1     -33.980   3.880   4.173  1.00 20.00    -0.004 C 
HETATM    5  C1  UNL     1     -33.075   2.875   4.874  1.00 20.00     0.005 C 
ENDBRANCH   3   4
ENDBRANCH   2   3
BRANCH   2   6
HETATM    6  C7  UNL     1     -33.900   6.018   1.754  1.00 20.00     0.124 C 
HETATM    7 CL10 UNL     1     -32.363   5.273   1.251  1.00 20.00    -0.130 Cl
ENDBRANCH   2   6
BRANCH   2   8
HETATM    8  C8  UNL     1     -33.474   7.821   3.584  1.00 20.00    -0.014 C 
HETATM    9  C2  UNL     1     -32.223   8.204   2.775  1.00 20.00     0.010 C 
HETATM   10  C3  UNL     1     -33.173   8.066   5.072  1.00 20.00     0.010 C 
ENDBRANCH   2   8
TORSDOF 4
ENDMDL
MODEL 4
REMARK VINA RESULT:      -0.4      1.190      1.903
REMARK  4 active torsions:
REMARK  status: ('A' for Active; 'I' for Inactive)
REMARK    1  A    between atoms: C5_5  and  C6_6 
REMARK    2  A    between atoms: C6_6  and  C9_9 
REMARK    3  A    between atoms: C7_7  and  C9_9 
REMARK    4  A    between atoms: C8_8  and  C9_9 
ROOT
HETATM    1  C4  UNL     1     -31.690   5.505   1.773  1.00 20.00     0.016 C 
HETATM    2  C9  UNL     1     -32.940   6.395   2.035  1.00 20.00    -0.029 C 
ENDROOT
BRANCH   2   3
HETATM    3  C6  UNL     1     -32.410   7.869   2.014  1.00 20.00     0.010 C 
BRANCH   3   4
HETATM    4  C5  UNL     1     -31.812   8.396   0.705  1.00 20.00    -0.004 C 
HETATM    5  C1  UNL     1     -32.402   9.753   0.340  1.00 20.00     0.005 C 
ENDBRANCH   3   4
ENDBRANCH   2   3
BRANCH   2   6
HETATM    6  C7  UNL     1     -33.895   6.131   0.830  1.00 20.00     0.124 C 
HETATM    7 CL10 UNL     1     -33.611   4.623  -0.073  1.00 20.00    -0.130 Cl
ENDBRANCH   2   6
BRANCH   2   8
HETATM    8  C8  UNL     1     -33.603   6.015   3.415  1.00 20.00    -0.014 C 
HETATM    9  C2  UNL     1     -33.920   4.517   3.562  1.00 20.00     0.010 C 
HETATM   10  C3  UNL     1     -34.883   6.805   3.735  1.00 20.00     0.010 C 
ENDBRANCH   2   8
TORSDOF 4
ENDMDL
MODEL 5
REMARK VINA RESULT:      -0.3      2.101      4.091
REMARK  4 active torsions:
REMARK  status: ('A' for Active; 'I' for Inactive)
REMARK    1  A    between atoms: C5_5  and  C6_6 
REMARK    2  A    between atoms: C6_6  and  C9_9 
REMARK    3  A    between atoms: C7_7  and  C9_9 
REMARK    4  A    between atoms: C8_8  and  C9_9 
ROOT
HETATM    1  C4  UNL     1     -33.866   5.823   1.174  1.00 20.00     0.016 C 
HETATM    2  C9  UNL     1     -33.189   6.298   2.492  1.00 20.00    -0.029 C 
ENDROOT
BRANCH   2   3
HETATM    3  C6  UNL     1     -32.743   4.986   3.224  1.00 20.00     0.010 C 
BRANCH   3   4
HETATM    4  C5  UNL     1     -33.838   4.069   3.778  1.00 20.00    -0.004 C 
HETATM    5  C1  UNL     1     -33.249   3.009   4.701  1.00 20.00     0.005 C 
ENDBRANCH   3   4
ENDBRANCH   2   3
BRANCH   2   6
HETATM    6  C7  UNL     1     -31.949   7.132   2.044  1.00 20.00     0.124 C 
HETATM    7 CL10 UNL     1     -32.303   8.655   1.193  1.00 20.00    -0.130 Cl
ENDBRANCH   2   6
BRANCH   2   8
HETATM    8  C8  UNL     1     -34.200   7.151   3.352  1.00 20.00    -0.014 C 
HETATM    9  C2  UNL     1     -33.554   7.854   4.558  1.00 20.00     0.010 C 
HETATM   10  C3  UNL     1     -35.417   6.359   3.858  1.00 20.00     0.010 C 
ENDBRANCH   2   8
TORSDOF 4
ENDMDL
MODEL 6
REMARK VINA RESULT:       0.0      1.820      3.694
REMARK  4 active torsions:
REMARK  status: ('A' for Active; 'I' for Inactive)
REMARK    1  A    between atoms: C5_5  and  C6_6 
REMARK    2  A    between atoms: C6_6  and  C9_9 
REMARK    3  A    between atoms: C7_7  and  C9_9 
REMARK    4  A    between atoms: C8_8  and  C9_9 
ROOT
HETATM    1  C4  UNL     1     -31.240   7.943   2.580  1.00 20.00     0.016 C 
HETATM    2  C9  UNL     1     -32.580   7.624   1.857  1.00 20.00    -0.029 C 
ENDROOT
BRANCH   2   3
HETATM    3  C6  UNL     1     -33.702   8.181   2.799  1.00 20.00     0.010 C 
BRANCH   3   4
HETATM    4  C5  UNL     1     -33.995   7.416   4.093  1.00 20.00    -0.004 C 
HETATM    5  C1  UNL     1     -35.172   6.464   3.912  1.00 20.00     0.005 C 
ENDBRANCH   3   4
ENDBRANCH   2   3
BRANCH   2   6
HETATM    6  C7  UNL     1     -32.530   8.427   0.520  1.00 20.00     0.124 C 
HETATM    7 CL10 UNL     1     -32.632  10.198   0.672  1.00 20.00    -0.130 Cl
ENDBRANCH   2   6
BRANCH   2   8
HETATM    8  C8  UNL     1     -32.716   6.072   1.614  1.00 20.00    -0.014 C 
HETATM    9  C2  UNL     1     -31.374   5.357   1.384  1.00 20.00     0.010 C 
HETATM   10  C3  UNL     1     -33.659   5.697   0.458  1.00 20.00     0.010 C 
ENDBRANCH   2   8
TORSDOF 4
ENDMDL
MODEL 7
REMARK VINA RESULT:       0.1      2.375      4.752
REMARK  4 active torsions:
REMARK  status: ('A' for Active; 'I' for Inactive)
REMARK    1  A    between atoms: C5_5  and  C6_6 
REMARK    2  A    between atoms: C6_6  and  C9_9 
REMARK    3  A    between atoms: C7_7  and  C9_9 
REMARK    4  A    between atoms: C8_8  and  C9_9 
ROOT
HETATM    1  C4  UNL     1     -33.190   7.557   4.151  1.00 20.00     0.016 C 
HETATM    2  C9  UNL     1     -33.583   6.439   3.142  1.00 20.00    -0.029 C 
ENDROOT
BRANCH   2   3
HETATM    3  C6  UNL     1     -32.962   5.122   3.723  1.00 20.00     0.010 C 
BRANCH   3   4
HETATM    4  C5  UNL     1     -33.903   3.941   3.980  1.00 20.00    -0.004 C 
HETATM    5  C1  UNL     1     -33.208   2.854   4.792  1.00 20.00     0.005 C 
ENDBRANCH   3   4
ENDBRANCH   2   3
BRANCH   2   6
HETATM    6  C7  UNL     1     -35.142   6.379   3.177  1.00 20.00     0.124 C 
HETATM    7 CL10 UNL     1     -35.862   5.742   4.676  1.00 20.00    -0.130 Cl
ENDBRANCH   2   6
BRANCH   2   8
HETATM    8  C8  UNL     1     -33.033   6.779   1.704  1.00 20.00    -0.014 C 
HETATM    9  C2  UNL     1     -32.350   5.593   1.002  1.00 20.00     0.010 C 
HETATM   10  C3  UNL     1     -32.067   7.975   1.668  1.00 20.00     0.010 C 
ENDBRANCH   2   8
TORSDOF 4
ENDMDL
MODEL 8
REMARK VINA RESULT:       0.3      1.293      3.752
REMARK  4 active torsions:
REMARK  status: ('A' for Active; 'I' for Inactive)
REMARK    1  A    between atoms: C5_5  and  C6_6 
REMARK    2  A    between atoms: C6_6  and  C9_9 
REMARK    3  A    between atoms: C7_7  and  C9_9 
REMARK    4  A    between atoms: C8_8  and  C9_9 
ROOT
HETATM    1  C4  UNL     1     -33.584   6.528   0.444  1.00 20.00     0.016 C 
HETATM    2  C9  UNL     1     -32.721   6.679   1.730  1.00 20.00    -0.029 C 
ENDROOT
BRANCH   2   3
HETATM    3  C6  UNL     1     -33.749   6.761   2.910  1.00 20.00     0.010 C 
BRANCH   3   4
HETATM    4  C5  UNL     1     -34.162   5.452   3.591  1.00 20.00    -0.004 C 
HETATM    5  C1  UNL     1     -35.440   5.636   4.402  1.00 20.00     0.005 C 
ENDBRANCH   3   4
ENDBRANCH   2   3
BRANCH   2   6
HETATM    6  C7  UNL     1     -31.878   5.369   1.819  1.00 20.00     0.124 C 
HETATM    7 CL10 UNL     1     -31.692   4.459   0.300  1.00 20.00    -0.130 Cl
ENDBRANCH   2   6
BRANCH   2   8
HETATM    8  C8  UNL     1     -31.813   7.965   1.634  1.00 20.00    -0.014 C 
HETATM    9  C2  UNL     1     -31.542   8.638   2.990  1.00 20.00     0.010 C 
HETATM   10  C3  UNL     1     -32.344   9.037   0.668  1.00 20.00     0.010 C 
ENDBRANCH   2   8
TORSDOF 4
ENDMDL
MODEL 9
REMARK VINA RESULT:       0.4      1.238      3.768
REMARK  4 active torsions:
REMARK  status: ('A' for Active; 'I' for Inactive)
REMARK    1  A    between atoms: C5_5  and  C6_6 
REMARK    2  A    between atoms: C6_6  and  C9_9 
REMARK    3  A    between atoms: C7_7  and  C9_9 
REMARK    4  A    between atoms: C8_8  and  C9_9 
ROOT
HETATM    1  C4  UNL     1     -33.694   6.153   0.536  1.00 20.00     0.016 C 
HETATM    2  C9  UNL     1     -32.706   6.448   1.701  1.00 20.00    -0.029 C 
ENDROOT
BRANCH   2   3
HETATM    3  C6  UNL     1     -33.413   5.905   2.990  1.00 20.00     0.010 C 
BRANCH   3   4
HETATM    4  C5  UNL     1     -34.384   6.837   3.721  1.00 20.00    -0.004 C 
HETATM    5  C1  UNL     1     -35.600   6.072   4.229  1.00 20.00     0.005 C 
ENDBRANCH   3   4
ENDBRANCH   2   3
BRANCH   2   6
HETATM    6  C7  UNL     1     -31.426   5.618   1.378  1.00 20.00     0.124 C 
HETATM    7 CL10 UNL     1     -31.631   4.300   0.199  1.00 20.00    -0.130 Cl
ENDBRANCH   2   6
BRANCH   2   8
HETATM    8  C8  UNL     1     -32.406   7.995   1.788  1.00 20.00    -0.014 C 
HETATM    9  C2  UNL     1     -32.103   8.647   0.428  1.00 20.00     0.010 C 
HETATM   10  C3  UNL     1     -31.268   8.360   2.755  1.00 20.00     0.010 C 
ENDBRANCH   2   8
TORSDOF 4
ENDMDL
