MODEL 1
REMARK VINA RESULT:      -1.0      0.000      0.000
REMARK  2 active torsions:
REMARK  status: ('A' for Active; 'I' for Inactive)
REMARK    1  A    between atoms: C3_3  and  C8_8 
REMARK    2  A    between atoms: C8_8  and  C9_9 
ROOT
HETATM    1  C1  UNL     1     -32.389   6.239   1.579  1.00 20.00     0.302 C 
HETATM    2  C2  UNL     1     -34.194   6.249   3.234  1.00 20.00     0.244 C 
HETATM    3  C3  UNL     1     -32.675   7.739   1.603  1.00 20.00     0.150 C 
HETATM    4  C4  UNL     1     -33.262   7.280   3.899  1.00 20.00     0.150 C 
HETATM    5  C5  UNL     1     -34.810   5.258   4.218  1.00 20.00     0.045 C 
HETATM    6  C6  UNL     1     -33.939   8.090   4.999  1.00 20.00     0.042 C 
HETATM    7  N10 UNL     1     -33.459   5.473   2.220  1.00 20.00     0.092 N 
HETATM    8  O11 UNL     1     -32.767   8.232   2.943  1.00 20.00    -0.377 OA
HETATM    9  H30 UNL     1     -34.116   5.143   1.497  1.00 20.00     0.316 HD
ENDROOT
BRANCH   3  10
HETATM   10  C8  UNL     1     -31.577   8.526   0.900  1.00 20.00     0.033 C 
BRANCH  10  11
HETATM   11  C9  UNL     1     -32.153   9.427  -0.187  1.00 20.00    -0.002 C 
HETATM   12  C7  UNL     1     -32.721  10.707   0.405  1.00 20.00     0.005 C 
ENDBRANCH  10  11
ENDBRANCH   3  10
TORSDOF 2
ENDMDL
MODEL 2
REMARK VINA RESULT:      -0.3      1.715      5.028
REMARK  2 active torsions:
REMARK  status: ('A' for Active; 'I' for Inactive)
REMARK    1  A    between atoms: C3_3  and  C8_8 
REMARK    2  A    between atoms: C8_8  and  C9_9 
ROOT
HETATM    1  C1  UNL     1     -33.634   7.119   4.089  1.00 20.00     0.302 C 
HETATM    2  C2  UNL     1     -32.866   7.599   1.813  1.00 20.00     0.244 C 
HETATM    3  C3  UNL     1     -34.204   5.888   3.386  1.00 20.00     0.150 C 
HETATM    4  C4  UNL     1     -32.273   6.185   1.967  1.00 20.00     0.150 C 
HETATM    5  C5  UNL     1     -31.917   8.589   1.143  1.00 20.00     0.045 C 
HETATM    6  C6  UNL     1     -31.828   5.566   0.647  1.00 20.00     0.042 C 
HETATM    7  N10 UNL     1     -33.226   8.148   3.131  1.00 20.00     0.092 N 
HETATM    8  O11 UNL     1     -33.230   5.275   2.536  1.00 20.00    -0.377 OA
HETATM    9  H30 UNL     1     -33.993   8.830   3.022  1.00 20.00     0.316 HD
ENDROOT
BRANCH   3  10
HETATM   10  C8  UNL     1     -34.663   4.838   4.389  1.00 20.00     0.033 C 
BRANCH  10  11
HETATM   11  C9  UNL     1     -33.955   3.508   4.158  1.00 20.00    -0.002 C 
HETATM   12  C7  UNL     1     -33.006   3.185   5.301  1.00 20.00     0.005 C 
ENDBRANCH  10  11
ENDBRANCH   3  10
TORSDOF 2
ENDMDL
MODEL 3
REMARK VINA RESULT:      -0.1      1.362      2.325
REMARK  2 active torsions:
REMARK  status: ('A' for Active; 'I' for Inactive)
REMARK    1  A    between atoms: C3_3  and  C8_8 
REMARK    2  A    between atoms: C8_8  and  C9_9 
ROOT
HETATM    1  C1  UNL     1     -33.844   7.964   3.130  1.00 20.00     0.302 C 
HETATM    2  C2  UNL     1     -33.303   5.581   3.285  1.00 20.00     0.244 C 
HETATM    3  C3  UNL     1     -32.447   8.002   2.513  1.00 20.00     0.150 C 
HETATM    4  C4  UNL     1     -33.046   5.781   1.779  1.00 20.00     0.150 C 
HETATM    5  C5  UNL     1     -34.046   4.288   3.610  1.00 20.00     0.045 C 
HETATM    6  C6  UNL     1     -32.271   4.636   1.137  1.00 20.00     0.042 C 
HETATM    7  N10 UNL     1     -34.096   6.699   3.822  1.00 20.00     0.092 N 
HETATM    8  O11 UNL     1     -32.282   6.973   1.532  1.00 20.00    -0.377 OA
HETATM    9  H30 UNL     1     -33.888   6.817   4.826  1.00 20.00     0.316 HD
ENDROOT
BRANCH   3  10
HETATM   10  C8  UNL     1     -32.177   9.335   1.829  1.00 20.00     0.033 C 
BRANCH  10  11
HETATM   11  C9  UNL     1     -32.016   9.161   0.323  1.00 20.00    -0.002 C 
HETATM   12  C7  UNL     1     -32.793  10.221  -0.440  1.00 20.00     0.005 C 
ENDBRANCH  10  11
ENDBRANCH   3  10
TORSDOF 2
ENDMDL
MODEL 4
REMARK VINA RESULT:       0.4      1.922      4.736
REMARK  2 active torsions:
REMARK  status: ('A' for Active; 'I' for Inactive)
REMARK    1  A    between atoms: C3_3  and  C8_8 
REMARK    2  A    between atoms: C8_8  and  C9_9 
ROOT
HETATM    1  C1  UNL     1     -33.234   5.031   1.901  1.00 20.00     0.302 C 
HETATM    2  C2  UNL     1     -32.454   7.307   2.362  1.00 20.00     0.244 C 
HETATM    3  C3  UNL     1     -33.312   5.000   3.426  1.00 20.00     0.150 C 
HETATM    4  C4  UNL     1     -33.780   7.351   3.145  1.00 20.00     0.150 C 
HETATM    5  C5  UNL     1     -32.176   8.574   1.558  1.00 20.00     0.045 C 
HETATM    6  C6  UNL     1     -33.879   8.531   4.106  1.00 20.00     0.042 C 
HETATM    7  N10 UNL     1     -32.453   6.172   1.422  1.00 20.00     0.092 N 
HETATM    8  O11 UNL     1     -33.959   6.168   3.940  1.00 20.00    -0.377 OA
HETATM    9  H30 UNL     1     -31.482   5.868   1.252  1.00 20.00     0.316 HD
ENDROOT
BRANCH   3  10
HETATM   10  C8  UNL     1     -34.093   3.789   3.918  1.00 20.00     0.033 C 
BRANCH  10  11
HETATM   11  C9  UNL     1     -33.163   2.737   4.514  1.00 20.00    -0.002 C 
HETATM   12  C7  UNL     1     -32.657   3.163   5.883  1.00 20.00     0.005 C 
ENDBRANCH  10  11
ENDBRANCH   3  10
TORSDOF 2
ENDMDL
MODEL 5
REMARK VINA RESULT:       0.7      1.005      1.038
REMARK  2 active torsions:
REMARK  status: ('A' for Active; 'I' for Inactive)
REMARK    1  A    between atoms: C3_3  and  C8_8 
REMARK    2  A    between atoms: C8_8  and  C9_9 
ROOT
HETATM    1  C1  UNL     1     -31.670   6.190   1.301  1.00 20.00     0.302 C 
HETATM    2  C2  UNL     1     -33.681   5.427   2.471  1.00 20.00     0.244 C 
HETATM    3  C3  UNL     1     -32.507   7.462   1.180  1.00 20.00     0.150 C 
HETATM    4  C4  UNL     1     -33.406   6.704   3.288  1.00 20.00     0.150 C 
HETATM    5  C5  UNL     1     -34.086   4.229   3.327  1.00 20.00     0.045 C 
HETATM    6  C6  UNL     1     -34.586   7.138   4.151  1.00 20.00     0.042 C 
HETATM    7  N10 UNL     1     -32.484   5.043   1.703  1.00 20.00     0.092 N 
HETATM    8  O11 UNL     1     -33.100   7.817   2.432  1.00 20.00    -0.377 OA
HETATM    9  H30 UNL     1     -32.769   4.520   0.861  1.00 20.00     0.316 HD
ENDROOT
BRANCH   3  10
HETATM   10  C8  UNL     1     -31.661   8.643   0.723  1.00 20.00     0.033 C 
BRANCH  10  11
HETATM   11  C9  UNL     1     -32.456   9.943   0.768  1.00 20.00    -0.002 C 
HETATM   12  C7  UNL     1     -32.286  10.736  -0.518  1.00 20.00     0.005 C 
ENDBRANCH  10  11
ENDBRANCH   3  10
TORSDOF 2
ENDMDL
MODEL 6
REMARK VINA RESULT:       1.4      1.174      4.393
REMARK  2 active torsions:
REMARK  status: ('A' for Active; 'I' for Inactive)
REMARK    1  A    between atoms: C3_3  and  C8_8 
REMARK    2  A    between atoms: C8_8  and  C9_9 
ROOT
HETATM    1  C1  UNL     1     -32.819   6.573   2.175  1.00 20.00     0.302 C 
HETATM    2  C2  UNL     1     -31.530   8.268   0.965  1.00 20.00     0.244 C 
HETATM    3  C3  UNL     1     -33.018   7.745   3.134  1.00 20.00     0.150 C 
HETATM    4  C4  UNL     1     -32.860   9.036   1.101  1.00 20.00     0.150 C 
HETATM    5  C5  UNL     1     -30.884   8.405  -0.410  1.00 20.00     0.045 C 
HETATM    6  C6  UNL     1     -32.732  10.527   0.802  1.00 20.00     0.042 C 
HETATM    7  N10 UNL     1     -31.742   6.833   1.219  1.00 20.00     0.092 N 
HETATM    8  O11 UNL     1     -33.390   8.936   2.432  1.00 20.00    -0.377 OA
HETATM    9  H30 UNL     1     -30.868   6.414   1.574  1.00 20.00     0.316 HD
ENDROOT
BRANCH   3  10
HETATM   10  C8  UNL     1     -34.113   7.452   4.151  1.00 20.00     0.033 C 
BRANCH  10  11
HETATM   11  C9  UNL     1     -35.132   6.463   3.595  1.00 20.00    -0.002 C 
HETATM   12  C7  UNL     1     -35.249   5.236   4.485  1.00 20.00     0.005 C 
ENDBRANCH  10  11
ENDBRANCH   3  10
TORSDOF 2
ENDMDL
MODEL 7
REMARK VINA RESULT:       1.5      1.952      3.468
REMARK  2 active torsions:
REMARK  status: ('A' for Active; 'I' for Inactive)
REMARK    1  A    between atoms: C3_3  and  C8_8 
REMARK    2  A    between atoms: C8_8  and  C9_9 
ROOT
HETATM    1  C1  UNL     1     -32.309   7.364   1.691  1.00 20.00     0.302 C 
HETATM    2  C2  UNL     1     -33.170   7.416   3.983  1.00 20.00     0.244 C 
HETATM    3  C3  UNL     1     -32.554   5.869   1.882  1.00 20.00     0.150 C 
HETATM    4  C4  UNL     1     -34.331   6.654   3.315  1.00 20.00     0.150 C 
HETATM    5  C5  UNL     1     -33.629   8.479   4.978  1.00 20.00     0.045 C 
HETATM    6  C6  UNL     1     -35.264   5.974   4.311  1.00 20.00     0.042 C 
HETATM    7  N10 UNL     1     -32.344   8.085   2.964  1.00 20.00     0.092 N 
HETATM    8  O11 UNL     1     -33.846   5.618   2.444  1.00 20.00    -0.377 OA
HETATM    9  H30 UNL     1     -31.380   8.190   3.318  1.00 20.00     0.316 HD
ENDROOT
BRANCH   3  10
HETATM   10  C8  UNL     1     -32.478   5.120   0.558  1.00 20.00     0.033 C 
BRANCH  10  11
HETATM   11  C9  UNL     1     -33.838   5.078  -0.131  1.00 20.00    -0.002 C 
HETATM   12  C7  UNL     1     -34.131   3.692  -0.684  1.00 20.00     0.005 C 
ENDBRANCH  10  11
ENDBRANCH   3  10
TORSDOF 2
ENDMDL
