MODEL 1
REMARK VINA RESULT:      -0.9      0.000      0.000
REMARK  2 active torsions:
REMARK  status: ('A' for Active; 'I' for Inactive)
REMARK    1  A    between atoms: C5_5  and  C7_7 
REMARK    2  A    between atoms: C7_7  and  N8_8 
ROOT
HETATM    1  C1  UNL     1     -32.214   8.769   1.123  1.00 20.00     0.332 C 
HETATM    2  N8  UNL     1     -32.191   7.948   1.967  1.00 20.00    -0.245 NA
HETATM    3  O9  UNL     1     -32.236   9.589   0.281  1.00 20.00    -0.260 OA
ENDROOT
BRANCH   2   4
HETATM    4  C7  UNL     1     -33.254   6.955   1.880  1.00 20.00     0.190 C 
BRANCH   4   5
HETATM    5  C5  UNL     1     -33.726   6.629   3.293  1.00 20.00     0.075 C 
HETATM    6  C3  UNL     1     -35.251   6.577   3.389  1.00 20.00     0.041 C 
HETATM    7  C2  UNL     1     -35.480   5.508   4.430  1.00 20.00     0.029 C 
HETATM    8  C4  UNL     1     -34.362   4.536   4.129  1.00 20.00     0.169 C 
HETATM    9  O10 UNL     1     -33.257   5.310   3.643  1.00 20.00    -0.379 OA
HETATM   10  C6  UNL     1     -33.123   7.618   4.294  1.00 20.00     0.048 C 
ENDBRANCH   4   5
ENDBRANCH   2   4
TORSDOF 2
ENDMDL
MODEL 2
REMARK VINA RESULT:      -0.7      2.333      4.409
REMARK  2 active torsions:
REMARK  status: ('A' for Active; 'I' for Inactive)
REMARK    1  A    between atoms: C5_5  and  C7_7 
REMARK    2  A    between atoms: C7_7  and  N8_8 
ROOT
HETATM    1  C1  UNL     1     -33.453   3.343   4.605  1.00 20.00     0.332 C 
HETATM    2  N8  UNL     1     -34.162   3.970   3.905  1.00 20.00    -0.245 NA
HETATM    3  O9  UNL     1     -32.744   2.718   5.303  1.00 20.00    -0.260 OA
ENDROOT
BRANCH   2   4
HETATM    4  C7  UNL     1     -34.711   5.174   4.515  1.00 20.00     0.190 C 
BRANCH   4   5
HETATM    5  C5  UNL     1     -34.519   6.336   3.545  1.00 20.00     0.075 C 
HETATM    6  C3  UNL     1     -33.647   7.441   4.141  1.00 20.00     0.041 C 
HETATM    7  C2  UNL     1     -32.913   7.971   2.933  1.00 20.00     0.029 C 
HETATM    8  C4  UNL     1     -32.697   6.713   2.124  1.00 20.00     0.169 C 
HETATM    9  O10 UNL     1     -33.817   5.854   2.381  1.00 20.00    -0.379 OA
HETATM   10  C6  UNL     1     -35.878   6.869   3.082  1.00 20.00     0.048 C 
ENDBRANCH   4   5
ENDBRANCH   2   4
TORSDOF 2
ENDMDL
MODEL 3
REMARK VINA RESULT:      -0.0      1.657      4.642
REMARK  2 active torsions:
REMARK  status: ('A' for Active; 'I' for Inactive)
REMARK    1  A    between atoms: C5_5  and  C7_7 
REMARK    2  A    between atoms: C7_7  and  N8_8 
ROOT
HETATM    1  C1  UNL     1     -34.744   6.532   3.944  1.00 20.00     0.332 C 
HETATM    2  N8  UNL     1     -33.943   7.317   3.589  1.00 20.00    -0.245 NA
HETATM    3  O9  UNL     1     -35.545   5.748   4.301  1.00 20.00    -0.260 OA
ENDROOT
BRANCH   2   4
HETATM    4  C7  UNL     1     -33.299   6.998   2.320  1.00 20.00     0.190 C 
BRANCH   4   5
HETATM    5  C5  UNL     1     -32.321   8.118   1.980  1.00 20.00     0.075 C 
HETATM    6  C3  UNL     1     -31.394   7.737   0.825  1.00 20.00     0.041 C 
HETATM    7  C2  UNL     1     -31.177   9.058   0.127  1.00 20.00     0.029 C 
HETATM    8  C4  UNL     1     -32.528   9.718   0.284  1.00 20.00     0.169 C 
HETATM    9  O10 UNL     1     -33.070   9.266   1.532  1.00 20.00    -0.379 OA
HETATM   10  C6  UNL     1     -31.537   8.533   3.229  1.00 20.00     0.048 C 
ENDBRANCH   4   5
ENDBRANCH   2   4
TORSDOF 2
ENDMDL
MODEL 4
REMARK VINA RESULT:       0.0      1.115      1.771
REMARK  2 active torsions:
REMARK  status: ('A' for Active; 'I' for Inactive)
REMARK    1  A    between atoms: C5_5  and  C7_7 
REMARK    2  A    between atoms: C7_7  and  N8_8 
ROOT
HETATM    1  C1  UNL     1     -32.205   8.897   1.029  1.00 20.00     0.332 C 
HETATM    2  N8  UNL     1     -31.956   7.835   1.472  1.00 20.00    -0.245 NA
HETATM    3  O9  UNL     1     -32.454   9.957   0.584  1.00 20.00    -0.260 OA
ENDROOT
BRANCH   2   4
HETATM    4  C7  UNL     1     -32.505   7.586   2.799  1.00 20.00     0.190 C 
BRANCH   4   5
HETATM    5  C5  UNL     1     -33.469   6.408   2.709  1.00 20.00     0.075 C 
HETATM    6  C3  UNL     1     -33.139   5.319   3.731  1.00 20.00     0.041 C 
HETATM    7  C2  UNL     1     -34.502   4.771   4.081  1.00 20.00     0.029 C 
HETATM    8  C4  UNL     1     -35.358   6.016   4.036  1.00 20.00     0.169 C 
HETATM    9  O10 UNL     1     -34.796   6.873   3.032  1.00 20.00    -0.379 OA
HETATM   10  C6  UNL     1     -33.503   5.859   1.280  1.00 20.00     0.048 C 
ENDBRANCH   4   5
ENDBRANCH   2   4
TORSDOF 2
ENDMDL
MODEL 5
REMARK VINA RESULT:       0.5      1.716      1.841
REMARK  2 active torsions:
REMARK  status: ('A' for Active; 'I' for Inactive)
REMARK    1  A    between atoms: C5_5  and  C7_7 
REMARK    2  A    between atoms: C7_7  and  N8_8 
ROOT
HETATM    1  C1  UNL     1     -32.491   5.821   1.164  1.00 20.00     0.332 C 
HETATM    2  N8  UNL     1     -32.240   6.750   1.843  1.00 20.00    -0.245 NA
HETATM    3  O9  UNL     1     -32.740   4.893   0.487  1.00 20.00    -0.260 OA
ENDROOT
BRANCH   2   4
HETATM    4  C7  UNL     1     -33.401   7.513   2.283  1.00 20.00     0.190 C 
BRANCH   4   5
HETATM    5  C5  UNL     1     -33.898   6.921   3.598  1.00 20.00     0.075 C 
HETATM    6  C3  UNL     1     -35.406   6.666   3.578  1.00 20.00     0.041 C 
HETATM    7  C2  UNL     1     -35.544   5.432   4.436  1.00 20.00     0.029 C 
HETATM    8  C4  UNL     1     -34.292   4.663   4.079  1.00 20.00     0.169 C 
HETATM    9  O10 UNL     1     -33.276   5.633   3.788  1.00 20.00    -0.379 OA
HETATM   10  C6  UNL     1     -33.485   7.815   4.771  1.00 20.00     0.048 C 
ENDBRANCH   4   5
ENDBRANCH   2   4
TORSDOF 2
ENDMDL
MODEL 6
REMARK VINA RESULT:       0.6      2.001      4.021
REMARK  2 active torsions:
REMARK  status: ('A' for Active; 'I' for Inactive)
REMARK    1  A    between atoms: C5_5  and  C7_7 
REMARK    2  A    between atoms: C7_7  and  N8_8 
ROOT
HETATM    1  C1  UNL     1     -35.103   5.900   4.041  1.00 20.00     0.332 C 
HETATM    2  N8  UNL     1     -34.768   6.867   3.460  1.00 20.00    -0.245 NA
HETATM    3  O9  UNL     1     -35.439   4.933   4.620  1.00 20.00    -0.260 OA
ENDROOT
BRANCH   2   4
HETATM    4  C7  UNL     1     -33.338   7.143   3.512  1.00 20.00     0.190 C 
BRANCH   4   5
HETATM    5  C5  UNL     1     -32.746   6.883   2.131  1.00 20.00     0.075 C 
HETATM    6  C3  UNL     1     -31.805   5.678   2.129  1.00 20.00     0.041 C 
HETATM    7  C2  UNL     1     -32.016   5.096   0.752  1.00 20.00     0.029 C 
HETATM    8  C4  UNL     1     -33.492   5.341   0.535  1.00 20.00     0.169 C 
HETATM    9  O10 UNL     1     -33.819   6.556   1.223  1.00 20.00    -0.379 OA
HETATM   10  C6  UNL     1     -32.059   8.146   1.602  1.00 20.00     0.048 C 
ENDBRANCH   4   5
ENDBRANCH   2   4
TORSDOF 2
ENDMDL
MODEL 7
REMARK VINA RESULT:       0.7      1.716      4.408
REMARK  2 active torsions:
REMARK  status: ('A' for Active; 'I' for Inactive)
REMARK    1  A    between atoms: C5_5  and  C7_7 
REMARK    2  A    between atoms: C7_7  and  N8_8 
ROOT
HETATM    1  C1  UNL     1     -34.980   6.127   4.075  1.00 20.00     0.332 C 
HETATM    2  N8  UNL     1     -34.575   7.163   3.690  1.00 20.00    -0.245 NA
HETATM    3  O9  UNL     1     -35.385   5.092   4.459  1.00 20.00    -0.260 OA
ENDROOT
BRANCH   2   4
HETATM    4  C7  UNL     1     -33.123   7.265   3.631  1.00 20.00     0.190 C 
BRANCH   4   5
HETATM    5  C5  UNL     1     -32.706   7.372   2.168  1.00 20.00     0.075 C 
HETATM    6  C3  UNL     1     -33.394   8.540   1.460  1.00 20.00     0.041 C 
HETATM    7  C2  UNL     1     -32.344   8.995   0.475  1.00 20.00     0.029 C 
HETATM    8  C4  UNL     1     -31.069   8.778   1.258  1.00 20.00     0.169 C 
HETATM    9  O10 UNL     1     -31.290   7.646   2.110  1.00 20.00    -0.379 OA
HETATM   10  C6  UNL     1     -32.952   6.043   1.448  1.00 20.00     0.048 C 
ENDBRANCH   4   5
ENDBRANCH   2   4
TORSDOF 2
ENDMDL
MODEL 8
REMARK VINA RESULT:       0.8      1.664      2.601
REMARK  2 active torsions:
REMARK  status: ('A' for Active; 'I' for Inactive)
REMARK    1  A    between atoms: C5_5  and  C7_7 
REMARK    2  A    between atoms: C7_7  and  N8_8 
ROOT
HETATM    1  C1  UNL     1     -32.335   9.728   0.482  1.00 20.00     0.332 C 
HETATM    2  N8  UNL     1     -32.002   8.606   0.609  1.00 20.00    -0.245 NA
HETATM    3  O9  UNL     1     -32.667  10.848   0.354  1.00 20.00    -0.260 OA
ENDROOT
BRANCH   2   4
HETATM    4  C7  UNL     1     -32.109   8.089   1.968  1.00 20.00     0.190 C 
BRANCH   4   5
HETATM    5  C5  UNL     1     -32.771   6.716   1.912  1.00 20.00     0.075 C 
HETATM    6  C3  UNL     1     -33.526   6.498   0.600  1.00 20.00     0.041 C 
HETATM    7  C2  UNL     1     -33.348   5.018   0.360  1.00 20.00     0.029 C 
HETATM    8  C4  UNL     1     -31.947   4.785   0.876  1.00 20.00     0.169 C 
HETATM    9  O10 UNL     1     -31.742   5.706   1.956  1.00 20.00    -0.379 OA
HETATM   10  C6  UNL     1     -33.674   6.514   3.132  1.00 20.00     0.048 C 
ENDBRANCH   4   5
ENDBRANCH   2   4
TORSDOF 2
ENDMDL
MODEL 9
REMARK VINA RESULT:       0.8      1.766      4.274
REMARK  2 active torsions:
REMARK  status: ('A' for Active; 'I' for Inactive)
REMARK    1  A    between atoms: C5_5  and  C7_7 
REMARK    2  A    between atoms: C7_7  and  N8_8 
ROOT
HETATM    1  C1  UNL     1     -34.631   4.990   4.248  1.00 20.00     0.332 C 
HETATM    2  N8  UNL     1     -34.997   6.108   4.298  1.00 20.00    -0.245 NA
HETATM    3  O9  UNL     1     -34.267   3.874   4.200  1.00 20.00    -0.260 OA
ENDROOT
BRANCH   2   4
HETATM    4  C7  UNL     1     -34.857   6.850   3.051  1.00 20.00     0.190 C 
BRANCH   4   5
HETATM    5  C5  UNL     1     -33.463   7.469   3.012  1.00 20.00     0.075 C 
HETATM    6  C3  UNL     1     -32.461   6.576   2.281  1.00 20.00     0.041 C 
HETATM    7  C2  UNL     1     -31.540   7.579   1.628  1.00 20.00     0.029 C 
HETATM    8  C4  UNL     1     -32.500   8.688   1.261  1.00 20.00     0.169 C 
HETATM    9  O10 UNL     1     -33.526   8.700   2.263  1.00 20.00    -0.379 OA
HETATM   10  C6  UNL     1     -32.996   7.811   4.430  1.00 20.00     0.048 C 
ENDBRANCH   4   5
ENDBRANCH   2   4
TORSDOF 2
ENDMDL
