MODEL 1
REMARK VINA RESULT:       0.2      0.000      0.000
REMARK  3 active torsions:
REMARK  status: ('A' for Active; 'I' for Inactive)
REMARK    1  A    between atoms: C6_6  and  C10_10 
REMARK    2  A    between atoms: C6_6  and  C11_11 
REMARK    3  A    between atoms: C9_9  and  N12_12 
ROOT
HETATM    1  C1  UNL     1     -32.780  10.736   0.319  1.00 20.00     0.013 C 
HETATM    2  C2  UNL     1     -32.290   9.642   0.380  1.00 20.00    -0.087 C 
HETATM    3  C9  UNL     1     -31.690   8.308   0.450  1.00 20.00     0.364 C 
ENDROOT
BRANCH   3   4
HETATM    4  N12 UNL     1     -32.053   7.646   1.694  1.00 20.00     0.100 N 
HETATM    5  C4  UNL     1     -32.127   6.191   1.555  1.00 20.00     0.274 C 
HETATM    6  C3  UNL     1     -33.012   5.734   2.717  1.00 20.00     0.041 C 
HETATM    7  C6  UNL     1     -33.639   7.021   3.288  1.00 20.00    -0.013 C 
HETATM    8  C5  UNL     1     -33.372   8.053   2.184  1.00 20.00     0.283 C 
BRANCH   7   9
HETATM    9  C10 UNL     1     -32.932   7.420   4.597  1.00 20.00     0.007 C 
HETATM   10  C7  UNL     1     -33.682   8.489   5.312  1.00 20.00     0.006 C 
ENDBRANCH   7   9
BRANCH   7  11
HETATM   11  C11 UNL     1     -35.137   6.860   3.555  1.00 20.00     0.007 C 
HETATM   12  C8  UNL     1     -35.435   5.575   4.254  1.00 20.00     0.006 C 
ENDBRANCH   7  11
ENDBRANCH   3   4
TORSDOF 3
ENDMDL
MODEL 2
REMARK VINA RESULT:       0.4      1.207      4.645
REMARK  3 active torsions:
REMARK  status: ('A' for Active; 'I' for Inactive)
REMARK    1  A    between atoms: C6_6  and  C10_10 
REMARK    2  A    between atoms: C6_6  and  C11_11 
REMARK    3  A    between atoms: C9_9  and  N12_12 
ROOT
HETATM    1  C1  UNL     1     -35.489   5.004   4.508  1.00 20.00     0.013 C 
HETATM    2  C2  UNL     1     -35.061   6.113   4.346  1.00 20.00    -0.087 C 
HETATM    3  C9  UNL     1     -34.541   7.469   4.151  1.00 20.00     0.364 C 
ENDROOT
BRANCH   3   4
HETATM    4  N12 UNL     1     -33.290   7.438   3.407  1.00 20.00     0.100 N 
HETATM    5  C4  UNL     1     -32.307   8.393   3.922  1.00 20.00     0.274 C 
HETATM    6  C3  UNL     1     -31.339   8.618   2.759  1.00 20.00     0.041 C 
HETATM    7  C6  UNL     1     -32.016   7.981   1.529  1.00 20.00    -0.013 C 
HETATM    8  C5  UNL     1     -33.466   7.789   1.996  1.00 20.00     0.283 C 
BRANCH   7   9
HETATM    9  C10 UNL     1     -31.359   6.628   1.202  1.00 20.00     0.007 C 
HETATM   10  C7  UNL     1     -32.365   5.531   1.176  1.00 20.00     0.006 C 
ENDBRANCH   7   9
BRANCH   7  11
HETATM   11  C11 UNL     1     -31.940   8.888   0.299  1.00 20.00     0.007 C 
HETATM   12  C8  UNL     1     -32.665  10.174   0.518  1.00 20.00     0.006 C 
ENDBRANCH   7  11
ENDBRANCH   3   4
TORSDOF 3
ENDMDL
MODEL 3
REMARK VINA RESULT:       0.9      1.999      4.746
REMARK  3 active torsions:
REMARK  status: ('A' for Active; 'I' for Inactive)
REMARK    1  A    between atoms: C6_6  and  C10_10 
REMARK    2  A    between atoms: C6_6  and  C11_11 
REMARK    3  A    between atoms: C9_9  and  N12_12 
ROOT
HETATM    1  C1  UNL     1     -32.723   2.677   5.454  1.00 20.00     0.013 C 
HETATM    2  C2  UNL     1     -33.428   3.297   4.706  1.00 20.00    -0.087 C 
HETATM    3  C9  UNL     1     -34.291   4.049   3.793  1.00 20.00     0.364 C 
ENDROOT
BRANCH   3   4
HETATM    4  N12 UNL     1     -34.038   5.478   3.906  1.00 20.00     0.100 N 
HETATM    5  C4  UNL     1     -35.269   6.269   3.886  1.00 20.00     0.274 C 
HETATM    6  C3  UNL     1     -34.822   7.672   3.467  1.00 20.00     0.041 C 
HETATM    7  C6  UNL     1     -33.367   7.513   2.983  1.00 20.00    -0.013 C 
HETATM    8  C5  UNL     1     -33.229   5.995   2.801  1.00 20.00     0.283 C 
BRANCH   7   9
HETATM    9  C10 UNL     1     -32.391   8.030   4.056  1.00 20.00     0.007 C 
HETATM   10  C7  UNL     1     -33.117   8.469   5.279  1.00 20.00     0.006 C 
ENDBRANCH   7   9
BRANCH   7  11
HETATM   11  C11 UNL     1     -33.115   8.260   1.672  1.00 20.00     0.007 C 
HETATM   12  C8  UNL     1     -31.660   8.319   1.343  1.00 20.00     0.006 C 
ENDBRANCH   7  11
ENDBRANCH   3   4
TORSDOF 3
ENDMDL
MODEL 4
REMARK VINA RESULT:       0.9      1.698      4.614
REMARK  3 active torsions:
REMARK  status: ('A' for Active; 'I' for Inactive)
REMARK    1  A    between atoms: C6_6  and  C10_10 
REMARK    2  A    between atoms: C6_6  and  C11_11 
REMARK    3  A    between atoms: C9_9  and  N12_12 
ROOT
HETATM    1  C1  UNL     1     -33.510   3.269   4.445  1.00 20.00     0.013 C 
HETATM    2  C2  UNL     1     -34.075   4.282   4.138  1.00 20.00    -0.087 C 
HETATM    3  C9  UNL     1     -34.768   5.518   3.767  1.00 20.00     0.364 C 
ENDROOT
BRANCH   3   4
HETATM    4  N12 UNL     1     -34.026   6.235   2.741  1.00 20.00     0.100 N 
HETATM    5  C4  UNL     1     -33.025   5.396   2.082  1.00 20.00     0.274 C 
HETATM    6  C3  UNL     1     -32.024   6.385   1.481  1.00 20.00     0.041 C 
HETATM    7  C6  UNL     1     -32.373   7.753   2.100  1.00 20.00    -0.013 C 
HETATM    8  C5  UNL     1     -33.280   7.374   3.280  1.00 20.00     0.283 C 
BRANCH   7   9
HETATM    9  C10 UNL     1     -33.132   8.620   1.079  1.00 20.00     0.007 C 
HETATM   10  C7  UNL     1     -32.209   9.540   0.360  1.00 20.00     0.006 C 
ENDBRANCH   7   9
BRANCH   7  11
HETATM   11  C11 UNL     1     -31.127   8.505   2.570  1.00 20.00     0.007 C 
HETATM   12  C8  UNL     1     -31.333   9.127   3.912  1.00 20.00     0.006 C 
ENDBRANCH   7  11
ENDBRANCH   3   4
TORSDOF 3
ENDMDL
MODEL 5
REMARK VINA RESULT:       1.0      1.172      1.940
REMARK  3 active torsions:
REMARK  status: ('A' for Active; 'I' for Inactive)
REMARK    1  A    between atoms: C6_6  and  C10_10 
REMARK    2  A    between atoms: C6_6  and  C11_11 
REMARK    3  A    between atoms: C9_9  and  N12_12 
ROOT
HETATM    1  C1  UNL     1     -32.679   9.893   0.021  1.00 20.00     0.013 C 
HETATM    2  C2  UNL     1     -31.996   9.146   0.666  1.00 20.00    -0.087 C 
HETATM    3  C9  UNL     1     -31.160   8.237   1.454  1.00 20.00     0.364 C 
ENDROOT
BRANCH   3   4
HETATM    4  N12 UNL     1     -31.890   7.022   1.784  1.00 20.00     0.100 N 
HETATM    5  C4  UNL     1     -32.763   6.578   0.697  1.00 20.00     0.274 C 
HETATM    6  C3  UNL     1     -33.804   5.685   1.374  1.00 20.00     0.041 C 
HETATM    7  C6  UNL     1     -33.625   5.918   2.888  1.00 20.00    -0.013 C 
HETATM    8  C5  UNL     1     -32.773   7.194   2.940  1.00 20.00     0.283 C 
BRANCH   7   9
HETATM    9  C10 UNL     1     -32.878   4.730   3.522  1.00 20.00     0.007 C 
HETATM   10  C7  UNL     1     -33.816   3.821   4.235  1.00 20.00     0.006 C 
ENDBRANCH   7   9
BRANCH   7  11
HETATM   11  C11 UNL     1     -34.964   6.109   3.602  1.00 20.00     0.007 C 
HETATM   12  C8  UNL     1     -34.997   7.383   4.379  1.00 20.00     0.006 C 
ENDBRANCH   7  11
ENDBRANCH   3   4
TORSDOF 3
ENDMDL
MODEL 6
REMARK VINA RESULT:       1.2      0.987      1.989
REMARK  3 active torsions:
REMARK  status: ('A' for Active; 'I' for Inactive)
REMARK    1  A    between atoms: C6_6  and  C10_10 
REMARK    2  A    between atoms: C6_6  and  C11_11 
REMARK    3  A    between atoms: C9_9  and  N12_12 
ROOT
HETATM    1  C1  UNL     1     -32.780  10.719  -0.193  1.00 20.00     0.013 C 
HETATM    2  C2  UNL     1     -32.325   9.696   0.237  1.00 20.00    -0.087 C 
HETATM    3  C9  UNL     1     -31.764   8.447   0.759  1.00 20.00     0.364 C 
ENDROOT
BRANCH   3   4
HETATM    4  N12 UNL     1     -32.658   7.854   1.743  1.00 20.00     0.100 N 
HETATM    5  C4  UNL     1     -32.321   8.241   3.114  1.00 20.00     0.274 C 
HETATM    6  C3  UNL     1     -32.952   7.158   3.990  1.00 20.00     0.041 C 
HETATM    7  C6  UNL     1     -33.373   6.036   3.019  1.00 20.00    -0.013 C 
HETATM    8  C5  UNL     1     -32.612   6.391   1.734  1.00 20.00     0.283 C 
BRANCH   7   9
HETATM    9  C10 UNL     1     -34.895   6.078   2.788  1.00 20.00     0.007 C 
HETATM   10  C7  UNL     1     -35.608   6.611   3.981  1.00 20.00     0.006 C 
ENDBRANCH   7   9
BRANCH   7  11
HETATM   11  C11 UNL     1     -32.982   4.651   3.539  1.00 20.00     0.007 C 
HETATM   12  C8  UNL     1     -34.096   4.016   4.303  1.00 20.00     0.006 C 
ENDBRANCH   7  11
ENDBRANCH   3   4
TORSDOF 3
ENDMDL
MODEL 7
REMARK VINA RESULT:       2.0      2.102      4.936
REMARK  3 active torsions:
REMARK  status: ('A' for Active; 'I' for Inactive)
REMARK    1  A    between atoms: C6_6  and  C10_10 
REMARK    2  A    between atoms: C6_6  and  C11_11 
REMARK    3  A    between atoms: C9_9  and  N12_12 
ROOT
HETATM    1  C1  UNL     1     -32.777   2.475   4.748  1.00 20.00     0.013 C 
HETATM    2  C2  UNL     1     -33.631   3.315   4.832  1.00 20.00    -0.087 C 
HETATM    3  C9  UNL     1     -34.675   4.336   4.937  1.00 20.00     0.364 C 
ENDROOT
BRANCH   3   4
HETATM    4  N12 UNL     1     -34.273   5.555   4.250  1.00 20.00     0.100 N 
HETATM    5  C4  UNL     1     -35.416   6.328   3.762  1.00 20.00     0.274 C 
HETATM    6  C3  UNL     1     -34.842   7.210   2.651  1.00 20.00     0.041 C 
HETATM    7  C6  UNL     1     -33.429   6.659   2.375  1.00 20.00    -0.013 C 
HETATM    8  C5  UNL     1     -33.454   5.289   3.065  1.00 20.00     0.283 C 
BRANCH   7   9
HETATM    9  C10 UNL     1     -32.369   7.577   3.011  1.00 20.00     0.007 C 
HETATM   10  C7  UNL     1     -31.620   8.337   1.973  1.00 20.00     0.006 C 
ENDBRANCH   7   9
BRANCH   7  11
HETATM   11  C11 UNL     1     -33.148   6.528   0.877  1.00 20.00     0.007 C 
HETATM   12  C8  UNL     1     -32.597   5.183   0.537  1.00 20.00     0.006 C 
ENDBRANCH   7  11
ENDBRANCH   3   4
TORSDOF 3
ENDMDL
MODEL 8
REMARK VINA RESULT:       2.0      1.342      2.881
REMARK  3 active torsions:
REMARK  status: ('A' for Active; 'I' for Inactive)
REMARK    1  A    between atoms: C6_6  and  C10_10 
REMARK    2  A    between atoms: C6_6  and  C11_11 
REMARK    3  A    between atoms: C9_9  and  N12_12 
ROOT
HETATM    1  C1  UNL     1     -32.628  10.554  -0.132  1.00 20.00     0.013 C 
HETATM    2  C2  UNL     1     -32.189   9.710   0.601  1.00 20.00    -0.087 C 
HETATM    3  C9  UNL     1     -31.650   8.684   1.495  1.00 20.00     0.364 C 
ENDROOT
BRANCH   3   4
HETATM    4  N12 UNL     1     -32.616   7.613   1.692  1.00 20.00     0.100 N 
HETATM    5  C4  UNL     1     -33.474   7.837   2.857  1.00 20.00     0.274 C 
HETATM    6  C3  UNL     1     -34.003   6.449   3.222  1.00 20.00     0.041 C 
HETATM    7  C6  UNL     1     -33.160   5.456   2.397  1.00 20.00    -0.013 C 
HETATM    8  C5  UNL     1     -31.979   6.316   1.927  1.00 20.00     0.283 C 
BRANCH   7   9
HETATM    9  C10 UNL     1     -33.975   4.937   1.197  1.00 20.00     0.007 C 
HETATM   10  C7  UNL     1     -33.084   4.469   0.101  1.00 20.00     0.006 C 
ENDBRANCH   7   9
BRANCH   7  11
HETATM   11  C11 UNL     1     -32.689   4.267   3.236  1.00 20.00     0.007 C 
HETATM   12  C8  UNL     1     -33.756   3.794   4.166  1.00 20.00     0.006 C 
ENDBRANCH   7  11
ENDBRANCH   3   4
TORSDOF 3
ENDMDL
MODEL 9
REMARK VINA RESULT:       2.3      1.366      2.400
REMARK  3 active torsions:
REMARK  status: ('A' for Active; 'I' for Inactive)
REMARK    1  A    between atoms: C6_6  and  C10_10 
REMARK    2  A    between atoms: C6_6  and  C11_11 
REMARK    3  A    between atoms: C9_9  and  N12_12 
ROOT
HETATM    1  C1  UNL     1     -32.657  10.034  -0.777  1.00 20.00     0.013 C 
HETATM    2  C2  UNL     1     -32.496   9.866   0.400  1.00 20.00    -0.087 C 
HETATM    3  C9  UNL     1     -32.299   9.664   1.837  1.00 20.00     0.364 C 
ENDROOT
BRANCH   3   4
HETATM    4  N12 UNL     1     -32.332   8.247   2.167  1.00 20.00     0.100 N 
HETATM    5  C4  UNL     1     -31.143   7.533   1.699  1.00 20.00     0.274 C 
HETATM    6  C3  UNL     1     -31.573   6.066   1.628  1.00 20.00     0.041 C 
HETATM    7  C6  UNL     1     -33.107   6.078   1.787  1.00 20.00    -0.013 C 
HETATM    8  C5  UNL     1     -33.465   7.552   1.552  1.00 20.00     0.283 C 
BRANCH   7   9
HETATM    9  C10 UNL     1     -33.496   5.637   3.210  1.00 20.00     0.007 C 
HETATM   10  C7  UNL     1     -34.699   6.369   3.692  1.00 20.00     0.006 C 
ENDBRANCH   7   9
BRANCH   7  11
HETATM   11  C11 UNL     1     -33.796   5.165   0.771  1.00 20.00     0.007 C 
HETATM   12  C8  UNL     1     -32.811   4.320   0.035  1.00 20.00     0.006 C 
ENDBRANCH   7  11
ENDBRANCH   3   4
TORSDOF 3
ENDMDL
