MODEL 1
REMARK VINA RESULT:       1.1      0.000      0.000
REMARK  2 active torsions:
REMARK  status: ('A' for Active; 'I' for Inactive)
REMARK    1  A    between atoms: C1_1  and  C6_6 
REMARK    2  A    between atoms: C1_1  and  C9_9 
ROOT
HETATM    1  C2  UNL     1     -31.537   5.979   1.795  1.00 20.00     0.005 C 
HETATM    2  C3  UNL     1     -33.043   5.695   1.716  1.00 20.00     0.006 C 
HETATM    3  C4  UNL     1     -31.980   8.228   2.800  1.00 20.00     0.017 C 
HETATM    4  C5  UNL     1     -32.600   7.712   0.554  1.00 20.00     0.010 C 
HETATM    5  C6  UNL     1     -33.498   7.987   2.730  1.00 20.00     0.061 C 
HETATM    6  C7  UNL     1     -31.459   7.494   1.549  1.00 20.00    -0.013 C 
HETATM    7  C8  UNL     1     -33.649   7.092   1.483  1.00 20.00    -0.003 C 
ENDROOT
BRANCH   5   8
HETATM    8  C1  UNL     1     -34.060   7.382   3.977  1.00 20.00     0.145 C 
HETATM    9  O10 UNL     1     -33.547   7.611   5.072  1.00 20.00    -0.296 OA
BRANCH   8  10
HETATM   10  C9  UNL     1     -35.267   6.492   3.789  1.00 20.00     0.193 C 
HETATM   11 CL11 UNL     1     -34.982   4.892   4.488  1.00 20.00    -0.123 Cl
ENDBRANCH   8  10
ENDBRANCH   5   8
TORSDOF 2
ENDMDL
MODEL 2
REMARK VINA RESULT:       1.2      2.697      3.922
REMARK  2 active torsions:
REMARK  status: ('A' for Active; 'I' for Inactive)
REMARK    1  A    between atoms: C1_1  and  C6_6 
REMARK    2  A    between atoms: C1_1  and  C9_9 
ROOT
HETATM    1  C2  UNL     1     -33.381   6.544   4.739  1.00 20.00     0.005 C 
HETATM    2  C3  UNL     1     -33.600   8.007   4.326  1.00 20.00     0.006 C 
HETATM    3  C4  UNL     1     -33.272   5.847   2.337  1.00 20.00     0.017 C 
HETATM    4  C5  UNL     1     -35.283   6.683   3.313  1.00 20.00     0.010 C 
HETATM    5  C6  UNL     1     -33.499   7.299   1.880  1.00 20.00     0.061 C 
HETATM    6  C7  UNL     1     -34.104   5.762   3.632  1.00 20.00    -0.013 C 
HETATM    7  C8  UNL     1     -34.381   7.882   3.004  1.00 20.00    -0.003 C 
ENDROOT
BRANCH   5   8
HETATM    8  C1  UNL     1     -32.228   8.055   1.659  1.00 20.00     0.145 C 
HETATM    9  O10 UNL     1     -31.137   7.501   1.789  1.00 20.00    -0.296 OA
BRANCH   8  10
HETATM   10  C9  UNL     1     -32.388   9.510   1.279  1.00 20.00     0.193 C 
HETATM   11 CL11 UNL     1     -32.702   9.673  -0.455  1.00 20.00    -0.123 Cl
ENDBRANCH   8  10
ENDBRANCH   5   8
TORSDOF 2
ENDMDL
MODEL 3
REMARK VINA RESULT:       1.4      0.816      1.960
REMARK  2 active torsions:
REMARK  status: ('A' for Active; 'I' for Inactive)
REMARK    1  A    between atoms: C1_1  and  C6_6 
REMARK    2  A    between atoms: C1_1  and  C9_9 
ROOT
HETATM    1  C2  UNL     1     -32.931   8.561   0.650  1.00 20.00     0.005 C 
HETATM    2  C3  UNL     1     -32.674   9.243   2.001  1.00 20.00     0.006 C 
HETATM    3  C4  UNL     1     -33.077   6.326   1.768  1.00 20.00     0.017 C 
HETATM    4  C5  UNL     1     -31.036   7.561   1.689  1.00 20.00     0.010 C 
HETATM    5  C6  UNL     1     -32.813   6.968   3.141  1.00 20.00     0.061 C 
HETATM    6  C7  UNL     1     -32.238   7.199   0.814  1.00 20.00    -0.013 C 
HETATM    7  C8  UNL     1     -31.906   8.168   2.793  1.00 20.00    -0.003 C 
ENDROOT
BRANCH   5   8
HETATM    8  C1  UNL     1     -34.064   7.349   3.867  1.00 20.00     0.145 C 
HETATM    9  O10 UNL     1     -34.087   8.336   4.600  1.00 20.00    -0.296 OA
BRANCH   8  10
HETATM   10  C9  UNL     1     -35.257   6.450   3.635  1.00 20.00     0.193 C 
HETATM   11 CL11 UNL     1     -35.042   4.900   4.461  1.00 20.00    -0.123 Cl
ENDBRANCH   8  10
ENDBRANCH   5   8
TORSDOF 2
ENDMDL
MODEL 4
REMARK VINA RESULT:       1.4      1.356      1.489
REMARK  2 active torsions:
REMARK  status: ('A' for Active; 'I' for Inactive)
REMARK    1  A    between atoms: C1_1  and  C6_6 
REMARK    2  A    between atoms: C1_1  and  C9_9 
ROOT
HETATM    1  C2  UNL     1     -31.362   6.622   1.833  1.00 20.00     0.005 C 
HETATM    2  C3  UNL     1     -32.646   6.027   1.239  1.00 20.00     0.006 C 
HETATM    3  C4  UNL     1     -32.685   7.805   3.597  1.00 20.00     0.017 C 
HETATM    4  C5  UNL     1     -32.867   8.386   1.290  1.00 20.00     0.010 C 
HETATM    5  C6  UNL     1     -33.996   7.238   3.029  1.00 20.00     0.061 C 
HETATM    6  C7  UNL     1     -31.820   8.000   2.336  1.00 20.00    -0.013 C 
HETATM    7  C8  UNL     1     -33.697   7.119   1.519  1.00 20.00    -0.003 C 
ENDROOT
BRANCH   5   8
HETATM    8  C1  UNL     1     -34.409   5.949   3.664  1.00 20.00     0.145 C 
HETATM    9  O10 UNL     1     -35.456   5.872   4.305  1.00 20.00    -0.296 OA
BRANCH   8  10
HETATM   10  C9  UNL     1     -33.463   4.786   3.464  1.00 20.00     0.193 C 
HETATM   11 CL11 UNL     1     -33.814   3.488   4.614  1.00 20.00    -0.123 Cl
ENDBRANCH   8  10
ENDBRANCH   5   8
TORSDOF 2
ENDMDL
MODEL 5
REMARK VINA RESULT:       1.9      2.785      3.856
REMARK  2 active torsions:
REMARK  status: ('A' for Active; 'I' for Inactive)
REMARK    1  A    between atoms: C1_1  and  C6_6 
REMARK    2  A    between atoms: C1_1  and  C9_9 
ROOT
HETATM    1  C2  UNL     1     -35.507   6.856   2.693  1.00 20.00     0.005 C 
HETATM    2  C3  UNL     1     -34.483   6.131   1.809  1.00 20.00     0.006 C 
HETATM    3  C4  UNL     1     -33.666   7.968   3.973  1.00 20.00     0.017 C 
HETATM    4  C5  UNL     1     -34.020   5.610   4.073  1.00 20.00     0.010 C 
HETATM    5  C6  UNL     1     -32.606   7.253   3.116  1.00 20.00     0.061 C 
HETATM    6  C7  UNL     1     -34.799   6.926   4.055  1.00 20.00    -0.013 C 
HETATM    7  C8  UNL     1     -33.291   5.917   2.762  1.00 20.00    -0.003 C 
ENDROOT
BRANCH   5   8
HETATM    8  C1  UNL     1     -32.177   8.046   1.922  1.00 20.00     0.145 C 
HETATM    9  O10 UNL     1     -31.318   7.611   1.157  1.00 20.00    -0.296 OA
BRANCH   8  10
HETATM   10  C9  UNL     1     -32.862   9.381   1.741  1.00 20.00     0.193 C 
HETATM   11 CL11 UNL     1     -32.509  10.054   0.143  1.00 20.00    -0.123 Cl
ENDBRANCH   8  10
ENDBRANCH   5   8
TORSDOF 2
ENDMDL
MODEL 6
REMARK VINA RESULT:       2.1      2.641      3.454
REMARK  2 active torsions:
REMARK  status: ('A' for Active; 'I' for Inactive)
REMARK    1  A    between atoms: C1_1  and  C6_6 
REMARK    2  A    between atoms: C1_1  and  C9_9 
ROOT
HETATM    1  C2  UNL     1     -33.138   5.323   3.158  1.00 20.00     0.005 C 
HETATM    2  C3  UNL     1     -34.044   6.505   2.787  1.00 20.00     0.006 C 
HETATM    3  C4  UNL     1     -31.416   6.082   1.508  1.00 20.00     0.017 C 
HETATM    4  C5  UNL     1     -33.557   5.287   0.814  1.00 20.00     0.010 C 
HETATM    5  C6  UNL     1     -32.297   7.274   1.099  1.00 20.00     0.061 C 
HETATM    6  C7  UNL     1     -32.450   4.984   1.826  1.00 20.00    -0.013 C 
HETATM    7  C8  UNL     1     -33.728   6.731   1.296  1.00 20.00    -0.003 C 
ENDROOT
BRANCH   5   8
HETATM    8  C1  UNL     1     -32.012   8.517   1.882  1.00 20.00     0.145 C 
HETATM    9  O10 UNL     1     -31.384   8.463   2.938  1.00 20.00    -0.296 OA
BRANCH   8  10
HETATM   10  C9  UNL     1     -32.544   9.802   1.289  1.00 20.00     0.193 C 
HETATM   11 CL11 UNL     1     -32.586   9.707  -0.477  1.00 20.00    -0.123 Cl
ENDBRANCH   8  10
ENDBRANCH   5   8
TORSDOF 2
ENDMDL
MODEL 7
REMARK VINA RESULT:       2.2      3.105      3.928
REMARK  2 active torsions:
REMARK  status: ('A' for Active; 'I' for Inactive)
REMARK    1  A    between atoms: C1_1  and  C6_6 
REMARK    2  A    between atoms: C1_1  and  C9_9 
ROOT
HETATM    1  C2  UNL     1     -34.381   6.119   1.453  1.00 20.00     0.005 C 
HETATM    2  C3  UNL     1     -33.136   5.936   0.573  1.00 20.00     0.006 C 
HETATM    3  C4  UNL     1     -33.149   7.730   2.919  1.00 20.00     0.017 C 
HETATM    4  C5  UNL     1     -32.554   5.421   2.812  1.00 20.00     0.010 C 
HETATM    5  C6  UNL     1     -31.877   7.568   2.070  1.00 20.00     0.061 C 
HETATM    6  C7  UNL     1     -33.785   6.328   2.854  1.00 20.00    -0.013 C 
HETATM    7  C8  UNL     1     -31.976   6.111   1.572  1.00 20.00    -0.003 C 
ENDROOT
BRANCH   5   8
HETATM    8  C1  UNL     1     -31.767   8.575   0.969  1.00 20.00     0.145 C 
HETATM    9  O10 UNL     1     -30.916   8.453   0.090  1.00 20.00    -0.296 OA
BRANCH   8  10
HETATM   10  C9  UNL     1     -32.754   9.719   1.026  1.00 20.00     0.193 C 
HETATM   11 CL11 UNL     1     -32.996  10.418  -0.581  1.00 20.00    -0.123 Cl
ENDBRANCH   8  10
ENDBRANCH   5   8
TORSDOF 2
ENDMDL
MODEL 8
REMARK VINA RESULT:       2.2      2.197      3.767
REMARK  2 active torsions:
REMARK  status: ('A' for Active; 'I' for Inactive)
REMARK    1  A    between atoms: C1_1  and  C6_6 
REMARK    2  A    between atoms: C1_1  and  C9_9 
ROOT
HETATM    1  C2  UNL     1     -33.906   7.018   5.012  1.00 20.00     0.005 C 
HETATM    2  C3  UNL     1     -33.805   8.086   3.914  1.00 20.00     0.006 C 
HETATM    3  C4  UNL     1     -33.882   5.199   3.292  1.00 20.00     0.017 C 
HETATM    4  C5  UNL     1     -35.701   6.734   3.472  1.00 20.00     0.010 C 
HETATM    5  C6  UNL     1     -33.790   6.237   2.161  1.00 20.00     0.061 C 
HETATM    6  C7  UNL     1     -34.747   5.917   4.346  1.00 20.00    -0.013 C 
HETATM    7  C8  UNL     1     -34.561   7.444   2.734  1.00 20.00    -0.003 C 
ENDROOT
BRANCH   5   8
HETATM    8  C1  UNL     1     -32.384   6.554   1.761  1.00 20.00     0.145 C 
HETATM    9  O10 UNL     1     -31.988   7.718   1.733  1.00 20.00    -0.296 OA
BRANCH   8  10
HETATM   10  C9  UNL     1     -31.519   5.367   1.405  1.00 20.00     0.193 C 
HETATM   11 CL11 UNL     1     -32.323   4.343   0.207  1.00 20.00    -0.123 Cl
ENDBRANCH   8  10
ENDBRANCH   5   8
TORSDOF 2
ENDMDL
MODEL 9
REMARK VINA RESULT:       2.3      2.035      3.249
REMARK  2 active torsions:
REMARK  status: ('A' for Active; 'I' for Inactive)
REMARK    1  A    between atoms: C1_1  and  C6_6 
REMARK    2  A    between atoms: C1_1  and  C9_9 
ROOT
HETATM    1  C2  UNL     1     -33.950   8.102   4.919  1.00 20.00     0.005 C 
HETATM    2  C3  UNL     1     -32.852   7.044   4.740  1.00 20.00     0.006 C 
HETATM    3  C4  UNL     1     -35.460   6.843   3.370  1.00 20.00     0.017 C 
HETATM    4  C5  UNL     1     -33.448   7.871   2.602  1.00 20.00     0.010 C 
HETATM    5  C6  UNL     1     -34.384   5.765   3.156  1.00 20.00     0.061 C 
HETATM    6  C7  UNL     1     -34.629   8.129   3.540  1.00 20.00    -0.013 C 
HETATM    7  C8  UNL     1     -33.067   6.559   3.294  1.00 20.00    -0.003 C 
ENDROOT
BRANCH   5   8
HETATM    8  C1  UNL     1     -34.497   4.617   4.108  1.00 20.00     0.145 C 
HETATM    9  O10 UNL     1     -35.376   4.601   4.969  1.00 20.00    -0.296 OA
BRANCH   8  10
HETATM   10  C9  UNL     1     -33.476   3.517   3.934  1.00 20.00     0.193 C 
HETATM   11 CL11 UNL     1     -32.874   2.967   5.504  1.00 20.00    -0.123 Cl
ENDBRANCH   8  10
ENDBRANCH   5   8
TORSDOF 2
ENDMDL
