MODEL 1
REMARK VINA RESULT:      -0.4      0.000      0.000
REMARK  1 active torsions:
REMARK  status: ('A' for Active; 'I' for Inactive)
REMARK    1  A    between atoms: C4_4  and  C6_6 
ROOT
HETATM    1  C1  UNL     1     -32.953   7.431   2.596  1.00 20.00     0.029 C 
HETATM    2  C2  UNL     1     -33.617   6.079   2.691  1.00 20.00     0.041 C 
HETATM    3  C3  UNL     1     -33.052   7.927   4.022  1.00 20.00     0.169 C 
HETATM    4  C4  UNL     1     -34.728   6.323   3.712  1.00 20.00     0.070 C 
HETATM    5  C5  UNL     1     -36.022   6.802   3.047  1.00 20.00     0.047 C 
HETATM    6  O7  UNL     1     -34.259   7.382   4.571  1.00 20.00    -0.379 OA
ENDROOT
BRANCH   4   7
HETATM    7  C6  UNL     1     -35.001   5.087   4.565  1.00 20.00     0.152 C 
HETATM    8 CL8  UNL     1     -33.851   3.801   4.161  1.00 20.00    -0.127 Cl
ENDBRANCH   4   7
TORSDOF 1
ENDMDL
MODEL 2
REMARK VINA RESULT:       0.1      1.610      2.359
REMARK  1 active torsions:
REMARK  status: ('A' for Active; 'I' for Inactive)
REMARK    1  A    between atoms: C4_4  and  C6_6 
ROOT
HETATM    1  C1  UNL     1     -32.174   7.763   1.702  1.00 20.00     0.029 C 
HETATM    2  C2  UNL     1     -33.458   8.258   2.323  1.00 20.00     0.041 C 
HETATM    3  C3  UNL     1     -32.344   6.263   1.793  1.00 20.00     0.169 C 
HETATM    4  C4  UNL     1     -33.715   7.230   3.424  1.00 20.00     0.070 C 
HETATM    5  C5  UNL     1     -33.042   7.622   4.742  1.00 20.00     0.047 C 
HETATM    6  O7  UNL     1     -33.112   6.000   2.974  1.00 20.00    -0.379 OA
ENDROOT
BRANCH   4   7
HETATM    7  C6  UNL     1     -35.206   6.991   3.646  1.00 20.00     0.152 C 
HETATM    8 CL8  UNL     1     -35.466   5.402   4.386  1.00 20.00    -0.127 Cl
ENDBRANCH   4   7
TORSDOF 1
ENDMDL
MODEL 3
REMARK VINA RESULT:       0.2      3.122      4.251
REMARK  1 active torsions:
REMARK  status: ('A' for Active; 'I' for Inactive)
REMARK    1  A    between atoms: C4_4  and  C6_6 
ROOT
HETATM    1  C1  UNL     1     -32.661   5.788   1.874  1.00 20.00     0.029 C 
HETATM    2  C2  UNL     1     -32.294   6.984   1.031  1.00 20.00     0.041 C 
HETATM    3  C3  UNL     1     -33.676   6.379   2.827  1.00 20.00     0.169 C 
HETATM    4  C4  UNL     1     -32.340   8.132   2.040  1.00 20.00     0.070 C 
HETATM    5  C5  UNL     1     -30.993   8.335   2.739  1.00 20.00     0.047 C 
HETATM    6  O7  UNL     1     -33.300   7.746   3.044  1.00 20.00    -0.379 OA
ENDROOT
BRANCH   4   7
HETATM    7  C6  UNL     1     -32.802   9.437   1.398  1.00 20.00     0.152 C 
HETATM    8 CL8  UNL     1     -32.244   9.522  -0.282  1.00 20.00    -0.127 Cl
ENDBRANCH   4   7
TORSDOF 1
ENDMDL
MODEL 4
REMARK VINA RESULT:       0.2      1.653      2.994
REMARK  1 active torsions:
REMARK  status: ('A' for Active; 'I' for Inactive)
REMARK    1  A    between atoms: C4_4  and  C6_6 
ROOT
HETATM    1  C1  UNL     1     -35.022   5.454   4.279  1.00 20.00     0.029 C 
HETATM    2  C2  UNL     1     -33.645   5.699   3.710  1.00 20.00     0.041 C 
HETATM    3  C3  UNL     1     -35.839   6.521   3.586  1.00 20.00     0.169 C 
HETATM    4  C4  UNL     1     -33.606   7.221   3.575  1.00 20.00     0.070 C 
HETATM    5  C5  UNL     1     -33.092   7.896   4.849  1.00 20.00     0.047 C 
HETATM    6  O7  UNL     1     -34.970   7.642   3.376  1.00 20.00    -0.379 OA
ENDROOT
BRANCH   4   7
HETATM    7  C6  UNL     1     -32.777   7.665   2.372  1.00 20.00     0.152 C 
HETATM    8 CL8  UNL     1     -32.339   6.262   1.382  1.00 20.00    -0.127 Cl
ENDBRANCH   4   7
TORSDOF 1
ENDMDL
MODEL 5
REMARK VINA RESULT:       0.2      2.546      3.350
REMARK  1 active torsions:
REMARK  status: ('A' for Active; 'I' for Inactive)
REMARK    1  A    between atoms: C4_4  and  C6_6 
ROOT
HETATM    1  C1  UNL     1     -31.145   8.731   0.569  1.00 20.00     0.029 C 
HETATM    2  C2  UNL     1     -31.138   8.057   1.920  1.00 20.00     0.041 C 
HETATM    3  C3  UNL     1     -32.485   9.433   0.580  1.00 20.00     0.169 C 
HETATM    4  C4  UNL     1     -32.602   7.661   2.105  1.00 20.00     0.070 C 
HETATM    5  C5  UNL     1     -32.898   6.275   1.525  1.00 20.00     0.047 C 
HETATM    6  O7  UNL     1     -33.375   8.622   1.358  1.00 20.00    -0.379 OA
ENDROOT
BRANCH   4   7
HETATM    7  C6  UNL     1     -33.029   7.721   3.569  1.00 20.00     0.152 C 
HETATM    8 CL8  UNL     1     -34.554   6.847   3.796  1.00 20.00    -0.127 Cl
ENDBRANCH   4   7
TORSDOF 1
ENDMDL
MODEL 6
REMARK VINA RESULT:       0.3      2.564      3.466
REMARK  1 active torsions:
REMARK  status: ('A' for Active; 'I' for Inactive)
REMARK    1  A    between atoms: C4_4  and  C6_6 
ROOT
HETATM    1  C1  UNL     1     -35.002   6.171   3.843  1.00 20.00     0.029 C 
HETATM    2  C2  UNL     1     -34.149   7.220   3.171  1.00 20.00     0.041 C 
HETATM    3  C3  UNL     1     -34.041   5.009   3.947  1.00 20.00     0.169 C 
HETATM    4  C4  UNL     1     -33.294   6.392   2.213  1.00 20.00     0.070 C 
HETATM    5  C5  UNL     1     -33.970   6.211   0.851  1.00 20.00     0.047 C 
HETATM    6  O7  UNL     1     -33.165   5.088   2.814  1.00 20.00    -0.379 OA
ENDROOT
BRANCH   4   7
HETATM    7  C6  UNL     1     -31.900   6.987   2.033  1.00 20.00     0.152 C 
HETATM    8 CL8  UNL     1     -32.011   8.580   1.265  1.00 20.00    -0.127 Cl
ENDBRANCH   4   7
TORSDOF 1
ENDMDL
MODEL 7
REMARK VINA RESULT:       0.4      2.743      3.644
REMARK  1 active torsions:
REMARK  status: ('A' for Active; 'I' for Inactive)
REMARK    1  A    between atoms: C4_4  and  C6_6 
ROOT
HETATM    1  C1  UNL     1     -33.128   5.691   1.096  1.00 20.00     0.029 C 
HETATM    2  C2  UNL     1     -33.579   6.766   2.055  1.00 20.00     0.041 C 
HETATM    3  C3  UNL     1     -31.646   5.615   1.389  1.00 20.00     0.169 C 
HETATM    4  C4  UNL     1     -32.392   7.730   2.059  1.00 20.00     0.070 C 
HETATM    5  C5  UNL     1     -32.515   8.793   0.964  1.00 20.00     0.047 C 
HETATM    6  O7  UNL     1     -31.227   6.933   1.767  1.00 20.00    -0.379 OA
ENDROOT
BRANCH   4   7
HETATM    7  C6  UNL     1     -32.202   8.394   3.419  1.00 20.00     0.152 C 
HETATM    8 CL8  UNL     1     -33.550   7.982   4.494  1.00 20.00    -0.127 Cl
ENDBRANCH   4   7
TORSDOF 1
ENDMDL
MODEL 8
REMARK VINA RESULT:       0.4      1.992      3.249
REMARK  1 active torsions:
REMARK  status: ('A' for Active; 'I' for Inactive)
REMARK    1  A    between atoms: C4_4  and  C6_6 
ROOT
HETATM    1  C1  UNL     1     -33.794   7.964   4.259  1.00 20.00     0.029 C 
HETATM    2  C2  UNL     1     -32.394   8.043   3.701  1.00 20.00     0.041 C 
HETATM    3  C3  UNL     1     -34.357   6.771   3.518  1.00 20.00     0.169 C 
HETATM    4  C4  UNL     1     -32.591   7.627   2.243  1.00 20.00     0.070 C 
HETATM    5  C5  UNL     1     -32.910   8.825   1.344  1.00 20.00     0.047 C 
HETATM    6  O7  UNL     1     -33.735   6.750   2.226  1.00 20.00    -0.379 OA
ENDROOT
BRANCH   4   7
HETATM    7  C6  UNL     1     -31.384   6.868   1.698  1.00 20.00     0.152 C 
HETATM    8 CL8  UNL     1     -31.881   5.269   1.118  1.00 20.00    -0.127 Cl
ENDBRANCH   4   7
TORSDOF 1
ENDMDL
MODEL 9
REMARK VINA RESULT:       0.5      3.204      4.085
REMARK  1 active torsions:
REMARK  status: ('A' for Active; 'I' for Inactive)
REMARK    1  A    between atoms: C4_4  and  C6_6 
ROOT
HETATM    1  C1  UNL     1     -33.827   7.545   3.775  1.00 20.00     0.029 C 
HETATM    2  C2  UNL     1     -33.826   7.750   2.280  1.00 20.00     0.041 C 
HETATM    3  C3  UNL     1     -32.577   8.289   4.191  1.00 20.00     0.169 C 
HETATM    4  C4  UNL     1     -32.337   7.706   1.938  1.00 20.00     0.070 C 
HETATM    5  C5  UNL     1     -31.858   6.282   1.644  1.00 20.00     0.047 C 
HETATM    6  O7  UNL     1     -31.641   8.168   3.112  1.00 20.00    -0.379 OA
ENDROOT
BRANCH   4   7
HETATM    7  C6  UNL     1     -31.992   8.628   0.771  1.00 20.00     0.152 C 
HETATM    8 CL8  UNL     1     -32.843  10.173   0.943  1.00 20.00    -0.127 Cl
ENDBRANCH   4   7
TORSDOF 1
ENDMDL
