MODEL 1
REMARK VINA RESULT:      -1.2      0.000      0.000
REMARK  3 active torsions:
REMARK  status: ('A' for Active; 'I' for Inactive)
REMARK    1  A    between atoms: C1_1  and  C5_5 
REMARK    2  A    between atoms: C1_1  and  C8_8 
REMARK    3  A    between atoms: C8_8  and  C9_9 
ROOT
HETATM    1  C2  UNL     1     -35.615   5.942   4.194  1.00 20.00     0.029 C 
HETATM    2  C3  UNL     1     -35.074   6.976   3.238  1.00 20.00     0.048 C 
HETATM    3  C4  UNL     1     -34.554   4.868   4.126  1.00 20.00     0.169 C 
HETATM    4  C5  UNL     1     -33.566   6.862   3.432  1.00 20.00     0.117 C 
HETATM    5  C6  UNL     1     -33.004   7.895   4.400  1.00 20.00     0.054 C 
HETATM    6  O11 UNL     1     -33.306   5.552   3.959  1.00 20.00    -0.373 OA
ENDROOT
BRANCH   4   7
HETATM    7  C1  UNL     1     -32.848   6.930   2.117  1.00 20.00     0.160 C 
HETATM    8  O10 UNL     1     -32.941   6.019   1.296  1.00 20.00    -0.295 OA
BRANCH   7   9
HETATM    9  C8  UNL     1     -32.016   8.177   1.873  1.00 20.00     0.081 C 
BRANCH   9  10
HETATM   10  C9  UNL     1     -32.111   8.671   0.433  1.00 20.00     0.003 C 
HETATM   11  C7  UNL     1     -32.554  10.122   0.369  1.00 20.00     0.005 C 
ENDBRANCH   9  10
ENDBRANCH   7   9
ENDBRANCH   4   7
TORSDOF 3
ENDMDL
MODEL 2
REMARK VINA RESULT:      -0.3      1.288      4.440
REMARK  3 active torsions:
REMARK  status: ('A' for Active; 'I' for Inactive)
REMARK    1  A    between atoms: C1_1  and  C5_5 
REMARK    2  A    between atoms: C1_1  and  C8_8 
REMARK    3  A    between atoms: C8_8  and  C9_9 
ROOT
HETATM    1  C2  UNL     1     -31.280   9.071   0.089  1.00 20.00     0.029 C 
HETATM    2  C3  UNL     1     -31.291   7.813   0.923  1.00 20.00     0.048 C 
HETATM    3  C4  UNL     1     -32.672   9.611   0.317  1.00 20.00     0.169 C 
HETATM    4  C5  UNL     1     -32.175   8.197   2.104  1.00 20.00     0.117 C 
HETATM    5  C6  UNL     1     -31.386   8.646   3.327  1.00 20.00     0.054 C 
HETATM    6  O11 UNL     1     -33.007   9.285   1.672  1.00 20.00    -0.373 OA
ENDROOT
BRANCH   4   7
HETATM    7  C1  UNL     1     -33.108   7.079   2.463  1.00 20.00     0.160 C 
HETATM    8  O10 UNL     1     -33.188   6.071   1.762  1.00 20.00    -0.295 OA
BRANCH   7   9
HETATM    9  C8  UNL     1     -33.928   7.272   3.725  1.00 20.00     0.081 C 
BRANCH   9  10
HETATM   10  C9  UNL     1     -35.219   6.459   3.714  1.00 20.00     0.003 C 
HETATM   11  C7  UNL     1     -35.052   5.136   4.444  1.00 20.00     0.005 C 
ENDBRANCH   9  10
ENDBRANCH   7   9
ENDBRANCH   4   7
TORSDOF 3
ENDMDL
MODEL 3
REMARK VINA RESULT:      -0.2      1.369      2.046
REMARK  3 active torsions:
REMARK  status: ('A' for Active; 'I' for Inactive)
REMARK    1  A    between atoms: C1_1  and  C5_5 
REMARK    2  A    between atoms: C1_1  and  C8_8 
REMARK    3  A    between atoms: C8_8  and  C9_9 
ROOT
HETATM    1  C2  UNL     1     -34.479   4.665   4.131  1.00 20.00     0.029 C 
HETATM    2  C3  UNL     1     -33.150   5.198   3.655  1.00 20.00     0.048 C 
HETATM    3  C4  UNL     1     -35.331   5.913   4.145  1.00 20.00     0.169 C 
HETATM    4  C5  UNL     1     -33.556   6.301   2.684  1.00 20.00     0.117 C 
HETATM    5  C6  UNL     1     -33.560   5.851   1.229  1.00 20.00     0.054 C 
HETATM    6  O11 UNL     1     -34.885   6.710   3.040  1.00 20.00    -0.373 OA
ENDROOT
BRANCH   4   7
HETATM    7  C1  UNL     1     -32.689   7.513   2.855  1.00 20.00     0.160 C 
HETATM    8  O10 UNL     1     -32.564   8.053   3.953  1.00 20.00    -0.295 OA
BRANCH   7   9
HETATM    9  C8  UNL     1     -31.989   8.017   1.605  1.00 20.00     0.081 C 
BRANCH   9  10
HETATM   10  C9  UNL     1     -32.376   9.451   1.256  1.00 20.00     0.003 C 
HETATM   11  C7  UNL     1     -32.422   9.666  -0.247  1.00 20.00     0.005 C 
ENDBRANCH   9  10
ENDBRANCH   7   9
ENDBRANCH   4   7
TORSDOF 3
ENDMDL
MODEL 4
REMARK VINA RESULT:      -0.1      1.645      4.570
REMARK  3 active torsions:
REMARK  status: ('A' for Active; 'I' for Inactive)
REMARK    1  A    between atoms: C1_1  and  C5_5 
REMARK    2  A    between atoms: C1_1  and  C8_8 
REMARK    3  A    between atoms: C8_8  and  C9_9 
ROOT
HETATM    1  C2  UNL     1     -32.783   8.074   3.210  1.00 20.00     0.029 C 
HETATM    2  C3  UNL     1     -33.585   7.335   4.253  1.00 20.00     0.048 C 
HETATM    3  C4  UNL     1     -32.566   7.004   2.165  1.00 20.00     0.169 C 
HETATM    4  C5  UNL     1     -34.432   6.383   3.417  1.00 20.00     0.117 C 
HETATM    5  C6  UNL     1     -35.835   6.909   3.140  1.00 20.00     0.054 C 
HETATM    6  O11 UNL     1     -33.755   6.204   2.164  1.00 20.00    -0.373 OA
ENDROOT
BRANCH   4   7
HETATM    7  C1  UNL     1     -34.498   5.025   4.050  1.00 20.00     0.160 C 
HETATM    8  O10 UNL     1     -35.433   4.713   4.786  1.00 20.00    -0.295 OA
BRANCH   7   9
HETATM    9  C8  UNL     1     -33.354   4.080   3.727  1.00 20.00     0.081 C 
BRANCH   9  10
HETATM   10  C9  UNL     1     -33.337   2.851   4.631  1.00 20.00     0.003 C 
HETATM   11  C7  UNL     1     -32.607   3.127   5.934  1.00 20.00     0.005 C 
ENDBRANCH   9  10
ENDBRANCH   7   9
ENDBRANCH   4   7
TORSDOF 3
ENDMDL
MODEL 5
REMARK VINA RESULT:       0.4      1.411      4.148
REMARK  3 active torsions:
REMARK  status: ('A' for Active; 'I' for Inactive)
REMARK    1  A    between atoms: C1_1  and  C5_5 
REMARK    2  A    between atoms: C1_1  and  C8_8 
REMARK    3  A    between atoms: C8_8  and  C9_9 
ROOT
HETATM    1  C2  UNL     1     -31.954   5.035   0.821  1.00 20.00     0.029 C 
HETATM    2  C3  UNL     1     -31.816   5.719   2.159  1.00 20.00     0.048 C 
HETATM    3  C4  UNL     1     -33.412   5.267   0.500  1.00 20.00     0.169 C 
HETATM    4  C5  UNL     1     -32.773   6.899   2.038  1.00 20.00     0.117 C 
HETATM    5  C6  UNL     1     -32.082   8.196   1.637  1.00 20.00     0.054 C 
HETATM    6  O11 UNL     1     -33.733   6.561   1.025  1.00 20.00    -0.373 OA
ENDROOT
BRANCH   4   7
HETATM    7  C1  UNL     1     -33.555   7.090   3.304  1.00 20.00     0.160 C 
HETATM    8  O10 UNL     1     -33.094   7.742   4.240  1.00 20.00    -0.295 OA
BRANCH   7   9
HETATM    9  C8  UNL     1     -34.925   6.438   3.348  1.00 20.00     0.081 C 
BRANCH   9  10
HETATM   10  C9  UNL     1     -35.031   5.374   4.436  1.00 20.00     0.003 C 
HETATM   11  C7  UNL     1     -34.140   4.180   4.137  1.00 20.00     0.005 C 
ENDBRANCH   9  10
ENDBRANCH   7   9
ENDBRANCH   4   7
TORSDOF 3
ENDMDL
MODEL 6
REMARK VINA RESULT:       0.6      1.282      4.438
REMARK  3 active torsions:
REMARK  status: ('A' for Active; 'I' for Inactive)
REMARK    1  A    between atoms: C1_1  and  C5_5 
REMARK    2  A    between atoms: C1_1  and  C8_8 
REMARK    3  A    between atoms: C8_8  and  C9_9 
ROOT
HETATM    1  C2  UNL     1     -31.988   8.909   0.693  1.00 20.00     0.029 C 
HETATM    2  C3  UNL     1     -33.286   8.331   1.203  1.00 20.00     0.048 C 
HETATM    3  C4  UNL     1     -31.096   8.795   1.907  1.00 20.00     0.169 C 
HETATM    4  C5  UNL     1     -32.818   7.245   2.164  1.00 20.00     0.117 C 
HETATM    5  C6  UNL     1     -32.790   5.857   1.537  1.00 20.00     0.054 C 
HETATM    6  O11 UNL     1     -31.485   7.588   2.573  1.00 20.00    -0.373 OA
ENDROOT
BRANCH   4   7
HETATM    7  C1  UNL     1     -33.648   7.239   3.414  1.00 20.00     0.160 C 
HETATM    8  O10 UNL     1     -33.260   7.807   4.434  1.00 20.00    -0.295 OA
BRANCH   7   9
HETATM    9  C8  UNL     1     -34.971   6.500   3.334  1.00 20.00     0.081 C 
BRANCH   9  10
HETATM   10  C9  UNL     1     -35.142   5.483   4.458  1.00 20.00     0.003 C 
HETATM   11  C7  UNL     1     -34.227   4.285   4.270  1.00 20.00     0.005 C 
ENDBRANCH   9  10
ENDBRANCH   7   9
ENDBRANCH   4   7
TORSDOF 3
ENDMDL
MODEL 7
REMARK VINA RESULT:       0.6      1.631      4.490
REMARK  3 active torsions:
REMARK  status: ('A' for Active; 'I' for Inactive)
REMARK    1  A    between atoms: C1_1  and  C5_5 
REMARK    2  A    between atoms: C1_1  and  C8_8 
REMARK    3  A    between atoms: C8_8  and  C9_9 
ROOT
HETATM    1  C2  UNL     1     -31.477   8.431   0.387  1.00 20.00     0.029 C 
HETATM    2  C3  UNL     1     -31.688   7.408   1.477  1.00 20.00     0.048 C 
HETATM    3  C4  UNL     1     -32.704   9.301   0.533  1.00 20.00     0.169 C 
HETATM    4  C5  UNL     1     -32.379   8.215   2.570  1.00 20.00     0.117 C 
HETATM    5  C6  UNL     1     -31.421   8.721   3.641  1.00 20.00     0.054 C 
HETATM    6  O11 UNL     1     -32.994   9.346   1.935  1.00 20.00    -0.373 OA
ENDROOT
BRANCH   4   7
HETATM    7  C1  UNL     1     -33.495   7.430   3.193  1.00 20.00     0.160 C 
HETATM    8  O10 UNL     1     -34.288   7.963   3.969  1.00 20.00    -0.295 OA
BRANCH   7   9
HETATM    9  C8  UNL     1     -33.578   5.964   2.808  1.00 20.00     0.081 C 
BRANCH   9  10
HETATM   10  C9  UNL     1     -34.450   5.156   3.764  1.00 20.00     0.003 C 
HETATM   11  C7  UNL     1     -33.769   3.865   4.184  1.00 20.00     0.005 C 
ENDBRANCH   9  10
ENDBRANCH   7   9
ENDBRANCH   4   7
TORSDOF 3
ENDMDL
MODEL 8
REMARK VINA RESULT:       0.7      1.695      2.628
REMARK  3 active torsions:
REMARK  status: ('A' for Active; 'I' for Inactive)
REMARK    1  A    between atoms: C1_1  and  C5_5 
REMARK    2  A    between atoms: C1_1  and  C8_8 
REMARK    3  A    between atoms: C8_8  and  C9_9 
ROOT
HETATM    1  C2  UNL     1     -33.356   5.009   0.313  1.00 20.00     0.029 C 
HETATM    2  C3  UNL     1     -33.624   6.443   0.698  1.00 20.00     0.048 C 
HETATM    3  C4  UNL     1     -31.960   4.796   0.851  1.00 20.00     0.169 C 
HETATM    4  C5  UNL     1     -32.891   6.580   2.028  1.00 20.00     0.117 C 
HETATM    5  C6  UNL     1     -33.799   6.397   3.237  1.00 20.00     0.054 C 
HETATM    6  O11 UNL     1     -31.878   5.563   2.059  1.00 20.00    -0.373 OA
ENDROOT
BRANCH   4   7
HETATM    7  C1  UNL     1     -32.166   7.890   2.110  1.00 20.00     0.160 C 
HETATM    8  O10 UNL     1     -31.871   8.385   3.197  1.00 20.00    -0.295 OA
BRANCH   7   9
HETATM    9  C8  UNL     1     -31.826   8.550   0.785  1.00 20.00     0.081 C 
BRANCH   9  10
HETATM   10  C9  UNL     1     -32.398   9.959   0.670  1.00 20.00     0.003 C 
HETATM   11  C7  UNL     1     -32.884  10.250  -0.740  1.00 20.00     0.005 C 
ENDBRANCH   9  10
ENDBRANCH   7   9
ENDBRANCH   4   7
TORSDOF 3
ENDMDL
MODEL 9
REMARK VINA RESULT:       0.7      1.595      2.324
REMARK  3 active torsions:
REMARK  status: ('A' for Active; 'I' for Inactive)
REMARK    1  A    between atoms: C1_1  and  C5_5 
REMARK    2  A    between atoms: C1_1  and  C8_8 
REMARK    3  A    between atoms: C8_8  and  C9_9 
ROOT
HETATM    1  C2  UNL     1     -35.673   5.775   4.205  1.00 20.00     0.029 C 
HETATM    2  C3  UNL     1     -35.209   6.924   3.344  1.00 20.00     0.048 C 
HETATM    3  C4  UNL     1     -34.484   4.844   4.151  1.00 20.00     0.169 C 
HETATM    4  C5  UNL     1     -33.714   6.982   3.632  1.00 20.00     0.117 C 
HETATM    5  C6  UNL     1     -33.344   8.014   4.690  1.00 20.00     0.054 C 
HETATM    6  O11 UNL     1     -33.324   5.684   4.105  1.00 20.00    -0.373 OA
ENDROOT
BRANCH   4   7
HETATM    7  C1  UNL     1     -32.932   7.218   2.374  1.00 20.00     0.160 C 
HETATM    8  O10 UNL     1     -32.306   8.263   2.203  1.00 20.00    -0.295 OA
BRANCH   7   9
HETATM    9  C8  UNL     1     -32.966   6.101   1.346  1.00 20.00     0.081 C 
BRANCH   9  10
HETATM   10  C9  UNL     1     -31.642   5.347   1.258  1.00 20.00     0.003 C 
HETATM   11  C7  UNL     1     -31.691   4.256   0.201  1.00 20.00     0.005 C 
ENDBRANCH   9  10
ENDBRANCH   7   9
ENDBRANCH   4   7
TORSDOF 3
ENDMDL
