MODEL 1
REMARK VINA RESULT:       2.1      0.000      0.000
REMARK  1 active torsions:
REMARK  status: ('A' for Active; 'I' for Inactive)
REMARK    1  A    between atoms: C3_3  and  C8_8 
ROOT
HETATM    1  C1  UNL     1     -31.707   6.940   1.308  1.00 20.00     0.017 A 
HETATM    2  C2  UNL     1     -31.341   8.234   0.839  1.00 20.00     0.032 A 
HETATM    3  C3  UNL     1     -32.955   6.934   1.891  1.00 20.00    -0.012 A 
HETATM    4  C4  UNL     1     -32.323   9.169   1.083  1.00 20.00     0.075 A 
HETATM    5  S10 UNL     1     -33.680   8.485   1.873  1.00 20.00    -0.082 SA
HETATM    6 CL11 UNL     1     -32.306  10.838   0.692  1.00 20.00    -0.076 Cl
ENDROOT
BRANCH   3   7
HETATM    7  C8  UNL     1     -33.703   5.770   2.506  1.00 20.00     0.027 C 
HETATM    8  C5  UNL     1     -34.672   6.168   3.641  1.00 20.00     0.011 C 
HETATM    9  C6  UNL     1     -34.695   4.999   4.632  1.00 20.00     0.021 C 
HETATM   10  C9  UNL     1     -33.896   3.893   3.959  1.00 20.00     0.083 C 
HETATM   11  C7  UNL     1     -32.862   4.652   3.141  1.00 20.00     0.030 C 
HETATM   12 CL12 UNL     1     -33.154   2.788   5.125  1.00 20.00    -0.125 Cl
ENDBRANCH   3   7
TORSDOF 1
ENDMDL
MODEL 2
REMARK VINA RESULT:       2.2      0.898      1.021
REMARK  1 active torsions:
REMARK  status: ('A' for Active; 'I' for Inactive)
REMARK    1  A    between atoms: C3_3  and  C8_8 
ROOT
HETATM    1  C1  UNL     1     -32.376   8.013   2.944  1.00 20.00     0.017 A 
HETATM    2  C2  UNL     1     -31.885   9.085   2.145  1.00 20.00     0.032 A 
HETATM    3  C3  UNL     1     -33.110   7.110   2.206  1.00 20.00    -0.012 A 
HETATM    4  C4  UNL     1     -32.262   8.961   0.826  1.00 20.00     0.075 A 
HETATM    5  S10 UNL     1     -33.204   7.557   0.555  1.00 20.00    -0.082 SA
HETATM    6 CL11 UNL     1     -31.896  10.016  -0.475  1.00 20.00    -0.076 Cl
ENDROOT
BRANCH   3   7
HETATM    7  C8  UNL     1     -33.796   5.845   2.675  1.00 20.00     0.027 C 
HETATM    8  C5  UNL     1     -34.868   6.071   3.764  1.00 20.00     0.011 C 
HETATM    9  C6  UNL     1     -34.858   4.826   4.658  1.00 20.00     0.021 C 
HETATM   10  C9  UNL     1     -33.926   3.846   3.962  1.00 20.00     0.083 C 
HETATM   11  C7  UNL     1     -32.908   4.748   3.281  1.00 20.00     0.030 C 
HETATM   12 CL12 UNL     1     -33.172   2.711   5.090  1.00 20.00    -0.125 Cl
ENDBRANCH   3   7
TORSDOF 1
ENDMDL
MODEL 3
REMARK VINA RESULT:       2.3      1.288      5.698
REMARK  1 active torsions:
REMARK  status: ('A' for Active; 'I' for Inactive)
REMARK    1  A    between atoms: C3_3  and  C8_8 
ROOT
HETATM    1  C1  UNL     1     -34.491   6.354   3.474  1.00 20.00     0.017 A 
HETATM    2  C2  UNL     1     -34.625   5.218   4.322  1.00 20.00     0.032 A 
HETATM    3  C3  UNL     1     -33.465   6.204   2.566  1.00 20.00    -0.012 A 
HETATM    4  C4  UNL     1     -33.697   4.242   4.032  1.00 20.00     0.075 A 
HETATM    5  S10 UNL     1     -32.669   4.697   2.740  1.00 20.00    -0.082 SA
HETATM    6 CL11 UNL     1     -33.496   2.722   4.797  1.00 20.00    -0.076 Cl
ENDROOT
BRANCH   3   7
HETATM    7  C8  UNL     1     -33.000   7.172   1.500  1.00 20.00     0.027 C 
HETATM    8  C5  UNL     1     -31.465   7.274   1.361  1.00 20.00     0.011 C 
HETATM    9  C6  UNL     1     -31.155   8.716   0.941  1.00 20.00     0.021 C 
HETATM   10  C9  UNL     1     -32.511   9.350   0.669  1.00 20.00     0.083 C 
HETATM   11  C7  UNL     1     -33.436   8.638   1.644  1.00 20.00     0.030 C 
HETATM   12 CL12 UNL     1     -32.499  11.103   0.908  1.00 20.00    -0.125 Cl
ENDBRANCH   3   7
TORSDOF 1
ENDMDL
MODEL 4
REMARK VINA RESULT:       2.8      1.690      5.630
REMARK  1 active torsions:
REMARK  status: ('A' for Active; 'I' for Inactive)
REMARK    1  A    between atoms: C3_3  and  C8_8 
ROOT
HETATM    1  C1  UNL     1     -34.111   7.638   3.671  1.00 20.00     0.017 A 
HETATM    2  C2  UNL     1     -34.603   6.426   4.236  1.00 20.00     0.032 A 
HETATM    3  C3  UNL     1     -33.110   7.411   2.752  1.00 20.00    -0.012 A 
HETATM    4  C4  UNL     1     -33.960   5.319   3.728  1.00 20.00     0.075 A 
HETATM    5  S10 UNL     1     -32.768   5.742   2.573  1.00 20.00    -0.082 SA
HETATM    6 CL11 UNL     1     -34.230   3.673   4.123  1.00 20.00    -0.076 Cl
ENDROOT
BRANCH   3   7
HETATM    7  C8  UNL     1     -32.333   8.422   1.936  1.00 20.00     0.027 C 
HETATM    8  C5  UNL     1     -33.113   9.718   1.623  1.00 20.00     0.011 C 
HETATM    9  C6  UNL     1     -32.628  10.205   0.253  1.00 20.00     0.021 C 
HETATM   10  C9  UNL     1     -31.461   9.294  -0.101  1.00 20.00     0.083 C 
HETATM   11  C7  UNL     1     -31.833   7.973   0.554  1.00 20.00     0.030 C 
HETATM   12 CL12 UNL     1     -31.230   9.138  -1.848  1.00 20.00    -0.125 Cl
ENDBRANCH   3   7
TORSDOF 1
ENDMDL
MODEL 5
REMARK VINA RESULT:       3.4      1.565      5.549
REMARK  1 active torsions:
REMARK  status: ('A' for Active; 'I' for Inactive)
REMARK    1  A    between atoms: C3_3  and  C8_8 
ROOT
HETATM    1  C1  UNL     1     -32.689   5.543   2.017  1.00 20.00     0.017 A 
HETATM    2  C2  UNL     1     -33.503   4.698   2.825  1.00 20.00     0.032 A 
HETATM    3  C3  UNL     1     -32.900   6.877   2.287  1.00 20.00    -0.012 A 
HETATM    4  C4  UNL     1     -34.305   5.419   3.683  1.00 20.00     0.075 A 
HETATM    5  S10 UNL     1     -34.075   7.108   3.512  1.00 20.00    -0.082 SA
HETATM    6 CL11 UNL     1     -35.432   4.815   4.824  1.00 20.00    -0.076 Cl
ENDROOT
BRANCH   3   7
HETATM    7  C8  UNL     1     -32.240   8.083   1.653  1.00 20.00     0.027 C 
HETATM    8  C5  UNL     1     -32.439   9.400   2.436  1.00 20.00     0.011 C 
HETATM    9  C6  UNL     1     -32.484  10.528   1.399  1.00 20.00     0.021 C 
HETATM   10  C9  UNL     1     -32.127   9.865   0.077  1.00 20.00     0.083 C 
HETATM   11  C7  UNL     1     -32.678   8.455   0.228  1.00 20.00     0.030 C 
HETATM   12 CL12 UNL     1     -32.818  10.713  -1.314  1.00 20.00    -0.125 Cl
ENDBRANCH   3   7
TORSDOF 1
ENDMDL
MODEL 6
REMARK VINA RESULT:       4.0      1.457      1.908
REMARK  1 active torsions:
REMARK  status: ('A' for Active; 'I' for Inactive)
REMARK    1  A    between atoms: C3_3  and  C8_8 
ROOT
HETATM    1  C1  UNL     1     -31.289   7.726   0.713  1.00 20.00     0.017 A 
HETATM    2  C2  UNL     1     -31.239   8.899  -0.094  1.00 20.00     0.032 A 
HETATM    3  C3  UNL     1     -32.259   7.810   1.688  1.00 20.00    -0.012 A 
HETATM    4  C4  UNL     1     -32.171   9.835   0.295  1.00 20.00     0.075 A 
HETATM    5  S10 UNL     1     -33.103   9.299   1.628  1.00 20.00    -0.082 SA
HETATM    6 CL11 UNL     1     -32.458  11.380  -0.391  1.00 20.00    -0.076 Cl
ENDROOT
BRANCH   3   7
HETATM    7  C8  UNL     1     -32.630   6.786   2.739  1.00 20.00     0.027 C 
HETATM    8  C5  UNL     1     -32.699   5.335   2.214  1.00 20.00     0.011 C 
HETATM    9  C6  UNL     1     -33.786   4.623   3.026  1.00 20.00     0.021 C 
HETATM   10  C9  UNL     1     -34.182   5.612   4.112  1.00 20.00     0.083 C 
HETATM   11  C7  UNL     1     -33.982   6.965   3.447  1.00 20.00     0.030 C 
HETATM   12 CL12 UNL     1     -35.844   5.375   4.672  1.00 20.00    -0.125 Cl
ENDBRANCH   3   7
TORSDOF 1
ENDMDL
