MODEL 1
REMARK VINA RESULT:      -0.0      0.000      0.000
REMARK  3 active torsions:
REMARK  status: ('A' for Active; 'I' for Inactive)
REMARK    1  A    between atoms: C1_1  and  C10_10 
REMARK    2  A    between atoms: C5_5  and  C10_10 
REMARK    3  A    between atoms: C10_10  and  O11_11 
ROOT
HETATM    1  C9  UNL     1     -33.557   7.680   4.051  1.00 20.00     0.051 C 
HETATM    2  C10 UNL     1     -33.559   6.656   2.938  1.00 20.00     0.079 C 
ENDROOT
BRANCH   2   3
HETATM    3  C1  UNL     1     -33.281   5.247   3.434  1.00 20.00     0.013 C 
HETATM    4  C2  UNL     1     -34.043   4.442   4.201  1.00 20.00    -0.088 C 
HETATM    5  C6  UNL     1     -33.558   3.065   4.572  1.00 20.00     0.042 C 
HETATM    6  C7  UNL     1     -35.386   4.796   4.777  1.00 20.00     0.042 C 
ENDBRANCH   2   3
BRANCH   2   7
HETATM    7  C5  UNL     1     -32.514   7.035   1.878  1.00 20.00    -0.010 A 
HETATM    8  C3  UNL     1     -31.528   8.128   2.213  1.00 20.00     0.013 A 
HETATM    9  C4  UNL     1     -32.626   8.392   1.224  1.00 20.00     0.013 A 
HETATM   10  C8  UNL     1     -32.030   5.884   1.037  1.00 20.00     0.018 C 
ENDBRANCH   2   7
BRANCH   2  11
HETATM   11  O11 UNL     1     -34.831   6.692   2.280  1.00 20.00    -0.385 OA
HETATM   12  H29 UNL     1     -35.443   6.206   2.850  1.00 20.00     0.211 HD
ENDBRANCH   2  11
TORSDOF 3
ENDMDL
MODEL 2
REMARK VINA RESULT:       0.5      0.496      1.482
REMARK  3 active torsions:
REMARK  status: ('A' for Active; 'I' for Inactive)
REMARK    1  A    between atoms: C1_1  and  C10_10 
REMARK    2  A    between atoms: C5_5  and  C10_10 
REMARK    3  A    between atoms: C10_10  and  O11_11 
ROOT
HETATM    1  C9  UNL     1     -33.225   7.606   4.070  1.00 20.00     0.051 C 
HETATM    2  C10 UNL     1     -33.548   6.536   3.051  1.00 20.00     0.079 C 
ENDROOT
BRANCH   2   3
HETATM    3  C1  UNL     1     -33.259   5.134   3.558  1.00 20.00     0.013 C 
HETATM    4  C2  UNL     1     -34.022   4.324   4.320  1.00 20.00    -0.088 C 
HETATM    5  C6  UNL     1     -33.526   2.955   4.706  1.00 20.00     0.042 C 
HETATM    6  C7  UNL     1     -35.376   4.666   4.877  1.00 20.00     0.042 C 
ENDBRANCH   2   3
BRANCH   2   7
HETATM    7  C5  UNL     1     -32.746   6.782   1.763  1.00 20.00    -0.010 A 
HETATM    8  C3  UNL     1     -33.186   6.068   0.507  1.00 20.00     0.013 A 
HETATM    9  C4  UNL     1     -31.928   5.640   1.207  1.00 20.00     0.013 A 
HETATM   10  C8  UNL     1     -32.197   8.177   1.625  1.00 20.00     0.018 C 
ENDBRANCH   2   7
BRANCH   2  11
HETATM   11  O11 UNL     1     -34.930   6.643   2.691  1.00 20.00    -0.385 OA
HETATM   12  H29 UNL     1     -35.433   6.475   3.500  1.00 20.00     0.211 HD
ENDBRANCH   2  11
TORSDOF 3
ENDMDL
MODEL 3
REMARK VINA RESULT:       0.7      1.308      4.533
REMARK  3 active torsions:
REMARK  status: ('A' for Active; 'I' for Inactive)
REMARK    1  A    between atoms: C1_1  and  C10_10 
REMARK    2  A    between atoms: C5_5  and  C10_10 
REMARK    3  A    between atoms: C10_10  and  O11_11 
ROOT
HETATM    1  C9  UNL     1     -31.661   6.064   1.893  1.00 20.00     0.051 C 
HETATM    2  C10 UNL     1     -33.068   6.617   1.844  1.00 20.00     0.079 C 
ENDROOT
BRANCH   2   3
HETATM    3  C1  UNL     1     -33.102   8.126   1.669  1.00 20.00     0.013 C 
HETATM    4  C2  UNL     1     -32.363   8.912   0.859  1.00 20.00    -0.088 C 
HETATM    5  C6  UNL     1     -32.572  10.403   0.851  1.00 20.00     0.042 C 
HETATM    6  C7  UNL     1     -31.280   8.438  -0.070  1.00 20.00     0.042 C 
ENDBRANCH   2   3
BRANCH   2   7
HETATM    7  C5  UNL     1     -33.822   6.241   3.129  1.00 20.00    -0.010 A 
HETATM    8  C3  UNL     1     -35.174   6.871   3.368  1.00 20.00     0.013 A 
HETATM    9  C4  UNL     1     -33.993   7.304   4.189  1.00 20.00     0.013 A 
HETATM   10  C8  UNL     1     -33.618   4.820   3.581  1.00 20.00     0.018 C 
ENDBRANCH   2   7
BRANCH   2  11
HETATM   11  O11 UNL     1     -33.773   5.991   0.766  1.00 20.00    -0.385 OA
HETATM   12  H29 UNL     1     -33.775   6.630   0.038  1.00 20.00     0.211 HD
ENDBRANCH   2  11
TORSDOF 3
ENDMDL
MODEL 4
REMARK VINA RESULT:       0.8      1.771      4.894
REMARK  3 active torsions:
REMARK  status: ('A' for Active; 'I' for Inactive)
REMARK    1  A    between atoms: C1_1  and  C10_10 
REMARK    2  A    between atoms: C5_5  and  C10_10 
REMARK    3  A    between atoms: C10_10  and  O11_11 
ROOT
HETATM    1  C9  UNL     1     -31.144   7.968   2.991  1.00 20.00     0.051 C 
HETATM    2  C10 UNL     1     -32.513   7.730   2.395  1.00 20.00     0.079 C 
ENDROOT
BRANCH   2   3
HETATM    3  C1  UNL     1     -32.989   8.887   1.532  1.00 20.00     0.013 C 
HETATM    4  C2  UNL     1     -32.417   9.433   0.440  1.00 20.00    -0.088 C 
HETATM    5  C6  UNL     1     -33.077  10.589  -0.265  1.00 20.00     0.042 C 
HETATM    6  C7  UNL     1     -31.111   9.007  -0.170  1.00 20.00     0.042 C 
ENDBRANCH   2   3
BRANCH   2   7
HETATM    7  C5  UNL     1     -33.535   7.483   3.516  1.00 20.00    -0.010 A 
HETATM    8  C3  UNL     1     -34.142   6.104   3.631  1.00 20.00     0.013 A 
HETATM    9  C4  UNL     1     -34.975   7.247   3.124  1.00 20.00     0.013 A 
HETATM   10  C8  UNL     1     -33.265   8.242   4.787  1.00 20.00     0.018 C 
ENDBRANCH   2   7
BRANCH   2  11
HETATM   11  O11 UNL     1     -32.476   6.530   1.613  1.00 20.00    -0.385 OA
HETATM   12  H29 UNL     1     -33.398   6.297   1.433  1.00 20.00     0.211 HD
ENDBRANCH   2  11
TORSDOF 3
ENDMDL
MODEL 5
REMARK VINA RESULT:       0.9      2.152      4.845
REMARK  3 active torsions:
REMARK  status: ('A' for Active; 'I' for Inactive)
REMARK    1  A    between atoms: C1_1  and  C10_10 
REMARK    2  A    between atoms: C5_5  and  C10_10 
REMARK    3  A    between atoms: C10_10  and  O11_11 
ROOT
HETATM    1  C9  UNL     1     -32.084   8.396   3.724  1.00 20.00     0.051 C 
HETATM    2  C10 UNL     1     -32.209   7.935   2.289  1.00 20.00     0.079 C 
ENDROOT
BRANCH   2   3
HETATM    3  C1  UNL     1     -32.777   9.006   1.373  1.00 20.00     0.013 C 
HETATM    4  C2  UNL     1     -32.295   9.480   0.206  1.00 20.00    -0.088 C 
HETATM    5  C6  UNL     1     -33.037  10.558  -0.540  1.00 20.00     0.042 C 
HETATM    6  C7  UNL     1     -31.017   9.043  -0.455  1.00 20.00     0.042 C 
ENDBRANCH   2   3
BRANCH   2   7
HETATM    7  C5  UNL     1     -33.100   6.685   2.218  1.00 20.00    -0.010 A 
HETATM    8  C3  UNL     1     -32.476   5.395   1.744  1.00 20.00     0.013 A 
HETATM    9  C4  UNL     1     -33.436   6.130   0.854  1.00 20.00     0.013 A 
HETATM   10  C8  UNL     1     -34.153   6.606   3.291  1.00 20.00     0.018 C 
ENDBRANCH   2   7
BRANCH   2  11
HETATM   11  O11 UNL     1     -30.917   7.534   1.818  1.00 20.00    -0.385 OA
HETATM   12  H29 UNL     1     -31.071   7.025   1.010  1.00 20.00     0.211 HD
ENDBRANCH   2  11
TORSDOF 3
ENDMDL
MODEL 6
REMARK VINA RESULT:       0.9      1.379      2.383
REMARK  3 active torsions:
REMARK  status: ('A' for Active; 'I' for Inactive)
REMARK    1  A    between atoms: C1_1  and  C10_10 
REMARK    2  A    between atoms: C5_5  and  C10_10 
REMARK    3  A    between atoms: C10_10  and  O11_11 
ROOT
HETATM    1  C9  UNL     1     -33.374   6.161   0.448  1.00 20.00     0.051 C 
HETATM    2  C10 UNL     1     -32.880   6.442   1.850  1.00 20.00     0.079 C 
ENDROOT
BRANCH   2   3
HETATM    3  C1  UNL     1     -33.984   6.361   2.890  1.00 20.00     0.013 C 
HETATM    4  C2  UNL     1     -34.330   5.335   3.694  1.00 20.00    -0.088 C 
HETATM    5  C6  UNL     1     -35.474   5.483   4.663  1.00 20.00     0.042 C 
HETATM    6  C7  UNL     1     -33.680   3.980   3.713  1.00 20.00     0.042 C 
ENDBRANCH   2   3
BRANCH   2   7
HETATM    7  C5  UNL     1     -32.234   7.835   1.906  1.00 20.00    -0.010 A 
HETATM    8  C3  UNL     1     -32.584   8.824   0.819  1.00 20.00     0.013 A 
HETATM    9  C4  UNL     1     -31.222   8.192   0.842  1.00 20.00     0.013 A 
HETATM   10  C8  UNL     1     -32.013   8.367   3.296  1.00 20.00     0.018 C 
ENDBRANCH   2   7
BRANCH   2  11
HETATM   11  O11 UNL     1     -31.845   5.506   2.172  1.00 20.00    -0.385 OA
HETATM   12  H29 UNL     1     -31.305   5.926   2.857  1.00 20.00     0.211 HD
ENDBRANCH   2  11
TORSDOF 3
ENDMDL
MODEL 7
REMARK VINA RESULT:       1.1      1.832      3.201
REMARK  3 active torsions:
REMARK  status: ('A' for Active; 'I' for Inactive)
REMARK    1  A    between atoms: C1_1  and  C10_10 
REMARK    2  A    between atoms: C5_5  and  C10_10 
REMARK    3  A    between atoms: C10_10  and  O11_11 
ROOT
HETATM    1  C9  UNL     1     -31.766   6.743   1.092  1.00 20.00     0.051 C 
HETATM    2  C10 UNL     1     -32.152   7.985   1.864  1.00 20.00     0.079 C 
ENDROOT
BRANCH   2   3
HETATM    3  C1  UNL     1     -33.421   7.801   2.679  1.00 20.00     0.013 C 
HETATM    4  C2  UNL     1     -33.950   6.674   3.198  1.00 20.00    -0.088 C 
HETATM    5  C6  UNL     1     -35.235   6.731   3.983  1.00 20.00     0.042 C 
HETATM    6  C7  UNL     1     -33.380   5.291   3.051  1.00 20.00     0.042 C 
ENDBRANCH   2   3
BRANCH   2   7
HETATM    7  C5  UNL     1     -32.341   9.164   0.895  1.00 20.00    -0.010 A 
HETATM    8  C3  UNL     1     -32.641   8.851  -0.551  1.00 20.00     0.013 A 
HETATM    9  C4  UNL     1     -31.290   9.383  -0.168  1.00 20.00     0.013 A 
HETATM   10  C8  UNL     1     -32.992  10.376   1.504  1.00 20.00     0.018 C 
ENDBRANCH   2   7
BRANCH   2  11
HETATM   11  O11 UNL     1     -31.071   8.346   2.731  1.00 20.00    -0.385 OA
HETATM   12  H29 UNL     1     -31.477   8.701   3.535  1.00 20.00     0.211 HD
ENDBRANCH   2  11
TORSDOF 3
ENDMDL
MODEL 8
REMARK VINA RESULT:       1.2      0.925      1.567
REMARK  3 active torsions:
REMARK  status: ('A' for Active; 'I' for Inactive)
REMARK    1  A    between atoms: C1_1  and  C10_10 
REMARK    2  A    between atoms: C5_5  and  C10_10 
REMARK    3  A    between atoms: C10_10  and  O11_11 
ROOT
HETATM    1  C9  UNL     1     -35.096   6.871   2.995  1.00 20.00     0.051 C 
HETATM    2  C10 UNL     1     -33.753   6.399   2.484  1.00 20.00     0.079 C 
ENDROOT
BRANCH   2   3
HETATM    3  C1  UNL     1     -33.280   5.125   3.163  1.00 20.00     0.013 C 
HETATM    4  C2  UNL     1     -33.888   4.381   4.109  1.00 20.00    -0.088 C 
HETATM    5  C6  UNL     1     -33.223   3.139   4.642  1.00 20.00     0.042 C 
HETATM    6  C7  UNL     1     -35.217   4.686   4.742  1.00 20.00     0.042 C 
ENDBRANCH   2   3
BRANCH   2   7
HETATM    7  C5  UNL     1     -32.700   7.501   2.688  1.00 20.00    -0.010 A 
HETATM    8  C3  UNL     1     -32.431   8.445   1.540  1.00 20.00     0.013 A 
HETATM    9  C4  UNL     1     -31.412   7.404   1.905  1.00 20.00     0.013 A 
HETATM   10  C8  UNL     1     -32.636   8.054   4.086  1.00 20.00     0.018 C 
ENDBRANCH   2   7
BRANCH   2  11
HETATM   11  O11 UNL     1     -33.844   6.187   1.071  1.00 20.00    -0.385 OA
HETATM   12  H29 UNL     1     -33.897   7.066   0.669  1.00 20.00     0.211 HD
ENDBRANCH   2  11
TORSDOF 3
ENDMDL
MODEL 9
REMARK VINA RESULT:       1.7      1.412      4.063
REMARK  3 active torsions:
REMARK  status: ('A' for Active; 'I' for Inactive)
REMARK    1  A    between atoms: C1_1  and  C10_10 
REMARK    2  A    between atoms: C5_5  and  C10_10 
REMARK    3  A    between atoms: C10_10  and  O11_11 
ROOT
HETATM    1  C9  UNL     1     -35.090   7.003   3.616  1.00 20.00     0.051 C 
HETATM    2  C10 UNL     1     -33.673   7.007   3.088  1.00 20.00     0.079 C 
ENDROOT
BRANCH   2   3
HETATM    3  C1  UNL     1     -33.473   7.988   1.945  1.00 20.00     0.013 C 
HETATM    4  C2  UNL     1     -32.362   8.655   1.572  1.00 20.00    -0.088 C 
HETATM    5  C6  UNL     1     -32.398   9.587   0.389  1.00 20.00     0.042 C 
HETATM    6  C7  UNL     1     -31.027   8.585   2.258  1.00 20.00     0.042 C 
ENDBRANCH   2   3
BRANCH   2   7
HETATM    7  C5  UNL     1     -33.287   5.596   2.616  1.00 20.00    -0.010 A 
HETATM    8  C3  UNL     1     -32.013   5.438   1.821  1.00 20.00     0.013 A 
HETATM    9  C4  UNL     1     -33.343   5.303   1.135  1.00 20.00     0.013 A 
HETATM   10  C8  UNL     1     -33.665   4.493   3.568  1.00 20.00     0.018 C 
ENDBRANCH   2   7
BRANCH   2  11
HETATM   11  O11 UNL     1     -32.780   7.330   4.161  1.00 20.00    -0.385 OA
HETATM   12  H29 UNL     1     -32.778   8.296   4.228  1.00 20.00     0.211 HD
ENDBRANCH   2  11
TORSDOF 3
ENDMDL
