MODEL 1
REMARK VINA RESULT:      -0.6      0.000      0.000
REMARK  1 active torsions:
REMARK  status: ('A' for Active; 'I' for Inactive)
REMARK    1  A    between atoms: C3_3  and  C8_8 
ROOT
HETATM    1  C1  UNL     1     -34.838   6.328   3.996  1.00 20.00     0.089 C 
HETATM    2  C2  UNL     1     -33.989   7.382   3.558  1.00 20.00     0.113 C 
HETATM    3  C3  UNL     1     -33.136   7.268   2.529  1.00 20.00     0.030 C 
HETATM    4  N10 UNL     1     -35.533   5.473   4.358  1.00 20.00    -0.192 NA
HETATM    5 CL11 UNL     1     -33.052   5.757   1.672  1.00 20.00    -0.087 Cl
ENDROOT
BRANCH   3   6
HETATM    6  C8  UNL     1     -32.190   8.338   1.990  1.00 20.00    -0.005 C 
HETATM    7  C6  UNL     1     -31.387   7.831   0.781  1.00 20.00     0.015 C 
HETATM    8  C4  UNL     1     -31.201   9.063  -0.093  1.00 20.00     0.001 C 
HETATM    9  C5  UNL     1     -32.539   9.769   0.028  1.00 20.00     0.001 C 
HETATM   10  C7  UNL     1     -32.941   9.589   1.492  1.00 20.00     0.015 C 
HETATM   11  C9  UNL     1     -31.247   8.739   3.095  1.00 20.00     0.021 C 
ENDBRANCH   3   6
TORSDOF 1
ENDMDL
MODEL 2
REMARK VINA RESULT:       0.2      2.411      4.687
REMARK  1 active torsions:
REMARK  status: ('A' for Active; 'I' for Inactive)
REMARK    1  A    between atoms: C3_3  and  C8_8 
ROOT
HETATM    1  C1  UNL     1     -32.331   9.111   0.786  1.00 20.00     0.089 C 
HETATM    2  C2  UNL     1     -32.873   8.672   2.026  1.00 20.00     0.113 C 
HETATM    3  C3  UNL     1     -33.112   7.385   2.317  1.00 20.00     0.030 C 
HETATM    4  N10 UNL     1     -31.889   9.476  -0.222  1.00 20.00    -0.192 NA
HETATM    5 CL11 UNL     1     -32.742   6.172   1.126  1.00 20.00    -0.087 Cl
ENDROOT
BRANCH   3   6
HETATM    6  C8  UNL     1     -33.690   6.822   3.613  1.00 20.00    -0.005 C 
HETATM    7  C6  UNL     1     -35.220   6.690   3.544  1.00 20.00     0.015 C 
HETATM    8  C4  UNL     1     -35.532   5.462   4.388  1.00 20.00     0.001 C 
HETATM    9  C5  UNL     1     -34.402   4.512   4.034  1.00 20.00     0.001 C 
HETATM   10  C7  UNL     1     -33.167   5.405   3.922  1.00 20.00     0.015 C 
HETATM   11  C9  UNL     1     -33.309   7.743   4.743  1.00 20.00     0.021 C 
ENDBRANCH   3   6
TORSDOF 1
ENDMDL
MODEL 3
REMARK VINA RESULT:       0.5      2.402      3.492
REMARK  1 active torsions:
REMARK  status: ('A' for Active; 'I' for Inactive)
REMARK    1  A    between atoms: C3_3  and  C8_8 
ROOT
HETATM    1  C1  UNL     1     -33.299   2.940   4.364  1.00 20.00     0.089 C 
HETATM    2  C2  UNL     1     -33.138   4.199   3.723  1.00 20.00     0.113 C 
HETATM    3  C3  UNL     1     -34.034   5.194   3.807  1.00 20.00     0.030 C 
HETATM    4  N10 UNL     1     -33.423   1.911   4.885  1.00 20.00    -0.192 NA
HETATM    5 CL11 UNL     1     -35.475   4.948   4.750  1.00 20.00    -0.087 Cl
ENDROOT
BRANCH   3   6
HETATM    6  C8  UNL     1     -33.949   6.572   3.156  1.00 20.00    -0.005 C 
HETATM    7  C6  UNL     1     -33.055   7.529   3.963  1.00 20.00     0.015 C 
HETATM    8  C4  UNL     1     -32.408   8.418   2.912  1.00 20.00     0.001 C 
HETATM    9  C5  UNL     1     -32.116   7.448   1.781  1.00 20.00     0.001 C 
HETATM   10  C7  UNL     1     -33.329   6.519   1.746  1.00 20.00     0.015 C 
HETATM   11  C9  UNL     1     -35.342   7.139   3.059  1.00 20.00     0.021 C 
ENDBRANCH   3   6
TORSDOF 1
ENDMDL
MODEL 4
REMARK VINA RESULT:       0.9      1.354      1.360
REMARK  1 active torsions:
REMARK  status: ('A' for Active; 'I' for Inactive)
REMARK    1  A    between atoms: C3_3  and  C8_8 
ROOT
HETATM    1  C1  UNL     1     -34.657   5.569   3.761  1.00 20.00     0.089 C 
HETATM    2  C2  UNL     1     -33.725   6.260   2.939  1.00 20.00     0.113 C 
HETATM    3  C3  UNL     1     -33.250   7.482   3.221  1.00 20.00     0.030 C 
HETATM    4  N10 UNL     1     -35.417   5.000   4.426  1.00 20.00    -0.192 NA
HETATM    5 CL11 UNL     1     -33.793   8.279   4.669  1.00 20.00    -0.087 Cl
ENDROOT
BRANCH   3   6
HETATM    6  C8  UNL     1     -32.253   8.299   2.402  1.00 20.00    -0.005 C 
HETATM    7  C6  UNL     1     -31.695   7.494   1.217  1.00 20.00     0.015 C 
HETATM    8  C4  UNL     1     -31.469   8.533   0.128  1.00 20.00     0.001 C 
HETATM    9  C5  UNL     1     -32.674   9.444   0.274  1.00 20.00     0.001 C 
HETATM   10  C7  UNL     1     -32.894   9.557   1.782  1.00 20.00     0.015 C 
HETATM   11  C9  UNL     1     -31.125   8.718   3.309  1.00 20.00     0.021 C 
ENDBRANCH   3   6
TORSDOF 1
ENDMDL
MODEL 5
REMARK VINA RESULT:       1.6      1.441      1.601
REMARK  1 active torsions:
REMARK  status: ('A' for Active; 'I' for Inactive)
REMARK    1  A    between atoms: C3_3  and  C8_8 
ROOT
HETATM    1  C1  UNL     1     -34.311   5.267   3.596  1.00 20.00     0.089 C 
HETATM    2  C2  UNL     1     -33.493   5.928   2.639  1.00 20.00     0.113 C 
HETATM    3  C3  UNL     1     -33.203   7.236   2.687  1.00 20.00     0.030 C 
HETATM    4  N10 UNL     1     -34.976   4.721   4.373  1.00 20.00    -0.192 NA
HETATM    5 CL11 UNL     1     -33.854   8.192   3.988  1.00 20.00    -0.087 Cl
ENDROOT
BRANCH   3   6
HETATM    6  C8  UNL     1     -32.340   8.030   1.710  1.00 20.00    -0.005 C 
HETATM    7  C6  UNL     1     -32.931   8.019   0.290  1.00 20.00     0.015 C 
HETATM    8  C4  UNL     1     -32.555   9.376  -0.286  1.00 20.00     0.001 C 
HETATM    9  C5  UNL     1     -32.741  10.310   0.896  1.00 20.00     0.001 C 
HETATM   10  C7  UNL     1     -32.228   9.518   2.099  1.00 20.00     0.015 C 
HETATM   11  C9  UNL     1     -30.961   7.422   1.692  1.00 20.00     0.021 C 
ENDBRANCH   3   6
TORSDOF 1
ENDMDL
MODEL 6
REMARK VINA RESULT:       2.1      2.117      3.185
REMARK  1 active torsions:
REMARK  status: ('A' for Active; 'I' for Inactive)
REMARK    1  A    between atoms: C3_3  and  C8_8 
ROOT
HETATM    1  C1  UNL     1     -33.531   2.982   4.515  1.00 20.00     0.089 C 
HETATM    2  C2  UNL     1     -33.854   4.354   4.327  1.00 20.00     0.113 C 
HETATM    3  C3  UNL     1     -33.368   5.099   3.324  1.00 20.00     0.030 C 
HETATM    4  N10 UNL     1     -33.272   1.862   4.675  1.00 20.00    -0.192 NA
HETATM    5 CL11 UNL     1     -32.285   4.363   2.179  1.00 20.00    -0.087 Cl
ENDROOT
BRANCH   3   6
HETATM    6  C8  UNL     1     -33.656   6.572   3.043  1.00 20.00    -0.005 C 
HETATM    7  C6  UNL     1     -32.837   7.497   3.958  1.00 20.00     0.015 C 
HETATM    8  C4  UNL     1     -32.554   8.723   3.102  1.00 20.00     0.001 C 
HETATM    9  C5  UNL     1     -32.278   8.125   1.734  1.00 20.00     0.001 C 
HETATM   10  C7  UNL     1     -33.282   6.979   1.603  1.00 20.00     0.015 C 
HETATM   11  C9  UNL     1     -35.127   6.818   3.256  1.00 20.00     0.021 C 
ENDBRANCH   3   6
TORSDOF 1
ENDMDL
MODEL 7
REMARK VINA RESULT:       2.2      3.204      4.424
REMARK  1 active torsions:
REMARK  status: ('A' for Active; 'I' for Inactive)
REMARK    1  A    between atoms: C3_3  and  C8_8 
ROOT
HETATM    1  C1  UNL     1     -32.386   9.984   0.465  1.00 20.00     0.089 C 
HETATM    2  C2  UNL     1     -32.671   8.590   0.473  1.00 20.00     0.113 C 
HETATM    3  C3  UNL     1     -32.542   7.813   1.558  1.00 20.00     0.030 C 
HETATM    4  N10 UNL     1     -32.156  11.120   0.451  1.00 20.00    -0.192 NA
HETATM    5 CL11 UNL     1     -32.002   8.533   3.047  1.00 20.00    -0.087 Cl
ENDROOT
BRANCH   3   6
HETATM    6  C8  UNL     1     -32.821   6.316   1.662  1.00 20.00    -0.005 C 
HETATM    7  C6  UNL     1     -33.657   5.809   0.475  1.00 20.00     0.015 C 
HETATM    8  C4  UNL     1     -33.162   4.388   0.244  1.00 20.00     0.001 C 
HETATM    9  C5  UNL     1     -31.666   4.510   0.469  1.00 20.00     0.001 C 
HETATM   10  C7  UNL     1     -31.529   5.475   1.646  1.00 20.00     0.015 C 
HETATM   11  C9  UNL     1     -33.560   6.058   2.950  1.00 20.00     0.021 C 
ENDBRANCH   3   6
TORSDOF 1
ENDMDL
