MODEL 1
REMARK VINA RESULT:      -2.2      0.000      0.000
REMARK  2 active torsions:
REMARK  status: ('A' for Active; 'I' for Inactive)
REMARK    1  A    between atoms: C1_1  and  C4_4 
REMARK    2  A    between atoms: C1_1  and  C6_6 
ROOT
HETATM    1  C2  UNL     1     -34.569   5.731   4.041  1.00 20.00     0.018 A 
HETATM    2  C3  UNL     1     -35.381   6.776   3.339  1.00 20.00     0.018 A 
HETATM    3  C4  UNL     1     -33.904   7.012   3.580  1.00 20.00     0.018 A 
HETATM    4  C5  UNL     1     -33.534   8.013   4.645  1.00 20.00     0.023 C 
ENDROOT
BRANCH   3   5
HETATM    5  C1  UNL     1     -33.009   6.918   2.402  1.00 20.00     0.148 C 
HETATM    6  O7  UNL     1     -33.087   5.963   1.631  1.00 20.00    -0.296 OA
BRANCH   5   7
HETATM    7  C6  UNL     1     -32.024   8.052   2.235  1.00 20.00     0.193 C 
HETATM    8 CL8  UNL     1     -32.431   9.032   0.819  1.00 20.00    -0.123 Cl
ENDBRANCH   5   7
ENDBRANCH   3   5
TORSDOF 2
ENDMDL
MODEL 2
REMARK VINA RESULT:      -1.8      2.527      3.693
REMARK  2 active torsions:
REMARK  status: ('A' for Active; 'I' for Inactive)
REMARK    1  A    between atoms: C1_1  and  C4_4 
REMARK    2  A    between atoms: C1_1  and  C6_6 
ROOT
HETATM    1  C2  UNL     1     -31.591   7.973   2.280  1.00 20.00     0.018 A 
HETATM    2  C3  UNL     1     -32.775   8.389   1.460  1.00 20.00     0.018 A 
HETATM    3  C4  UNL     1     -32.866   7.157   2.337  1.00 20.00     0.018 A 
HETATM    4  C5  UNL     1     -32.854   5.818   1.642  1.00 20.00     0.023 C 
ENDROOT
BRANCH   3   5
HETATM    5  C1  UNL     1     -33.682   7.269   3.570  1.00 20.00     0.148 C 
HETATM    6  O7  UNL     1     -33.263   7.894   4.543  1.00 20.00    -0.296 OA
BRANCH   5   7
HETATM    7  C6  UNL     1     -35.024   6.574   3.535  1.00 20.00     0.193 C 
HETATM    8 CL8  UNL     1     -34.953   5.032   4.399  1.00 20.00    -0.123 Cl
ENDBRANCH   5   7
ENDBRANCH   3   5
TORSDOF 2
ENDMDL
MODEL 3
REMARK VINA RESULT:      -1.8      3.211      3.869
REMARK  2 active torsions:
REMARK  status: ('A' for Active; 'I' for Inactive)
REMARK    1  A    between atoms: C1_1  and  C4_4 
REMARK    2  A    between atoms: C1_1  and  C6_6 
ROOT
HETATM    1  C2  UNL     1     -34.132   7.362   4.327  1.00 20.00     0.018 A 
HETATM    2  C3  UNL     1     -35.278   7.179   3.378  1.00 20.00     0.018 A 
HETATM    3  C4  UNL     1     -34.163   6.153   3.414  1.00 20.00     0.018 A 
HETATM    4  C5  UNL     1     -33.199   6.146   2.254  1.00 20.00     0.023 C 
ENDROOT
BRANCH   3   5
HETATM    5  C1  UNL     1     -34.475   4.845   4.041  1.00 20.00     0.148 C 
HETATM    6  O7  UNL     1     -35.441   4.726   4.792  1.00 20.00    -0.296 OA
BRANCH   5   7
HETATM    7  C6  UNL     1     -33.536   3.712   3.695  1.00 20.00     0.193 C 
HETATM    8 CL8  UNL     1     -32.999   2.875   5.158  1.00 20.00    -0.123 Cl
ENDBRANCH   5   7
ENDBRANCH   3   5
TORSDOF 2
ENDMDL
MODEL 4
REMARK VINA RESULT:      -1.7      1.674      1.841
REMARK  2 active torsions:
REMARK  status: ('A' for Active; 'I' for Inactive)
REMARK    1  A    between atoms: C1_1  and  C4_4 
REMARK    2  A    between atoms: C1_1  and  C6_6 
ROOT
HETATM    1  C2  UNL     1     -34.644   5.716   4.110  1.00 20.00     0.018 A 
HETATM    2  C3  UNL     1     -35.486   6.780   3.473  1.00 20.00     0.018 A 
HETATM    3  C4  UNL     1     -34.007   7.025   3.692  1.00 20.00     0.018 A 
HETATM    4  C5  UNL     1     -33.626   7.984   4.792  1.00 20.00     0.023 C 
ENDROOT
BRANCH   3   5
HETATM    5  C1  UNL     1     -33.137   6.995   2.491  1.00 20.00     0.148 C 
HETATM    6  O7  UNL     1     -32.424   7.957   2.210  1.00 20.00    -0.296 OA
BRANCH   5   7
HETATM    7  C6  UNL     1     -33.199   5.729   1.667  1.00 20.00     0.193 C 
HETATM    8 CL8  UNL     1     -31.582   5.250   1.132  1.00 20.00    -0.123 Cl
ENDBRANCH   5   7
ENDBRANCH   3   5
TORSDOF 2
ENDMDL
MODEL 5
REMARK VINA RESULT:      -1.6      0.676      1.491
REMARK  2 active torsions:
REMARK  status: ('A' for Active; 'I' for Inactive)
REMARK    1  A    between atoms: C1_1  and  C4_4 
REMARK    2  A    between atoms: C1_1  and  C6_6 
ROOT
HETATM    1  C2  UNL     1     -35.287   6.902   3.345  1.00 20.00     0.018 A 
HETATM    2  C3  UNL     1     -34.223   7.277   4.332  1.00 20.00     0.018 A 
HETATM    3  C4  UNL     1     -33.956   6.179   3.322  1.00 20.00     0.018 A 
HETATM    4  C5  UNL     1     -33.937   4.762   3.839  1.00 20.00     0.023 C 
ENDROOT
BRANCH   3   5
HETATM    5  C1  UNL     1     -33.034   6.503   2.206  1.00 20.00     0.148 C 
HETATM    6  O7  UNL     1     -32.969   5.775   1.217  1.00 20.00    -0.296 OA
BRANCH   5   7
HETATM    7  C6  UNL     1     -32.208   7.756   2.381  1.00 20.00     0.193 C 
HETATM    8 CL8  UNL     1     -32.273   8.758   0.924  1.00 20.00    -0.123 Cl
ENDBRANCH   5   7
ENDBRANCH   3   5
TORSDOF 2
ENDMDL
MODEL 6
REMARK VINA RESULT:      -1.5      2.556      3.481
REMARK  2 active torsions:
REMARK  status: ('A' for Active; 'I' for Inactive)
REMARK    1  A    between atoms: C1_1  and  C4_4 
REMARK    2  A    between atoms: C1_1  and  C6_6 
ROOT
HETATM    1  C2  UNL     1     -33.508   6.097   1.172  1.00 20.00     0.018 A 
HETATM    2  C3  UNL     1     -32.321   5.603   1.942  1.00 20.00     0.018 A 
HETATM    3  C4  UNL     1     -32.879   6.981   2.229  1.00 20.00     0.018 A 
HETATM    4  C5  UNL     1     -32.075   8.161   1.745  1.00 20.00     0.023 C 
ENDROOT
BRANCH   3   5
HETATM    5  C1  UNL     1     -33.630   7.151   3.497  1.00 20.00     0.148 C 
HETATM    6  O7  UNL     1     -33.150   7.795   4.428  1.00 20.00    -0.296 OA
BRANCH   5   7
HETATM    7  C6  UNL     1     -34.987   6.485   3.550  1.00 20.00     0.193 C 
HETATM    8 CL8  UNL     1     -34.886   4.923   4.373  1.00 20.00    -0.123 Cl
ENDBRANCH   5   7
ENDBRANCH   3   5
TORSDOF 2
ENDMDL
MODEL 7
REMARK VINA RESULT:      -1.4      2.123      3.131
REMARK  2 active torsions:
REMARK  status: ('A' for Active; 'I' for Inactive)
REMARK    1  A    between atoms: C1_1  and  C4_4 
REMARK    2  A    between atoms: C1_1  and  C6_6 
ROOT
HETATM    1  C2  UNL     1     -33.200   5.676   0.713  1.00 20.00     0.018 A 
HETATM    2  C3  UNL     1     -32.002   5.254   1.507  1.00 20.00     0.018 A 
HETATM    3  C4  UNL     1     -32.834   6.431   1.974  1.00 20.00     0.018 A 
HETATM    4  C5  UNL     1     -32.236   7.805   1.800  1.00 20.00     0.023 C 
ENDROOT
BRANCH   3   5
HETATM    5  C1  UNL     1     -33.696   6.215   3.161  1.00 20.00     0.148 C 
HETATM    6  O7  UNL     1     -33.884   5.082   3.600  1.00 20.00    -0.296 OA
BRANCH   5   7
HETATM    7  C6  UNL     1     -34.305   7.460   3.764  1.00 20.00     0.193 C 
HETATM    8 CL8  UNL     1     -33.291   8.081   5.075  1.00 20.00    -0.123 Cl
ENDBRANCH   5   7
ENDBRANCH   3   5
TORSDOF 2
ENDMDL
MODEL 8
REMARK VINA RESULT:      -1.1      1.672      2.442
REMARK  2 active torsions:
REMARK  status: ('A' for Active; 'I' for Inactive)
REMARK    1  A    between atoms: C1_1  and  C4_4 
REMARK    2  A    between atoms: C1_1  and  C6_6 
ROOT
HETATM    1  C2  UNL     1     -32.148   5.420   1.747  1.00 20.00     0.018 A 
HETATM    2  C3  UNL     1     -33.185   5.951   0.804  1.00 20.00     0.018 A 
HETATM    3  C4  UNL     1     -32.878   6.704   2.083  1.00 20.00     0.018 A 
HETATM    4  C5  UNL     1     -33.909   6.637   3.181  1.00 20.00     0.023 C 
ENDROOT
BRANCH   3   5
HETATM    5  C1  UNL     1     -32.112   7.967   1.951  1.00 20.00     0.148 C 
HETATM    6  O7  UNL     1     -31.598   8.493   2.937  1.00 20.00    -0.296 OA
BRANCH   5   7
HETATM    7  C6  UNL     1     -32.023   8.537   0.554  1.00 20.00     0.193 C 
HETATM    8 CL8  UNL     1     -32.611  10.205   0.518  1.00 20.00    -0.123 Cl
ENDBRANCH   5   7
ENDBRANCH   3   5
TORSDOF 2
ENDMDL
MODEL 9
REMARK VINA RESULT:      -1.1      1.887      2.430
REMARK  2 active torsions:
REMARK  status: ('A' for Active; 'I' for Inactive)
REMARK    1  A    between atoms: C1_1  and  C4_4 
REMARK    2  A    between atoms: C1_1  and  C6_6 
ROOT
HETATM    1  C2  UNL     1     -35.369   6.880   3.489  1.00 20.00     0.018 A 
HETATM    2  C3  UNL     1     -34.288   7.243   4.461  1.00 20.00     0.018 A 
HETATM    3  C4  UNL     1     -34.016   6.205   3.391  1.00 20.00     0.018 A 
HETATM    4  C5  UNL     1     -33.936   4.766   3.836  1.00 20.00     0.023 C 
ENDROOT
BRANCH   3   5
HETATM    5  C1  UNL     1     -33.140   6.614   2.267  1.00 20.00     0.148 C 
HETATM    6  O7  UNL     1     -32.544   7.689   2.297  1.00 20.00    -0.296 OA
BRANCH   5   7
HETATM    7  C6  UNL     1     -33.048   5.636   1.118  1.00 20.00     0.193 C 
HETATM    8 CL8  UNL     1     -31.448   4.881   1.065  1.00 20.00    -0.123 Cl
ENDBRANCH   5   7
ENDBRANCH   3   5
TORSDOF 2
ENDMDL
