MODEL 1
REMARK VINA RESULT:      -1.5      0.000      0.000
REMARK  1 active torsions:
REMARK  status: ('A' for Active; 'I' for Inactive)
REMARK    1  A    between atoms: C4_4  and  C5_5 
ROOT
HETATM    1  C1  UNL     1     -35.397   6.649   3.365  1.00 20.00     0.013 A 
HETATM    2  C2  UNL     1     -34.538   5.653   4.092  1.00 20.00     0.013 A 
HETATM    3  C4  UNL     1     -33.920   6.913   3.532  1.00 20.00    -0.011 A 
HETATM    4  C6  UNL     1     -33.534   7.973   4.533  1.00 20.00     0.018 C 
ENDROOT
BRANCH   3   5
HETATM    5  C5  UNL     1     -32.979   6.840   2.322  1.00 20.00     0.086 A 
HETATM    6  C3  UNL     1     -32.484   5.523   1.789  1.00 20.00     0.207 A 
HETATM    7  O8  UNL     1     -33.556   6.241   1.159  1.00 20.00    -0.375 OA
HETATM    8  C7  UNL     1     -32.190   8.075   2.028  1.00 20.00     0.049 C 
ENDBRANCH   3   5
TORSDOF 1
ENDMDL
MODEL 2
REMARK VINA RESULT:      -1.4      1.057      1.662
REMARK  1 active torsions:
REMARK  status: ('A' for Active; 'I' for Inactive)
REMARK    1  A    between atoms: C4_4  and  C5_5 
ROOT
HETATM    1  C1  UNL     1     -35.293   6.892   3.371  1.00 20.00     0.013 A 
HETATM    2  C2  UNL     1     -34.429   5.821   3.974  1.00 20.00     0.013 A 
HETATM    3  C4  UNL     1     -33.807   7.119   3.515  1.00 20.00    -0.011 A 
HETATM    4  C6  UNL     1     -33.373   8.076   4.597  1.00 20.00     0.018 C 
ENDROOT
BRANCH   3   5
HETATM    5  C5  UNL     1     -32.905   7.146   2.274  1.00 20.00     0.086 A 
HETATM    6  C3  UNL     1     -32.658   8.418   1.509  1.00 20.00     0.207 A 
HETATM    7  O8  UNL     1     -31.696   7.891   2.436  1.00 20.00    -0.375 OA
HETATM    8  C7  UNL     1     -32.712   5.840   1.574  1.00 20.00     0.049 C 
ENDBRANCH   3   5
TORSDOF 1
ENDMDL
MODEL 3
REMARK VINA RESULT:      -1.2      1.175      2.859
REMARK  1 active torsions:
REMARK  status: ('A' for Active; 'I' for Inactive)
REMARK    1  A    between atoms: C4_4  and  C5_5 
ROOT
HETATM    1  C1  UNL     1     -32.342   5.469   1.822  1.00 20.00     0.013 A 
HETATM    2  C2  UNL     1     -33.466   6.022   0.992  1.00 20.00     0.013 A 
HETATM    3  C4  UNL     1     -32.971   6.791   2.195  1.00 20.00    -0.011 A 
HETATM    4  C6  UNL     1     -32.155   8.028   1.913  1.00 20.00     0.018 C 
ENDROOT
BRANCH   3   5
HETATM    5  C5  UNL     1     -33.844   6.905   3.451  1.00 20.00     0.086 A 
HETATM    6  C3  UNL     1     -35.273   6.435   3.462  1.00 20.00     0.207 A 
HETATM    7  O8  UNL     1     -34.213   5.652   4.032  1.00 20.00    -0.375 OA
HETATM    8  C7  UNL     1     -33.418   7.926   4.457  1.00 20.00     0.049 C 
ENDBRANCH   3   5
TORSDOF 1
ENDMDL
MODEL 4
REMARK VINA RESULT:      -1.0      1.326      3.369
REMARK  1 active torsions:
REMARK  status: ('A' for Active; 'I' for Inactive)
REMARK    1  A    between atoms: C4_4  and  C5_5 
ROOT
HETATM    1  C1  UNL     1     -32.704   8.379   1.392  1.00 20.00     0.013 A 
HETATM    2  C2  UNL     1     -31.534   7.951   2.233  1.00 20.00     0.013 A 
HETATM    3  C4  UNL     1     -32.796   7.119   2.220  1.00 20.00    -0.011 A 
HETATM    4  C6  UNL     1     -32.732   5.813   1.468  1.00 20.00     0.018 C 
ENDROOT
BRANCH   3   5
HETATM    5  C5  UNL     1     -33.702   7.072   3.458  1.00 20.00     0.086 A 
HETATM    6  C3  UNL     1     -33.440   7.939   4.658  1.00 20.00     0.207 A 
HETATM    7  O8  UNL     1     -34.450   8.267   3.691  1.00 20.00    -0.375 OA
HETATM    8  C7  UNL     1     -34.503   5.822   3.637  1.00 20.00     0.049 C 
ENDBRANCH   3   5
TORSDOF 1
ENDMDL
MODEL 5
REMARK VINA RESULT:      -0.4      1.322      2.729
REMARK  1 active torsions:
REMARK  status: ('A' for Active; 'I' for Inactive)
REMARK    1  A    between atoms: C4_4  and  C5_5 
ROOT
HETATM    1  C1  UNL     1     -31.458   8.109   2.251  1.00 20.00     0.013 A 
HETATM    2  C2  UNL     1     -32.609   8.489   1.362  1.00 20.00     0.013 A 
HETATM    3  C4  UNL     1     -32.810   7.466   2.457  1.00 20.00    -0.011 A 
HETATM    4  C6  UNL     1     -33.594   7.919   3.663  1.00 20.00     0.018 C 
ENDROOT
BRANCH   3   5
HETATM    5  C5  UNL     1     -33.025   5.989   2.103  1.00 20.00     0.086 A 
HETATM    6  C3  UNL     1     -33.071   5.521   0.675  1.00 20.00     0.207 A 
HETATM    7  O8  UNL     1     -31.900   5.357   1.489  1.00 20.00    -0.375 OA
HETATM    8  C7  UNL     1     -33.681   5.151   3.153  1.00 20.00     0.049 C 
ENDBRANCH   3   5
TORSDOF 1
ENDMDL
MODEL 6
REMARK VINA RESULT:      -0.4      1.345      2.723
REMARK  1 active torsions:
REMARK  status: ('A' for Active; 'I' for Inactive)
REMARK    1  A    between atoms: C4_4  and  C5_5 
ROOT
HETATM    1  C1  UNL     1     -33.239   5.574   0.711  1.00 20.00     0.013 A 
HETATM    2  C2  UNL     1     -31.939   5.223   1.378  1.00 20.00     0.013 A 
HETATM    3  C4  UNL     1     -33.016   5.937   2.161  1.00 20.00    -0.011 A 
HETATM    4  C6  UNL     1     -33.761   5.115   3.183  1.00 20.00     0.018 C 
ENDROOT
BRANCH   3   5
HETATM    5  C5  UNL     1     -32.829   7.404   2.570  1.00 20.00     0.086 A 
HETATM    6  C3  UNL     1     -31.584   8.168   2.212  1.00 20.00     0.207 A 
HETATM    7  O8  UNL     1     -32.808   8.326   1.478  1.00 20.00    -0.375 OA
HETATM    8  C7  UNL     1     -33.647   7.871   3.731  1.00 20.00     0.049 C 
ENDBRANCH   3   5
TORSDOF 1
ENDMDL
MODEL 7
REMARK VINA RESULT:       0.1      1.657      3.064
REMARK  1 active torsions:
REMARK  status: ('A' for Active; 'I' for Inactive)
REMARK    1  A    between atoms: C4_4  and  C5_5 
ROOT
HETATM    1  C1  UNL     1     -33.468   5.740   1.302  1.00 20.00     0.013 A 
HETATM    2  C2  UNL     1     -32.312   6.325   2.063  1.00 20.00     0.013 A 
HETATM    3  C4  UNL     1     -33.484   5.734   2.812  1.00 20.00    -0.011 A 
HETATM    4  C6  UNL     1     -33.249   4.404   3.483  1.00 20.00     0.018 C 
ENDROOT
BRANCH   3   5
HETATM    5  C5  UNL     1     -34.449   6.647   3.579  1.00 20.00     0.086 A 
HETATM    6  C3  UNL     1     -35.914   6.704   3.240  1.00 20.00     0.207 A 
HETATM    7  O8  UNL     1     -35.423   5.953   4.362  1.00 20.00    -0.375 OA
HETATM    8  C7  UNL     1     -33.831   7.809   4.287  1.00 20.00     0.049 C 
ENDBRANCH   3   5
TORSDOF 1
ENDMDL
MODEL 8
REMARK VINA RESULT:       0.3      1.177      2.165
REMARK  1 active torsions:
REMARK  status: ('A' for Active; 'I' for Inactive)
REMARK    1  A    between atoms: C4_4  and  C5_5 
ROOT
HETATM    1  C1  UNL     1     -34.370   7.919   3.488  1.00 20.00     0.013 A 
HETATM    2  C2  UNL     1     -33.187   7.600   4.358  1.00 20.00     0.013 A 
HETATM    3  C4  UNL     1     -33.132   7.305   2.877  1.00 20.00    -0.011 A 
HETATM    4  C6  UNL     1     -32.269   8.219   2.042  1.00 20.00     0.018 C 
ENDROOT
BRANCH   3   5
HETATM    5  C5  UNL     1     -33.154   5.855   2.377  1.00 20.00     0.086 A 
HETATM    6  C3  UNL     1     -33.175   5.529   0.908  1.00 20.00     0.207 A 
HETATM    7  O8  UNL     1     -31.970   5.449   1.686  1.00 20.00    -0.375 OA
HETATM    8  C7  UNL     1     -33.660   4.834   3.344  1.00 20.00     0.049 C 
ENDBRANCH   3   5
TORSDOF 1
ENDMDL
MODEL 9
REMARK VINA RESULT:       0.4      1.595      2.716
REMARK  1 active torsions:
REMARK  status: ('A' for Active; 'I' for Inactive)
REMARK    1  A    between atoms: C4_4  and  C5_5 
ROOT
HETATM    1  C1  UNL     1     -33.345   5.916   0.704  1.00 20.00     0.013 A 
HETATM    2  C2  UNL     1     -32.254   5.376   1.585  1.00 20.00     0.013 A 
HETATM    3  C4  UNL     1     -32.967   6.653   1.967  1.00 20.00    -0.011 A 
HETATM    4  C6  UNL     1     -33.939   6.562   3.117  1.00 20.00     0.018 C 
ENDROOT
BRANCH   3   5
HETATM    5  C5  UNL     1     -32.235   7.999   1.887  1.00 20.00     0.086 A 
HETATM    6  C3  UNL     1     -31.635   8.642   3.107  1.00 20.00     0.207 A 
HETATM    7  O8  UNL     1     -30.833   7.928   2.153  1.00 20.00    -0.375 OA
HETATM    8  C7  UNL     1     -32.577   8.864   0.716  1.00 20.00     0.049 C 
ENDBRANCH   3   5
TORSDOF 1
ENDMDL
