MODEL 1
REMARK VINA RESULT:      -1.1      0.000      0.000
REMARK  3 active torsions:
REMARK  status: ('A' for Active; 'I' for Inactive)
REMARK    1  A    between atoms: C3_3  and  C6_6 
REMARK    2  A    between atoms: C6_6  and  C7_7 
REMARK    3  A    between atoms: C6_6  and  O8_8 
ROOT
HETATM    1  C5  UNL     1     -33.752   6.301   0.626  1.00 20.00     0.056 C 
HETATM    2  C6  UNL     1     -32.916   6.416   1.886  1.00 20.00     0.158 C 
ENDROOT
BRANCH   2   3
HETATM    3  C3  UNL     1     -33.747   6.194   3.119  1.00 20.00    -0.004 A 
HETATM    4  C1  UNL     1     -35.089   6.884   3.203  1.00 20.00     0.013 A 
HETATM    5  C2  UNL     1     -33.950   7.361   4.056  1.00 20.00     0.013 A 
HETATM    6  C4  UNL     1     -33.623   4.820   3.719  1.00 20.00     0.018 C 
ENDBRANCH   2   3
BRANCH   2   7
HETATM    7  C7  UNL     1     -32.200   7.772   1.919  1.00 20.00     0.418 C 
HETATM    8  F9  UNL     1     -31.070   7.736   1.178  1.00 20.00    -0.168 F 
HETATM    9  F10 UNL     1     -31.852   8.139   3.172  1.00 20.00    -0.168 F 
HETATM   10  F11 UNL     1     -32.987   8.747   1.411  1.00 20.00    -0.168 F 
ENDBRANCH   2   7
BRANCH   2  11
HETATM   11  O8  UNL     1     -31.900   5.401   1.812  1.00 20.00    -0.380 OA
HETATM   12  H22 UNL     1     -31.815   5.048   2.708  1.00 20.00     0.211 HD
ENDBRANCH   2  11
TORSDOF 3
ENDMDL
MODEL 2
REMARK VINA RESULT:      -0.6      0.613      1.269
REMARK  3 active torsions:
REMARK  status: ('A' for Active; 'I' for Inactive)
REMARK    1  A    between atoms: C3_3  and  C6_6 
REMARK    2  A    between atoms: C6_6  and  C7_7 
REMARK    3  A    between atoms: C6_6  and  O8_8 
ROOT
HETATM    1  C5  UNL     1     -33.934   6.448   0.978  1.00 20.00     0.056 C 
HETATM    2  C6  UNL     1     -33.086   6.672   2.216  1.00 20.00     0.158 C 
ENDROOT
BRANCH   2   3
HETATM    3  C3  UNL     1     -33.940   6.852   3.441  1.00 20.00    -0.004 A 
HETATM    4  C1  UNL     1     -34.570   5.621   4.052  1.00 20.00     0.013 A 
HETATM    5  C2  UNL     1     -35.425   6.609   3.311  1.00 20.00     0.013 A 
HETATM    6  C4  UNL     1     -33.482   7.943   4.368  1.00 20.00     0.018 C 
ENDBRANCH   2   3
BRANCH   2   7
HETATM    7  C7  UNL     1     -32.146   7.864   1.998  1.00 20.00     0.418 C 
HETATM    8  F9  UNL     1     -31.120   7.523   1.187  1.00 20.00    -0.168 F 
HETATM    9  F10 UNL     1     -31.614   8.317   3.155  1.00 20.00    -0.168 F 
HETATM   10  F11 UNL     1     -32.798   8.895   1.417  1.00 20.00    -0.168 F 
ENDBRANCH   2   7
BRANCH   2  11
HETATM   11  O8  UNL     1     -32.263   5.506   2.381  1.00 20.00    -0.380 OA
HETATM   12  H22 UNL     1     -31.447   5.815   2.797  1.00 20.00     0.211 HD
ENDBRANCH   2  11
TORSDOF 3
ENDMDL
MODEL 3
REMARK VINA RESULT:      -0.6      0.600      1.685
REMARK  3 active torsions:
REMARK  status: ('A' for Active; 'I' for Inactive)
REMARK    1  A    between atoms: C3_3  and  C6_6 
REMARK    2  A    between atoms: C6_6  and  C7_7 
REMARK    3  A    between atoms: C6_6  and  O8_8 
ROOT
HETATM    1  C5  UNL     1     -33.933   6.441   0.963  1.00 20.00     0.056 C 
HETATM    2  C6  UNL     1     -33.069   6.679   2.186  1.00 20.00     0.158 C 
ENDROOT
BRANCH   2   3
HETATM    3  C3  UNL     1     -33.905   6.855   3.424  1.00 20.00    -0.004 A 
HETATM    4  C1  UNL     1     -34.525   5.623   4.042  1.00 20.00     0.013 A 
HETATM    5  C2  UNL     1     -35.392   6.610   3.315  1.00 20.00     0.013 A 
HETATM    6  C4  UNL     1     -33.436   7.946   4.347  1.00 20.00     0.018 C 
ENDBRANCH   2   3
BRANCH   2   7
HETATM    7  C7  UNL     1     -32.144   7.880   1.950  1.00 20.00     0.418 C 
HETATM    8  F9  UNL     1     -31.594   8.297   3.111  1.00 20.00    -0.168 F 
HETATM    9  F10 UNL     1     -32.797   8.933   1.410  1.00 20.00    -0.168 F 
HETATM   10  F11 UNL     1     -31.133   7.555   1.114  1.00 20.00    -0.168 F 
ENDBRANCH   2   7
BRANCH   2  11
HETATM   11  O8  UNL     1     -32.231   5.522   2.344  1.00 20.00    -0.380 OA
HETATM   12  H22 UNL     1     -31.856   5.346   1.470  1.00 20.00     0.211 HD
ENDBRANCH   2  11
TORSDOF 3
ENDMDL
MODEL 4
REMARK VINA RESULT:      -0.4      1.914      2.652
REMARK  3 active torsions:
REMARK  status: ('A' for Active; 'I' for Inactive)
REMARK    1  A    between atoms: C3_3  and  C6_6 
REMARK    2  A    between atoms: C6_6  and  C7_7 
REMARK    3  A    between atoms: C6_6  and  O8_8 
ROOT
HETATM    1  C5  UNL     1     -31.485   7.922   2.786  1.00 20.00     0.056 C 
HETATM    2  C6  UNL     1     -32.853   7.383   2.413  1.00 20.00     0.158 C 
ENDROOT
BRANCH   2   3
HETATM    3  C3  UNL     1     -33.763   7.321   3.608  1.00 20.00    -0.004 A 
HETATM    4  C1  UNL     1     -34.486   6.022   3.881  1.00 20.00     0.013 A 
HETATM    5  C2  UNL     1     -35.249   7.207   3.362  1.00 20.00     0.013 A 
HETATM    6  C4  UNL     1     -33.304   8.133   4.788  1.00 20.00     0.018 C 
ENDBRANCH   2   3
BRANCH   2   7
HETATM    7  C7  UNL     1     -32.710   6.015   1.734  1.00 20.00     0.418 C 
HETATM    8  F9  UNL     1     -33.574   5.900   0.701  1.00 20.00    -0.168 F 
HETATM    9  F10 UNL     1     -32.956   4.992   2.583  1.00 20.00    -0.168 F 
HETATM   10  F11 UNL     1     -31.463   5.846   1.242  1.00 20.00    -0.168 F 
ENDBRANCH   2   7
BRANCH   2  11
HETATM   11  O8  UNL     1     -33.411   8.283   1.441  1.00 20.00    -0.380 OA
HETATM   12  H22 UNL     1     -33.194   7.907   0.577  1.00 20.00     0.211 HD
ENDBRANCH   2  11
TORSDOF 3
ENDMDL
MODEL 5
REMARK VINA RESULT:      -0.3      2.580      3.569
REMARK  3 active torsions:
REMARK  status: ('A' for Active; 'I' for Inactive)
REMARK    1  A    between atoms: C3_3  and  C6_6 
REMARK    2  A    between atoms: C6_6  and  C7_7 
REMARK    3  A    between atoms: C6_6  and  O8_8 
ROOT
HETATM    1  C5  UNL     1     -34.453   8.906   3.310  1.00 20.00     0.056 C 
HETATM    2  C6  UNL     1     -33.682   7.611   3.480  1.00 20.00     0.158 C 
ENDROOT
BRANCH   2   3
HETATM    3  C3  UNL     1     -32.806   7.333   2.290  1.00 20.00    -0.004 A 
HETATM    4  C1  UNL     1     -31.461   8.021   2.223  1.00 20.00     0.013 A 
HETATM    5  C2  UNL     1     -32.569   8.455   1.307  1.00 20.00     0.013 A 
HETATM    6  C4  UNL     1     -32.908   5.933   1.750  1.00 20.00     0.018 C 
ENDBRANCH   2   3
BRANCH   2   7
HETATM    7  C7  UNL     1     -34.652   6.455   3.754  1.00 20.00     0.418 C 
HETATM    8  F9  UNL     1     -35.261   6.613   4.951  1.00 20.00    -0.168 F 
HETATM    9  F10 UNL     1     -34.031   5.254   3.771  1.00 20.00    -0.168 F 
HETATM   10  F11 UNL     1     -35.619   6.401   2.811  1.00 20.00    -0.168 F 
ENDBRANCH   2   7
BRANCH   2  11
HETATM   11  O8  UNL     1     -32.858   7.759   4.648  1.00 20.00    -0.380 OA
HETATM   12  H22 UNL     1     -33.467   7.823   5.395  1.00 20.00     0.211 HD
ENDBRANCH   2  11
TORSDOF 3
ENDMDL
MODEL 6
REMARK VINA RESULT:      -0.3      1.853      3.216
REMARK  3 active torsions:
REMARK  status: ('A' for Active; 'I' for Inactive)
REMARK    1  A    between atoms: C3_3  and  C6_6 
REMARK    2  A    between atoms: C6_6  and  C7_7 
REMARK    3  A    between atoms: C6_6  and  O8_8 
ROOT
HETATM    1  C5  UNL     1     -33.873   5.120   3.850  1.00 20.00     0.056 C 
HETATM    2  C6  UNL     1     -33.971   6.431   3.093  1.00 20.00     0.158 C 
ENDROOT
BRANCH   2   3
HETATM    3  C3  UNL     1     -32.923   6.523   2.018  1.00 20.00    -0.004 A 
HETATM    4  C1  UNL     1     -33.095   5.667   0.785  1.00 20.00     0.013 A 
HETATM    5  C2  UNL     1     -32.034   5.324   1.790  1.00 20.00     0.013 A 
HETATM    6  C4  UNL     1     -32.320   7.891   1.848  1.00 20.00     0.018 C 
ENDBRANCH   2   3
BRANCH   2   7
HETATM    7  C7  UNL     1     -33.888   7.609   4.072  1.00 20.00     0.418 C 
HETATM    8  F9  UNL     1     -34.317   8.749   3.486  1.00 20.00    -0.168 F 
HETATM    9  F10 UNL     1     -32.627   7.827   4.508  1.00 20.00    -0.168 F 
HETATM   10  F11 UNL     1     -34.664   7.393   5.157  1.00 20.00    -0.168 F 
ENDBRANCH   2   7
BRANCH   2  11
HETATM   11  O8  UNL     1     -35.273   6.472   2.487  1.00 20.00    -0.380 OA
HETATM   12  H22 UNL     1     -35.209   5.937   1.685  1.00 20.00     0.211 HD
ENDBRANCH   2  11
TORSDOF 3
ENDMDL
MODEL 7
REMARK VINA RESULT:      -0.2      1.961      3.266
REMARK  3 active torsions:
REMARK  status: ('A' for Active; 'I' for Inactive)
REMARK    1  A    between atoms: C3_3  and  C6_6 
REMARK    2  A    between atoms: C6_6  and  C7_7 
REMARK    3  A    between atoms: C6_6  and  O8_8 
ROOT
HETATM    1  C5  UNL     1     -31.976   5.510   1.819  1.00 20.00     0.056 C 
HETATM    2  C6  UNL     1     -32.919   6.698   1.868  1.00 20.00     0.158 C 
ENDROOT
BRANCH   2   3
HETATM    3  C3  UNL     1     -32.166   7.999   1.817  1.00 20.00    -0.004 A 
HETATM    4  C1  UNL     1     -32.759   9.129   1.008  1.00 20.00     0.013 A 
HETATM    5  C2  UNL     1     -31.543   8.406   0.503  1.00 20.00     0.013 A 
HETATM    6  C4  UNL     1     -31.433   8.348   3.083  1.00 20.00     0.018 C 
ENDBRANCH   2   3
BRANCH   2   7
HETATM    7  C7  UNL     1     -33.813   6.606   3.111  1.00 20.00     0.418 C 
HETATM    8  F9  UNL     1     -35.110   6.798   2.783  1.00 20.00    -0.168 F 
HETATM    9  F10 UNL     1     -33.491   7.529   4.045  1.00 20.00    -0.168 F 
HETATM   10  F11 UNL     1     -33.715   5.389   3.689  1.00 20.00    -0.168 F 
ENDBRANCH   2   7
BRANCH   2  11
HETATM   11  O8  UNL     1     -33.777   6.604   0.719  1.00 20.00    -0.380 OA
HETATM   12  H22 UNL     1     -33.196   6.662  -0.050  1.00 20.00     0.211 HD
ENDBRANCH   2  11
TORSDOF 3
ENDMDL
MODEL 8
REMARK VINA RESULT:      -0.1      2.518      3.440
REMARK  3 active torsions:
REMARK  status: ('A' for Active; 'I' for Inactive)
REMARK    1  A    between atoms: C3_3  and  C6_6 
REMARK    2  A    between atoms: C6_6  and  C7_7 
REMARK    3  A    between atoms: C6_6  and  O8_8 
ROOT
HETATM    1  C5  UNL     1     -33.011   5.003   3.342  1.00 20.00     0.056 C 
HETATM    2  C6  UNL     1     -33.756   6.242   2.883  1.00 20.00     0.158 C 
ENDROOT
BRANCH   2   3
HETATM    3  C3  UNL     1     -32.863   7.451   2.880  1.00 20.00    -0.004 A 
HETATM    4  C1  UNL     1     -32.895   8.354   1.668  1.00 20.00     0.013 A 
HETATM    5  C2  UNL     1     -31.703   7.473   1.913  1.00 20.00     0.013 A 
HETATM    6  C4  UNL     1     -32.669   8.090   4.228  1.00 20.00     0.018 C 
ENDBRANCH   2   3
BRANCH   2   7
HETATM    7  C7  UNL     1     -35.002   6.457   3.753  1.00 20.00     0.418 C 
HETATM    8  F9  UNL     1     -36.060   6.815   2.993  1.00 20.00    -0.168 F 
HETATM    9  F10 UNL     1     -34.821   7.425   4.679  1.00 20.00    -0.168 F 
HETATM   10  F11 UNL     1     -35.337   5.323   4.407  1.00 20.00    -0.168 F 
ENDBRANCH   2   7
BRANCH   2  11
HETATM   11  O8  UNL     1     -34.212   5.989   1.543  1.00 20.00    -0.380 OA
HETATM   12  H22 UNL     1     -35.177   5.982   1.590  1.00 20.00     0.211 HD
ENDBRANCH   2  11
TORSDOF 3
ENDMDL
MODEL 9
REMARK VINA RESULT:      -0.0      1.575      2.447
REMARK  3 active torsions:
REMARK  status: ('A' for Active; 'I' for Inactive)
REMARK    1  A    between atoms: C3_3  and  C6_6 
REMARK    2  A    between atoms: C6_6  and  C7_7 
REMARK    3  A    between atoms: C6_6  and  O8_8 
ROOT
HETATM    1  C5  UNL     1     -32.997   7.968   4.784  1.00 20.00     0.056 C 
HETATM    2  C6  UNL     1     -33.372   7.764   3.328  1.00 20.00     0.158 C 
ENDROOT
BRANCH   2   3
HETATM    3  C3  UNL     1     -33.955   6.398   3.097  1.00 20.00    -0.004 A 
HETATM    4  C1  UNL     1     -35.337   6.116   3.642  1.00 20.00     0.013 A 
HETATM    5  C2  UNL     1     -34.136   5.493   4.293  1.00 20.00     0.013 A 
HETATM    6  C4  UNL     1     -33.573   5.767   1.787  1.00 20.00     0.018 C 
ENDBRANCH   2   3
BRANCH   2   7
HETATM    7  C7  UNL     1     -32.153   8.021   2.433  1.00 20.00     0.418 C 
HETATM    8  F9  UNL     1     -32.470   8.858   1.421  1.00 20.00    -0.168 F 
HETATM    9  F10 UNL     1     -31.671   6.884   1.882  1.00 20.00    -0.168 F 
HETATM   10  F11 UNL     1     -31.149   8.592   3.134  1.00 20.00    -0.168 F 
ENDBRANCH   2   7
BRANCH   2  11
HETATM   11  O8  UNL     1     -34.356   8.759   3.001  1.00 20.00    -0.380 OA
HETATM   12  H22 UNL     1     -35.030   8.700   3.691  1.00 20.00     0.211 HD
ENDBRANCH   2  11
TORSDOF 3
ENDMDL
