MODEL 1
REMARK VINA RESULT:      -0.6      0.000      0.000
REMARK  4 active torsions:
REMARK  status: ('A' for Active; 'I' for Inactive)
REMARK    1  A    between atoms: C3_3  and  C10_10 
REMARK    2  A    between atoms: C8_8  and  C9_9 
REMARK    3  A    between atoms: C9_9  and  C10_10 
REMARK    4  A    between atoms: C10_10  and  O11_11 
ROOT
HETATM    1  C7  UNL     1     -31.832   5.589   1.719  1.00 20.00     0.047 C 
HETATM    2  C10 UNL     1     -32.987   6.559   1.866  1.00 20.00     0.065 C 
ENDROOT
BRANCH   2   3
HETATM    3  C3  UNL     1     -33.805   6.208   3.114  1.00 20.00    -0.013 A 
HETATM    4  C1  UNL     1     -35.167   6.842   3.271  1.00 20.00     0.013 A 
HETATM    5  C2  UNL     1     -34.029   7.292   4.143  1.00 20.00     0.013 A 
HETATM    6  C4  UNL     1     -33.623   4.797   3.604  1.00 20.00     0.018 C 
ENDBRANCH   2   3
BRANCH   2   7
HETATM    7  C9  UNL     1     -32.502   8.048   1.840  1.00 20.00     0.016 C 
HETATM    8  C6  UNL     1     -31.206   8.243   2.649  1.00 20.00     0.013 C 
BRANCH   7   9
HETATM    9  C8  UNL     1     -32.345   8.614   0.411  1.00 20.00     0.002 C 
HETATM   10  C5  UNL     1     -32.529  10.125   0.325  1.00 20.00     0.005 C 
ENDBRANCH   7   9
ENDBRANCH   2   7
BRANCH   2  11
HETATM   11  O11 UNL     1     -33.857   6.347   0.744  1.00 20.00    -0.389 OA
HETATM   12  H31 UNL     1     -33.281   6.277  -0.029  1.00 20.00     0.210 HD
ENDBRANCH   2  11
TORSDOF 4
ENDMDL
MODEL 2
REMARK VINA RESULT:       0.2      1.278      4.092
REMARK  4 active torsions:
REMARK  status: ('A' for Active; 'I' for Inactive)
REMARK    1  A    between atoms: C3_3  and  C10_10 
REMARK    2  A    between atoms: C8_8  and  C9_9 
REMARK    3  A    between atoms: C9_9  and  C10_10 
REMARK    4  A    between atoms: C10_10  and  O11_11 
ROOT
HETATM    1  C7  UNL     1     -33.956   6.204   0.979  1.00 20.00     0.047 C 
HETATM    2  C10 UNL     1     -33.030   6.213   2.179  1.00 20.00     0.065 C 
ENDROOT
BRANCH   2   3
HETATM    3  C3  UNL     1     -32.433   7.613   2.364  1.00 20.00    -0.013 A 
HETATM    4  C1  UNL     1     -32.507   8.574   1.201  1.00 20.00     0.013 A 
HETATM    5  C2  UNL     1     -31.189   7.962   1.580  1.00 20.00     0.013 A 
HETATM    6  C4  UNL     1     -32.573   8.173   3.753  1.00 20.00     0.018 C 
ENDBRANCH   2   3
BRANCH   2   7
HETATM    7  C9  UNL     1     -33.740   5.666   3.463  1.00 20.00     0.016 C 
HETATM    8  C6  UNL     1     -35.087   6.366   3.716  1.00 20.00     0.013 C 
BRANCH   7   9
HETATM    9  C8  UNL     1     -33.913   4.130   3.457  1.00 20.00     0.002 C 
HETATM   10  C5  UNL     1     -33.433   3.453   4.735  1.00 20.00     0.005 C 
ENDBRANCH   7   9
ENDBRANCH   2   7
BRANCH   2  11
HETATM   11  O11 UNL     1     -31.929   5.346   1.865  1.00 20.00    -0.389 OA
HETATM   12  H31 UNL     1     -31.664   4.940   2.701  1.00 20.00     0.210 HD
ENDBRANCH   2  11
TORSDOF 4
ENDMDL
MODEL 3
REMARK VINA RESULT:       0.3      0.624      1.274
REMARK  4 active torsions:
REMARK  status: ('A' for Active; 'I' for Inactive)
REMARK    1  A    between atoms: C3_3  and  C10_10 
REMARK    2  A    between atoms: C8_8  and  C9_9 
REMARK    3  A    between atoms: C9_9  and  C10_10 
REMARK    4  A    between atoms: C10_10  and  O11_11 
ROOT
HETATM    1  C7  UNL     1     -32.175   5.625   2.039  1.00 20.00     0.047 C 
HETATM    2  C10 UNL     1     -33.109   6.818   2.057  1.00 20.00     0.065 C 
ENDROOT
BRANCH   2   3
HETATM    3  C3  UNL     1     -33.892   6.846   3.375  1.00 20.00    -0.013 A 
HETATM    4  C1  UNL     1     -34.424   5.538   3.911  1.00 20.00     0.013 A 
HETATM    5  C2  UNL     1     -35.372   6.547   3.327  1.00 20.00     0.013 A 
HETATM    6  C4  UNL     1     -33.411   7.871   4.366  1.00 20.00     0.018 C 
ENDBRANCH   2   3
BRANCH   2   7
HETATM    7  C9  UNL     1     -32.349   8.155   1.758  1.00 20.00     0.016 C 
HETATM    8  C6  UNL     1     -30.823   7.984   1.866  1.00 20.00     0.013 C 
BRANCH   7   9
HETATM    9  C8  UNL     1     -32.735   8.785   0.400  1.00 20.00     0.002 C 
HETATM   10  C5  UNL     1     -32.484  10.287   0.327  1.00 20.00     0.005 C 
ENDBRANCH   7   9
ENDBRANCH   2   7
BRANCH   2  11
HETATM   11  O11 UNL     1     -34.079   6.606   1.020  1.00 20.00    -0.389 OA
HETATM   12  H31 UNL     1     -33.992   5.679   0.761  1.00 20.00     0.210 HD
ENDBRANCH   2  11
TORSDOF 4
ENDMDL
MODEL 4
REMARK VINA RESULT:       0.4      1.623      4.179
REMARK  4 active torsions:
REMARK  status: ('A' for Active; 'I' for Inactive)
REMARK    1  A    between atoms: C3_3  and  C10_10 
REMARK    2  A    between atoms: C8_8  and  C9_9 
REMARK    3  A    between atoms: C9_9  and  C10_10 
REMARK    4  A    between atoms: C10_10  and  O11_11 
ROOT
HETATM    1  C7  UNL     1     -30.950   7.231   1.421  1.00 20.00     0.047 C 
HETATM    2  C10 UNL     1     -32.104   8.102   1.874  1.00 20.00     0.065 C 
ENDROOT
BRANCH   2   3
HETATM    3  C3  UNL     1     -32.322   9.240   0.870  1.00 20.00    -0.013 A 
HETATM    4  C1  UNL     1     -32.671   8.872  -0.553  1.00 20.00     0.013 A 
HETATM    5  C2  UNL     1     -31.307   9.413  -0.236  1.00 20.00     0.013 A 
HETATM    6  C4  UNL     1     -32.949  10.477   1.453  1.00 20.00     0.018 C 
ENDBRANCH   2   3
BRANCH   2   7
HETATM    7  C9  UNL     1     -33.395   7.258   2.147  1.00 20.00     0.016 C 
HETATM    8  C6  UNL     1     -33.215   5.785   1.736  1.00 20.00     0.013 C 
BRANCH   7   9
HETATM    9  C8  UNL     1     -33.896   7.363   3.606  1.00 20.00     0.002 C 
HETATM   10  C5  UNL     1     -35.046   6.417   3.930  1.00 20.00     0.005 C 
ENDBRANCH   7   9
ENDBRANCH   2   7
BRANCH   2  11
HETATM   11  O11 UNL     1     -31.701   8.725   3.103  1.00 20.00    -0.389 OA
HETATM   12  H31 UNL     1     -32.518   8.986   3.549  1.00 20.00     0.210 HD
ENDBRANCH   2  11
TORSDOF 4
ENDMDL
MODEL 5
REMARK VINA RESULT:       0.8      1.383      4.151
REMARK  4 active torsions:
REMARK  status: ('A' for Active; 'I' for Inactive)
REMARK    1  A    between atoms: C3_3  and  C10_10 
REMARK    2  A    between atoms: C8_8  and  C9_9 
REMARK    3  A    between atoms: C9_9  and  C10_10 
REMARK    4  A    between atoms: C10_10  and  O11_11 
ROOT
HETATM    1  C7  UNL     1     -32.740   8.165   4.540  1.00 20.00     0.047 C 
HETATM    2  C10 UNL     1     -33.584   7.460   3.497  1.00 20.00     0.065 C 
ENDROOT
BRANCH   2   3
HETATM    3  C3  UNL     1     -32.769   7.271   2.211  1.00 20.00    -0.013 A 
HETATM    4  C1  UNL     1     -31.377   7.854   2.163  1.00 20.00     0.013 A 
HETATM    5  C2  UNL     1     -32.481   8.492   1.369  1.00 20.00     0.013 A 
HETATM    6  C4  UNL     1     -33.014   5.967   1.503  1.00 20.00     0.018 C 
ENDBRANCH   2   3
BRANCH   2   7
HETATM    7  C9  UNL     1     -34.193   6.127   4.047  1.00 20.00     0.016 C 
HETATM    8  C6  UNL     1     -35.719   6.069   3.849  1.00 20.00     0.013 C 
BRANCH   7   9
HETATM    9  C8  UNL     1     -33.517   4.863   3.469  1.00 20.00     0.002 C 
HETATM   10  C5  UNL     1     -33.703   3.619   4.330  1.00 20.00     0.005 C 
ENDBRANCH   7   9
ENDBRANCH   2   7
BRANCH   2  11
HETATM   11  O11 UNL     1     -34.661   8.348   3.161  1.00 20.00    -0.389 OA
HETATM   12  H31 UNL     1     -35.436   8.015   3.635  1.00 20.00     0.210 HD
ENDBRANCH   2  11
TORSDOF 4
ENDMDL
MODEL 6
REMARK VINA RESULT:       0.9      1.628      4.074
REMARK  4 active torsions:
REMARK  status: ('A' for Active; 'I' for Inactive)
REMARK    1  A    between atoms: C3_3  and  C10_10 
REMARK    2  A    between atoms: C8_8  and  C9_9 
REMARK    3  A    between atoms: C9_9  and  C10_10 
REMARK    4  A    between atoms: C10_10  and  O11_11 
ROOT
HETATM    1  C7  UNL     1     -30.888   7.075   1.589  1.00 20.00     0.047 C 
HETATM    2  C10 UNL     1     -32.012   8.055   1.859  1.00 20.00     0.065 C 
ENDROOT
BRANCH   2   3
HETATM    3  C3  UNL     1     -32.075   9.095   0.734  1.00 20.00    -0.013 A 
HETATM    4  C1  UNL     1     -32.499  10.500   1.092  1.00 20.00     0.013 A 
HETATM    5  C2  UNL     1     -33.434   9.611   0.322  1.00 20.00     0.013 A 
HETATM    6  C4  UNL     1     -31.031   8.923  -0.335  1.00 20.00     0.018 C 
ENDBRANCH   2   3
BRANCH   2   7
HETATM    7  C9  UNL     1     -33.375   7.322   2.104  1.00 20.00     0.016 C 
HETATM    8  C6  UNL     1     -33.311   5.840   1.692  1.00 20.00     0.013 C 
BRANCH   7   9
HETATM    9  C8  UNL     1     -33.893   7.466   3.553  1.00 20.00     0.002 C 
HETATM   10  C5  UNL     1     -34.987   6.469   3.916  1.00 20.00     0.005 C 
ENDBRANCH   7   9
ENDBRANCH   2   7
BRANCH   2  11
HETATM   11  O11 UNL     1     -31.663   8.775   3.051  1.00 20.00    -0.389 OA
HETATM   12  H31 UNL     1     -31.175   9.555   2.756  1.00 20.00     0.210 HD
ENDBRANCH   2  11
TORSDOF 4
ENDMDL
MODEL 7
REMARK VINA RESULT:       1.0      1.508      4.125
REMARK  4 active torsions:
REMARK  status: ('A' for Active; 'I' for Inactive)
REMARK    1  A    between atoms: C3_3  and  C10_10 
REMARK    2  A    between atoms: C8_8  and  C9_9 
REMARK    3  A    between atoms: C9_9  and  C10_10 
REMARK    4  A    between atoms: C10_10  and  O11_11 
ROOT
HETATM    1  C7  UNL     1     -34.159   5.938   1.306  1.00 20.00     0.047 C 
HETATM    2  C10 UNL     1     -33.264   6.022   2.526  1.00 20.00     0.065 C 
ENDROOT
BRANCH   2   3
HETATM    3  C3  UNL     1     -32.886   7.484   2.792  1.00 20.00    -0.013 A 
HETATM    4  C1  UNL     1     -32.727   7.925   4.228  1.00 20.00     0.013 A 
HETATM    5  C2  UNL     1     -33.920   8.378   3.436  1.00 20.00     0.013 A 
HETATM    6  C4  UNL     1     -31.972   8.090   1.762  1.00 20.00     0.018 C 
ENDBRANCH   2   3
BRANCH   2   7
HETATM    7  C9  UNL     1     -33.905   5.311   3.766  1.00 20.00     0.016 C 
HETATM    8  C6  UNL     1     -35.362   5.752   3.991  1.00 20.00     0.013 C 
BRANCH   7   9
HETATM    9  C8  UNL     1     -33.802   3.770   3.706  1.00 20.00     0.002 C 
HETATM   10  C5  UNL     1     -33.118   3.152   4.919  1.00 20.00     0.005 C 
ENDBRANCH   7   9
ENDBRANCH   2   7
BRANCH   2  11
HETATM   11  O11 UNL     1     -32.042   5.346   2.196  1.00 20.00    -0.389 OA
HETATM   12  H31 UNL     1     -32.229   4.401   2.283  1.00 20.00     0.210 HD
ENDBRANCH   2  11
TORSDOF 4
ENDMDL
MODEL 8
REMARK VINA RESULT:       1.4      1.393      2.501
REMARK  4 active torsions:
REMARK  status: ('A' for Active; 'I' for Inactive)
REMARK    1  A    between atoms: C3_3  and  C10_10 
REMARK    2  A    between atoms: C8_8  and  C9_9 
REMARK    3  A    between atoms: C9_9  and  C10_10 
REMARK    4  A    between atoms: C10_10  and  O11_11 
ROOT
HETATM    1  C7  UNL     1     -32.019   8.497   3.388  1.00 20.00     0.047 C 
HETATM    2  C10 UNL     1     -32.200   7.895   2.009  1.00 20.00     0.065 C 
ENDROOT
BRANCH   2   3
HETATM    3  C3  UNL     1     -32.997   6.588   2.114  1.00 20.00    -0.013 A 
HETATM    4  C1  UNL     1     -32.305   5.303   1.726  1.00 20.00     0.013 A 
HETATM    5  C2  UNL     1     -33.365   5.879   0.832  1.00 20.00     0.013 A 
HETATM    6  C4  UNL     1     -33.979   6.545   3.252  1.00 20.00     0.018 C 
ENDBRANCH   2   3
BRANCH   2   7
HETATM    7  C9  UNL     1     -32.822   8.922   1.004  1.00 20.00     0.016 C 
HETATM    8  C6  UNL     1     -33.078  10.288   1.665  1.00 20.00     0.013 C 
BRANCH   7   9
HETATM    9  C8  UNL     1     -31.993   9.087  -0.291  1.00 20.00     0.002 C 
HETATM   10  C5  UNL     1     -31.948  10.518  -0.812  1.00 20.00     0.005 C 
ENDBRANCH   7   9
ENDBRANCH   2   7
BRANCH   2  11
HETATM   11  O11 UNL     1     -30.894   7.531   1.536  1.00 20.00    -0.389 OA
HETATM   12  H31 UNL     1     -31.036   7.046   0.712  1.00 20.00     0.210 HD
ENDBRANCH   2  11
TORSDOF 4
ENDMDL
MODEL 9
REMARK VINA RESULT:       1.5      1.537      3.742
REMARK  4 active torsions:
REMARK  status: ('A' for Active; 'I' for Inactive)
REMARK    1  A    between atoms: C3_3  and  C10_10 
REMARK    2  A    between atoms: C8_8  and  C9_9 
REMARK    3  A    between atoms: C9_9  and  C10_10 
REMARK    4  A    between atoms: C10_10  and  O11_11 
ROOT
HETATM    1  C7  UNL     1     -31.397   8.806   3.209  1.00 20.00     0.047 C 
HETATM    2  C10 UNL     1     -32.609   8.063   2.684  1.00 20.00     0.065 C 
ENDROOT
BRANCH   2   3
HETATM    3  C3  UNL     1     -32.198   7.157   1.517  1.00 20.00    -0.013 A 
HETATM    4  C1  UNL     1     -33.093   5.989   1.179  1.00 20.00     0.013 A 
HETATM    5  C2  UNL     1     -31.764   5.745   1.836  1.00 20.00     0.013 A 
HETATM    6  C4  UNL     1     -31.508   7.869   0.386  1.00 20.00     0.018 C 
ENDBRANCH   2   3
BRANCH   2   7
HETATM    7  C9  UNL     1     -33.363   7.302   3.826  1.00 20.00     0.016 C 
HETATM    8  C6  UNL     1     -33.253   8.036   5.175  1.00 20.00     0.013 C 
BRANCH   7   9
HETATM    9  C8  UNL     1     -34.840   6.999   3.486  1.00 20.00     0.002 C 
HETATM   10  C5  UNL     1     -35.393   5.768   4.193  1.00 20.00     0.005 C 
ENDBRANCH   7   9
ENDBRANCH   2   7
BRANCH   2  11
HETATM   11  O11 UNL     1     -33.497   9.048   2.133  1.00 20.00    -0.389 OA
HETATM   12  H31 UNL     1     -34.113   9.277   2.842  1.00 20.00     0.210 HD
ENDBRANCH   2  11
TORSDOF 4
ENDMDL
