MODEL 1
REMARK VINA RESULT:      -2.5      0.000      0.000
REMARK  3 active torsions:
REMARK  status: ('A' for Active; 'I' for Inactive)
REMARK    1  A    between atoms: C3_3  and  C6_6 
REMARK    2  A    between atoms: C5_5  and  C6_6 
REMARK    3  A    between atoms: C5_5  and  O7_7 
ROOT
HETATM    1  C6  UNL     1     -32.494   6.948   2.338  1.00 20.00     0.110 C 
HETATM    2 CL8  UNL     1     -32.685   5.522   1.252  1.00 20.00    -0.122 Cl
ENDROOT
BRANCH   1   3
HETATM    3  C3  UNL     1     -33.819   7.371   2.870  1.00 20.00     0.006 A 
HETATM    4  C1  UNL     1     -34.580   6.474   3.807  1.00 20.00     0.006 A 
HETATM    5  C2  UNL     1     -33.968   7.749   4.317  1.00 20.00     0.006 A 
ENDBRANCH   1   3
BRANCH   1   6
HETATM    6  C5  UNL     1     -31.785   8.064   1.553  1.00 20.00     0.187 C 
BRANCH   6   7
HETATM    7  O7  UNL     1     -32.670   9.150   1.309  1.00 20.00    -0.394 OA
HETATM    8  C4  UNL     1     -32.370   9.800   0.081  1.00 20.00     0.201 C 
ENDBRANCH   6   7
ENDBRANCH   1   6
TORSDOF 3
ENDMDL
MODEL 2
REMARK VINA RESULT:      -2.2      2.952      4.462
REMARK  3 active torsions:
REMARK  status: ('A' for Active; 'I' for Inactive)
REMARK    1  A    between atoms: C3_3  and  C6_6 
REMARK    2  A    between atoms: C5_5  and  C6_6 
REMARK    3  A    between atoms: C5_5  and  O7_7 
ROOT
HETATM    1  C6  UNL     1     -33.855   6.572   3.673  1.00 20.00     0.110 C 
HETATM    2 CL8  UNL     1     -33.779   8.062   4.685  1.00 20.00    -0.122 Cl
ENDROOT
BRANCH   1   3
HETATM    3  C3  UNL     1     -33.522   6.895   2.257  1.00 20.00     0.006 A 
HETATM    4  C1  UNL     1     -32.125   7.307   1.883  1.00 20.00     0.006 A 
HETATM    5  C2  UNL     1     -32.654   5.967   1.454  1.00 20.00     0.006 A 
ENDBRANCH   1   3
BRANCH   1   6
HETATM    6  C5  UNL     1     -35.253   5.951   3.827  1.00 20.00     0.187 C 
BRANCH   6   7
HETATM    7  O7  UNL     1     -35.189   4.738   4.566  1.00 20.00    -0.394 OA
HETATM    8  C4  UNL     1     -34.006   4.010   4.268  1.00 20.00     0.201 C 
ENDBRANCH   6   7
ENDBRANCH   1   6
TORSDOF 3
ENDMDL
MODEL 3
REMARK VINA RESULT:      -1.8      1.461      3.588
REMARK  3 active torsions:
REMARK  status: ('A' for Active; 'I' for Inactive)
REMARK    1  A    between atoms: C3_3  and  C6_6 
REMARK    2  A    between atoms: C5_5  and  C6_6 
REMARK    3  A    between atoms: C5_5  and  O7_7 
ROOT
HETATM    1  C6  UNL     1     -32.732   7.726   1.768  1.00 20.00     0.110 C 
HETATM    2 CL8  UNL     1     -31.972   6.152   1.326  1.00 20.00    -0.122 Cl
ENDROOT
BRANCH   1   3
HETATM    3  C3  UNL     1     -31.997   8.851   1.126  1.00 20.00     0.006 A 
HETATM    4  C1  UNL     1     -32.379   9.315  -0.253  1.00 20.00     0.006 A 
HETATM    5  C2  UNL     1     -32.667  10.184   0.939  1.00 20.00     0.006 A 
ENDBRANCH   1   3
BRANCH   1   6
HETATM    6  C5  UNL     1     -32.764   7.836   3.302  1.00 20.00     0.187 C 
BRANCH   6   7
HETATM    7  O7  UNL     1     -34.099   7.771   3.786  1.00 20.00    -0.394 OA
HETATM    8  C4  UNL     1     -34.587   6.437   3.790  1.00 20.00     0.201 C 
ENDBRANCH   6   7
ENDBRANCH   1   6
TORSDOF 3
ENDMDL
MODEL 4
REMARK VINA RESULT:      -1.5      1.839      2.551
REMARK  3 active torsions:
REMARK  status: ('A' for Active; 'I' for Inactive)
REMARK    1  A    between atoms: C3_3  and  C6_6 
REMARK    2  A    between atoms: C5_5  and  C6_6 
REMARK    3  A    between atoms: C5_5  and  O7_7 
ROOT
HETATM    1  C6  UNL     1     -33.247   7.313   2.219  1.00 20.00     0.110 C 
HETATM    2 CL8  UNL     1     -33.880   7.597   3.883  1.00 20.00    -0.122 Cl
ENDROOT
BRANCH   1   3
HETATM    3  C3  UNL     1     -32.981   5.862   2.010  1.00 20.00     0.006 A 
HETATM    4  C1  UNL     1     -33.218   5.235   0.665  1.00 20.00     0.006 A 
HETATM    5  C2  UNL     1     -31.815   5.420   1.170  1.00 20.00     0.006 A 
ENDBRANCH   1   3
BRANCH   1   6
HETATM    6  C5  UNL     1     -31.992   8.181   2.023  1.00 20.00     0.187 C 
BRANCH   6   7
HETATM    7  O7  UNL     1     -31.914   8.661   0.686  1.00 20.00    -0.394 OA
HETATM    8  C4  UNL     1     -32.537   9.930   0.552  1.00 20.00     0.201 C 
ENDBRANCH   6   7
ENDBRANCH   1   6
TORSDOF 3
ENDMDL
MODEL 5
REMARK VINA RESULT:      -1.1      1.851      2.126
REMARK  3 active torsions:
REMARK  status: ('A' for Active; 'I' for Inactive)
REMARK    1  A    between atoms: C3_3  and  C6_6 
REMARK    2  A    between atoms: C5_5  and  C6_6 
REMARK    3  A    between atoms: C5_5  and  O7_7 
ROOT
HETATM    1  C6  UNL     1     -33.271   5.628   3.034  1.00 20.00     0.110 C 
HETATM    2 CL8  UNL     1     -33.624   3.931   3.532  1.00 20.00    -0.122 Cl
ENDROOT
BRANCH   1   3
HETATM    3  C3  UNL     1     -34.481   6.478   3.211  1.00 20.00     0.006 A 
HETATM    4  C1  UNL     1     -35.380   6.277   4.400  1.00 20.00     0.006 A 
HETATM    5  C2  UNL     1     -34.527   7.511   4.302  1.00 20.00     0.006 A 
ENDBRANCH   1   3
BRANCH   1   6
HETATM    6  C5  UNL     1     -32.762   5.613   1.583  1.00 20.00     0.187 C 
BRANCH   6   7
HETATM    7  O7  UNL     1     -31.608   6.431   1.444  1.00 20.00    -0.394 OA
HETATM    8  C4  UNL     1     -31.923   7.808   1.599  1.00 20.00     0.201 C 
ENDBRANCH   6   7
ENDBRANCH   1   6
TORSDOF 3
ENDMDL
MODEL 6
REMARK VINA RESULT:      -1.1      2.292      2.934
REMARK  3 active torsions:
REMARK  status: ('A' for Active; 'I' for Inactive)
REMARK    1  A    between atoms: C3_3  and  C6_6 
REMARK    2  A    between atoms: C5_5  and  C6_6 
REMARK    3  A    between atoms: C5_5  and  O7_7 
ROOT
HETATM    1  C6  UNL     1     -33.301   6.921   2.025  1.00 20.00     0.110 C 
HETATM    2 CL8  UNL     1     -31.821   7.942   1.885  1.00 20.00    -0.122 Cl
ENDROOT
BRANCH   1   3
HETATM    3  C3  UNL     1     -33.618   6.668   3.458  1.00 20.00     0.006 A 
HETATM    4  C1  UNL     1     -34.355   7.702   4.264  1.00 20.00     0.006 A 
HETATM    5  C2  UNL     1     -35.037   6.417   3.886  1.00 20.00     0.006 A 
ENDBRANCH   1   3
BRANCH   1   6
HETATM    6  C5  UNL     1     -33.072   5.625   1.229  1.00 20.00     0.187 C 
BRANCH   6   7
HETATM    7  O7  UNL     1     -31.706   5.235   1.280  1.00 20.00    -0.394 OA
HETATM    8  C4  UNL     1     -31.397   4.287   0.267  1.00 20.00     0.201 C 
ENDBRANCH   6   7
ENDBRANCH   1   6
TORSDOF 3
ENDMDL
MODEL 7
REMARK VINA RESULT:      -0.9      1.881      2.048
REMARK  3 active torsions:
REMARK  status: ('A' for Active; 'I' for Inactive)
REMARK    1  A    between atoms: C3_3  and  C6_6 
REMARK    2  A    between atoms: C5_5  and  C6_6 
REMARK    3  A    between atoms: C5_5  and  O7_7 
ROOT
HETATM    1  C6  UNL     1     -33.455   7.915   3.260  1.00 20.00     0.110 C 
HETATM    2 CL8  UNL     1     -33.196   8.115   5.033  1.00 20.00    -0.122 Cl
ENDROOT
BRANCH   1   3
HETATM    3  C3  UNL     1     -34.253   6.687   2.992  1.00 20.00     0.006 A 
HETATM    4  C1  UNL     1     -34.023   5.442   3.804  1.00 20.00     0.006 A 
HETATM    5  C2  UNL     1     -35.291   6.229   3.980  1.00 20.00     0.006 A 
ENDBRANCH   1   3
BRANCH   1   6
HETATM    6  C5  UNL     1     -32.081   7.893   2.568  1.00 20.00     0.187 C 
BRANCH   6   7
HETATM    7  O7  UNL     1     -32.224   8.003   1.158  1.00 20.00    -0.394 OA
HETATM    8  C4  UNL     1     -32.290   9.361   0.746  1.00 20.00     0.201 C 
ENDBRANCH   6   7
ENDBRANCH   1   6
TORSDOF 3
ENDMDL
MODEL 8
REMARK VINA RESULT:      -0.9      1.797      2.059
REMARK  3 active torsions:
REMARK  status: ('A' for Active; 'I' for Inactive)
REMARK    1  A    between atoms: C3_3  and  C6_6 
REMARK    2  A    between atoms: C5_5  and  C6_6 
REMARK    3  A    between atoms: C5_5  and  O7_7 
ROOT
HETATM    1  C6  UNL     1     -33.292   7.855   3.171  1.00 20.00     0.110 C 
HETATM    2 CL8  UNL     1     -32.020   8.737   4.097  1.00 20.00    -0.122 Cl
ENDROOT
BRANCH   1   3
HETATM    3  C3  UNL     1     -33.993   6.886   4.058  1.00 20.00     0.006 A 
HETATM    4  C1  UNL     1     -35.424   6.510   3.787  1.00 20.00     0.006 A 
HETATM    5  C2  UNL     1     -34.327   5.508   3.557  1.00 20.00     0.006 A 
ENDBRANCH   1   3
BRANCH   1   6
HETATM    6  C5  UNL     1     -32.629   7.180   1.959  1.00 20.00     0.187 C 
BRANCH   6   7
HETATM    7  O7  UNL     1     -31.661   8.039   1.369  1.00 20.00    -0.394 OA
HETATM    8  C4  UNL     1     -32.275   9.135   0.705  1.00 20.00     0.201 C 
ENDBRANCH   6   7
ENDBRANCH   1   6
TORSDOF 3
ENDMDL
MODEL 9
REMARK VINA RESULT:      -0.8      1.932      3.977
REMARK  3 active torsions:
REMARK  status: ('A' for Active; 'I' for Inactive)
REMARK    1  A    between atoms: C3_3  and  C6_6 
REMARK    2  A    between atoms: C5_5  and  C6_6 
REMARK    3  A    between atoms: C5_5  and  O7_7 
ROOT
HETATM    1  C6  UNL     1     -32.121   8.007   1.704  1.00 20.00     0.110 C 
HETATM    2 CL8  UNL     1     -31.281   8.802   3.087  1.00 20.00    -0.122 Cl
ENDROOT
BRANCH   1   3
HETATM    3  C3  UNL     1     -32.878   9.017   0.913  1.00 20.00     0.006 A 
HETATM    4  C1  UNL     1     -32.276  10.366   0.636  1.00 20.00     0.006 A 
HETATM    5  C2  UNL     1     -32.436   9.371  -0.480  1.00 20.00     0.006 A 
ENDBRANCH   1   3
BRANCH   1   6
HETATM    6  C5  UNL     1     -33.023   6.892   2.260  1.00 20.00     0.187 C 
BRANCH   6   7
HETATM    7  O7  UNL     1     -33.637   7.298   3.477  1.00 20.00    -0.394 OA
HETATM    8  C4  UNL     1     -34.766   6.492   3.785  1.00 20.00     0.201 C 
ENDBRANCH   6   7
ENDBRANCH   1   6
TORSDOF 3
ENDMDL
