MODEL 1
REMARK VINA RESULT:      -2.8      0.000      0.000
REMARK  3 active torsions:
REMARK  status: ('A' for Active; 'I' for Inactive)
REMARK    1  A    between atoms: C3_3  and  C6_6 
REMARK    2  A    between atoms: C5_5  and  C6_6 
REMARK    3  A    between atoms: C5_5  and  O7_7 
ROOT
HETATM    1  C6  UNL     1     -33.102   6.969   2.006  1.00 20.00     0.110 C 
HETATM    2 CL8  UNL     1     -32.467   5.467   1.238  1.00 20.00    -0.122 Cl
ENDROOT
BRANCH   1   3
HETATM    3  C3  UNL     1     -33.502   6.694   3.414  1.00 20.00     0.006 A 
HETATM    4  C1  UNL     1     -34.316   7.699   4.181  1.00 20.00     0.006 A 
HETATM    5  C2  UNL     1     -34.938   6.401   3.748  1.00 20.00     0.006 A 
ENDBRANCH   1   3
BRANCH   1   6
HETATM    6  C5  UNL     1     -32.031   8.069   1.900  1.00 20.00     0.187 C 
BRANCH   6   7
HETATM    7  O7  UNL     1     -31.952   8.570   0.571  1.00 20.00    -0.394 OA
HETATM    8  C4  UNL     1     -32.476   9.886   0.480  1.00 20.00     0.201 C 
ENDBRANCH   6   7
ENDBRANCH   1   6
TORSDOF 3
ENDMDL
MODEL 2
REMARK VINA RESULT:      -2.3      3.151      4.695
REMARK  3 active torsions:
REMARK  status: ('A' for Active; 'I' for Inactive)
REMARK    1  A    between atoms: C3_3  and  C6_6 
REMARK    2  A    between atoms: C5_5  and  C6_6 
REMARK    3  A    between atoms: C5_5  and  O7_7 
ROOT
HETATM    1  C6  UNL     1     -34.273   6.019   3.325  1.00 20.00     0.110 C 
HETATM    2 CL8  UNL     1     -34.336   7.584   4.217  1.00 20.00    -0.122 Cl
ENDROOT
BRANCH   1   3
HETATM    3  C3  UNL     1     -32.953   5.868   2.652  1.00 20.00     0.006 A 
HETATM    4  C1  UNL     1     -32.877   5.734   1.156  1.00 20.00     0.006 A 
HETATM    5  C2  UNL     1     -32.393   6.991   1.824  1.00 20.00     0.006 A 
ENDBRANCH   1   3
BRANCH   1   6
HETATM    6  C5  UNL     1     -34.569   4.876   4.311  1.00 20.00     0.187 C 
BRANCH   6   7
HETATM    7  O7  UNL     1     -33.984   3.659   3.863  1.00 20.00    -0.394 OA
HETATM    8  C4  UNL     1     -33.212   3.046   4.885  1.00 20.00     0.201 C 
ENDBRANCH   6   7
ENDBRANCH   1   6
TORSDOF 3
ENDMDL
MODEL 3
REMARK VINA RESULT:      -1.8      1.878      2.199
REMARK  3 active torsions:
REMARK  status: ('A' for Active; 'I' for Inactive)
REMARK    1  A    between atoms: C3_3  and  C6_6 
REMARK    2  A    between atoms: C5_5  and  C6_6 
REMARK    3  A    between atoms: C5_5  and  O7_7 
ROOT
HETATM    1  C6  UNL     1     -33.266   6.539   3.271  1.00 20.00     0.110 C 
HETATM    2 CL8  UNL     1     -33.913   8.015   4.078  1.00 20.00    -0.122 Cl
ENDROOT
BRANCH   1   3
HETATM    3  C3  UNL     1     -34.297   5.464   3.269  1.00 20.00     0.006 A 
HETATM    4  C1  UNL     1     -34.209   4.328   4.250  1.00 20.00     0.006 A 
HETATM    5  C2  UNL     1     -35.288   5.365   4.395  1.00 20.00     0.006 A 
ENDBRANCH   1   3
BRANCH   1   6
HETATM    6  C5  UNL     1     -32.799   6.914   1.854  1.00 20.00     0.187 C 
BRANCH   6   7
HETATM    7  O7  UNL     1     -31.894   8.011   1.894  1.00 20.00    -0.394 OA
HETATM    8  C4  UNL     1     -32.223   8.993   0.924  1.00 20.00     0.201 C 
ENDBRANCH   6   7
ENDBRANCH   1   6
TORSDOF 3
ENDMDL
MODEL 4
REMARK VINA RESULT:      -1.7      1.613      3.785
REMARK  3 active torsions:
REMARK  status: ('A' for Active; 'I' for Inactive)
REMARK    1  A    between atoms: C3_3  and  C6_6 
REMARK    2  A    between atoms: C5_5  and  C6_6 
REMARK    3  A    between atoms: C5_5  and  O7_7 
ROOT
HETATM    1  C6  UNL     1     -32.222   7.960   1.979  1.00 20.00     0.110 C 
HETATM    2 CL8  UNL     1     -31.814   6.341   1.296  1.00 20.00    -0.122 Cl
ENDROOT
BRANCH   1   3
HETATM    3  C3  UNL     1     -32.850   8.813   0.933  1.00 20.00     0.006 A 
HETATM    4  C1  UNL     1     -32.518  10.277   0.850  1.00 20.00     0.006 A 
HETATM    5  C2  UNL     1     -32.027   9.334  -0.212  1.00 20.00     0.006 A 
ENDBRANCH   1   3
BRANCH   1   6
HETATM    6  C5  UNL     1     -33.129   7.764   3.206  1.00 20.00     0.187 C 
BRANCH   6   7
HETATM    7  O7  UNL     1     -33.813   6.519   3.134  1.00 20.00    -0.394 OA
HETATM    8  C4  UNL     1     -34.977   6.517   3.948  1.00 20.00     0.201 C 
ENDBRANCH   6   7
ENDBRANCH   1   6
TORSDOF 3
ENDMDL
MODEL 5
REMARK VINA RESULT:      -1.7      1.707      1.857
REMARK  3 active torsions:
REMARK  status: ('A' for Active; 'I' for Inactive)
REMARK    1  A    between atoms: C3_3  and  C6_6 
REMARK    2  A    between atoms: C5_5  and  C6_6 
REMARK    3  A    between atoms: C5_5  and  O7_7 
ROOT
HETATM    1  C6  UNL     1     -32.296   7.630   2.513  1.00 20.00     0.110 C 
HETATM    2 CL8  UNL     1     -31.644   8.802   3.717  1.00 20.00    -0.122 Cl
ENDROOT
BRANCH   1   3
HETATM    3  C3  UNL     1     -33.741   7.380   2.772  1.00 20.00     0.006 A 
HETATM    4  C1  UNL     1     -34.176   6.137   3.498  1.00 20.00     0.006 A 
HETATM    5  C2  UNL     1     -34.286   7.477   4.170  1.00 20.00     0.006 A 
ENDBRANCH   1   3
BRANCH   1   6
HETATM    6  C5  UNL     1     -32.034   8.177   1.099  1.00 20.00     0.187 C 
BRANCH   6   7
HETATM    7  O7  UNL     1     -32.374   9.556   1.021  1.00 20.00    -0.394 OA
HETATM    8  C4  UNL     1     -32.616   9.957  -0.319  1.00 20.00     0.201 C 
ENDBRANCH   6   7
ENDBRANCH   1   6
TORSDOF 3
ENDMDL
MODEL 6
REMARK VINA RESULT:      -1.6      2.430      3.596
REMARK  3 active torsions:
REMARK  status: ('A' for Active; 'I' for Inactive)
REMARK    1  A    between atoms: C3_3  and  C6_6 
REMARK    2  A    between atoms: C5_5  and  C6_6 
REMARK    3  A    between atoms: C5_5  and  O7_7 
ROOT
HETATM    1  C6  UNL     1     -33.656   5.693   3.449  1.00 20.00     0.110 C 
HETATM    2 CL8  UNL     1     -33.860   3.951   3.867  1.00 20.00    -0.122 Cl
ENDROOT
BRANCH   1   3
HETATM    3  C3  UNL     1     -33.375   5.840   1.994  1.00 20.00     0.006 A 
HETATM    4  C1  UNL     1     -32.298   6.776   1.521  1.00 20.00     0.006 A 
HETATM    5  C2  UNL     1     -32.104   5.290   1.409  1.00 20.00     0.006 A 
ENDBRANCH   1   3
BRANCH   1   6
HETATM    6  C5  UNL     1     -34.916   6.458   3.889  1.00 20.00     0.187 C 
BRANCH   6   7
HETATM    7  O7  UNL     1     -34.624   7.834   4.098  1.00 20.00    -0.394 OA
HETATM    8  C4  UNL     1     -33.445   8.004   4.872  1.00 20.00     0.201 C 
ENDBRANCH   6   7
ENDBRANCH   1   6
TORSDOF 3
ENDMDL
MODEL 7
REMARK VINA RESULT:      -1.5      2.006      2.446
REMARK  3 active torsions:
REMARK  status: ('A' for Active; 'I' for Inactive)
REMARK    1  A    between atoms: C3_3  and  C6_6 
REMARK    2  A    between atoms: C5_5  and  C6_6 
REMARK    3  A    between atoms: C5_5  and  O7_7 
ROOT
HETATM    1  C6  UNL     1     -32.358   7.646   2.426  1.00 20.00     0.110 C 
HETATM    2 CL8  UNL     1     -33.670   7.600   3.662  1.00 20.00    -0.122 Cl
ENDROOT
BRANCH   1   3
HETATM    3  C3  UNL     1     -32.616   6.628   1.369  1.00 20.00     0.006 A 
HETATM    4  C1  UNL     1     -31.812   5.358   1.329  1.00 20.00     0.006 A 
HETATM    5  C2  UNL     1     -33.262   5.318   1.723  1.00 20.00     0.006 A 
ENDBRANCH   1   3
BRANCH   1   6
HETATM    6  C5  UNL     1     -32.261   9.074   1.861  1.00 20.00     0.187 C 
BRANCH   6   7
HETATM    7  O7  UNL     1     -32.073   9.047   0.452  1.00 20.00    -0.394 OA
HETATM    8  C4  UNL     1     -32.638  10.192  -0.170  1.00 20.00     0.201 C 
ENDBRANCH   6   7
ENDBRANCH   1   6
TORSDOF 3
ENDMDL
MODEL 8
REMARK VINA RESULT:      -1.4      2.091      3.979
REMARK  3 active torsions:
REMARK  status: ('A' for Active; 'I' for Inactive)
REMARK    1  A    between atoms: C3_3  and  C6_6 
REMARK    2  A    between atoms: C5_5  and  C6_6 
REMARK    3  A    between atoms: C5_5  and  O7_7 
ROOT
HETATM    1  C6  UNL     1     -32.329   8.224   1.763  1.00 20.00     0.110 C 
HETATM    2 CL8  UNL     1     -31.669   8.705   3.371  1.00 20.00    -0.122 Cl
ENDROOT
BRANCH   1   3
HETATM    3  C3  UNL     1     -31.866   9.177   0.716  1.00 20.00     0.006 A 
HETATM    4  C1  UNL     1     -32.731   9.467  -0.479  1.00 20.00     0.006 A 
HETATM    5  C2  UNL     1     -32.525  10.521   0.573  1.00 20.00     0.006 A 
ENDBRANCH   1   3
BRANCH   1   6
HETATM    6  C5  UNL     1     -31.909   6.774   1.470  1.00 20.00     0.187 C 
BRANCH   6   7
HETATM    7  O7  UNL     1     -33.005   5.885   1.648  1.00 20.00    -0.394 OA
HETATM    8  C4  UNL     1     -33.705   6.158   2.853  1.00 20.00     0.201 C 
ENDBRANCH   6   7
ENDBRANCH   1   6
TORSDOF 3
ENDMDL
MODEL 9
REMARK VINA RESULT:      -1.3      2.547      3.995
REMARK  3 active torsions:
REMARK  status: ('A' for Active; 'I' for Inactive)
REMARK    1  A    between atoms: C3_3  and  C6_6 
REMARK    2  A    between atoms: C5_5  and  C6_6 
REMARK    3  A    between atoms: C5_5  and  O7_7 
ROOT
HETATM    1  C6  UNL     1     -33.369   7.103   2.356  1.00 20.00     0.110 C 
HETATM    2 CL8  UNL     1     -31.931   8.187   2.258  1.00 20.00    -0.122 Cl
ENDROOT
BRANCH   1   3
HETATM    3  C3  UNL     1     -32.987   5.713   1.979  1.00 20.00     0.006 A 
HETATM    4  C1  UNL     1     -33.197   5.227   0.571  1.00 20.00     0.006 A 
HETATM    5  C2  UNL     1     -31.804   5.471   1.084  1.00 20.00     0.006 A 
ENDBRANCH   1   3
BRANCH   1   6
HETATM    6  C5  UNL     1     -33.957   7.190   3.775  1.00 20.00     0.187 C 
BRANCH   6   7
HETATM    7  O7  UNL     1     -35.269   6.643   3.812  1.00 20.00    -0.394 OA
HETATM    8  C4  UNL     1     -35.287   5.378   4.456  1.00 20.00     0.201 C 
ENDBRANCH   6   7
ENDBRANCH   1   6
TORSDOF 3
ENDMDL
