MODEL 1
REMARK VINA RESULT:      -2.2      0.000      0.000
REMARK  4 active torsions:
REMARK  status: ('A' for Active; 'I' for Inactive)
REMARK    1  A    between atoms: C2_2  and  C6_6 
REMARK    2  A    between atoms: C6_6  and  O10_10 
REMARK    3  A    between atoms: C7_7  and  C8_8 
REMARK    4  A    between atoms: C8_8  and  O10_10 
ROOT
HETATM    1  C5  UNL     1     -32.772   5.773   1.677  1.00 20.00     0.040 C 
HETATM    2  C8  UNL     1     -33.269   7.037   2.372  1.00 20.00     0.120 C 
ENDROOT
BRANCH   2   3
HETATM    3  C7  UNL     1     -33.848   6.780   3.779  1.00 20.00     0.006 C 
HETATM    4  C3  UNL     1     -35.305   6.317   3.739  1.00 20.00     0.012 C 
HETATM    5  C4  UNL     1     -33.738   8.039   4.650  1.00 20.00     0.012 C 
ENDBRANCH   2   3
BRANCH   2   6
HETATM    6  O10 UNL     1     -32.164   7.936   2.491  1.00 20.00    -0.383 OA
BRANCH   6   7
HETATM    7  C6  UNL     1     -31.748   8.410   1.220  1.00 20.00     0.202 C 
BRANCH   7   8
HETATM    8  C2  UNL     1     -32.745   9.437   0.726  1.00 20.00     0.169 A 
HETATM    9  C1  UNL     1     -32.697   9.952  -0.685  1.00 20.00     0.202 A 
HETATM   10  O9  UNL     1     -32.179  10.714   0.417  1.00 20.00    -0.379 OA
ENDBRANCH   7   8
ENDBRANCH   6   7
ENDBRANCH   2   6
TORSDOF 4
ENDMDL
MODEL 2
REMARK VINA RESULT:      -2.0      0.389      1.183
REMARK  4 active torsions:
REMARK  status: ('A' for Active; 'I' for Inactive)
REMARK    1  A    between atoms: C2_2  and  C6_6 
REMARK    2  A    between atoms: C6_6  and  O10_10 
REMARK    3  A    between atoms: C7_7  and  C8_8 
REMARK    4  A    between atoms: C8_8  and  O10_10 
ROOT
HETATM    1  C5  UNL     1     -33.093   5.740   2.110  1.00 20.00     0.040 C 
HETATM    2  C8  UNL     1     -33.400   7.205   2.405  1.00 20.00     0.120 C 
ENDROOT
BRANCH   2   3
HETATM    3  C7  UNL     1     -34.283   7.411   3.654  1.00 20.00     0.006 C 
HETATM    4  C3  UNL     1     -33.485   7.901   4.863  1.00 20.00     0.012 C 
HETATM    5  C4  UNL     1     -35.018   6.115   4.020  1.00 20.00     0.012 C 
ENDBRANCH   2   3
BRANCH   2   6
HETATM    6  O10 UNL     1     -32.157   7.881   2.608  1.00 20.00    -0.383 OA
BRANCH   6   7
HETATM    7  C6  UNL     1     -31.663   8.425   1.395  1.00 20.00     0.202 C 
BRANCH   7   8
HETATM    8  C2  UNL     1     -32.746   9.269   0.756  1.00 20.00     0.169 A 
HETATM    9  C1  UNL     1     -32.536   9.919  -0.583  1.00 20.00     0.202 A 
HETATM   10  O9  UNL     1     -32.426  10.660   0.643  1.00 20.00    -0.379 OA
ENDBRANCH   7   8
ENDBRANCH   6   7
ENDBRANCH   2   6
TORSDOF 4
ENDMDL
MODEL 3
REMARK VINA RESULT:      -2.0      0.820      1.115
REMARK  4 active torsions:
REMARK  status: ('A' for Active; 'I' for Inactive)
REMARK    1  A    between atoms: C2_2  and  C6_6 
REMARK    2  A    between atoms: C6_6  and  O10_10 
REMARK    3  A    between atoms: C7_7  and  C8_8 
REMARK    4  A    between atoms: C8_8  and  O10_10 
ROOT
HETATM    1  C5  UNL     1     -32.548   5.648   1.517  1.00 20.00     0.040 C 
HETATM    2  C8  UNL     1     -33.371   6.641   2.331  1.00 20.00     0.120 C 
ENDROOT
BRANCH   2   3
HETATM    3  C7  UNL     1     -33.935   6.048   3.640  1.00 20.00     0.006 C 
HETATM    4  C3  UNL     1     -33.884   4.520   3.662  1.00 20.00     0.012 C 
HETATM    5  C4  UNL     1     -35.379   6.513   3.870  1.00 20.00     0.012 C 
ENDBRANCH   2   3
BRANCH   2   6
HETATM    6  O10 UNL     1     -32.527   7.747   2.658  1.00 20.00    -0.383 OA
BRANCH   6   7
HETATM    7  C6  UNL     1     -31.881   8.260   1.504  1.00 20.00     0.202 C 
BRANCH   7   8
HETATM    8  C2  UNL     1     -32.827   9.199   0.786  1.00 20.00     0.169 A 
HETATM    9  C1  UNL     1     -32.419   9.892  -0.484  1.00 20.00     0.202 A 
HETATM   10  O9  UNL     1     -32.414  10.570   0.782  1.00 20.00    -0.379 OA
ENDBRANCH   7   8
ENDBRANCH   6   7
ENDBRANCH   2   6
TORSDOF 4
ENDMDL
MODEL 4
REMARK VINA RESULT:      -1.2      1.147      1.782
REMARK  4 active torsions:
REMARK  status: ('A' for Active; 'I' for Inactive)
REMARK    1  A    between atoms: C2_2  and  C6_6 
REMARK    2  A    between atoms: C6_6  and  O10_10 
REMARK    3  A    between atoms: C7_7  and  C8_8 
REMARK    4  A    between atoms: C8_8  and  O10_10 
ROOT
HETATM    1  C5  UNL     1     -33.498   8.007   3.927  1.00 20.00     0.040 C 
HETATM    2  C8  UNL     1     -33.161   6.666   3.283  1.00 20.00     0.120 C 
ENDROOT
BRANCH   2   3
HETATM    3  C7  UNL     1     -34.325   5.653   3.322  1.00 20.00     0.006 C 
HETATM    4  C3  UNL     1     -35.541   6.185   4.083  1.00 20.00     0.012 C 
HETATM    5  C4  UNL     1     -33.871   4.328   3.949  1.00 20.00     0.012 C 
ENDBRANCH   2   3
BRANCH   2   6
HETATM    6  O10 UNL     1     -32.815   6.910   1.917  1.00 20.00    -0.383 OA
BRANCH   6   7
HETATM    7  C6  UNL     1     -32.103   8.128   1.778  1.00 20.00     0.202 C 
BRANCH   7   8
HETATM    8  C2  UNL     1     -32.749   8.955   0.686  1.00 20.00     0.169 A 
HETATM    9  C1  UNL     1     -31.930   9.859  -0.192  1.00 20.00     0.202 A 
HETATM   10  O9  UNL     1     -32.704  10.369   0.905  1.00 20.00    -0.379 OA
ENDBRANCH   7   8
ENDBRANCH   6   7
ENDBRANCH   2   6
TORSDOF 4
ENDMDL
MODEL 5
REMARK VINA RESULT:      -0.9      2.223      5.149
REMARK  4 active torsions:
REMARK  status: ('A' for Active; 'I' for Inactive)
REMARK    1  A    between atoms: C2_2  and  C6_6 
REMARK    2  A    between atoms: C6_6  and  O10_10 
REMARK    3  A    between atoms: C7_7  and  C8_8 
REMARK    4  A    between atoms: C8_8  and  O10_10 
ROOT
HETATM    1  C5  UNL     1     -33.425   7.947   4.433  1.00 20.00     0.040 C 
HETATM    2  C8  UNL     1     -33.583   7.536   2.973  1.00 20.00     0.120 C 
ENDROOT
BRANCH   2   3
HETATM    3  C7  UNL     1     -32.256   7.533   2.185  1.00 20.00     0.006 C 
HETATM    4  C3  UNL     1     -32.159   8.692   1.193  1.00 20.00     0.012 C 
HETATM    5  C4  UNL     1     -32.071   6.205   1.437  1.00 20.00     0.012 C 
ENDBRANCH   2   3
BRANCH   2   6
HETATM    6  O10 UNL     1     -34.133   6.217   2.946  1.00 20.00    -0.383 OA
BRANCH   6   7
HETATM    7  C6  UNL     1     -34.557   5.810   4.237  1.00 20.00     0.202 C 
BRANCH   7   8
HETATM    8  C2  UNL     1     -34.565   4.297   4.299  1.00 20.00     0.169 A 
HETATM    9  C1  UNL     1     -33.430   3.539   4.928  1.00 20.00     0.202 A 
HETATM   10  O9  UNL     1     -33.558   3.664   3.503  1.00 20.00    -0.379 OA
ENDBRANCH   7   8
ENDBRANCH   6   7
ENDBRANCH   2   6
TORSDOF 4
ENDMDL
MODEL 6
REMARK VINA RESULT:      -0.8      1.556      2.265
REMARK  4 active torsions:
REMARK  status: ('A' for Active; 'I' for Inactive)
REMARK    1  A    between atoms: C2_2  and  C6_6 
REMARK    2  A    between atoms: C6_6  and  O10_10 
REMARK    3  A    between atoms: C7_7  and  C8_8 
REMARK    4  A    between atoms: C8_8  and  O10_10 
ROOT
HETATM    1  C5  UNL     1     -33.982   7.555   4.071  1.00 20.00     0.040 C 
HETATM    2  C8  UNL     1     -33.500   6.289   3.370  1.00 20.00     0.120 C 
ENDROOT
BRANCH   2   3
HETATM    3  C7  UNL     1     -34.411   5.067   3.609  1.00 20.00     0.006 C 
HETATM    4  C3  UNL     1     -35.550   5.365   4.585  1.00 20.00     0.012 C 
HETATM    5  C4  UNL     1     -33.596   3.874   4.128  1.00 20.00     0.012 C 
ENDBRANCH   2   3
BRANCH   2   6
HETATM    6  O10 UNL     1     -33.454   6.555   1.967  1.00 20.00    -0.383 OA
BRANCH   6   7
HETATM    7  C6  UNL     1     -32.124   6.785   1.531  1.00 20.00     0.202 C 
BRANCH   7   8
HETATM    8  C2  UNL     1     -31.838   8.271   1.583  1.00 20.00     0.169 A 
HETATM    9  C1  UNL     1     -32.507   9.226   0.634  1.00 20.00     0.202 A 
HETATM   10  O9  UNL     1     -31.155   8.785   0.434  1.00 20.00    -0.379 OA
ENDBRANCH   7   8
ENDBRANCH   6   7
ENDBRANCH   2   6
TORSDOF 4
ENDMDL
MODEL 7
REMARK VINA RESULT:      -0.8      2.841      5.534
REMARK  4 active torsions:
REMARK  status: ('A' for Active; 'I' for Inactive)
REMARK    1  A    between atoms: C2_2  and  C6_6 
REMARK    2  A    between atoms: C6_6  and  O10_10 
REMARK    3  A    between atoms: C7_7  and  C8_8 
REMARK    4  A    between atoms: C8_8  and  O10_10 
ROOT
HETATM    1  C5  UNL     1     -33.999   7.270   3.925  1.00 20.00     0.040 C 
HETATM    2  C8  UNL     1     -33.869   6.288   2.765  1.00 20.00     0.120 C 
ENDROOT
BRANCH   2   3
HETATM    3  C7  UNL     1     -32.937   6.784   1.639  1.00 20.00     0.006 C 
HETATM    4  C3  UNL     1     -31.978   5.697   1.151  1.00 20.00     0.012 C 
HETATM    5  C4  UNL     1     -32.130   8.006   2.099  1.00 20.00     0.012 C 
ENDBRANCH   2   3
BRANCH   2   6
HETATM    6  O10 UNL     1     -33.347   5.063   3.284  1.00 20.00    -0.383 OA
BRANCH   6   7
HETATM    7  C6  UNL     1     -34.264   4.450   4.175  1.00 20.00     0.202 C 
BRANCH   7   8
HETATM    8  C2  UNL     1     -33.708   3.110   4.609  1.00 20.00     0.169 A 
HETATM    9  C1  UNL     1     -32.796   2.995   5.798  1.00 20.00     0.202 A 
HETATM   10  O9  UNL     1     -32.292   2.975   4.453  1.00 20.00    -0.379 OA
ENDBRANCH   7   8
ENDBRANCH   6   7
ENDBRANCH   2   6
TORSDOF 4
ENDMDL
MODEL 8
REMARK VINA RESULT:      -0.6      1.659      4.578
REMARK  4 active torsions:
REMARK  status: ('A' for Active; 'I' for Inactive)
REMARK    1  A    between atoms: C2_2  and  C6_6 
REMARK    2  A    between atoms: C6_6  and  O10_10 
REMARK    3  A    between atoms: C7_7  and  C8_8 
REMARK    4  A    between atoms: C8_8  and  O10_10 
ROOT
HETATM    1  C5  UNL     1     -31.671   6.607   1.375  1.00 20.00     0.040 C 
HETATM    2  C8  UNL     1     -31.973   8.045   1.786  1.00 20.00     0.120 C 
ENDROOT
BRANCH   2   3
HETATM    3  C7  UNL     1     -32.373   8.954   0.604  1.00 20.00     0.006 C 
HETATM    4  C3  UNL     1     -31.270   9.065  -0.450  1.00 20.00     0.012 C 
HETATM    5  C4  UNL     1     -32.747  10.357   1.100  1.00 20.00     0.012 C 
ENDBRANCH   2   3
BRANCH   2   6
HETATM    6  O10 UNL     1     -33.051   8.016   2.724  1.00 20.00    -0.383 OA
BRANCH   6   7
HETATM    7  C6  UNL     1     -33.563   6.702   2.878  1.00 20.00     0.202 C 
BRANCH   7   8
HETATM    8  C2  UNL     1     -34.573   6.695   4.005  1.00 20.00     0.169 A 
HETATM    9  C1  UNL     1     -35.265   5.428   4.422  1.00 20.00     0.202 A 
HETATM   10  O9  UNL     1     -35.916   6.408   3.599  1.00 20.00    -0.379 OA
ENDBRANCH   7   8
ENDBRANCH   6   7
ENDBRANCH   2   6
TORSDOF 4
ENDMDL
MODEL 9
REMARK VINA RESULT:      -0.5      1.143      2.081
REMARK  4 active torsions:
REMARK  status: ('A' for Active; 'I' for Inactive)
REMARK    1  A    between atoms: C2_2  and  C6_6 
REMARK    2  A    between atoms: C6_6  and  O10_10 
REMARK    3  A    between atoms: C7_7  and  C8_8 
REMARK    4  A    between atoms: C8_8  and  O10_10 
ROOT
HETATM    1  C5  UNL     1     -33.921   8.064   3.982  1.00 20.00     0.040 C 
HETATM    2  C8  UNL     1     -32.844   7.241   3.283  1.00 20.00     0.120 C 
ENDROOT
BRANCH   2   3
HETATM    3  C7  UNL     1     -33.403   6.051   2.475  1.00 20.00     0.006 C 
HETATM    4  C3  UNL     1     -34.015   4.971   3.368  1.00 20.00     0.012 C 
HETATM    5  C4  UNL     1     -32.310   5.427   1.598  1.00 20.00     0.012 C 
ENDBRANCH   2   3
BRANCH   2   6
HETATM    6  O10 UNL     1     -32.140   8.108   2.390  1.00 20.00    -0.383 OA
BRANCH   6   7
HETATM    7  C6  UNL     1     -32.911   8.390   1.234  1.00 20.00     0.202 C 
BRANCH   7   8
HETATM    8  C2  UNL     1     -32.166   9.391   0.376  1.00 20.00     0.169 A 
HETATM    9  C1  UNL     1     -32.625  10.818   0.271  1.00 20.00     0.202 A 
HETATM   10  O9  UNL     1     -32.897   9.859  -0.762  1.00 20.00    -0.379 OA
ENDBRANCH   7   8
ENDBRANCH   6   7
ENDBRANCH   2   6
TORSDOF 4
ENDMDL
