MODEL 1
REMARK VINA RESULT:      -2.5      0.000      0.000
REMARK  3 active torsions:
REMARK  status: ('A' for Active; 'I' for Inactive)
REMARK    1  A    between atoms: C3_3  and  C6_6 
REMARK    2  A    between atoms: C4_4  and  O8_8 
REMARK    3  A    between atoms: C6_6  and  C7_7 
ROOT
HETATM    1  C1  UNL     1     -33.395   6.091   2.360  1.00 20.00     0.036 C 
HETATM    2  C2  UNL     1     -33.828   7.418   3.975  1.00 20.00     0.036 C 
HETATM    3  C3  UNL     1     -34.512   6.140   3.430  1.00 20.00    -0.010 C 
HETATM    4  C4  UNL     1     -33.213   7.612   2.568  1.00 20.00     0.118 C 
ENDROOT
BRANCH   3   5
HETATM    5  C6  UNL     1     -34.597   4.961   4.377  1.00 20.00     0.004 C 
BRANCH   5   6
HETATM    6  C7  UNL     1     -33.783   3.769   3.870  1.00 20.00    -0.004 C 
HETATM    7  C5  UNL     1     -33.133   3.006   5.013  1.00 20.00     0.005 C 
ENDBRANCH   5   6
ENDBRANCH   3   5
BRANCH   4   8
HETATM    8  O8  UNL     1     -31.859   8.093   2.530  1.00 20.00    -0.396 OA
HETATM    9  H22 UNL     1     -31.570   7.997   1.613  1.00 20.00     0.210 HD
ENDBRANCH   4   8
TORSDOF 3
ENDMDL
MODEL 2
REMARK VINA RESULT:      -2.3      1.025      1.743
REMARK  3 active torsions:
REMARK  status: ('A' for Active; 'I' for Inactive)
REMARK    1  A    between atoms: C3_3  and  C6_6 
REMARK    2  A    between atoms: C4_4  and  O8_8 
REMARK    3  A    between atoms: C6_6  and  C7_7 
ROOT
HETATM    1  C1  UNL     1     -33.095   8.054   3.313  1.00 20.00     0.036 C 
HETATM    2  C2  UNL     1     -33.152   6.534   1.815  1.00 20.00     0.036 C 
HETATM    3  C3  UNL     1     -33.524   6.567   3.317  1.00 20.00    -0.010 C 
HETATM    4  C4  UNL     1     -32.209   7.730   2.087  1.00 20.00     0.118 C 
ENDROOT
BRANCH   3   5
HETATM    5  C6  UNL     1     -34.971   6.280   3.664  1.00 20.00     0.004 C 
BRANCH   5   6
HETATM    6  C7  UNL     1     -35.110   5.005   4.497  1.00 20.00    -0.004 C 
HETATM    7  C5  UNL     1     -33.982   4.025   4.216  1.00 20.00     0.005 C 
ENDBRANCH   5   6
ENDBRANCH   3   5
BRANCH   4   8
HETATM    8  O8  UNL     1     -32.157   8.741   1.066  1.00 20.00    -0.396 OA
HETATM    9  H22 UNL     1     -31.219   8.887   0.886  1.00 20.00     0.210 HD
ENDBRANCH   4   8
TORSDOF 3
ENDMDL
MODEL 3
REMARK VINA RESULT:      -2.3      2.552      4.275
REMARK  3 active torsions:
REMARK  status: ('A' for Active; 'I' for Inactive)
REMARK    1  A    between atoms: C3_3  and  C6_6 
REMARK    2  A    between atoms: C4_4  and  O8_8 
REMARK    3  A    between atoms: C6_6  and  C7_7 
ROOT
HETATM    1  C1  UNL     1     -34.531   7.336   4.357  1.00 20.00     0.036 C 
HETATM    2  C2  UNL     1     -34.064   5.959   2.795  1.00 20.00     0.036 C 
HETATM    3  C3  UNL     1     -33.817   7.474   2.991  1.00 20.00    -0.010 C 
HETATM    4  C4  UNL     1     -35.243   6.087   3.789  1.00 20.00     0.118 C 
ENDROOT
BRANCH   3   5
HETATM    5  C6  UNL     1     -32.371   7.926   3.024  1.00 20.00     0.004 C 
BRANCH   5   6
HETATM    6  C7  UNL     1     -31.762   7.974   1.622  1.00 20.00    -0.004 C 
HETATM    7  C5  UNL     1     -32.302   9.144   0.815  1.00 20.00     0.005 C 
ENDBRANCH   5   6
ENDBRANCH   3   5
BRANCH   4   8
HETATM    8  O8  UNL     1     -35.420   4.994   4.706  1.00 20.00    -0.396 OA
HETATM    9  H22 UNL     1     -35.172   5.335   5.575  1.00 20.00     0.210 HD
ENDBRANCH   4   8
TORSDOF 3
ENDMDL
MODEL 4
REMARK VINA RESULT:      -2.2      2.389      4.633
REMARK  3 active torsions:
REMARK  status: ('A' for Active; 'I' for Inactive)
REMARK    1  A    between atoms: C3_3  and  C6_6 
REMARK    2  A    between atoms: C4_4  and  O8_8 
REMARK    3  A    between atoms: C6_6  and  C7_7 
ROOT
HETATM    1  C1  UNL     1     -33.350   6.075   2.298  1.00 20.00     0.036 C 
HETATM    2  C2  UNL     1     -33.470   7.960   3.292  1.00 20.00     0.036 C 
HETATM    3  C3  UNL     1     -32.379   7.272   2.436  1.00 20.00    -0.010 C 
HETATM    4  C4  UNL     1     -34.024   6.550   3.606  1.00 20.00     0.118 C 
ENDROOT
BRANCH   3   5
HETATM    5  C6  UNL     1     -31.980   7.973   1.153  1.00 20.00     0.004 C 
BRANCH   5   6
HETATM    6  C7  UNL     1     -32.380   9.450   1.169  1.00 20.00    -0.004 C 
HETATM    7  C5  UNL     1     -32.639   9.976  -0.233  1.00 20.00     0.005 C 
ENDBRANCH   5   6
ENDBRANCH   3   5
BRANCH   4   8
HETATM    8  O8  UNL     1     -35.455   6.428   3.656  1.00 20.00    -0.396 OA
HETATM    9  H22 UNL     1     -35.784   6.842   2.847  1.00 20.00     0.210 HD
ENDBRANCH   4   8
TORSDOF 3
ENDMDL
MODEL 5
REMARK VINA RESULT:      -1.9      2.352      4.290
REMARK  3 active torsions:
REMARK  status: ('A' for Active; 'I' for Inactive)
REMARK    1  A    between atoms: C3_3  and  C6_6 
REMARK    2  A    between atoms: C4_4  and  O8_8 
REMARK    3  A    between atoms: C6_6  and  C7_7 
ROOT
HETATM    1  C1  UNL     1     -33.609   5.231   3.201  1.00 20.00     0.036 C 
HETATM    2  C2  UNL     1     -34.479   7.113   3.709  1.00 20.00     0.036 C 
HETATM    3  C3  UNL     1     -33.149   6.699   3.033  1.00 20.00    -0.010 C 
HETATM    4  C4  UNL     1     -34.510   5.711   4.362  1.00 20.00     0.118 C 
ENDROOT
BRANCH   3   5
HETATM    5  C6  UNL     1     -32.931   7.184   1.614  1.00 20.00     0.004 C 
BRANCH   5   6
HETATM    6  C7  UNL     1     -31.880   8.293   1.551  1.00 20.00    -0.004 C 
HETATM    7  C5  UNL     1     -32.282   9.394   0.583  1.00 20.00     0.005 C 
ENDBRANCH   5   6
ENDBRANCH   3   5
BRANCH   4   8
HETATM    8  O8  UNL     1     -35.800   5.084   4.457  1.00 20.00    -0.396 OA
HETATM    9  H22 UNL     1     -35.743   4.280   3.924  1.00 20.00     0.210 HD
ENDBRANCH   4   8
TORSDOF 3
ENDMDL
MODEL 6
REMARK VINA RESULT:      -1.7      2.324      3.476
REMARK  3 active torsions:
REMARK  status: ('A' for Active; 'I' for Inactive)
REMARK    1  A    between atoms: C3_3  and  C6_6 
REMARK    2  A    between atoms: C4_4  and  O8_8 
REMARK    3  A    between atoms: C6_6  and  C7_7 
ROOT
HETATM    1  C1  UNL     1     -32.991   9.305   1.816  1.00 20.00     0.036 C 
HETATM    2  C2  UNL     1     -31.838   7.928   0.663  1.00 20.00     0.036 C 
HETATM    3  C3  UNL     1     -32.225   8.004   2.159  1.00 20.00    -0.010 C 
HETATM    4  C4  UNL     1     -32.059   9.458   0.592  1.00 20.00     0.118 C 
ENDROOT
BRANCH   3   5
HETATM    5  C6  UNL     1     -33.049   6.856   2.706  1.00 20.00     0.004 C 
BRANCH   5   6
HETATM    6  C7  UNL     1     -34.055   7.332   3.756  1.00 20.00    -0.004 C 
HETATM    7  C5  UNL     1     -35.167   6.317   3.969  1.00 20.00     0.005 C 
ENDBRANCH   5   6
ENDBRANCH   3   5
BRANCH   4   8
HETATM    8  O8  UNL     1     -32.674   9.954  -0.608  1.00 20.00    -0.396 OA
HETATM    9  H22 UNL     1     -33.507  10.358  -0.331  1.00 20.00     0.210 HD
ENDBRANCH   4   8
TORSDOF 3
ENDMDL
MODEL 7
REMARK VINA RESULT:      -1.6      2.231      4.245
REMARK  3 active torsions:
REMARK  status: ('A' for Active; 'I' for Inactive)
REMARK    1  A    between atoms: C3_3  and  C6_6 
REMARK    2  A    between atoms: C4_4  and  O8_8 
REMARK    3  A    between atoms: C6_6  and  C7_7 
ROOT
HETATM    1  C1  UNL     1     -34.536   6.249   4.126  1.00 20.00     0.036 C 
HETATM    2  C2  UNL     1     -33.236   5.317   2.713  1.00 20.00     0.036 C 
HETATM    3  C3  UNL     1     -33.863   6.728   2.818  1.00 20.00    -0.010 C 
HETATM    4  C4  UNL     1     -34.399   4.803   3.595  1.00 20.00     0.118 C 
ENDROOT
BRANCH   3   5
HETATM    5  C6  UNL     1     -32.899   7.892   2.937  1.00 20.00     0.004 C 
BRANCH   5   6
HETATM    6  C7  UNL     1     -31.926   7.942   1.758  1.00 20.00    -0.004 C 
HETATM    7  C5  UNL     1     -32.220   9.115   0.837  1.00 20.00     0.005 C 
ENDBRANCH   5   6
ENDBRANCH   3   5
BRANCH   4   8
HETATM    8  O8  UNL     1     -34.061   3.804   4.571  1.00 20.00    -0.396 OA
HETATM    9  H22 UNL     1     -34.784   3.805   5.212  1.00 20.00     0.210 HD
ENDBRANCH   4   8
TORSDOF 3
ENDMDL
MODEL 8
REMARK VINA RESULT:      -1.0      2.213      3.817
REMARK  3 active torsions:
REMARK  status: ('A' for Active; 'I' for Inactive)
REMARK    1  A    between atoms: C3_3  and  C6_6 
REMARK    2  A    between atoms: C4_4  and  O8_8 
REMARK    3  A    between atoms: C6_6  and  C7_7 
ROOT
HETATM    1  C1  UNL     1     -34.938   4.573   4.810  1.00 20.00     0.036 C 
HETATM    2  C2  UNL     1     -33.419   4.960   3.361  1.00 20.00     0.036 C 
HETATM    3  C3  UNL     1     -34.833   5.541   3.606  1.00 20.00    -0.010 C 
HETATM    4  C4  UNL     1     -33.880   3.688   4.111  1.00 20.00     0.118 C 
ENDROOT
BRANCH   3   5
HETATM    5  C6  UNL     1     -34.913   7.022   3.917  1.00 20.00     0.004 C 
BRANCH   5   6
HETATM    6  C7  UNL     1     -33.552   7.704   3.769  1.00 20.00    -0.004 C 
HETATM    7  C5  UNL     1     -33.085   8.315   5.081  1.00 20.00     0.005 C 
ENDBRANCH   5   6
ENDBRANCH   3   5
BRANCH   4   8
HETATM    8  O8  UNL     1     -32.907   3.074   4.973  1.00 20.00    -0.396 OA
HETATM    9  H22 UNL     1     -32.379   2.496   4.407  1.00 20.00     0.210 HD
ENDBRANCH   4   8
TORSDOF 3
ENDMDL
MODEL 9
REMARK VINA RESULT:      -0.9      2.456      3.812
REMARK  3 active torsions:
REMARK  status: ('A' for Active; 'I' for Inactive)
REMARK    1  A    between atoms: C3_3  and  C6_6 
REMARK    2  A    between atoms: C4_4  and  O8_8 
REMARK    3  A    between atoms: C6_6  and  C7_7 
ROOT
HETATM    1  C1  UNL     1     -33.029   9.035   1.402  1.00 20.00     0.036 C 
HETATM    2  C2  UNL     1     -31.370   8.551   0.149  1.00 20.00     0.036 C 
HETATM    3  C3  UNL     1     -31.753   8.183   1.603  1.00 20.00    -0.010 C 
HETATM    4  C4  UNL     1     -32.268   9.803   0.296  1.00 20.00     0.118 C 
ENDROOT
BRANCH   3   5
HETATM    5  C6  UNL     1     -31.960   6.711   1.899  1.00 20.00     0.004 C 
BRANCH   5   6
HETATM    6  C7  UNL     1     -33.445   6.357   1.990  1.00 20.00    -0.004 C 
HETATM    7  C5  UNL     1     -33.951   6.424   3.423  1.00 20.00     0.005 C 
ENDBRANCH   5   6
ENDBRANCH   3   5
BRANCH   4   8
HETATM    8  O8  UNL     1     -33.040  10.168  -0.860  1.00 20.00    -0.396 OA
HETATM    9  H22 UNL     1     -33.503  10.982  -0.623  1.00 20.00     0.210 HD
ENDBRANCH   4   8
TORSDOF 3
ENDMDL
