MODEL 1
REMARK VINA RESULT:      -2.7      0.000      0.000
REMARK  3 active torsions:
REMARK  status: ('A' for Active; 'I' for Inactive)
REMARK    1  A    between atoms: C4_4  and  O7_7 
REMARK    2  A    between atoms: C5_5  and  C6_6 
REMARK    3  A    between atoms: C6_6  and  O7_7 
ROOT
HETATM    1  C3  UNL     1     -32.769   5.813   1.649  1.00 20.00     0.040 C 
HETATM    2  C6  UNL     1     -33.376   7.039   2.321  1.00 20.00     0.122 C 
ENDROOT
BRANCH   2   3
HETATM    3  C5  UNL     1     -33.868   6.773   3.759  1.00 20.00     0.006 C 
HETATM    4  C1  UNL     1     -35.320   6.293   3.802  1.00 20.00     0.012 C 
HETATM    5  C2  UNL     1     -33.721   8.029   4.628  1.00 20.00     0.012 C 
ENDBRANCH   2   3
BRANCH   2   6
HETATM    6  O7  UNL     1     -32.375   8.057   2.363  1.00 20.00    -0.371 OA
BRANCH   6   7
HETATM    7  C4  UNL     1     -31.825   8.290   1.077  1.00 20.00     0.282 C 
HETATM    8 CL8  UNL     1     -32.469   9.821   0.457  1.00 20.00    -0.102 Cl
ENDBRANCH   6   7
ENDBRANCH   2   6
TORSDOF 3
ENDMDL
MODEL 2
REMARK VINA RESULT:      -2.5      0.960      1.292
REMARK  3 active torsions:
REMARK  status: ('A' for Active; 'I' for Inactive)
REMARK    1  A    between atoms: C4_4  and  O7_7 
REMARK    2  A    between atoms: C5_5  and  C6_6 
REMARK    3  A    between atoms: C6_6  and  O7_7 
ROOT
HETATM    1  C3  UNL     1     -32.596   5.606   1.533  1.00 20.00     0.040 C 
HETATM    2  C6  UNL     1     -33.500   6.550   2.319  1.00 20.00     0.122 C 
ENDROOT
BRANCH   2   3
HETATM    3  C5  UNL     1     -33.983   5.963   3.662  1.00 20.00     0.006 C 
HETATM    4  C1  UNL     1     -33.897   4.436   3.698  1.00 20.00     0.012 C 
HETATM    5  C2  UNL     1     -35.424   6.399   3.962  1.00 20.00     0.012 C 
ENDBRANCH   2   3
BRANCH   2   6
HETATM    6  O7  UNL     1     -32.763   7.745   2.583  1.00 20.00    -0.371 OA
BRANCH   6   7
HETATM    7  C4  UNL     1     -31.806   7.993   1.567  1.00 20.00     0.282 C 
HETATM    8 CL8  UNL     1     -32.325   9.409   0.635  1.00 20.00    -0.102 Cl
ENDBRANCH   6   7
ENDBRANCH   2   6
TORSDOF 3
ENDMDL
MODEL 3
REMARK VINA RESULT:      -2.4      3.345      4.376
REMARK  3 active torsions:
REMARK  status: ('A' for Active; 'I' for Inactive)
REMARK    1  A    between atoms: C4_4  and  O7_7 
REMARK    2  A    between atoms: C5_5  and  C6_6 
REMARK    3  A    between atoms: C6_6  and  O7_7 
ROOT
HETATM    1  C3  UNL     1     -34.146   7.304   3.916  1.00 20.00     0.040 C 
HETATM    2  C6  UNL     1     -33.910   6.175   2.919  1.00 20.00     0.122 C 
ENDROOT
BRANCH   2   3
HETATM    3  C5  UNL     1     -33.065   6.598   1.700  1.00 20.00     0.006 C 
HETATM    4  C1  UNL     1     -32.168   5.469   1.189  1.00 20.00     0.012 C 
HETATM    5  C2  UNL     1     -32.202   7.824   2.031  1.00 20.00     0.012 C 
ENDBRANCH   2   3
BRANCH   2   6
HETATM    6  O7  UNL     1     -33.228   5.121   3.602  1.00 20.00    -0.371 OA
BRANCH   6   7
HETATM    7  C4  UNL     1     -34.143   4.175   4.130  1.00 20.00     0.282 C 
HETATM    8 CL8  UNL     1     -33.223   2.825   4.820  1.00 20.00    -0.102 Cl
ENDBRANCH   6   7
ENDBRANCH   2   6
TORSDOF 3
ENDMDL
MODEL 4
REMARK VINA RESULT:      -2.0      3.369      4.246
REMARK  3 active torsions:
REMARK  status: ('A' for Active; 'I' for Inactive)
REMARK    1  A    between atoms: C4_4  and  O7_7 
REMARK    2  A    between atoms: C5_5  and  C6_6 
REMARK    3  A    between atoms: C6_6  and  O7_7 
ROOT
HETATM    1  C3  UNL     1     -35.359   6.180   4.013  1.00 20.00     0.040 C 
HETATM    2  C6  UNL     1     -34.117   6.129   3.129  1.00 20.00     0.122 C 
ENDROOT
BRANCH   2   3
HETATM    3  C5  UNL     1     -33.064   7.198   3.484  1.00 20.00     0.006 C 
HETATM    4  C1  UNL     1     -33.604   8.253   4.452  1.00 20.00     0.012 C 
HETATM    5  C2  UNL     1     -32.540   7.890   2.218  1.00 20.00     0.012 C 
ENDBRANCH   2   3
BRANCH   2   6
HETATM    6  O7  UNL     1     -33.525   4.837   3.279  1.00 20.00    -0.371 OA
BRANCH   6   7
HETATM    7  C4  UNL     1     -34.148   4.104   4.321  1.00 20.00     0.282 C 
HETATM    8 CL8  UNL     1     -33.028   2.845   4.873  1.00 20.00    -0.102 Cl
ENDBRANCH   6   7
ENDBRANCH   2   6
TORSDOF 3
ENDMDL
MODEL 5
REMARK VINA RESULT:      -2.0      1.241      1.992
REMARK  3 active torsions:
REMARK  status: ('A' for Active; 'I' for Inactive)
REMARK    1  A    between atoms: C4_4  and  O7_7 
REMARK    2  A    between atoms: C5_5  and  C6_6 
REMARK    3  A    between atoms: C6_6  and  O7_7 
ROOT
HETATM    1  C3  UNL     1     -33.637   7.957   3.987  1.00 20.00     0.040 C 
HETATM    2  C6  UNL     1     -33.255   6.646   3.308  1.00 20.00     0.122 C 
ENDROOT
BRANCH   2   3
HETATM    3  C5  UNL     1     -34.363   5.575   3.369  1.00 20.00     0.006 C 
HETATM    4  C1  UNL     1     -35.582   6.038   4.170  1.00 20.00     0.012 C 
HETATM    5  C2  UNL     1     -33.827   4.268   3.967  1.00 20.00     0.012 C 
ENDBRANCH   2   3
BRANCH   2   6
HETATM    6  O7  UNL     1     -32.968   6.929   1.937  1.00 20.00    -0.371 OA
BRANCH   6   7
HETATM    7  C4  UNL     1     -31.877   7.827   1.815  1.00 20.00     0.282 C 
HETATM    8 CL8  UNL     1     -32.363   9.164   0.757  1.00 20.00    -0.102 Cl
ENDBRANCH   6   7
ENDBRANCH   2   6
TORSDOF 3
ENDMDL
MODEL 6
REMARK VINA RESULT:      -1.9      2.894      4.227
REMARK  3 active torsions:
REMARK  status: ('A' for Active; 'I' for Inactive)
REMARK    1  A    between atoms: C4_4  and  O7_7 
REMARK    2  A    between atoms: C5_5  and  C6_6 
REMARK    3  A    between atoms: C6_6  and  O7_7 
ROOT
HETATM    1  C3  UNL     1     -33.837   7.662   4.300  1.00 20.00     0.040 C 
HETATM    2  C6  UNL     1     -33.769   7.180   2.856  1.00 20.00     0.122 C 
ENDROOT
BRANCH   2   3
HETATM    3  C5  UNL     1     -32.354   7.262   2.245  1.00 20.00     0.006 C 
HETATM    4  C1  UNL     1     -32.159   8.514   1.386  1.00 20.00     0.012 C 
HETATM    5  C2  UNL     1     -32.048   6.015   1.404  1.00 20.00     0.012 C 
ENDBRANCH   2   3
BRANCH   2   6
HETATM    6  O7  UNL     1     -34.198   5.817   2.827  1.00 20.00    -0.371 OA
BRANCH   6   7
HETATM    7  C4  UNL     1     -34.565   5.367   4.121  1.00 20.00     0.282 C 
HETATM    8 CL8  UNL     1     -33.889   3.746   4.366  1.00 20.00    -0.102 Cl
ENDBRANCH   6   7
ENDBRANCH   2   6
TORSDOF 3
ENDMDL
MODEL 7
REMARK VINA RESULT:      -1.5      1.413      2.455
REMARK  3 active torsions:
REMARK  status: ('A' for Active; 'I' for Inactive)
REMARK    1  A    between atoms: C4_4  and  O7_7 
REMARK    2  A    between atoms: C5_5  and  C6_6 
REMARK    3  A    between atoms: C6_6  and  O7_7 
ROOT
HETATM    1  C3  UNL     1     -32.188   8.507   3.116  1.00 20.00     0.040 C 
HETATM    2  C6  UNL     1     -31.881   7.539   1.979  1.00 20.00     0.122 C 
ENDROOT
BRANCH   2   3
HETATM    3  C5  UNL     1     -32.991   6.494   1.744  1.00 20.00     0.006 C 
HETATM    4  C1  UNL     1     -33.812   6.218   3.005  1.00 20.00     0.012 C 
HETATM    5  C2  UNL     1     -32.399   5.177   1.223  1.00 20.00     0.012 C 
ENDBRANCH   2   3
BRANCH   2   6
HETATM    6  O7  UNL     1     -31.715   8.305   0.784  1.00 20.00    -0.371 OA
BRANCH   6   7
HETATM    7  C4  UNL     1     -32.351   9.567   0.890  1.00 20.00     0.282 C 
HETATM    8 CL8  UNL     1     -32.872  10.074  -0.728  1.00 20.00    -0.102 Cl
ENDBRANCH   6   7
ENDBRANCH   2   6
TORSDOF 3
ENDMDL
MODEL 8
REMARK VINA RESULT:      -1.5      2.166      2.753
REMARK  3 active torsions:
REMARK  status: ('A' for Active; 'I' for Inactive)
REMARK    1  A    between atoms: C4_4  and  O7_7 
REMARK    2  A    between atoms: C5_5  and  C6_6 
REMARK    3  A    between atoms: C6_6  and  O7_7 
ROOT
HETATM    1  C3  UNL     1     -32.354   7.976   1.855  1.00 20.00     0.040 C 
HETATM    2  C6  UNL     1     -32.881   6.978   2.880  1.00 20.00     0.122 C 
ENDROOT
BRANCH   2   3
HETATM    3  C5  UNL     1     -34.069   7.512   3.705  1.00 20.00     0.006 C 
HETATM    4  C1  UNL     1     -33.633   8.101   5.048  1.00 20.00     0.012 C 
HETATM    5  C2  UNL     1     -35.106   6.406   3.948  1.00 20.00     0.012 C 
ENDBRANCH   2   3
BRANCH   2   6
HETATM    6  O7  UNL     1     -33.303   5.808   2.176  1.00 20.00    -0.371 OA
BRANCH   6   7
HETATM    7  C4  UNL     1     -32.702   5.736   0.893  1.00 20.00     0.282 C 
HETATM    8 CL8  UNL     1     -31.324   4.623   0.978  1.00 20.00    -0.102 Cl
ENDBRANCH   6   7
ENDBRANCH   2   6
TORSDOF 3
ENDMDL
MODEL 9
REMARK VINA RESULT:      -1.4      1.804      2.485
REMARK  3 active torsions:
REMARK  status: ('A' for Active; 'I' for Inactive)
REMARK    1  A    between atoms: C4_4  and  O7_7 
REMARK    2  A    between atoms: C5_5  and  C6_6 
REMARK    3  A    between atoms: C6_6  and  O7_7 
ROOT
HETATM    1  C3  UNL     1     -33.659   8.074   4.605  1.00 20.00     0.040 C 
HETATM    2  C6  UNL     1     -33.278   7.033   3.558  1.00 20.00     0.122 C 
ENDROOT
BRANCH   2   3
HETATM    3  C5  UNL     1     -34.341   5.932   3.370  1.00 20.00     0.006 C 
HETATM    4  C1  UNL     1     -35.659   6.264   4.074  1.00 20.00     0.012 C 
HETATM    5  C2  UNL     1     -33.821   4.579   3.875  1.00 20.00     0.012 C 
ENDBRANCH   2   3
BRANCH   2   6
HETATM    6  O7  UNL     1     -33.097   7.710   2.313  1.00 20.00    -0.371 OA
BRANCH   6   7
HETATM    7  C4  UNL     1     -31.838   7.400   1.738  1.00 20.00     0.282 C 
HETATM    8 CL8  UNL     1     -31.880   5.726   1.155  1.00 20.00    -0.102 Cl
ENDBRANCH   6   7
ENDBRANCH   2   6
TORSDOF 3
ENDMDL
