MODEL 1
REMARK VINA RESULT:      -1.1      0.000      0.000
REMARK  1 active torsions:
REMARK  status: ('A' for Active; 'I' for Inactive)
REMARK    1  A    between atoms: C6_6  and  O8_8 
ROOT
HETATM    1  C1  UNL     1     -35.342   6.160   4.123  1.00 20.00     0.002 C 
HETATM    2  C2  UNL     1     -34.009   5.425   3.832  1.00 20.00     0.010 C 
HETATM    3  C3  UNL     1     -35.121   6.971   2.821  1.00 20.00     0.010 C 
HETATM    4  C4  UNL     1     -32.692   7.636   3.441  1.00 20.00     0.041 C 
HETATM    5  C5  UNL     1     -32.860   6.367   1.685  1.00 20.00     0.041 C 
HETATM    6  C6  UNL     1     -32.117   7.694   1.999  1.00 20.00     0.119 C 
HETATM    7  C7  UNL     1     -33.660   6.590   2.938  1.00 20.00    -0.036 C 
ENDROOT
BRANCH   6   8
HETATM    8  O8  UNL     1     -32.495   8.838   1.210  1.00 20.00    -0.396 OA
HETATM    9  H20 UNL     1     -33.297   8.579   0.738  1.00 20.00     0.210 HD
ENDBRANCH   6   8
TORSDOF 1
ENDMDL
MODEL 2
REMARK VINA RESULT:      -0.5      2.221      3.458
REMARK  1 active torsions:
REMARK  status: ('A' for Active; 'I' for Inactive)
REMARK    1  A    between atoms: C6_6  and  O8_8 
ROOT
HETATM    1  C1  UNL     1     -31.946   7.118   1.788  1.00 20.00     0.002 C 
HETATM    2  C2  UNL     1     -33.072   8.121   2.148  1.00 20.00     0.010 C 
HETATM    3  C3  UNL     1     -32.964   5.972   2.012  1.00 20.00     0.010 C 
HETATM    4  C4  UNL     1     -33.718   6.857   4.330  1.00 20.00     0.041 C 
HETATM    5  C5  UNL     1     -35.270   6.875   2.810  1.00 20.00     0.041 C 
HETATM    6  C6  UNL     1     -35.189   6.365   4.274  1.00 20.00     0.119 C 
HETATM    7  C7  UNL     1     -33.769   6.965   2.823  1.00 20.00    -0.036 C 
ENDROOT
BRANCH   6   8
HETATM    8  O8  UNL     1     -35.394   4.952   4.468  1.00 20.00    -0.396 OA
HETATM    9  H20 UNL     1     -36.120   4.874   5.100  1.00 20.00     0.210 HD
ENDBRANCH   6   8
TORSDOF 1
ENDMDL
MODEL 3
REMARK VINA RESULT:      -0.3      2.125      3.929
REMARK  1 active torsions:
REMARK  status: ('A' for Active; 'I' for Inactive)
REMARK    1  A    between atoms: C6_6  and  O8_8 
ROOT
HETATM    1  C1  UNL     1     -32.355   9.887  -0.350  1.00 20.00     0.002 C 
HETATM    2  C2  UNL     1     -31.256   8.936   0.189  1.00 20.00     0.010 C 
HETATM    3  C3  UNL     1     -32.947   9.932   1.082  1.00 20.00     0.010 C 
HETATM    4  C4  UNL     1     -32.969   7.351   1.342  1.00 20.00     0.041 C 
HETATM    5  C5  UNL     1     -31.637   8.385   2.713  1.00 20.00     0.041 C 
HETATM    6  C6  UNL     1     -32.730   7.293   2.875  1.00 20.00     0.119 C 
HETATM    7  C7  UNL     1     -32.189   8.646   1.339  1.00 20.00    -0.036 C 
ENDROOT
BRANCH   6   8
HETATM    8  O8  UNL     1     -33.855   7.638   3.707  1.00 20.00    -0.396 OA
HETATM    9  H20 UNL     1     -34.501   6.931   3.583  1.00 20.00     0.210 HD
ENDBRANCH   6   8
TORSDOF 1
ENDMDL
MODEL 4
REMARK VINA RESULT:      -0.2      1.016      1.817
REMARK  1 active torsions:
REMARK  status: ('A' for Active; 'I' for Inactive)
REMARK    1  A    between atoms: C6_6  and  O8_8 
ROOT
HETATM    1  C1  UNL     1     -34.991   4.946   4.120  1.00 20.00     0.002 C 
HETATM    2  C2  UNL     1     -35.274   6.463   3.983  1.00 20.00     0.010 C 
HETATM    3  C3  UNL     1     -33.483   5.264   3.953  1.00 20.00     0.010 C 
HETATM    4  C4  UNL     1     -33.842   6.697   1.821  1.00 20.00     0.041 C 
HETATM    5  C5  UNL     1     -33.076   7.798   3.530  1.00 20.00     0.041 C 
HETATM    6  C6  UNL     1     -32.668   7.689   2.036  1.00 20.00     0.119 C 
HETATM    7  C7  UNL     1     -33.920   6.571   3.326  1.00 20.00    -0.036 C 
ENDROOT
BRANCH   6   8
HETATM    8  O8  UNL     1     -31.347   7.176   1.773  1.00 20.00    -0.396 OA
HETATM    9  H20 UNL     1     -31.218   7.257   0.819  1.00 20.00     0.210 HD
ENDBRANCH   6   8
TORSDOF 1
ENDMDL
MODEL 5
REMARK VINA RESULT:      -0.2      1.816      3.414
REMARK  1 active torsions:
REMARK  status: ('A' for Active; 'I' for Inactive)
REMARK    1  A    between atoms: C6_6  and  O8_8 
ROOT
HETATM    1  C1  UNL     1     -31.910   8.647   0.773  1.00 20.00     0.002 C 
HETATM    2  C2  UNL     1     -31.323   7.944   2.023  1.00 20.00     0.010 C 
HETATM    3  C3  UNL     1     -33.254   8.769   1.535  1.00 20.00     0.010 C 
HETATM    4  C4  UNL     1     -33.302   6.263   2.202  1.00 20.00     0.041 C 
HETATM    5  C5  UNL     1     -33.138   7.639   3.875  1.00 20.00     0.041 C 
HETATM    6  C6  UNL     1     -34.047   6.420   3.556  1.00 20.00     0.119 C 
HETATM    7  C7  UNL     1     -32.748   7.652   2.423  1.00 20.00    -0.036 C 
ENDROOT
BRANCH   6   8
HETATM    8  O8  UNL     1     -35.461   6.685   3.476  1.00 20.00    -0.396 OA
HETATM    9  H20 UNL     1     -35.765   6.775   4.388  1.00 20.00     0.210 HD
ENDBRANCH   6   8
TORSDOF 1
ENDMDL
MODEL 6
REMARK VINA RESULT:       0.0      1.992      3.240
REMARK  1 active torsions:
REMARK  status: ('A' for Active; 'I' for Inactive)
REMARK    1  A    between atoms: C6_6  and  O8_8 
ROOT
HETATM    1  C1  UNL     1     -32.309   5.027   0.613  1.00 20.00     0.002 C 
HETATM    2  C2  UNL     1     -31.726   5.843   1.794  1.00 20.00     0.010 C 
HETATM    3  C3  UNL     1     -33.669   5.725   0.867  1.00 20.00     0.010 C 
HETATM    4  C4  UNL     1     -33.665   5.194   3.406  1.00 20.00     0.041 C 
HETATM    5  C5  UNL     1     -33.566   7.311   2.927  1.00 20.00     0.041 C 
HETATM    6  C6  UNL     1     -34.437   6.453   3.884  1.00 20.00     0.119 C 
HETATM    7  C7  UNL     1     -33.150   6.030   2.256  1.00 20.00    -0.036 C 
ENDROOT
BRANCH   6   8
HETATM    8  O8  UNL     1     -35.856   6.461   3.633  1.00 20.00    -0.396 OA
HETATM    9  H20 UNL     1     -36.041   7.303   3.197  1.00 20.00     0.210 HD
ENDBRANCH   6   8
TORSDOF 1
ENDMDL
MODEL 7
REMARK VINA RESULT:       0.2      1.608      2.207
REMARK  1 active torsions:
REMARK  status: ('A' for Active; 'I' for Inactive)
REMARK    1  A    between atoms: C6_6  and  O8_8 
ROOT
HETATM    1  C1  UNL     1     -34.166   7.595   4.704  1.00 20.00     0.002 C 
HETATM    2  C2  UNL     1     -35.052   6.836   3.683  1.00 20.00     0.010 C 
HETATM    3  C3  UNL     1     -33.065   7.670   3.617  1.00 20.00     0.010 C 
HETATM    4  C4  UNL     1     -33.176   5.135   3.081  1.00 20.00     0.041 C 
HETATM    5  C5  UNL     1     -33.774   6.431   1.442  1.00 20.00     0.041 C 
HETATM    6  C6  UNL     1     -32.807   5.223   1.575  1.00 20.00     0.119 C 
HETATM    7  C7  UNL     1     -33.776   6.516   2.943  1.00 20.00    -0.036 C 
ENDROOT
BRANCH   6   8
HETATM    8  O8  UNL     1     -31.421   5.481   1.275  1.00 20.00    -0.396 OA
HETATM    9  H20 UNL     1     -30.951   5.406   2.115  1.00 20.00     0.210 HD
ENDBRANCH   6   8
TORSDOF 1
ENDMDL
MODEL 8
REMARK VINA RESULT:       0.3      1.944      2.970
REMARK  1 active torsions:
REMARK  status: ('A' for Active; 'I' for Inactive)
REMARK    1  A    between atoms: C6_6  and  O8_8 
ROOT
HETATM    1  C1  UNL     1     -33.012   7.157   2.920  1.00 20.00     0.002 C 
HETATM    2  C2  UNL     1     -31.761   8.069   2.843  1.00 20.00     0.010 C 
HETATM    3  C3  UNL     1     -33.129   7.274   1.379  1.00 20.00     0.010 C 
HETATM    4  C4  UNL     1     -32.962   9.862   1.389  1.00 20.00     0.041 C 
HETATM    5  C5  UNL     1     -31.314   8.856   0.394  1.00 20.00     0.041 C 
HETATM    6  C6  UNL     1     -32.255  10.032   0.016  1.00 20.00     0.119 C 
HETATM    7  C7  UNL     1     -32.277   8.520   1.499  1.00 20.00    -0.036 C 
ENDROOT
BRANCH   6   8
HETATM    8  O8  UNL     1     -33.079   9.839  -1.150  1.00 20.00    -0.396 OA
HETATM    9  H20 UNL     1     -32.913   8.933  -1.443  1.00 20.00     0.210 HD
ENDBRANCH   6   8
TORSDOF 1
ENDMDL
MODEL 9
REMARK VINA RESULT:       0.3      2.335      4.021
REMARK  1 active torsions:
REMARK  status: ('A' for Active; 'I' for Inactive)
REMARK    1  A    between atoms: C6_6  and  O8_8 
ROOT
HETATM    1  C1  UNL     1     -32.285  10.447  -0.296  1.00 20.00     0.002 C 
HETATM    2  C2  UNL     1     -32.643  10.343   1.208  1.00 20.00     0.010 C 
HETATM    3  C3  UNL     1     -32.660   8.950  -0.437  1.00 20.00     0.010 C 
HETATM    4  C4  UNL     1     -31.190   8.213   1.568  1.00 20.00     0.041 C 
HETATM    5  C5  UNL     1     -33.322   7.905   1.851  1.00 20.00     0.041 C 
HETATM    6  C6  UNL     1     -32.061   7.017   2.039  1.00 20.00     0.119 C 
HETATM    7  C7  UNL     1     -32.462   8.852   1.061  1.00 20.00    -0.036 C 
ENDROOT
BRANCH   6   8
HETATM    8  O8  UNL     1     -31.995   5.827   1.230  1.00 20.00    -0.396 OA
HETATM    9  H20 UNL     1     -32.892   5.470   1.212  1.00 20.00     0.210 HD
ENDBRANCH   6   8
TORSDOF 1
ENDMDL
