MODEL 1
REMARK VINA RESULT:      -1.5      0.000      0.000
REMARK  5 active torsions:
REMARK  status: ('A' for Active; 'I' for Inactive)
REMARK    1  A    between atoms: C4_4  and  C5_5 
REMARK    2  A    between atoms: C4_4  and  O8_8 
REMARK    3  A    between atoms: C5_5  and  S9_9 
REMARK    4  A    between atoms: C6_6  and  C7_7 
REMARK    5  A    between atoms: C7_7  and  O8_8 
ROOT
HETATM    1  C3  UNL     1     -32.767   5.625   1.198  1.00 20.00     0.040 C 
HETATM    2  C7  UNL     1     -32.959   6.114   2.630  1.00 20.00     0.120 C 
ENDROOT
BRANCH   2   3
HETATM    3  C6  UNL     1     -34.315   5.708   3.244  1.00 20.00     0.006 C 
HETATM    4  C1  UNL     1     -34.919   6.814   4.111  1.00 20.00     0.012 C 
HETATM    5  C2  UNL     1     -34.176   4.426   4.076  1.00 20.00     0.012 C 
ENDBRANCH   2   3
BRANCH   2   6
HETATM    6  O8  UNL     1     -32.872   7.540   2.622  1.00 20.00    -0.385 OA
BRANCH   6   7
HETATM    7  C4  UNL     1     -32.005   7.996   1.597  1.00 20.00     0.178 C 
BRANCH   7   8
HETATM    8  C5  UNL     1     -32.214   9.484   1.361  1.00 20.00     0.097 C 
BRANCH   8   9
HETATM    9  S9  UNL     1     -32.559   9.837  -0.390  1.00 20.00    -0.180 SA
HETATM   10  H25 UNL     1     -33.258  10.958  -0.170  1.00 20.00     0.101 HD
ENDBRANCH   8   9
ENDBRANCH   7   8
ENDBRANCH   6   7
ENDBRANCH   2   6
TORSDOF 5
ENDMDL
MODEL 2
REMARK VINA RESULT:      -1.4      1.074      1.286
REMARK  5 active torsions:
REMARK  status: ('A' for Active; 'I' for Inactive)
REMARK    1  A    between atoms: C4_4  and  C5_5 
REMARK    2  A    between atoms: C4_4  and  O8_8 
REMARK    3  A    between atoms: C5_5  and  S9_9 
REMARK    4  A    between atoms: C6_6  and  C7_7 
REMARK    5  A    between atoms: C7_7  and  O8_8 
ROOT
HETATM    1  C3  UNL     1     -33.220   5.919   1.770  1.00 20.00     0.040 C 
HETATM    2  C7  UNL     1     -32.916   6.866   2.928  1.00 20.00     0.120 C 
ENDROOT
BRANCH   2   3
HETATM    3  C6  UNL     1     -34.177   7.353   3.673  1.00 20.00     0.006 C 
HETATM    4  C1  UNL     1     -33.844   8.054   4.991  1.00 20.00     0.012 C 
HETATM    5  C2  UNL     1     -35.135   6.185   3.944  1.00 20.00     0.012 C 
ENDBRANCH   2   3
BRANCH   2   6
HETATM    6  O8  UNL     1     -32.235   8.003   2.396  1.00 20.00    -0.385 OA
BRANCH   6   7
HETATM    7  C4  UNL     1     -31.883   7.804   1.038  1.00 20.00     0.178 C 
BRANCH   7   8
HETATM    8  C5  UNL     1     -31.356   9.099   0.439  1.00 20.00     0.097 C 
BRANCH   8   9
HETATM    9  S9  UNL     1     -32.705  10.268   0.091  1.00 20.00    -0.180 SA
HETATM   10  H25 UNL     1     -33.449   9.942   1.157  1.00 20.00     0.101 HD
ENDBRANCH   8   9
ENDBRANCH   7   8
ENDBRANCH   6   7
ENDBRANCH   2   6
TORSDOF 5
ENDMDL
MODEL 3
REMARK VINA RESULT:      -1.3      3.229      4.845
REMARK  5 active torsions:
REMARK  status: ('A' for Active; 'I' for Inactive)
REMARK    1  A    between atoms: C4_4  and  C5_5 
REMARK    2  A    between atoms: C4_4  and  O8_8 
REMARK    3  A    between atoms: C5_5  and  S9_9 
REMARK    4  A    between atoms: C6_6  and  C7_7 
REMARK    5  A    between atoms: C7_7  and  O8_8 
ROOT
HETATM    1  C3  UNL     1     -33.842   7.994   4.194  1.00 20.00     0.040 C 
HETATM    2  C7  UNL     1     -33.551   6.706   3.428  1.00 20.00     0.120 C 
ENDROOT
BRANCH   2   3
HETATM    3  C6  UNL     1     -33.096   6.944   1.974  1.00 20.00     0.006 C 
HETATM    4  C1  UNL     1     -32.539   5.679   1.320  1.00 20.00     0.012 C 
HETATM    5  C2  UNL     1     -32.042   8.058   1.907  1.00 20.00     0.012 C 
ENDBRANCH   2   3
BRANCH   2   6
HETATM    6  O8  UNL     1     -34.749   5.928   3.408  1.00 20.00    -0.385 OA
BRANCH   6   7
HETATM    7  C4  UNL     1     -34.708   4.897   4.380  1.00 20.00     0.178 C 
BRANCH   7   8
HETATM    8  C5  UNL     1     -33.872   3.732   3.871  1.00 20.00     0.097 C 
BRANCH   8   9
HETATM    9  S9  UNL     1     -32.921   2.959   5.215  1.00 20.00    -0.180 SA
HETATM   10  H25 UNL     1     -32.255   2.098   4.435  1.00 20.00     0.101 HD
ENDBRANCH   8   9
ENDBRANCH   7   8
ENDBRANCH   6   7
ENDBRANCH   2   6
TORSDOF 5
ENDMDL
MODEL 4
REMARK VINA RESULT:      -1.0      0.649      1.336
REMARK  5 active torsions:
REMARK  status: ('A' for Active; 'I' for Inactive)
REMARK    1  A    between atoms: C4_4  and  C5_5 
REMARK    2  A    between atoms: C4_4  and  O8_8 
REMARK    3  A    between atoms: C5_5  and  S9_9 
REMARK    4  A    between atoms: C6_6  and  C7_7 
REMARK    5  A    between atoms: C7_7  and  O8_8 
ROOT
HETATM    1  C3  UNL     1     -33.214   5.406   1.402  1.00 20.00     0.040 C 
HETATM    2  C7  UNL     1     -32.966   6.199   2.681  1.00 20.00     0.120 C 
ENDROOT
BRANCH   2   3
HETATM    3  C6  UNL     1     -33.901   5.804   3.843  1.00 20.00     0.006 C 
HETATM    4  C1  UNL     1     -34.120   4.292   3.930  1.00 20.00     0.012 C 
HETATM    5  C2  UNL     1     -35.258   6.509   3.717  1.00 20.00     0.012 C 
ENDBRANCH   2   3
BRANCH   2   6
HETATM    6  O8  UNL     1     -33.170   7.582   2.385  1.00 20.00    -0.385 OA
BRANCH   6   7
HETATM    7  C4  UNL     1     -31.943   8.233   2.099  1.00 20.00     0.178 C 
BRANCH   7   8
HETATM    8  C5  UNL     1     -31.868   8.577   0.620  1.00 20.00     0.097 C 
BRANCH   8   9
HETATM    9  S9  UNL     1     -32.575  10.219   0.283  1.00 20.00    -0.180 SA
HETATM   10  H25 UNL     1     -31.806  10.883   1.155  1.00 20.00     0.101 HD
ENDBRANCH   8   9
ENDBRANCH   7   8
ENDBRANCH   6   7
ENDBRANCH   2   6
TORSDOF 5
ENDMDL
MODEL 5
REMARK VINA RESULT:      -0.9      2.649      4.275
REMARK  5 active torsions:
REMARK  status: ('A' for Active; 'I' for Inactive)
REMARK    1  A    between atoms: C4_4  and  C5_5 
REMARK    2  A    between atoms: C4_4  and  O8_8 
REMARK    3  A    between atoms: C5_5  and  S9_9 
REMARK    4  A    between atoms: C6_6  and  C7_7 
REMARK    5  A    between atoms: C7_7  and  O8_8 
ROOT
HETATM    1  C3  UNL     1     -32.714   5.617   1.192  1.00 20.00     0.040 C 
HETATM    2  C7  UNL     1     -33.026   6.949   1.869  1.00 20.00     0.120 C 
ENDROOT
BRANCH   2   3
HETATM    3  C6  UNL     1     -31.903   7.996   1.714  1.00 20.00     0.006 C 
HETATM    4  C1  UNL     1     -31.490   8.614   3.051  1.00 20.00     0.012 C 
HETATM    5  C2  UNL     1     -32.326   9.110   0.747  1.00 20.00     0.012 C 
ENDBRANCH   2   3
BRANCH   2   6
HETATM    6  O8  UNL     1     -33.224   6.697   3.261  1.00 20.00    -0.385 OA
BRANCH   6   7
HETATM    7  C4  UNL     1     -34.515   7.105   3.679  1.00 20.00     0.178 C 
BRANCH   7   8
HETATM    8  C5  UNL     1     -35.322   5.898   4.133  1.00 20.00     0.097 C 
BRANCH   8   9
HETATM    9  S9  UNL     1     -34.270   4.425   4.313  1.00 20.00    -0.180 SA
HETATM   10  H25 UNL     1     -34.590   4.182   5.591  1.00 20.00     0.101 HD
ENDBRANCH   8   9
ENDBRANCH   7   8
ENDBRANCH   6   7
ENDBRANCH   2   6
TORSDOF 5
ENDMDL
MODEL 6
REMARK VINA RESULT:      -0.9      1.233      1.582
REMARK  5 active torsions:
REMARK  status: ('A' for Active; 'I' for Inactive)
REMARK    1  A    between atoms: C4_4  and  C5_5 
REMARK    2  A    between atoms: C4_4  and  O8_8 
REMARK    3  A    between atoms: C5_5  and  S9_9 
REMARK    4  A    between atoms: C6_6  and  C7_7 
REMARK    5  A    between atoms: C7_7  and  O8_8 
ROOT
HETATM    1  C3  UNL     1     -33.239   7.914   4.352  1.00 20.00     0.040 C 
HETATM    2  C7  UNL     1     -33.712   7.284   3.045  1.00 20.00     0.120 C 
ENDROOT
BRANCH   2   3
HETATM    3  C6  UNL     1     -34.464   5.951   3.240  1.00 20.00     0.006 C 
HETATM    4  C1  UNL     1     -35.500   6.022   4.363  1.00 20.00     0.012 C 
HETATM    5  C2  UNL     1     -33.482   4.807   3.523  1.00 20.00     0.012 C 
ENDBRANCH   2   3
BRANCH   2   6
HETATM    6  O8  UNL     1     -32.560   7.042   2.235  1.00 20.00    -0.385 OA
BRANCH   6   7
HETATM    7  C4  UNL     1     -31.834   8.237   2.004  1.00 20.00     0.178 C 
BRANCH   7   8
HETATM    8  C5  UNL     1     -31.880   8.600   0.527  1.00 20.00     0.097 C 
BRANCH   8   9
HETATM    9  S9  UNL     1     -32.605  10.248   0.270  1.00 20.00    -0.180 SA
HETATM   10  H25 UNL     1     -31.608  10.721  -0.490  1.00 20.00     0.101 HD
ENDBRANCH   8   9
ENDBRANCH   7   8
ENDBRANCH   6   7
ENDBRANCH   2   6
TORSDOF 5
ENDMDL
MODEL 7
REMARK VINA RESULT:      -0.6      3.086      4.567
REMARK  5 active torsions:
REMARK  status: ('A' for Active; 'I' for Inactive)
REMARK    1  A    between atoms: C4_4  and  C5_5 
REMARK    2  A    between atoms: C4_4  and  O8_8 
REMARK    3  A    between atoms: C5_5  and  S9_9 
REMARK    4  A    between atoms: C6_6  and  C7_7 
REMARK    5  A    between atoms: C7_7  and  O8_8 
ROOT
HETATM    1  C3  UNL     1     -32.333   5.456   1.066  1.00 20.00     0.040 C 
HETATM    2  C7  UNL     1     -33.000   6.687   1.671  1.00 20.00     0.120 C 
ENDROOT
BRANCH   2   3
HETATM    3  C6  UNL     1     -32.021   7.850   1.939  1.00 20.00     0.006 C 
HETATM    4  C1  UNL     1     -32.194   8.451   3.335  1.00 20.00     0.012 C 
HETATM    5  C2  UNL     1     -32.183   8.953   0.885  1.00 20.00     0.012 C 
ENDBRANCH   2   3
BRANCH   2   6
HETATM    6  O8  UNL     1     -33.594   6.299   2.911  1.00 20.00    -0.385 OA
BRANCH   6   7
HETATM    7  C4  UNL     1     -33.885   4.912   2.929  1.00 20.00     0.178 C 
BRANCH   7   8
HETATM    8  C5  UNL     1     -34.153   4.454   4.355  1.00 20.00     0.097 C 
BRANCH   8   9
HETATM    9  S9  UNL     1     -33.213   2.949   4.757  1.00 20.00    -0.180 SA
HETATM   10  H25 UNL     1     -32.042   3.383   4.270  1.00 20.00     0.101 HD
ENDBRANCH   8   9
ENDBRANCH   7   8
ENDBRANCH   6   7
ENDBRANCH   2   6
TORSDOF 5
ENDMDL
MODEL 8
REMARK VINA RESULT:      -0.4      0.673      1.919
REMARK  5 active torsions:
REMARK  status: ('A' for Active; 'I' for Inactive)
REMARK    1  A    between atoms: C4_4  and  C5_5 
REMARK    2  A    between atoms: C4_4  and  O8_8 
REMARK    3  A    between atoms: C5_5  and  S9_9 
REMARK    4  A    between atoms: C6_6  and  C7_7 
REMARK    5  A    between atoms: C7_7  and  O8_8 
ROOT
HETATM    1  C3  UNL     1     -34.294   7.425   4.090  1.00 20.00     0.040 C 
HETATM    2  C7  UNL     1     -33.501   7.179   2.810  1.00 20.00     0.120 C 
ENDROOT
BRANCH   2   3
HETATM    3  C6  UNL     1     -33.051   5.713   2.636  1.00 20.00     0.006 C 
HETATM    4  C1  UNL     1     -33.102   5.254   1.178  1.00 20.00     0.012 C 
HETATM    5  C2  UNL     1     -33.907   4.774   3.496  1.00 20.00     0.012 C 
ENDBRANCH   2   3
BRANCH   2   6
HETATM    6  O8  UNL     1     -32.339   8.009   2.849  1.00 20.00    -0.385 OA
BRANCH   6   7
HETATM    7  C4  UNL     1     -31.916   8.363   1.543  1.00 20.00     0.178 C 
BRANCH   7   8
HETATM    8  C5  UNL     1     -32.393   9.766   1.201  1.00 20.00     0.097 C 
BRANCH   8   9
HETATM    9  S9  UNL     1     -32.620   9.974  -0.591  1.00 20.00    -0.180 SA
HETATM   10  H25 UNL     1     -31.357   9.677  -0.926  1.00 20.00     0.101 HD
ENDBRANCH   8   9
ENDBRANCH   7   8
ENDBRANCH   6   7
ENDBRANCH   2   6
TORSDOF 5
ENDMDL
MODEL 9
REMARK VINA RESULT:      -0.4      2.680      4.313
REMARK  5 active torsions:
REMARK  status: ('A' for Active; 'I' for Inactive)
REMARK    1  A    between atoms: C4_4  and  C5_5 
REMARK    2  A    between atoms: C4_4  and  O8_8 
REMARK    3  A    between atoms: C5_5  and  S9_9 
REMARK    4  A    between atoms: C6_6  and  C7_7 
REMARK    5  A    between atoms: C7_7  and  O8_8 
ROOT
HETATM    1  C3  UNL     1     -32.334   5.880   1.239  1.00 20.00     0.040 C 
HETATM    2  C7  UNL     1     -33.115   6.998   1.923  1.00 20.00     0.120 C 
ENDROOT
BRANCH   2   3
HETATM    3  C6  UNL     1     -32.424   8.375   1.838  1.00 20.00     0.006 C 
HETATM    4  C1  UNL     1     -32.063   8.761   0.403  1.00 20.00     0.012 C 
HETATM    5  C2  UNL     1     -31.161   8.405   2.708  1.00 20.00     0.012 C 
ENDBRANCH   2   3
BRANCH   2   6
HETATM    6  O8  UNL     1     -33.265   6.648   3.300  1.00 20.00    -0.385 OA
BRANCH   6   7
HETATM    7  C4  UNL     1     -34.568   6.949   3.769  1.00 20.00     0.178 C 
BRANCH   7   8
HETATM    8  C5  UNL     1     -35.277   5.674   4.196  1.00 20.00     0.097 C 
BRANCH   8   9
HETATM    9  S9  UNL     1     -34.135   4.258   4.233  1.00 20.00    -0.180 SA
HETATM   10  H25 UNL     1     -33.033   4.977   4.484  1.00 20.00     0.101 HD
ENDBRANCH   8   9
ENDBRANCH   7   8
ENDBRANCH   6   7
ENDBRANCH   2   6
TORSDOF 5
ENDMDL
