MODEL 1
REMARK VINA RESULT:      -0.3      0.000      0.000
REMARK  3 active torsions:
REMARK  status: ('A' for Active; 'I' for Inactive)
REMARK    1  A    between atoms: C5_5  and  C7_7 
REMARK    2  A    between atoms: C5_5  and  O9_9 
REMARK    3  A    between atoms: C6_6  and  C7_7 
ROOT
HETATM    1  C1  UNL     1     -33.457   7.506   4.311  1.00 20.00     0.088 C 
HETATM    2  C7  UNL     1     -33.807   6.413   3.375  1.00 20.00     0.149 C 
HETATM    3  N8  UNL     1     -33.178   8.360   5.047  1.00 20.00    -0.195 NA
HETATM    4 CL10 UNL     1     -35.599   6.239   3.452  1.00 20.00    -0.100 Cl
ENDROOT
BRANCH   2   5
HETATM    5  C5  UNL     1     -33.166   5.099   3.869  1.00 20.00     0.208 C 
BRANCH   5   6
HETATM    6  O9  UNL     1     -34.158   4.116   4.157  1.00 20.00    -0.393 OA
HETATM    7  C4  UNL     1     -33.569   2.896   4.580  1.00 20.00     0.201 C 
ENDBRANCH   5   6
ENDBRANCH   2   5
BRANCH   2   8
HETATM    8  C6  UNL     1     -33.337   6.777   1.927  1.00 20.00     0.017 C 
HETATM    9  C2  UNL     1     -32.296   7.904   1.877  1.00 20.00     0.012 C 
HETATM   10  C3  UNL     1     -32.792   5.575   1.133  1.00 20.00     0.012 C 
ENDBRANCH   2   8
TORSDOF 3
ENDMDL
MODEL 2
REMARK VINA RESULT:       0.2      2.970      3.615
REMARK  3 active torsions:
REMARK  status: ('A' for Active; 'I' for Inactive)
REMARK    1  A    between atoms: C5_5  and  C7_7 
REMARK    2  A    between atoms: C5_5  and  O9_9 
REMARK    3  A    between atoms: C6_6  and  C7_7 
ROOT
HETATM    1  C1  UNL     1     -32.157   6.633   1.614  1.00 20.00     0.088 C 
HETATM    2  C7  UNL     1     -32.405   8.044   1.985  1.00 20.00     0.149 C 
HETATM    3  N8  UNL     1     -31.966   5.524   1.324  1.00 20.00    -0.195 NA
HETATM    4 CL10 UNL     1     -31.021   8.544   3.026  1.00 20.00    -0.100 Cl
ENDROOT
BRANCH   2   5
HETATM    5  C5  UNL     1     -33.701   8.127   2.820  1.00 20.00     0.208 C 
BRANCH   5   6
HETATM    6  O9  UNL     1     -33.751   7.090   3.799  1.00 20.00    -0.393 OA
HETATM    7  C4  UNL     1     -35.050   6.526   3.887  1.00 20.00     0.201 C 
ENDBRANCH   5   6
ENDBRANCH   2   5
BRANCH   2   8
HETATM    8  C6  UNL     1     -32.491   8.930   0.697  1.00 20.00     0.017 C 
HETATM    9  C2  UNL     1     -32.788  10.410   0.979  1.00 20.00     0.012 C 
HETATM   10  C3  UNL     1     -31.240   8.846  -0.196  1.00 20.00     0.012 C 
ENDBRANCH   2   8
TORSDOF 3
ENDMDL
MODEL 3
REMARK VINA RESULT:       0.5      2.935      4.488
REMARK  3 active torsions:
REMARK  status: ('A' for Active; 'I' for Inactive)
REMARK    1  A    between atoms: C5_5  and  C7_7 
REMARK    2  A    between atoms: C5_5  and  O9_9 
REMARK    3  A    between atoms: C6_6  and  C7_7 
ROOT
HETATM    1  C1  UNL     1     -32.016   5.513   1.696  1.00 20.00     0.088 C 
HETATM    2  C7  UNL     1     -33.061   6.560   1.769  1.00 20.00     0.149 C 
HETATM    3  N8  UNL     1     -31.194   4.695   1.642  1.00 20.00    -0.195 NA
HETATM    4 CL10 UNL     1     -33.911   6.537   0.181  1.00 20.00    -0.100 Cl
ENDROOT
BRANCH   2   5
HETATM    5  C5  UNL     1     -32.385   7.937   1.943  1.00 20.00     0.208 C 
BRANCH   5   6
HETATM    6  O9  UNL     1     -31.898   8.434   0.698  1.00 20.00    -0.393 OA
HETATM    7  C4  UNL     1     -32.394   9.737   0.433  1.00 20.00     0.201 C 
ENDBRANCH   5   6
ENDBRANCH   2   5
BRANCH   2   8
HETATM    8  C6  UNL     1     -34.049   6.250   2.943  1.00 20.00     0.017 C 
HETATM    9  C2  UNL     1     -33.798   4.898   3.626  1.00 20.00     0.012 C 
HETATM   10  C3  UNL     1     -34.086   7.344   4.027  1.00 20.00     0.012 C 
ENDBRANCH   2   8
TORSDOF 3
ENDMDL
MODEL 4
REMARK VINA RESULT:       0.7      1.698      2.151
REMARK  3 active torsions:
REMARK  status: ('A' for Active; 'I' for Inactive)
REMARK    1  A    between atoms: C5_5  and  C7_7 
REMARK    2  A    between atoms: C5_5  and  O9_9 
REMARK    3  A    between atoms: C6_6  and  C7_7 
ROOT
HETATM    1  C1  UNL     1     -34.781   6.229   3.399  1.00 20.00     0.088 C 
HETATM    2  C7  UNL     1     -33.440   6.027   2.804  1.00 20.00     0.149 C 
HETATM    3  N8  UNL     1     -35.831   6.385   3.870  1.00 20.00    -0.195 NA
HETATM    4 CL10 UNL     1     -33.700   5.827   1.032  1.00 20.00    -0.100 Cl
ENDROOT
BRANCH   2   5
HETATM    5  C5  UNL     1     -32.832   4.723   3.361  1.00 20.00     0.208 C 
BRANCH   5   6
HETATM    6  O9  UNL     1     -33.812   3.949   4.050  1.00 20.00    -0.393 OA
HETATM    7  C4  UNL     1     -33.212   2.890   4.782  1.00 20.00     0.201 C 
ENDBRANCH   5   6
ENDBRANCH   2   5
BRANCH   2   8
HETATM    8  C6  UNL     1     -32.529   7.264   3.105  1.00 20.00     0.017 C 
HETATM    9  C2  UNL     1     -32.186   8.100   1.862  1.00 20.00     0.012 C 
HETATM   10  C3  UNL     1     -33.097   8.205   4.182  1.00 20.00     0.012 C 
ENDBRANCH   2   8
TORSDOF 3
ENDMDL
MODEL 5
REMARK VINA RESULT:       0.8      2.922      4.292
REMARK  3 active torsions:
REMARK  status: ('A' for Active; 'I' for Inactive)
REMARK    1  A    between atoms: C5_5  and  C7_7 
REMARK    2  A    between atoms: C5_5  and  O9_9 
REMARK    3  A    between atoms: C6_6  and  C7_7 
ROOT
HETATM    1  C1  UNL     1     -33.343   7.767   3.524  1.00 20.00     0.088 C 
HETATM    2  C7  UNL     1     -32.689   7.523   2.218  1.00 20.00     0.149 C 
HETATM    3  N8  UNL     1     -33.860   7.960   4.546  1.00 20.00    -0.195 NA
HETATM    4 CL10 UNL     1     -30.924   7.773   2.483  1.00 20.00    -0.100 Cl
ENDROOT
BRANCH   2   5
HETATM    5  C5  UNL     1     -33.185   8.573   1.202  1.00 20.00     0.208 C 
BRANCH   5   6
HETATM    6  O9  UNL     1     -32.092   9.231   0.564  1.00 20.00    -0.393 OA
HETATM    7  C4  UNL     1     -32.522  10.395  -0.126  1.00 20.00     0.201 C 
ENDBRANCH   5   6
ENDBRANCH   2   5
BRANCH   2   8
HETATM    8  C6  UNL     1     -32.986   6.065   1.734  1.00 20.00     0.017 C 
HETATM    9  C2  UNL     1     -31.774   5.361   1.105  1.00 20.00     0.012 C 
HETATM   10  C3  UNL     1     -33.562   5.152   2.833  1.00 20.00     0.012 C 
ENDBRANCH   2   8
TORSDOF 3
ENDMDL
MODEL 6
REMARK VINA RESULT:       0.8      2.593      3.960
REMARK  3 active torsions:
REMARK  status: ('A' for Active; 'I' for Inactive)
REMARK    1  A    between atoms: C5_5  and  C7_7 
REMARK    2  A    between atoms: C5_5  and  O9_9 
REMARK    3  A    between atoms: C6_6  and  C7_7 
ROOT
HETATM    1  C1  UNL     1     -33.338   4.780   3.337  1.00 20.00     0.088 C 
HETATM    2  C7  UNL     1     -33.456   6.072   2.624  1.00 20.00     0.149 C 
HETATM    3  N8  UNL     1     -33.242   3.768   3.898  1.00 20.00    -0.195 NA
HETATM    4 CL10 UNL     1     -33.986   5.677   0.947  1.00 20.00    -0.100 Cl
ENDROOT
BRANCH   2   5
HETATM    5  C5  UNL     1     -32.066   6.739   2.554  1.00 20.00     0.208 C 
BRANCH   5   6
HETATM    6  O9  UNL     1     -31.820   7.286   1.260  1.00 20.00    -0.393 OA
HETATM    7  C4  UNL     1     -32.008   8.694   1.250  1.00 20.00     0.201 C 
ENDBRANCH   5   6
ENDBRANCH   2   5
BRANCH   2   8
HETATM    8  C6  UNL     1     -34.501   6.989   3.344  1.00 20.00     0.017 C 
HETATM    9  C2  UNL     1     -35.634   6.216   4.034  1.00 20.00     0.012 C 
HETATM   10  C3  UNL     1     -33.876   7.953   4.369  1.00 20.00     0.012 C 
ENDBRANCH   2   8
TORSDOF 3
ENDMDL
MODEL 7
REMARK VINA RESULT:       0.9      2.988      3.798
REMARK  3 active torsions:
REMARK  status: ('A' for Active; 'I' for Inactive)
REMARK    1  A    between atoms: C5_5  and  C7_7 
REMARK    2  A    between atoms: C5_5  and  O9_9 
REMARK    3  A    between atoms: C6_6  and  C7_7 
ROOT
HETATM    1  C1  UNL     1     -32.649   8.919   1.222  1.00 20.00     0.088 C 
HETATM    2  C7  UNL     1     -32.543   7.781   2.163  1.00 20.00     0.149 C 
HETATM    3  N8  UNL     1     -32.735   9.808   0.481  1.00 20.00    -0.195 NA
HETATM    4 CL10 UNL     1     -30.839   7.768   2.751  1.00 20.00    -0.100 Cl
ENDROOT
BRANCH   2   5
HETATM    5  C5  UNL     1     -32.807   6.466   1.398  1.00 20.00     0.208 C 
BRANCH   5   6
HETATM    6  O9  UNL     1     -31.673   5.603   1.450  1.00 20.00    -0.393 OA
HETATM    7  C4  UNL     1     -31.804   4.524   0.536  1.00 20.00     0.201 C 
ENDBRANCH   5   6
ENDBRANCH   2   5
BRANCH   2   8
HETATM    8  C6  UNL     1     -33.547   7.970   3.348  1.00 20.00     0.017 C 
HETATM    9  C2  UNL     1     -34.481   6.771   3.569  1.00 20.00     0.012 C 
HETATM   10  C3  UNL     1     -32.868   8.310   4.688  1.00 20.00     0.012 C 
ENDBRANCH   2   8
TORSDOF 3
ENDMDL
MODEL 8
REMARK VINA RESULT:       0.9      2.061      3.094
REMARK  3 active torsions:
REMARK  status: ('A' for Active; 'I' for Inactive)
REMARK    1  A    between atoms: C5_5  and  C7_7 
REMARK    2  A    between atoms: C5_5  and  O9_9 
REMARK    3  A    between atoms: C6_6  and  C7_7 
ROOT
HETATM    1  C1  UNL     1     -33.960   4.869   3.828  1.00 20.00     0.088 C 
HETATM    2  C7  UNL     1     -34.039   6.177   3.138  1.00 20.00     0.149 C 
HETATM    3  N8  UNL     1     -33.895   3.842   4.365  1.00 20.00    -0.195 NA
HETATM    4 CL10 UNL     1     -35.765   6.687   3.220  1.00 20.00    -0.100 Cl
ENDROOT
BRANCH   2   5
HETATM    5  C5  UNL     1     -33.653   5.989   1.655  1.00 20.00     0.208 C 
BRANCH   5   6
HETATM    6  O9  UNL     1     -32.356   5.410   1.529  1.00 20.00    -0.393 OA
HETATM    7  C4  UNL     1     -32.276   4.568   0.388  1.00 20.00     0.201 C 
ENDBRANCH   5   6
ENDBRANCH   2   5
BRANCH   2   8
HETATM    8  C6  UNL     1     -33.109   7.215   3.850  1.00 20.00     0.017 C 
HETATM    9  C2  UNL     1     -32.402   8.179   2.886  1.00 20.00     0.012 C 
HETATM   10  C3  UNL     1     -33.823   8.046   4.932  1.00 20.00     0.012 C 
ENDBRANCH   2   8
TORSDOF 3
ENDMDL
MODEL 9
REMARK VINA RESULT:       1.0      2.878      4.455
REMARK  3 active torsions:
REMARK  status: ('A' for Active; 'I' for Inactive)
REMARK    1  A    between atoms: C5_5  and  C7_7 
REMARK    2  A    between atoms: C5_5  and  O9_9 
REMARK    3  A    between atoms: C6_6  and  C7_7 
ROOT
HETATM    1  C1  UNL     1     -31.817   8.101   2.893  1.00 20.00     0.088 C 
HETATM    2  C7  UNL     1     -32.688   7.260   2.041  1.00 20.00     0.149 C 
HETATM    3  N8  UNL     1     -31.137   8.764   3.560  1.00 20.00    -0.195 NA
HETATM    4 CL10 UNL     1     -31.688   5.849   1.534  1.00 20.00    -0.100 Cl
ENDROOT
BRANCH   2   5
HETATM    5  C5  UNL     1     -33.084   8.058   0.781  1.00 20.00     0.208 C 
BRANCH   5   6
HETATM    6  O9  UNL     1     -32.084   9.017   0.442  1.00 20.00    -0.393 OA
HETATM    7  C4  UNL     1     -32.662  10.198  -0.093  1.00 20.00     0.201 C 
ENDBRANCH   5   6
ENDBRANCH   2   5
BRANCH   2   8
HETATM    8  C6  UNL     1     -33.946   6.798   2.850  1.00 20.00     0.017 C 
HETATM    9  C2  UNL     1     -33.898   5.326   3.287  1.00 20.00     0.012 C 
HETATM   10  C3  UNL     1     -34.237   7.663   4.090  1.00 20.00     0.012 C 
ENDBRANCH   2   8
TORSDOF 3
ENDMDL
