MODEL 1
REMARK VINA RESULT:      -0.0      0.000      0.000
REMARK  0 active torsions:
REMARK  status: ('A' for Active; 'I' for Inactive)
ROOT
HETATM    1  C1  UNL     1     -32.200   9.323   0.572  1.00 20.00     0.128 C 
HETATM    2  C2  UNL     1     -33.406   8.764   1.343  1.00 20.00     0.088 C 
HETATM    3  C3  UNL     1     -31.217   8.830   1.647  1.00 20.00     0.088 C 
HETATM    4  C4  UNL     1     -34.704   6.597   3.692  1.00 20.00     0.000 C 
HETATM    5  C5  UNL     1     -33.898   5.388   3.239  1.00 20.00     0.000 C 
HETATM    6  C6  UNL     1     -33.895   7.760   4.257  1.00 20.00     0.001 C 
HETATM    7  C7  UNL     1     -33.355   5.546   1.821  1.00 20.00     0.001 C 
HETATM    8  C8  UNL     1     -32.492   7.995   3.706  1.00 20.00     0.010 C 
HETATM    9  C9  UNL     1     -32.148   6.466   1.689  1.00 20.00     0.010 C 
HETATM   10  C10 UNL     1     -32.383   7.908   2.178  1.00 20.00    -0.027 C 
HETATM   11  O11 UNL     1     -32.072   9.912  -0.480  1.00 20.00    -0.298 OA
ENDROOT
TORSDOF 0
ENDMDL
MODEL 2
REMARK VINA RESULT:       1.2      2.859      4.501
REMARK  0 active torsions:
REMARK  status: ('A' for Active; 'I' for Inactive)
ROOT
HETATM    1  C1  UNL     1     -33.847   3.921   4.316  1.00 20.00     0.128 C 
HETATM    2  C2  UNL     1     -32.847   5.089   4.320  1.00 20.00     0.088 C 
HETATM    3  C3  UNL     1     -34.988   4.832   3.831  1.00 20.00     0.088 C 
HETATM    4  C4  UNL     1     -31.914   8.225   3.228  1.00 20.00     0.000 C 
HETATM    5  C5  UNL     1     -32.275   7.987   1.768  1.00 20.00     0.000 C 
HETATM    6  C6  UNL     1     -33.079   8.199   4.213  1.00 20.00     0.001 C 
HETATM    7  C7  UNL     1     -32.378   6.502   1.427  1.00 20.00     0.001 C 
HETATM    8  C8  UNL     1     -34.262   7.287   3.902  1.00 20.00     0.010 C 
HETATM    9  C9  UNL     1     -33.649   5.814   1.909  1.00 20.00     0.010 C 
HETATM   10  C10 UNL     1     -33.877   5.879   3.431  1.00 20.00    -0.027 C 
HETATM   11  O11 UNL     1     -33.765   2.741   4.579  1.00 20.00    -0.298 OA
ENDROOT
TORSDOF 0
ENDMDL
MODEL 3
REMARK VINA RESULT:       2.1      2.241      3.497
REMARK  0 active torsions:
REMARK  status: ('A' for Active; 'I' for Inactive)
ROOT
HETATM    1  C1  UNL     1     -33.428   4.556  -0.048  1.00 20.00     0.128 C 
HETATM    2  C2  UNL     1     -33.804   5.976   0.403  1.00 20.00     0.088 C 
HETATM    3  C3  UNL     1     -32.183   4.542   0.854  1.00 20.00     0.088 C 
HETATM    4  C4  UNL     1     -33.582   8.533   2.707  1.00 20.00     0.000 C 
HETATM    5  C5  UNL     1     -33.754   7.645   3.932  1.00 20.00     0.000 C 
HETATM    6  C6  UNL     1     -32.323   8.290   1.883  1.00 20.00     0.001 C 
HETATM    7  C7  UNL     1     -34.380   6.294   3.590  1.00 20.00     0.001 C 
HETATM    8  C8  UNL     1     -31.761   6.873   1.829  1.00 20.00     0.010 C 
HETATM    9  C9  UNL     1     -33.439   5.294   2.930  1.00 20.00     0.010 C 
HETATM   10  C10 UNL     1     -32.812   5.777   1.608  1.00 20.00    -0.027 C 
HETATM   11  O11 UNL     1     -33.927   3.754  -0.808  1.00 20.00    -0.298 OA
ENDROOT
TORSDOF 0
ENDMDL
