MODEL 1
REMARK VINA RESULT:      -2.7      0.000      0.000
REMARK  0 active torsions:
REMARK  status: ('A' for Active; 'I' for Inactive)
ROOT
HETATM    1  C1  UNL     1     -33.528   7.583   3.718  1.00 20.00     0.005 C 
HETATM    2  C2  UNL     1     -32.587   8.230   2.838  1.00 20.00     0.041 C 
HETATM    3  C3  UNL     1     -34.133   6.431   3.380  1.00 20.00    -0.081 C 
HETATM    4  C4  UNL     1     -32.107   7.601   1.757  1.00 20.00     0.128 C 
HETATM    5  C5  UNL     1     -33.832   5.747   2.064  1.00 20.00     0.078 C 
HETATM    6  C6  UNL     1     -32.527   6.211   1.393  1.00 20.00     0.235 C 
HETATM    7  C7  UNL     1     -35.150   5.772   4.262  1.00 20.00     0.043 C 
HETATM    8  F8  UNL     1     -31.216   8.242   0.969  1.00 20.00    -0.208 F 
HETATM    9  F9  UNL     1     -31.539   5.339   1.754  1.00 20.00    -0.242 F 
ENDROOT
TORSDOF 0
ENDMDL
MODEL 2
REMARK VINA RESULT:      -2.6      2.380      3.236
REMARK  0 active torsions:
REMARK  status: ('A' for Active; 'I' for Inactive)
ROOT
HETATM    1  C1  UNL     1     -32.515   7.272   2.001  1.00 20.00     0.005 C 
HETATM    2  C2  UNL     1     -32.867   8.051   3.162  1.00 20.00     0.041 C 
HETATM    3  C3  UNL     1     -32.906   5.993   1.864  1.00 20.00    -0.081 C 
HETATM    4  C4  UNL     1     -33.779   7.611   4.038  1.00 20.00     0.128 C 
HETATM    5  C5  UNL     1     -33.757   5.320   2.919  1.00 20.00     0.078 C 
HETATM    6  C6  UNL     1     -34.469   6.293   3.875  1.00 20.00     0.235 C 
HETATM    7  C7  UNL     1     -32.508   5.155   0.687  1.00 20.00     0.043 C 
HETATM    8  F8  UNL     1     -34.086   8.383   5.104  1.00 20.00    -0.208 F 
HETATM    9  F9  UNL     1     -35.728   6.507   3.392  1.00 20.00    -0.242 F 
ENDROOT
TORSDOF 0
ENDMDL
MODEL 3
REMARK VINA RESULT:      -2.2      2.290      3.892
REMARK  0 active torsions:
REMARK  status: ('A' for Active; 'I' for Inactive)
ROOT
HETATM    1  C1  UNL     1     -32.807   6.126   1.997  1.00 20.00     0.005 C 
HETATM    2  C2  UNL     1     -33.887   5.582   2.783  1.00 20.00     0.041 C 
HETATM    3  C3  UNL     1     -32.520   7.439   2.004  1.00 20.00    -0.081 C 
HETATM    4  C4  UNL     1     -34.499   6.319   3.719  1.00 20.00     0.128 C 
HETATM    5  C5  UNL     1     -33.309   8.406   2.860  1.00 20.00     0.078 C 
HETATM    6  C6  UNL     1     -34.114   7.740   3.991  1.00 20.00     0.235 C 
HETATM    7  C7  UNL     1     -31.433   8.026   1.156  1.00 20.00     0.043 C 
HETATM    8  F8  UNL     1     -35.497   5.763   4.440  1.00 20.00    -0.208 F 
HETATM    9  F9  UNL     1     -33.355   7.785   5.126  1.00 20.00    -0.242 F 
ENDROOT
TORSDOF 0
ENDMDL
MODEL 4
REMARK VINA RESULT:      -2.0      0.897      2.200
REMARK  0 active torsions:
REMARK  status: ('A' for Active; 'I' for Inactive)
ROOT
HETATM    1  C1  UNL     1     -33.671   5.704   2.349  1.00 20.00     0.005 C 
HETATM    2  C2  UNL     1     -32.505   6.082   1.590  1.00 20.00     0.041 C 
HETATM    3  C3  UNL     1     -34.136   6.466   3.354  1.00 20.00    -0.081 C 
HETATM    4  C4  UNL     1     -31.974   7.307   1.702  1.00 20.00     0.128 C 
HETATM    5  C5  UNL     1     -33.464   7.772   3.719  1.00 20.00     0.078 C 
HETATM    6  C6  UNL     1     -32.545   8.340   2.623  1.00 20.00     0.235 C 
HETATM    7  C7  UNL     1     -35.317   6.063   4.184  1.00 20.00     0.043 C 
HETATM    8  F8  UNL     1     -30.889   7.620   0.960  1.00 20.00    -0.208 F 
HETATM    9  F9  UNL     1     -33.270   9.236   1.892  1.00 20.00    -0.242 F 
ENDROOT
TORSDOF 0
ENDMDL
MODEL 5
REMARK VINA RESULT:      -1.9      1.949      3.246
REMARK  0 active torsions:
REMARK  status: ('A' for Active; 'I' for Inactive)
ROOT
HETATM    1  C1  UNL     1     -33.486   5.411   2.657  1.00 20.00     0.005 C 
HETATM    2  C2  UNL     1     -34.137   6.272   3.613  1.00 20.00     0.041 C 
HETATM    3  C3  UNL     1     -32.680   5.902   1.699  1.00 20.00    -0.081 C 
HETATM    4  C4  UNL     1     -33.791   7.561   3.729  1.00 20.00     0.128 C 
HETATM    5  C5  UNL     1     -32.402   7.386   1.597  1.00 20.00     0.078 C 
HETATM    6  C6  UNL     1     -32.731   8.181   2.873  1.00 20.00     0.235 C 
HETATM    7  C7  UNL     1     -32.035   5.025   0.669  1.00 20.00     0.043 C 
HETATM    8  F8  UNL     1     -34.420   8.325   4.649  1.00 20.00    -0.208 F 
HETATM    9  F9  UNL     1     -31.582   8.297   3.602  1.00 20.00    -0.242 F 
ENDROOT
TORSDOF 0
ENDMDL
MODEL 6
REMARK VINA RESULT:      -1.9      1.464      2.306
REMARK  0 active torsions:
REMARK  status: ('A' for Active; 'I' for Inactive)
ROOT
HETATM    1  C1  UNL     1     -32.539   7.796   2.886  1.00 20.00     0.005 C 
HETATM    2  C2  UNL     1     -32.350   6.948   1.735  1.00 20.00     0.041 C 
HETATM    3  C3  UNL     1     -33.502   7.552   3.791  1.00 20.00    -0.081 C 
HETATM    4  C4  UNL     1     -32.970   5.765   1.639  1.00 20.00     0.128 C 
HETATM    5  C5  UNL     1     -34.419   6.356   3.653  1.00 20.00     0.078 C 
HETATM    6  C6  UNL     1     -33.898   5.264   2.702  1.00 20.00     0.235 C 
HETATM    7  C7  UNL     1     -33.742   8.451   4.966  1.00 20.00     0.043 C 
HETATM    8  F8  UNL     1     -32.751   4.999   0.548  1.00 20.00    -0.208 F 
HETATM    9  F9  UNL     1     -33.248   4.329   3.455  1.00 20.00    -0.242 F 
ENDROOT
TORSDOF 0
ENDMDL
MODEL 7
REMARK VINA RESULT:      -1.7      0.827      2.427
REMARK  0 active torsions:
REMARK  status: ('A' for Active; 'I' for Inactive)
ROOT
HETATM    1  C1  UNL     1     -34.033   6.337   3.363  1.00 20.00     0.005 C 
HETATM    2  C2  UNL     1     -33.436   5.551   2.312  1.00 20.00     0.041 C 
HETATM    3  C3  UNL     1     -33.497   7.503   3.763  1.00 20.00    -0.081 C 
HETATM    4  C4  UNL     1     -32.462   6.052   1.542  1.00 20.00     0.128 C 
HETATM    5  C5  UNL     1     -32.249   8.055   3.108  1.00 20.00     0.078 C 
HETATM    6  C6  UNL     1     -31.929   7.438   1.734  1.00 20.00     0.235 C 
HETATM    7  C7  UNL     1     -34.078   8.308   4.886  1.00 20.00     0.043 C 
HETATM    8  F8  UNL     1     -31.942   5.282   0.561  1.00 20.00    -0.208 F 
HETATM    9  F9  UNL     1     -32.459   8.255   0.776  1.00 20.00    -0.242 F 
ENDROOT
TORSDOF 0
ENDMDL
MODEL 8
REMARK VINA RESULT:      -1.7      1.734      3.184
REMARK  0 active torsions:
REMARK  status: ('A' for Active; 'I' for Inactive)
ROOT
HETATM    1  C1  UNL     1     -33.391   8.014   2.772  1.00 20.00     0.005 C 
HETATM    2  C2  UNL     1     -33.817   6.821   3.461  1.00 20.00     0.041 C 
HETATM    3  C3  UNL     1     -32.464   7.973   1.798  1.00 20.00    -0.081 C 
HETATM    4  C4  UNL     1     -33.479   5.605   3.012  1.00 20.00     0.128 C 
HETATM    5  C5  UNL     1     -31.842   6.663   1.367  1.00 20.00     0.078 C 
HETATM    6  C6  UNL     1     -32.636   5.414   1.790  1.00 20.00     0.235 C 
HETATM    7  C7  UNL     1     -31.975   9.209   1.106  1.00 20.00     0.043 C 
HETATM    8  F8  UNL     1     -33.913   4.517   3.684  1.00 20.00    -0.208 F 
HETATM    9  F9  UNL     1     -33.441   5.057   0.746  1.00 20.00    -0.242 F 
ENDROOT
TORSDOF 0
ENDMDL
MODEL 9
REMARK VINA RESULT:      -0.5      2.633      3.337
REMARK  0 active torsions:
REMARK  status: ('A' for Active; 'I' for Inactive)
ROOT
HETATM    1  C1  UNL     1     -33.024   5.138   3.075  1.00 20.00     0.005 C 
HETATM    2  C2  UNL     1     -33.208   6.562   2.945  1.00 20.00     0.041 C 
HETATM    3  C3  UNL     1     -33.796   4.399   3.892  1.00 20.00    -0.081 C 
HETATM    4  C4  UNL     1     -34.288   7.169   3.453  1.00 20.00     0.128 C 
HETATM    5  C5  UNL     1     -34.910   5.031   4.698  1.00 20.00     0.078 C 
HETATM    6  C6  UNL     1     -35.351   6.416   4.191  1.00 20.00     0.235 C 
HETATM    7  C7  UNL     1     -33.586   2.927   4.075  1.00 20.00     0.043 C 
HETATM    8  F8  UNL     1     -34.423   8.504   3.294  1.00 20.00    -0.208 F 
HETATM    9  F9  UNL     1     -36.424   6.237   3.365  1.00 20.00    -0.242 F 
ENDROOT
TORSDOF 0
ENDMDL
