MODEL 1
REMARK VINA RESULT:      -2.0      0.000      0.000
REMARK  3 active torsions:
REMARK  status: ('A' for Active; 'I' for Inactive)
REMARK    1  A    between atoms: C4_4  and  C7_7 
REMARK    2  A    between atoms: C6_6  and  C7_7 
REMARK    3  A    between atoms: C6_6  and  O9_9 
ROOT
HETATM    1  C1  UNL     1     -32.667   5.996   1.460  1.00 20.00     0.066 C 
HETATM    2  C7  UNL     1     -32.519   7.069   2.455  1.00 20.00     0.120 C 
HETATM    3  N8  UNL     1     -32.777   5.148   0.675  1.00 20.00    -0.197 NA
ENDROOT
BRANCH   2   4
HETATM    4  C4  UNL     1     -33.914   7.341   2.946  1.00 20.00     0.005 A 
HETATM    5  C2  UNL     1     -34.590   6.377   3.881  1.00 20.00     0.006 A 
HETATM    6  C3  UNL     1     -34.150   7.724   4.381  1.00 20.00     0.006 A 
ENDBRANCH   2   4
BRANCH   2   7
HETATM    7  C6  UNL     1     -31.843   8.307   1.870  1.00 20.00     0.186 C 
BRANCH   7   8
HETATM    8  O9  UNL     1     -32.351   8.605   0.575  1.00 20.00    -0.395 OA
HETATM    9  C5  UNL     1     -32.446  10.006   0.362  1.00 20.00     0.201 C 
ENDBRANCH   7   8
ENDBRANCH   2   7
TORSDOF 3
ENDMDL
MODEL 2
REMARK VINA RESULT:      -1.7      1.723      2.817
REMARK  3 active torsions:
REMARK  status: ('A' for Active; 'I' for Inactive)
REMARK    1  A    between atoms: C4_4  and  C7_7 
REMARK    2  A    between atoms: C6_6  and  C7_7 
REMARK    3  A    between atoms: C6_6  and  O9_9 
ROOT
HETATM    1  C1  UNL     1     -33.733   7.431   3.379  1.00 20.00     0.066 C 
HETATM    2  C7  UNL     1     -33.151   7.278   2.037  1.00 20.00     0.120 C 
HETATM    3  N8  UNL     1     -34.195   7.558   4.437  1.00 20.00    -0.197 NA
ENDROOT
BRANCH   2   4
HETATM    4  C4  UNL     1     -32.854   5.810   1.905  1.00 20.00     0.005 A 
HETATM    5  C2  UNL     1     -33.164   5.087   0.624  1.00 20.00     0.006 A 
HETATM    6  C3  UNL     1     -31.735   5.340   1.017  1.00 20.00     0.006 A 
ENDBRANCH   2   4
BRANCH   2   7
HETATM    7  C6  UNL     1     -31.915   8.154   1.842  1.00 20.00     0.186 C 
BRANCH   7   8
HETATM    8  O9  UNL     1     -31.891   8.724   0.539  1.00 20.00    -0.395 OA
HETATM    9  C5  UNL     1     -32.522   9.996   0.516  1.00 20.00     0.201 C 
ENDBRANCH   7   8
ENDBRANCH   2   7
TORSDOF 3
ENDMDL
MODEL 3
REMARK VINA RESULT:      -1.5      1.571      3.472
REMARK  3 active torsions:
REMARK  status: ('A' for Active; 'I' for Inactive)
REMARK    1  A    between atoms: C4_4  and  C7_7 
REMARK    2  A    between atoms: C6_6  and  C7_7 
REMARK    3  A    between atoms: C6_6  and  O9_9 
ROOT
HETATM    1  C1  UNL     1     -32.363   6.277   1.515  1.00 20.00     0.066 C 
HETATM    2  C7  UNL     1     -32.930   7.564   1.948  1.00 20.00     0.120 C 
HETATM    3  N8  UNL     1     -31.921   5.259   1.175  1.00 20.00    -0.197 NA
ENDROOT
BRANCH   2   4
HETATM    4  C4  UNL     1     -32.035   8.609   1.340  1.00 20.00     0.005 A 
HETATM    5  C2  UNL     1     -32.302   9.120  -0.048  1.00 20.00     0.006 A 
HETATM    6  C3  UNL     1     -32.538  10.011   1.138  1.00 20.00     0.006 A 
ENDBRANCH   2   4
BRANCH   2   7
HETATM    7  C6  UNL     1     -33.021   7.671   3.468  1.00 20.00     0.186 C 
BRANCH   7   8
HETATM    8  O9  UNL     1     -34.377   7.719   3.898  1.00 20.00    -0.395 OA
HETATM    9  C5  UNL     1     -34.948   6.421   3.966  1.00 20.00     0.201 C 
ENDBRANCH   7   8
ENDBRANCH   2   7
TORSDOF 3
ENDMDL
MODEL 4
REMARK VINA RESULT:      -1.2      3.135      4.698
REMARK  3 active torsions:
REMARK  status: ('A' for Active; 'I' for Inactive)
REMARK    1  A    between atoms: C4_4  and  C7_7 
REMARK    2  A    between atoms: C6_6  and  C7_7 
REMARK    3  A    between atoms: C6_6  and  O9_9 
ROOT
HETATM    1  C1  UNL     1     -34.782   6.262   3.658  1.00 20.00     0.066 C 
HETATM    2  C7  UNL     1     -33.415   5.875   3.275  1.00 20.00     0.120 C 
HETATM    3  N8  UNL     1     -35.859   6.565   3.966  1.00 20.00    -0.197 NA
ENDROOT
BRANCH   2   4
HETATM    4  C4  UNL     1     -33.163   6.572   1.967  1.00 20.00     0.005 A 
HETATM    5  C2  UNL     1     -32.050   7.576   1.846  1.00 20.00     0.006 A 
HETATM    6  C3  UNL     1     -31.939   6.244   1.158  1.00 20.00     0.006 A 
ENDBRANCH   2   4
BRANCH   2   7
HETATM    7  C6  UNL     1     -33.250   4.359   3.183  1.00 20.00     0.186 C 
BRANCH   7   8
HETATM    8  O9  UNL     1     -33.959   3.702   4.227  1.00 20.00    -0.395 OA
HETATM    9  C5  UNL     1     -33.116   2.822   4.955  1.00 20.00     0.201 C 
ENDBRANCH   7   8
ENDBRANCH   2   7
TORSDOF 3
ENDMDL
MODEL 5
REMARK VINA RESULT:      -1.1      2.086      3.485
REMARK  3 active torsions:
REMARK  status: ('A' for Active; 'I' for Inactive)
REMARK    1  A    between atoms: C4_4  and  C7_7 
REMARK    2  A    between atoms: C6_6  and  C7_7 
REMARK    3  A    between atoms: C6_6  and  O9_9 
ROOT
HETATM    1  C1  UNL     1     -32.241   8.905   1.001  1.00 20.00     0.066 C 
HETATM    2  C7  UNL     1     -31.978   7.749   1.872  1.00 20.00     0.120 C 
HETATM    3  N8  UNL     1     -32.444   9.820   0.317  1.00 20.00    -0.197 NA
ENDROOT
BRANCH   2   4
HETATM    4  C4  UNL     1     -32.561   6.570   1.144  1.00 20.00     0.005 A 
HETATM    5  C2  UNL     1     -31.748   5.320   0.952  1.00 20.00     0.006 A 
HETATM    6  C3  UNL     1     -32.918   5.318   1.895  1.00 20.00     0.006 A 
ENDBRANCH   2   4
BRANCH   2   7
HETATM    7  C6  UNL     1     -32.567   7.935   3.269  1.00 20.00     0.186 C 
BRANCH   7   8
HETATM    8  O9  UNL     1     -33.989   7.972   3.225  1.00 20.00    -0.395 OA
HETATM    9  C5  UNL     1     -34.562   7.190   4.263  1.00 20.00     0.201 C 
ENDBRANCH   7   8
ENDBRANCH   2   7
TORSDOF 3
ENDMDL
MODEL 6
REMARK VINA RESULT:      -1.0      2.199      2.857
REMARK  3 active torsions:
REMARK  status: ('A' for Active; 'I' for Inactive)
REMARK    1  A    between atoms: C4_4  and  C7_7 
REMARK    2  A    between atoms: C6_6  and  C7_7 
REMARK    3  A    between atoms: C6_6  and  O9_9 
ROOT
HETATM    1  C1  UNL     1     -33.566   3.973   4.009  1.00 20.00     0.066 C 
HETATM    2  C7  UNL     1     -33.446   5.346   3.494  1.00 20.00     0.120 C 
HETATM    3  N8  UNL     1     -33.655   2.889   4.413  1.00 20.00    -0.197 NA
ENDROOT
BRANCH   2   4
HETATM    4  C4  UNL     1     -34.604   6.092   4.095  1.00 20.00     0.005 A 
HETATM    5  C2  UNL     1     -34.519   7.578   4.309  1.00 20.00     0.006 A 
HETATM    6  C3  UNL     1     -35.428   7.021   3.248  1.00 20.00     0.006 A 
ENDBRANCH   2   4
BRANCH   2   7
HETATM    7  C6  UNL     1     -33.439   5.389   1.967  1.00 20.00     0.186 C 
BRANCH   7   8
HETATM    8  O9  UNL     1     -32.189   5.859   1.474  1.00 20.00    -0.395 OA
HETATM    9  C5  UNL     1     -32.042   7.257   1.676  1.00 20.00     0.201 C 
ENDBRANCH   7   8
ENDBRANCH   2   7
TORSDOF 3
ENDMDL
MODEL 7
REMARK VINA RESULT:      -1.0      2.445      3.684
REMARK  3 active torsions:
REMARK  status: ('A' for Active; 'I' for Inactive)
REMARK    1  A    between atoms: C4_4  and  C7_7 
REMARK    2  A    between atoms: C6_6  and  C7_7 
REMARK    3  A    between atoms: C6_6  and  O9_9 
ROOT
HETATM    1  C1  UNL     1     -33.951   4.210   3.937  1.00 20.00     0.066 C 
HETATM    2  C7  UNL     1     -34.202   5.426   3.149  1.00 20.00     0.120 C 
HETATM    3  N8  UNL     1     -33.760   3.249   4.559  1.00 20.00    -0.197 NA
ENDROOT
BRANCH   2   4
HETATM    4  C4  UNL     1     -32.863   5.805   2.579  1.00 20.00     0.005 A 
HETATM    5  C2  UNL     1     -32.509   5.434   1.165  1.00 20.00     0.006 A 
HETATM    6  C3  UNL     1     -32.764   6.871   1.524  1.00 20.00     0.006 A 
ENDBRANCH   2   4
BRANCH   2   7
HETATM    7  C6  UNL     1     -34.826   6.538   3.989  1.00 20.00     0.186 C 
BRANCH   7   8
HETATM    8  O9  UNL     1     -34.079   7.744   3.879  1.00 20.00    -0.395 OA
HETATM    9  C5  UNL     1     -33.482   8.101   5.117  1.00 20.00     0.201 C 
ENDBRANCH   7   8
ENDBRANCH   2   7
TORSDOF 3
ENDMDL
MODEL 8
REMARK VINA RESULT:      -0.9      2.078      3.798
REMARK  3 active torsions:
REMARK  status: ('A' for Active; 'I' for Inactive)
REMARK    1  A    between atoms: C4_4  and  C7_7 
REMARK    2  A    between atoms: C6_6  and  C7_7 
REMARK    3  A    between atoms: C6_6  and  O9_9 
ROOT
HETATM    1  C1  UNL     1     -33.211   7.865   3.119  1.00 20.00     0.066 C 
HETATM    2  C7  UNL     1     -32.219   8.152   2.072  1.00 20.00     0.120 C 
HETATM    3  N8  UNL     1     -33.989   7.637   3.950  1.00 20.00    -0.197 NA
ENDROOT
BRANCH   2   4
HETATM    4  C4  UNL     1     -32.941   9.017   1.076  1.00 20.00     0.005 A 
HETATM    5  C2  UNL     1     -32.536  10.452   0.885  1.00 20.00     0.006 A 
HETATM    6  C3  UNL     1     -32.256   9.443  -0.193  1.00 20.00     0.006 A 
ENDBRANCH   2   4
BRANCH   2   7
HETATM    7  C6  UNL     1     -31.652   6.877   1.451  1.00 20.00     0.186 C 
BRANCH   7   8
HETATM    8  O9  UNL     1     -32.612   5.826   1.473  1.00 20.00    -0.395 OA
HETATM    9  C5  UNL     1     -32.189   4.718   0.691  1.00 20.00     0.201 C 
ENDBRANCH   7   8
ENDBRANCH   2   7
TORSDOF 3
ENDMDL
MODEL 9
REMARK VINA RESULT:      -0.9      2.680      4.068
REMARK  3 active torsions:
REMARK  status: ('A' for Active; 'I' for Inactive)
REMARK    1  A    between atoms: C4_4  and  C7_7 
REMARK    2  A    between atoms: C6_6  and  C7_7 
REMARK    3  A    between atoms: C6_6  and  O9_9 
ROOT
HETATM    1  C1  UNL     1     -33.428   5.794   2.341  1.00 20.00     0.066 C 
HETATM    2  C7  UNL     1     -34.525   5.938   3.311  1.00 20.00     0.120 C 
HETATM    3  N8  UNL     1     -32.565   5.674   1.574  1.00 20.00    -0.197 NA
ENDROOT
BRANCH   2   4
HETATM    4  C4  UNL     1     -34.437   7.361   3.791  1.00 20.00     0.005 A 
HETATM    5  C2  UNL     1     -33.537   7.718   4.940  1.00 20.00     0.006 A 
HETATM    6  C3  UNL     1     -33.192   8.166   3.548  1.00 20.00     0.006 A 
ENDBRANCH   2   4
BRANCH   2   7
HETATM    7  C6  UNL     1     -34.428   4.921   4.446  1.00 20.00     0.186 C 
BRANCH   7   8
HETATM    8  O9  UNL     1     -34.022   3.647   3.958  1.00 20.00    -0.395 OA
HETATM    9  C5  UNL     1     -33.147   2.996   4.868  1.00 20.00     0.201 C 
ENDBRANCH   7   8
ENDBRANCH   2   7
TORSDOF 3
ENDMDL
