MODEL 1
REMARK VINA RESULT:      -1.1      0.000      0.000
REMARK  4 active torsions:
REMARK  status: ('A' for Active; 'I' for Inactive)
REMARK    1  A    between atoms: C2_2  and  C7_7 
REMARK    2  A    between atoms: C7_7  and  O11_11 
REMARK    3  A    between atoms: C8_8  and  C9_9 
REMARK    4  A    between atoms: C9_9  and  O11_11 
ROOT
HETATM    1  O11 UNL     1     -32.421   8.077   2.309  1.00 20.00    -0.383 OA
ENDROOT
BRANCH   1   2
HETATM    2  C7  UNL     1     -31.848   8.267   1.026  1.00 20.00     0.208 C 
BRANCH   2   3
HETATM    3  C2  UNL     1     -32.315   9.595   0.468  1.00 20.00     0.100 A 
HETATM    4  C1  UNL     1     -31.748  10.094  -0.839  1.00 20.00     0.208 A 
HETATM    5  O10 UNL     1     -33.046   9.481  -0.760  1.00 20.00    -0.373 OA
HETATM    6  C3  UNL     1     -32.909  10.569   1.433  1.00 20.00     0.050 C 
ENDBRANCH   2   3
ENDBRANCH   1   2
BRANCH   1   7
HETATM    7  C9  UNL     1     -33.386   7.024   2.294  1.00 20.00     0.120 C 
HETATM    8  C6  UNL     1     -32.739   5.804   1.645  1.00 20.00     0.040 C 
BRANCH   7   9
HETATM    9  C8  UNL     1     -33.862   6.772   3.741  1.00 20.00     0.006 C 
HETATM   10  C4  UNL     1     -35.313   6.287   3.804  1.00 20.00     0.012 C 
HETATM   11  C5  UNL     1     -33.711   8.038   4.593  1.00 20.00     0.012 C 
ENDBRANCH   7   9
ENDBRANCH   1   7
TORSDOF 4
ENDMDL
MODEL 2
REMARK VINA RESULT:      -0.5      1.214      1.583
REMARK  4 active torsions:
REMARK  status: ('A' for Active; 'I' for Inactive)
REMARK    1  A    between atoms: C2_2  and  C7_7 
REMARK    2  A    between atoms: C7_7  and  O11_11 
REMARK    3  A    between atoms: C8_8  and  C9_9 
REMARK    4  A    between atoms: C9_9  and  O11_11 
ROOT
HETATM    1  O11 UNL     1     -32.209   7.532   2.102  1.00 20.00    -0.383 OA
ENDROOT
BRANCH   1   2
HETATM    2  C7  UNL     1     -32.761   8.808   1.822  1.00 20.00     0.208 C 
BRANCH   2   3
HETATM    3  C2  UNL     1     -32.176   9.324   0.524  1.00 20.00     0.100 A 
HETATM    4  C1  UNL     1     -33.068  10.040  -0.462  1.00 20.00     0.208 A 
HETATM    5  O10 UNL     1     -32.182  10.754   0.416  1.00 20.00    -0.373 OA
HETATM    6  C3  UNL     1     -30.910   8.691   0.046  1.00 20.00     0.050 C 
ENDBRANCH   2   3
ENDBRANCH   1   2
BRANCH   1   7
HETATM    7  C9  UNL     1     -33.198   6.506   1.993  1.00 20.00     0.120 C 
HETATM    8  C6  UNL     1     -32.592   5.352   1.202  1.00 20.00     0.040 C 
BRANCH   7   9
HETATM    9  C8  UNL     1     -33.652   6.108   3.414  1.00 20.00     0.006 C 
HETATM   10  C4  UNL     1     -33.829   4.596   3.570  1.00 20.00     0.012 C 
HETATM   11  C5  UNL     1     -34.960   6.815   3.788  1.00 20.00     0.012 C 
ENDBRANCH   7   9
ENDBRANCH   1   7
TORSDOF 4
ENDMDL
MODEL 3
REMARK VINA RESULT:      -0.0      1.593      2.435
REMARK  4 active torsions:
REMARK  status: ('A' for Active; 'I' for Inactive)
REMARK    1  A    between atoms: C2_2  and  C7_7 
REMARK    2  A    between atoms: C7_7  and  O11_11 
REMARK    3  A    between atoms: C8_8  and  C9_9 
REMARK    4  A    between atoms: C9_9  and  O11_11 
ROOT
HETATM    1  O11 UNL     1     -33.507   6.412   2.034  1.00 20.00    -0.383 OA
ENDROOT
BRANCH   1   2
HETATM    2  C7  UNL     1     -32.151   6.556   1.643  1.00 20.00     0.208 C 
BRANCH   2   3
HETATM    3  C2  UNL     1     -31.792   8.027   1.645  1.00 20.00     0.100 A 
HETATM    4  C1  UNL     1     -31.614   8.751   0.332  1.00 20.00     0.208 A 
HETATM    5  O10 UNL     1     -32.818   8.873   1.107  1.00 20.00    -0.373 OA
HETATM    6  C3  UNL     1     -31.149   8.571   2.878  1.00 20.00     0.050 C 
ENDBRANCH   2   3
ENDBRANCH   1   2
BRANCH   1   7
HETATM    7  C9  UNL     1     -33.619   6.195   3.442  1.00 20.00     0.120 C 
HETATM    8  C6  UNL     1     -34.265   7.432   4.057  1.00 20.00     0.040 C 
BRANCH   7   9
HETATM    9  C8  UNL     1     -34.424   4.899   3.678  1.00 20.00     0.006 C 
HETATM   10  C4  UNL     1     -35.564   5.091   4.680  1.00 20.00     0.012 C 
HETATM   11  C5  UNL     1     -33.507   3.768   4.160  1.00 20.00     0.012 C 
ENDBRANCH   7   9
ENDBRANCH   1   7
TORSDOF 4
ENDMDL
MODEL 4
REMARK VINA RESULT:       0.0      1.314      4.638
REMARK  4 active torsions:
REMARK  status: ('A' for Active; 'I' for Inactive)
REMARK    1  A    between atoms: C2_2  and  C7_7 
REMARK    2  A    between atoms: C7_7  and  O11_11 
REMARK    3  A    between atoms: C8_8  and  C9_9 
REMARK    4  A    between atoms: C9_9  and  O11_11 
ROOT
HETATM    1  O11 UNL     1     -32.965   8.361   2.402  1.00 20.00    -0.383 OA
ENDROOT
BRANCH   1   2
HETATM    2  C7  UNL     1     -33.510   7.054   2.479  1.00 20.00     0.208 C 
BRANCH   2   3
HETATM    3  C2  UNL     1     -34.220   6.893   3.807  1.00 20.00     0.100 A 
HETATM    4  C1  UNL     1     -35.566   6.210   3.853  1.00 20.00     0.208 A 
HETATM    5  O10 UNL     1     -34.357   5.528   4.226  1.00 20.00    -0.373 OA
HETATM    6  C3  UNL     1     -33.828   7.824   4.907  1.00 20.00     0.050 C 
ENDBRANCH   2   3
ENDBRANCH   1   2
BRANCH   1   7
HETATM    7  C9  UNL     1     -31.792   8.384   1.586  1.00 20.00     0.120 C 
HETATM    8  C6  UNL     1     -31.616   6.997   0.978  1.00 20.00     0.040 C 
BRANCH   7   9
HETATM    9  C8  UNL     1     -31.947   9.503   0.534  1.00 20.00     0.006 C 
HETATM   10  C4  UNL     1     -32.823  10.657   1.030  1.00 20.00     0.012 C 
HETATM   11  C5  UNL     1     -32.529   8.948  -0.772  1.00 20.00     0.012 C 
ENDBRANCH   7   9
ENDBRANCH   1   7
TORSDOF 4
ENDMDL
MODEL 5
REMARK VINA RESULT:       0.1      1.250      2.055
REMARK  4 active torsions:
REMARK  status: ('A' for Active; 'I' for Inactive)
REMARK    1  A    between atoms: C2_2  and  C7_7 
REMARK    2  A    between atoms: C7_7  and  O11_11 
REMARK    3  A    between atoms: C8_8  and  C9_9 
REMARK    4  A    between atoms: C9_9  and  O11_11 
ROOT
HETATM    1  O11 UNL     1     -32.753   7.313   2.085  1.00 20.00    -0.383 OA
ENDROOT
BRANCH   1   2
HETATM    2  C7  UNL     1     -33.027   8.693   1.899  1.00 20.00     0.208 C 
BRANCH   2   3
HETATM    3  C2  UNL     1     -32.262   9.189   0.690  1.00 20.00     0.100 A 
HETATM    4  C1  UNL     1     -32.994   9.934  -0.399  1.00 20.00     0.208 A 
HETATM    5  O10 UNL     1     -32.206  10.618   0.589  1.00 20.00    -0.373 OA
HETATM    6  C3  UNL     1     -30.967   8.512   0.377  1.00 20.00     0.050 C 
ENDBRANCH   2   3
ENDBRANCH   1   2
BRANCH   1   7
HETATM    7  C9  UNL     1     -33.131   6.884   3.394  1.00 20.00     0.120 C 
HETATM    8  C6  UNL     1     -33.531   8.118   4.196  1.00 20.00     0.040 C 
BRANCH   7   9
HETATM    9  C8  UNL     1     -34.262   5.841   3.263  1.00 20.00     0.006 C 
HETATM   10  C4  UNL     1     -35.543   6.272   3.982  1.00 20.00     0.012 C 
HETATM   11  C5  UNL     1     -33.812   4.476   3.799  1.00 20.00     0.012 C 
ENDBRANCH   7   9
ENDBRANCH   1   7
TORSDOF 4
ENDMDL
MODEL 6
REMARK VINA RESULT:       0.1      0.952      1.636
REMARK  4 active torsions:
REMARK  status: ('A' for Active; 'I' for Inactive)
REMARK    1  A    between atoms: C2_2  and  C7_7 
REMARK    2  A    between atoms: C7_7  and  O11_11 
REMARK    3  A    between atoms: C8_8  and  C9_9 
REMARK    4  A    between atoms: C9_9  and  O11_11 
ROOT
HETATM    1  O11 UNL     1     -33.162   7.500   1.835  1.00 20.00    -0.383 OA
ENDROOT
BRANCH   1   2
HETATM    2  C7  UNL     1     -31.972   8.238   1.610  1.00 20.00     0.208 C 
BRANCH   2   3
HETATM    3  C2  UNL     1     -32.267   9.366   0.643  1.00 20.00     0.100 A 
HETATM    4  C1  UNL     1     -31.545   9.419  -0.681  1.00 20.00     0.208 A 
HETATM    5  O10 UNL     1     -32.894   8.936  -0.572  1.00 20.00    -0.373 OA
HETATM    6  C3  UNL     1     -32.854  10.617   1.213  1.00 20.00     0.050 C 
ENDBRANCH   2   3
ENDBRANCH   1   2
BRANCH   1   7
HETATM    7  C9  UNL     1     -33.181   6.941   3.150  1.00 20.00     0.120 C 
HETATM    8  C6  UNL     1     -33.405   8.079   4.140  1.00 20.00     0.040 C 
BRANCH   7   9
HETATM    9  C8  UNL     1     -34.275   5.853   3.206  1.00 20.00     0.006 C 
HETATM   10  C4  UNL     1     -35.483   6.279   4.043  1.00 20.00     0.012 C 
HETATM   11  C5  UNL     1     -33.711   4.539   3.758  1.00 20.00     0.012 C 
ENDBRANCH   7   9
ENDBRANCH   1   7
TORSDOF 4
ENDMDL
MODEL 7
REMARK VINA RESULT:       0.1      1.323      4.706
REMARK  4 active torsions:
REMARK  status: ('A' for Active; 'I' for Inactive)
REMARK    1  A    between atoms: C2_2  and  C7_7 
REMARK    2  A    between atoms: C7_7  and  O11_11 
REMARK    3  A    between atoms: C8_8  and  C9_9 
REMARK    4  A    between atoms: C9_9  and  O11_11 
ROOT
HETATM    1  O11 UNL     1     -33.007   8.306   2.438  1.00 20.00    -0.383 OA
ENDROOT
BRANCH   1   2
HETATM    2  C7  UNL     1     -33.504   6.982   2.545  1.00 20.00     0.208 C 
BRANCH   2   3
HETATM    3  C2  UNL     1     -34.249   6.839   3.855  1.00 20.00     0.100 A 
HETATM    4  C1  UNL     1     -35.598   6.160   3.874  1.00 20.00     0.208 A 
HETATM    5  O10 UNL     1     -34.402   5.480   4.287  1.00 20.00    -0.373 OA
HETATM    6  C3  UNL     1     -33.884   7.782   4.954  1.00 20.00     0.050 C 
ENDBRANCH   2   3
ENDBRANCH   1   2
BRANCH   1   7
HETATM    7  C9  UNL     1     -31.920   8.377   1.514  1.00 20.00     0.120 C 
HETATM    8  C6  UNL     1     -31.515   6.951   1.155  1.00 20.00     0.040 C 
BRANCH   7   9
HETATM    9  C8  UNL     1     -32.363   9.217   0.296  1.00 20.00     0.006 C 
HETATM   10  C4  UNL     1     -31.289   9.282  -0.792  1.00 20.00     0.012 C 
HETATM   11  C5  UNL     1     -32.743  10.640   0.723  1.00 20.00     0.012 C 
ENDBRANCH   7   9
ENDBRANCH   1   7
TORSDOF 4
ENDMDL
MODEL 8
REMARK VINA RESULT:       0.4      1.408      2.012
REMARK  4 active torsions:
REMARK  status: ('A' for Active; 'I' for Inactive)
REMARK    1  A    between atoms: C2_2  and  C7_7 
REMARK    2  A    between atoms: C7_7  and  O11_11 
REMARK    3  A    between atoms: C8_8  and  C9_9 
REMARK    4  A    between atoms: C9_9  and  O11_11 
ROOT
HETATM    1  O11 UNL     1     -32.591   6.334   2.624  1.00 20.00    -0.383 OA
ENDROOT
BRANCH   1   2
HETATM    2  C7  UNL     1     -32.489   6.878   1.318  1.00 20.00     0.208 C 
BRANCH   2   3
HETATM    3  C2  UNL     1     -31.939   8.286   1.413  1.00 20.00     0.100 A 
HETATM    4  C1  UNL     1     -31.798   9.115   0.159  1.00 20.00     0.208 A 
HETATM    5  O10 UNL     1     -32.892   9.302   1.071  1.00 20.00    -0.373 OA
HETATM    6  C3  UNL     1     -31.111   8.616   2.611  1.00 20.00     0.050 C 
ENDBRANCH   2   3
ENDBRANCH   1   2
BRANCH   1   7
HETATM    7  C9  UNL     1     -33.825   5.635   2.797  1.00 20.00     0.120 C 
HETATM    8  C6  UNL     1     -33.522   4.314   3.498  1.00 20.00     0.040 C 
BRANCH   7   9
HETATM    9  C8  UNL     1     -34.797   6.541   3.583  1.00 20.00     0.006 C 
HETATM   10  C4  UNL     1     -34.075   7.660   4.337  1.00 20.00     0.012 C 
HETATM   11  C5  UNL     1     -35.632   5.717   4.572  1.00 20.00     0.012 C 
ENDBRANCH   7   9
ENDBRANCH   1   7
TORSDOF 4
ENDMDL
MODEL 9
REMARK VINA RESULT:       0.4      0.876      1.891
REMARK  4 active torsions:
REMARK  status: ('A' for Active; 'I' for Inactive)
REMARK    1  A    between atoms: C2_2  and  C7_7 
REMARK    2  A    between atoms: C7_7  and  O11_11 
REMARK    3  A    between atoms: C8_8  and  C9_9 
REMARK    4  A    between atoms: C9_9  and  O11_11 
ROOT
HETATM    1  O11 UNL     1     -33.309   8.243   2.095  1.00 20.00    -0.383 OA
ENDROOT
BRANCH   1   2
HETATM    2  C7  UNL     1     -32.077   8.513   1.447  1.00 20.00     0.208 C 
BRANCH   2   3
HETATM    3  C2  UNL     1     -32.278   9.640   0.455  1.00 20.00     0.100 A 
HETATM    4  C1  UNL     1     -31.529   9.619  -0.856  1.00 20.00     0.208 A 
HETATM    5  O10 UNL     1     -32.909   9.229  -0.765  1.00 20.00    -0.373 OA
HETATM    6  C3  UNL     1     -32.790  10.937   0.990  1.00 20.00     0.050 C 
ENDBRANCH   2   3
ENDBRANCH   1   2
BRANCH   1   7
HETATM    7  C9  UNL     1     -33.159   7.223   3.085  1.00 20.00     0.120 C 
HETATM    8  C6  UNL     1     -33.987   7.626   4.301  1.00 20.00     0.040 C 
BRANCH   7   9
HETATM    9  C8  UNL     1     -33.586   5.873   2.469  1.00 20.00     0.006 C 
HETATM   10  C4  UNL     1     -33.910   4.821   3.532  1.00 20.00     0.012 C 
HETATM   11  C5  UNL     1     -32.498   5.332   1.533  1.00 20.00     0.012 C 
ENDBRANCH   7   9
ENDBRANCH   1   7
TORSDOF 4
ENDMDL
