MODEL 1
REMARK VINA RESULT:      -1.8      0.000      0.000
REMARK  4 active torsions:
REMARK  status: ('A' for Active; 'I' for Inactive)
REMARK    1  A    between atoms: C3_3  and  C6_6 
REMARK    2  A    between atoms: C5_5  and  C6_6 
REMARK    3  A    between atoms: C5_5  and  O7_7 
REMARK    4  A    between atoms: C6_6  and  S8_8 
ROOT
HETATM    1  C6  UNL     1     -32.424   7.168   2.342  1.00 20.00     0.072 C 
ENDROOT
BRANCH   1   2
HETATM    2  C3  UNL     1     -33.739   7.626   2.966  1.00 20.00     0.001 A 
HETATM    3  C1  UNL     1     -34.600   6.650   3.719  1.00 20.00     0.006 A 
HETATM    4  C2  UNL     1     -33.871   7.734   4.460  1.00 20.00     0.006 A 
ENDBRANCH   1   2
BRANCH   1   5
HETATM    5  C5  UNL     1     -31.787   8.244   1.460  1.00 20.00     0.182 C 
BRANCH   5   6
HETATM    6  O7  UNL     1     -32.680   9.326   1.237  1.00 20.00    -0.395 OA
HETATM    7  C4  UNL     1     -32.466   9.926  -0.034  1.00 20.00     0.201 C 
ENDBRANCH   5   6
ENDBRANCH   1   5
BRANCH   1   8
HETATM    8  S8  UNL     1     -32.714   5.645   1.372  1.00 20.00    -0.175 SA
HETATM    9  H20 UNL     1     -32.335   4.802   2.340  1.00 20.00     0.102 HD
ENDBRANCH   1   8
TORSDOF 4
ENDMDL
MODEL 2
REMARK VINA RESULT:      -1.4      2.956      4.506
REMARK  4 active torsions:
REMARK  status: ('A' for Active; 'I' for Inactive)
REMARK    1  A    between atoms: C3_3  and  C6_6 
REMARK    2  A    between atoms: C5_5  and  C6_6 
REMARK    3  A    between atoms: C5_5  and  O7_7 
REMARK    4  A    between atoms: C6_6  and  S8_8 
ROOT
HETATM    1  C6  UNL     1     -33.817   6.557   3.632  1.00 20.00     0.072 C 
ENDROOT
BRANCH   1   2
HETATM    2  C3  UNL     1     -33.480   6.788   2.162  1.00 20.00     0.001 A 
HETATM    3  C1  UNL     1     -32.179   7.437   1.777  1.00 20.00     0.006 A 
HETATM    4  C2  UNL     1     -32.402   5.978   1.497  1.00 20.00     0.006 A 
ENDBRANCH   1   2
BRANCH   1   5
HETATM    5  C5  UNL     1     -35.243   6.043   3.834  1.00 20.00     0.182 C 
BRANCH   5   6
HETATM    6  O7  UNL     1     -35.252   4.796   4.515  1.00 20.00    -0.395 OA
HETATM    7  C4  UNL     1     -34.066   4.055   4.264  1.00 20.00     0.201 C 
ENDBRANCH   5   6
ENDBRANCH   1   5
BRANCH   1   8
HETATM    8  S8  UNL     1     -33.567   8.113   4.560  1.00 20.00    -0.175 SA
HETATM    9  H20 UNL     1     -34.271   7.737   5.635  1.00 20.00     0.102 HD
ENDBRANCH   1   8
TORSDOF 4
ENDMDL
MODEL 3
REMARK VINA RESULT:      -1.2      1.518      3.702
REMARK  4 active torsions:
REMARK  status: ('A' for Active; 'I' for Inactive)
REMARK    1  A    between atoms: C3_3  and  C6_6 
REMARK    2  A    between atoms: C5_5  and  C6_6 
REMARK    3  A    between atoms: C5_5  and  O7_7 
REMARK    4  A    between atoms: C6_6  and  S8_8 
ROOT
HETATM    1  C6  UNL     1     -32.989   7.464   2.058  1.00 20.00     0.072 C 
ENDROOT
BRANCH   1   2
HETATM    2  C3  UNL     1     -32.020   8.551   1.602  1.00 20.00     0.001 A 
HETATM    3  C1  UNL     1     -31.510   8.566   0.188  1.00 20.00     0.006 A 
HETATM    4  C2  UNL     1     -32.476   9.620   0.648  1.00 20.00     0.006 A 
ENDBRANCH   1   2
BRANCH   1   5
HETATM    5  C5  UNL     1     -33.129   7.401   3.580  1.00 20.00     0.182 C 
BRANCH   5   6
HETATM    6  O7  UNL     1     -34.485   7.538   3.981  1.00 20.00    -0.395 OA
HETATM    7  C4  UNL     1     -35.158   6.287   3.983  1.00 20.00     0.201 C 
ENDBRANCH   5   6
ENDBRANCH   1   5
BRANCH   1   8
HETATM    8  S8  UNL     1     -32.433   5.849   1.406  1.00 20.00    -0.175 SA
HETATM    9  H20 UNL     1     -32.802   5.142   2.481  1.00 20.00     0.102 HD
ENDBRANCH   1   8
TORSDOF 4
ENDMDL
MODEL 4
REMARK VINA RESULT:      -0.8      3.188      4.739
REMARK  4 active torsions:
REMARK  status: ('A' for Active; 'I' for Inactive)
REMARK    1  A    between atoms: C3_3  and  C6_6 
REMARK    2  A    between atoms: C5_5  and  C6_6 
REMARK    3  A    between atoms: C5_5  and  O7_7 
REMARK    4  A    between atoms: C6_6  and  S8_8 
ROOT
HETATM    1  C6  UNL     1     -33.483   6.015   3.286  1.00 20.00     0.072 C 
ENDROOT
BRANCH   1   2
HETATM    2  C3  UNL     1     -33.152   6.612   1.922  1.00 20.00     0.001 A 
HETATM    3  C1  UNL     1     -32.234   7.798   1.817  1.00 20.00     0.006 A 
HETATM    4  C2  UNL     1     -31.775   6.450   1.338  1.00 20.00     0.006 A 
ENDBRANCH   1   2
BRANCH   1   5
HETATM    5  C5  UNL     1     -34.013   4.583   3.188  1.00 20.00     0.182 C 
BRANCH   5   6
HETATM    6  O7  UNL     1     -34.183   4.006   4.476  1.00 20.00    -0.395 OA
HETATM    7  C4  UNL     1     -33.237   2.972   4.713  1.00 20.00     0.201 C 
ENDBRANCH   5   6
ENDBRANCH   1   5
BRANCH   1   8
HETATM    8  S8  UNL     1     -34.701   7.084   4.133  1.00 20.00    -0.175 SA
HETATM    9  H20 UNL     1     -35.561   6.099   4.418  1.00 20.00     0.102 HD
ENDBRANCH   1   8
TORSDOF 4
ENDMDL
MODEL 5
REMARK VINA RESULT:      -0.5      2.413      3.054
REMARK  4 active torsions:
REMARK  status: ('A' for Active; 'I' for Inactive)
REMARK    1  A    between atoms: C3_3  and  C6_6 
REMARK    2  A    between atoms: C5_5  and  C6_6 
REMARK    3  A    between atoms: C5_5  and  O7_7 
REMARK    4  A    between atoms: C6_6  and  S8_8 
ROOT
HETATM    1  C6  UNL     1     -33.353   6.794   1.956  1.00 20.00     0.072 C 
ENDROOT
BRANCH   1   2
HETATM    2  C3  UNL     1     -33.687   6.516   3.419  1.00 20.00     0.001 A 
HETATM    3  C1  UNL     1     -34.209   7.618   4.298  1.00 20.00     0.006 A 
HETATM    4  C2  UNL     1     -35.119   6.499   3.878  1.00 20.00     0.006 A 
ENDBRANCH   1   2
BRANCH   1   5
HETATM    5  C5  UNL     1     -33.025   5.519   1.176  1.00 20.00     0.182 C 
BRANCH   5   6
HETATM    6  O7  UNL     1     -31.636   5.222   1.231  1.00 20.00    -0.395 OA
HETATM    7  C4  UNL     1     -31.278   4.226   0.282  1.00 20.00     0.201 C 
ENDBRANCH   5   6
ENDBRANCH   1   5
BRANCH   1   8
HETATM    8  S8  UNL     1     -31.954   7.967   1.868  1.00 20.00    -0.175 SA
HETATM    9  H20 UNL     1     -31.786   8.068   3.192  1.00 20.00     0.102 HD
ENDBRANCH   1   8
TORSDOF 4
ENDMDL
MODEL 6
REMARK VINA RESULT:      -0.5      1.938      2.263
REMARK  4 active torsions:
REMARK  status: ('A' for Active; 'I' for Inactive)
REMARK    1  A    between atoms: C3_3  and  C6_6 
REMARK    2  A    between atoms: C5_5  and  C6_6 
REMARK    3  A    between atoms: C5_5  and  O7_7 
REMARK    4  A    between atoms: C6_6  and  S8_8 
ROOT
HETATM    1  C6  UNL     1     -33.243   5.639   3.026  1.00 20.00     0.072 C 
ENDROOT
BRANCH   1   2
HETATM    2  C3  UNL     1     -34.464   6.534   3.214  1.00 20.00     0.001 A 
HETATM    3  C1  UNL     1     -35.404   6.301   4.364  1.00 20.00     0.006 A 
HETATM    4  C2  UNL     1     -34.516   7.513   4.354  1.00 20.00     0.006 A 
ENDBRANCH   1   2
BRANCH   1   5
HETATM    5  C5  UNL     1     -32.768   5.590   1.572  1.00 20.00     0.182 C 
BRANCH   5   6
HETATM    6  O7  UNL     1     -31.619   6.403   1.375  1.00 20.00    -0.395 OA
HETATM    7  C4  UNL     1     -31.906   7.776   1.598  1.00 20.00     0.201 C 
ENDBRANCH   5   6
ENDBRANCH   1   5
BRANCH   1   8
HETATM    8  S8  UNL     1     -33.631   3.955   3.622  1.00 20.00    -0.175 SA
HETATM    9  H20 UNL     1     -32.609   3.883   4.483  1.00 20.00     0.102 HD
ENDBRANCH   1   8
TORSDOF 4
ENDMDL
MODEL 7
REMARK VINA RESULT:      -0.2      1.850      2.431
REMARK  4 active torsions:
REMARK  status: ('A' for Active; 'I' for Inactive)
REMARK    1  A    between atoms: C3_3  and  C6_6 
REMARK    2  A    between atoms: C5_5  and  C6_6 
REMARK    3  A    between atoms: C5_5  and  O7_7 
REMARK    4  A    between atoms: C6_6  and  S8_8 
ROOT
HETATM    1  C6  UNL     1     -32.928   7.515   2.010  1.00 20.00     0.072 C 
ENDROOT
BRANCH   1   2
HETATM    2  C3  UNL     1     -32.307   6.140   1.784  1.00 20.00     0.001 A 
HETATM    3  C1  UNL     1     -33.067   4.896   2.154  1.00 20.00     0.006 A 
HETATM    4  C2  UNL     1     -32.840   5.235   0.708  1.00 20.00     0.006 A 
ENDBRANCH   1   2
BRANCH   1   5
HETATM    5  C5  UNL     1     -31.933   8.654   1.784  1.00 20.00     0.182 C 
BRANCH   5   6
HETATM    6  O7  UNL     1     -31.904   9.054   0.420  1.00 20.00    -0.395 OA
HETATM    7  C4  UNL     1     -32.611  10.270   0.217  1.00 20.00     0.201 C 
ENDBRANCH   5   6
ENDBRANCH   1   5
BRANCH   1   8
HETATM    8  S8  UNL     1     -33.611   7.598   3.704  1.00 20.00    -0.175 SA
HETATM    9  H20 UNL     1     -32.637   6.878   4.272  1.00 20.00     0.102 HD
ENDBRANCH   1   8
TORSDOF 4
ENDMDL
MODEL 8
REMARK VINA RESULT:      -0.2      3.265      4.431
REMARK  4 active torsions:
REMARK  status: ('A' for Active; 'I' for Inactive)
REMARK    1  A    between atoms: C3_3  and  C6_6 
REMARK    2  A    between atoms: C5_5  and  C6_6 
REMARK    3  A    between atoms: C5_5  and  O7_7 
REMARK    4  A    between atoms: C6_6  and  S8_8 
ROOT
HETATM    1  C6  UNL     1     -33.668   5.380   2.651  1.00 20.00     0.072 C 
ENDROOT
BRANCH   1   2
HETATM    2  C3  UNL     1     -34.057   6.231   3.857  1.00 20.00     0.001 A 
HETATM    3  C1  UNL     1     -34.287   7.708   3.698  1.00 20.00     0.006 A 
HETATM    4  C2  UNL     1     -35.447   6.793   3.970  1.00 20.00     0.006 A 
ENDBRANCH   1   2
BRANCH   1   5
HETATM    5  C5  UNL     1     -33.216   3.973   3.046  1.00 20.00     0.182 C 
BRANCH   5   6
HETATM    6  O7  UNL     1     -33.895   3.518   4.209  1.00 20.00    -0.395 OA
HETATM    7  C4  UNL     1     -33.024   2.806   5.077  1.00 20.00     0.201 C 
ENDBRANCH   5   6
ENDBRANCH   1   5
BRANCH   1   8
HETATM    8  S8  UNL     1     -32.348   6.230   1.714  1.00 20.00    -0.175 SA
HETATM    9  H20 UNL     1     -33.122   7.230   1.277  1.00 20.00     0.102 HD
ENDBRANCH   1   8
TORSDOF 4
ENDMDL
MODEL 9
REMARK VINA RESULT:      -0.0      1.998      3.989
REMARK  4 active torsions:
REMARK  status: ('A' for Active; 'I' for Inactive)
REMARK    1  A    between atoms: C3_3  and  C6_6 
REMARK    2  A    between atoms: C5_5  and  C6_6 
REMARK    3  A    between atoms: C5_5  and  O7_7 
REMARK    4  A    between atoms: C6_6  and  S8_8 
ROOT
HETATM    1  C6  UNL     1     -32.181   7.923   1.760  1.00 20.00     0.072 C 
ENDROOT
BRANCH   1   2
HETATM    2  C3  UNL     1     -32.883   8.910   0.832  1.00 20.00     0.001 A 
HETATM    3  C1  UNL     1     -32.418  10.338   0.754  1.00 20.00     0.006 A 
HETATM    4  C2  UNL     1     -32.191   9.409  -0.406  1.00 20.00     0.006 A 
ENDBRANCH   1   2
BRANCH   1   5
HETATM    5  C5  UNL     1     -33.122   6.834   2.279  1.00 20.00     0.182 C 
BRANCH   5   6
HETATM    6  O7  UNL     1     -33.711   7.206   3.517  1.00 20.00    -0.395 OA
HETATM    7  C4  UNL     1     -34.860   6.421   3.805  1.00 20.00     0.201 C 
ENDBRANCH   5   6
ENDBRANCH   1   5
BRANCH   1   8
HETATM    8  S8  UNL     1     -31.436   8.835   3.158  1.00 20.00    -0.175 SA
HETATM    9  H20 UNL     1     -32.550   8.870   3.898  1.00 20.00     0.102 HD
ENDBRANCH   1   8
TORSDOF 4
ENDMDL
