MODEL 1
REMARK VINA RESULT:      -0.4      0.000      0.000
REMARK  2 active torsions:
REMARK  status: ('A' for Active; 'I' for Inactive)
REMARK    1  A    between atoms: C6_6  and  C8_8 
REMARK    2  A    between atoms: C7_7  and  C9_9 
ROOT
HETATM    1  C4  UNL     1     -33.735   6.174   3.054  1.00 20.00     0.034 C 
HETATM    2  C5  UNL     1     -33.988   7.533   3.667  1.00 20.00     0.168 C 
HETATM    3  C7  UNL     1     -32.974   6.542   1.799  1.00 20.00     0.031 C 
HETATM    4  C8  UNL     1     -32.106   7.696   2.295  1.00 20.00     0.130 C 
HETATM    5  O10 UNL     1     -32.844   8.337   3.354  1.00 20.00    -0.385 OA
ENDROOT
BRANCH   4   6
HETATM    6  C6  UNL     1     -31.835   8.715   1.200  1.00 20.00     0.015 C 
HETATM    7  C2  UNL     1     -32.582  10.070   1.311  1.00 20.00     0.007 C 
HETATM    8  C1  UNL     1     -32.701  10.045  -0.227  1.00 20.00     0.001 C 
HETATM    9  C3  UNL     1     -32.587   8.510  -0.140  1.00 20.00     0.007 C 
ENDBRANCH   4   6
BRANCH   3  10
HETATM   10  C9  UNL     1     -32.181   5.388   1.208  1.00 20.00     0.121 C 
HETATM   11 CL11 UNL     1     -33.190   4.458   0.083  1.00 20.00    -0.130 Cl
ENDBRANCH   3  10
TORSDOF 2
ENDMDL
MODEL 2
REMARK VINA RESULT:      -0.2      2.201      2.972
REMARK  2 active torsions:
REMARK  status: ('A' for Active; 'I' for Inactive)
REMARK    1  A    between atoms: C6_6  and  C8_8 
REMARK    2  A    between atoms: C7_7  and  C9_9 
ROOT
HETATM    1  C4  UNL     1     -35.023   4.808   4.462  1.00 20.00     0.034 C 
HETATM    2  C5  UNL     1     -35.689   6.161   4.339  1.00 20.00     0.168 C 
HETATM    3  C7  UNL     1     -33.984   4.879   3.363  1.00 20.00     0.031 C 
HETATM    4  C8  UNL     1     -33.531   6.334   3.463  1.00 20.00     0.130 C 
HETATM    5  O10 UNL     1     -34.663   7.082   3.946  1.00 20.00    -0.385 OA
ENDROOT
BRANCH   4   6
HETATM    6  C6  UNL     1     -33.114   6.893   2.112  1.00 20.00     0.015 C 
HETATM    7  C2  UNL     1     -31.912   6.204   1.415  1.00 20.00     0.007 C 
HETATM    8  C1  UNL     1     -31.491   7.604   0.921  1.00 20.00     0.001 C 
HETATM    9  C3  UNL     1     -32.251   8.182   2.132  1.00 20.00     0.007 C 
ENDBRANCH   4   6
BRANCH   3  10
HETATM   10  C9  UNL     1     -32.857   3.873   3.526  1.00 20.00     0.121 C 
HETATM   11 CL11 UNL     1     -33.142   2.851   4.948  1.00 20.00    -0.130 Cl
ENDBRANCH   3  10
TORSDOF 2
ENDMDL
MODEL 3
REMARK VINA RESULT:       0.1      1.543      3.879
REMARK  2 active torsions:
REMARK  status: ('A' for Active; 'I' for Inactive)
REMARK    1  A    between atoms: C6_6  and  C8_8 
REMARK    2  A    between atoms: C7_7  and  C9_9 
ROOT
HETATM    1  C4  UNL     1     -31.574   7.297   1.102  1.00 20.00     0.034 C 
HETATM    2  C5  UNL     1     -31.675   8.396   2.137  1.00 20.00     0.168 C 
HETATM    3  C7  UNL     1     -32.348   6.180   1.769  1.00 20.00     0.031 C 
HETATM    4  C8  UNL     1     -33.484   6.950   2.438  1.00 20.00     0.130 C 
HETATM    5  O10 UNL     1     -32.963   8.257   2.751  1.00 20.00    -0.385 OA
ENDROOT
BRANCH   4   6
HETATM    6  C6  UNL     1     -33.942   6.284   3.725  1.00 20.00     0.015 C 
HETATM    7  C2  UNL     1     -34.051   4.736   3.706  1.00 20.00     0.007 C 
HETATM    8  C1  UNL     1     -35.296   4.887   4.604  1.00 20.00     0.001 C 
HETATM    9  C3  UNL     1     -35.466   6.300   4.010  1.00 20.00     0.007 C 
ENDBRANCH   4   6
BRANCH   3  10
HETATM   10  C9  UNL     1     -32.821   5.107   0.802  1.00 20.00     0.121 C 
HETATM   11 CL11 UNL     1     -31.436   4.207   0.153  1.00 20.00    -0.130 Cl
ENDBRANCH   3  10
TORSDOF 2
ENDMDL
MODEL 4
REMARK VINA RESULT:       0.2      2.234      4.196
REMARK  2 active torsions:
REMARK  status: ('A' for Active; 'I' for Inactive)
REMARK    1  A    between atoms: C6_6  and  C8_8 
REMARK    2  A    between atoms: C7_7  and  C9_9 
ROOT
HETATM    1  C4  UNL     1     -32.038   8.710   3.564  1.00 20.00     0.034 C 
HETATM    2  C5  UNL     1     -32.816   8.471   4.838  1.00 20.00     0.168 C 
HETATM    3  C7  UNL     1     -32.389   7.477   2.757  1.00 20.00     0.031 C 
HETATM    4  C8  UNL     1     -33.859   7.283   3.120  1.00 20.00     0.130 C 
HETATM    5  O10 UNL     1     -34.022   7.798   4.456  1.00 20.00    -0.385 OA
ENDROOT
BRANCH   4   6
HETATM    6  C6  UNL     1     -34.258   5.816   3.109  1.00 20.00     0.015 C 
HETATM    7  C2  UNL     1     -34.991   5.285   4.369  1.00 20.00     0.007 C 
HETATM    8  C1  UNL     1     -34.214   3.967   4.174  1.00 20.00     0.001 C 
HETATM    9  C3  UNL     1     -33.141   4.791   3.433  1.00 20.00     0.007 C 
ENDBRANCH   4   6
BRANCH   3  10
HETATM   10  C9  UNL     1     -32.141   7.635   1.266  1.00 20.00     0.121 C 
HETATM   11 CL11 UNL     1     -32.325   9.334   0.786  1.00 20.00    -0.130 Cl
ENDBRANCH   3  10
TORSDOF 2
ENDMDL
MODEL 5
REMARK VINA RESULT:       0.3      1.927      2.511
REMARK  2 active torsions:
REMARK  status: ('A' for Active; 'I' for Inactive)
REMARK    1  A    between atoms: C6_6  and  C8_8 
REMARK    2  A    between atoms: C7_7  and  C9_9 
ROOT
HETATM    1  C4  UNL     1     -33.077   5.451   2.825  1.00 20.00     0.034 C 
HETATM    2  C5  UNL     1     -32.268   5.237   1.565  1.00 20.00     0.168 C 
HETATM    3  C7  UNL     1     -33.000   6.954   2.985  1.00 20.00     0.031 C 
HETATM    4  C8  UNL     1     -33.091   7.421   1.534  1.00 20.00     0.130 C 
HETATM    5  O10 UNL     1     -32.510   6.377   0.730  1.00 20.00    -0.385 OA
ENDROOT
BRANCH   4   6
HETATM    6  C6  UNL     1     -32.316   8.708   1.302  1.00 20.00     0.015 C 
HETATM    7  C2  UNL     1     -33.132  10.027   1.335  1.00 20.00     0.007 C 
HETATM    8  C1  UNL     1     -32.217  10.535   0.201  1.00 20.00     0.001 C 
HETATM    9  C3  UNL     1     -31.977   9.057  -0.171  1.00 20.00     0.007 C 
ENDBRANCH   4   6
BRANCH   3  10
HETATM   10  C9  UNL     1     -34.083   7.526   3.884  1.00 20.00     0.121 C 
HETATM   11 CL11 UNL     1     -35.415   6.367   4.060  1.00 20.00    -0.130 Cl
ENDBRANCH   3  10
TORSDOF 2
ENDMDL
MODEL 6
REMARK VINA RESULT:       0.3      2.479      4.649
REMARK  2 active torsions:
REMARK  status: ('A' for Active; 'I' for Inactive)
REMARK    1  A    between atoms: C6_6  and  C8_8 
REMARK    2  A    between atoms: C7_7  and  C9_9 
ROOT
HETATM    1  C4  UNL     1     -33.387   7.951   3.439  1.00 20.00     0.034 C 
HETATM    2  C5  UNL     1     -34.308   7.631   4.595  1.00 20.00     0.168 C 
HETATM    3  C7  UNL     1     -33.002   6.566   2.964  1.00 20.00     0.031 C 
HETATM    4  C8  UNL     1     -34.315   5.807   3.138  1.00 20.00     0.130 C 
HETATM    5  O10 UNL     1     -35.007   6.432   4.236  1.00 20.00    -0.385 OA
ENDROOT
BRANCH   4   6
HETATM    6  C6  UNL     1     -34.084   4.343   3.475  1.00 20.00     0.015 C 
HETATM    7  C2  UNL     1     -34.387   3.909   4.933  1.00 20.00     0.007 C 
HETATM    8  C1  UNL     1     -33.171   2.965   4.827  1.00 20.00     0.001 C 
HETATM    9  C3  UNL     1     -32.618   3.916   3.746  1.00 20.00     0.007 C 
ENDBRANCH   4   6
BRANCH   3  10
HETATM   10  C9  UNL     1     -32.460   6.539   1.545  1.00 20.00     0.121 C 
HETATM   11 CL11 UNL     1     -31.785   8.121   1.111  1.00 20.00    -0.130 Cl
ENDBRANCH   3  10
TORSDOF 2
ENDMDL
MODEL 7
REMARK VINA RESULT:       0.8      1.899      2.309
REMARK  2 active torsions:
REMARK  status: ('A' for Active; 'I' for Inactive)
REMARK    1  A    between atoms: C6_6  and  C8_8 
REMARK    2  A    between atoms: C7_7  and  C9_9 
ROOT
HETATM    1  C4  UNL     1     -33.156   7.741   4.693  1.00 20.00     0.034 C 
HETATM    2  C5  UNL     1     -32.173   8.880   4.545  1.00 20.00     0.168 C 
HETATM    3  C7  UNL     1     -33.627   7.557   3.266  1.00 20.00     0.031 C 
HETATM    4  C8  UNL     1     -32.337   7.793   2.485  1.00 20.00     0.130 C 
HETATM    5  O10 UNL     1     -31.548   8.712   3.266  1.00 20.00    -0.385 OA
ENDROOT
BRANCH   4   6
HETATM    6  C6  UNL     1     -32.603   8.411   1.122  1.00 20.00     0.015 C 
HETATM    7  C2  UNL     1     -31.360   8.753   0.259  1.00 20.00     0.007 C 
HETATM    8  C1  UNL     1     -32.126  10.004  -0.217  1.00 20.00     0.001 C 
HETATM    9  C3  UNL     1     -32.927   9.928   1.099  1.00 20.00     0.007 C 
ENDBRANCH   4   6
BRANCH   3  10
HETATM   10  C9  UNL     1     -34.264   6.202   3.005  1.00 20.00     0.121 C 
HETATM   11 CL11 UNL     1     -35.416   5.802   4.294  1.00 20.00    -0.130 Cl
ENDBRANCH   3  10
TORSDOF 2
ENDMDL
MODEL 8
REMARK VINA RESULT:       1.1      2.300      4.277
REMARK  2 active torsions:
REMARK  status: ('A' for Active; 'I' for Inactive)
REMARK    1  A    between atoms: C6_6  and  C8_8 
REMARK    2  A    between atoms: C7_7  and  C9_9 
ROOT
HETATM    1  C4  UNL     1     -31.383   6.632   0.656  1.00 20.00     0.034 C 
HETATM    2  C5  UNL     1     -31.756   5.174   0.807  1.00 20.00     0.168 C 
HETATM    3  C7  UNL     1     -32.521   7.314   1.387  1.00 20.00     0.031 C 
HETATM    4  C8  UNL     1     -32.750   6.360   2.556  1.00 20.00     0.130 C 
HETATM    5  O10 UNL     1     -32.381   5.047   2.090  1.00 20.00    -0.385 OA
ENDROOT
BRANCH   4   6
HETATM    6  C6  UNL     1     -34.206   6.334   2.991  1.00 20.00     0.015 C 
HETATM    7  C2  UNL     1     -34.590   7.243   4.188  1.00 20.00     0.007 C 
HETATM    8  C1  UNL     1     -35.554   6.124   4.634  1.00 20.00     0.001 C 
HETATM    9  C3  UNL     1     -34.645   5.136   3.874  1.00 20.00     0.007 C 
ENDBRANCH   4   6
BRANCH   3  10
HETATM   10  C9  UNL     1     -32.205   8.739   1.810  1.00 20.00     0.121 C 
HETATM   11 CL11 UNL     1     -32.490   9.861   0.466  1.00 20.00    -0.130 Cl
ENDBRANCH   3  10
TORSDOF 2
ENDMDL
MODEL 9
REMARK VINA RESULT:       1.2      2.089      3.558
REMARK  2 active torsions:
REMARK  status: ('A' for Active; 'I' for Inactive)
REMARK    1  A    between atoms: C6_6  and  C8_8 
REMARK    2  A    between atoms: C7_7  and  C9_9 
ROOT
HETATM    1  C4  UNL     1     -32.233   8.834   3.361  1.00 20.00     0.034 C 
HETATM    2  C5  UNL     1     -32.992   7.974   4.347  1.00 20.00     0.168 C 
HETATM    3  C7  UNL     1     -32.006   7.864   2.221  1.00 20.00     0.031 C 
HETATM    4  C8  UNL     1     -33.322   7.090   2.211  1.00 20.00     0.130 C 
HETATM    5  O10 UNL     1     -33.807   7.088   3.568  1.00 20.00    -0.385 OA
ENDROOT
BRANCH   4   6
HETATM    6  C6  UNL     1     -33.133   5.652   1.756  1.00 20.00     0.015 C 
HETATM    7  C2  UNL     1     -31.685   5.219   1.406  1.00 20.00     0.007 C 
HETATM    8  C1  UNL     1     -32.293   4.366   0.274  1.00 20.00     0.001 C 
HETATM    9  C3  UNL     1     -33.490   5.338   0.280  1.00 20.00     0.007 C 
ENDBRANCH   4   6
BRANCH   3  10
HETATM   10  C9  UNL     1     -31.682   8.542   0.901  1.00 20.00     0.121 C 
HETATM   11 CL11 UNL     1     -32.684   9.990   0.688  1.00 20.00    -0.130 Cl
ENDBRANCH   3  10
TORSDOF 2
ENDMDL
