MODEL 1
REMARK VINA RESULT:      -2.1      0.000      0.000
REMARK  2 active torsions:
REMARK  status: ('A' for Active; 'I' for Inactive)
REMARK    1  A    between atoms: C1_1  and  C5_5 
REMARK    2  A    between atoms: C1_1  and  C8_8 
ROOT
HETATM    1  C2  UNL     1     -33.317   7.615   3.677  1.00 20.00     0.017 C 
HETATM    2  C3  UNL     1     -32.841   6.031   1.877  1.00 20.00     0.017 C 
HETATM    3  C4  UNL     1     -32.468   8.587   1.386  1.00 20.00     0.010 A 
HETATM    4  C5  UNL     1     -33.952   6.493   2.837  1.00 20.00     0.057 C 
HETATM    5  C6  UNL     1     -32.227   8.184   2.817  1.00 20.00    -0.009 A 
HETATM    6  C7  UNL     1     -31.937   7.217   1.720  1.00 20.00    -0.009 A 
ENDROOT
BRANCH   4   7
HETATM    7  C1  UNL     1     -34.452   5.372   3.692  1.00 20.00     0.144 C 
HETATM    8  O9  UNL     1     -35.337   5.565   4.522  1.00 20.00    -0.296 OA
BRANCH   7   9
HETATM    9  C8  UNL     1     -33.800   4.028   3.458  1.00 20.00     0.193 C 
HETATM   10 CL10 UNL     1     -33.368   3.266   4.996  1.00 20.00    -0.123 Cl
ENDBRANCH   7   9
ENDBRANCH   4   7
TORSDOF 2
ENDMDL
MODEL 2
REMARK VINA RESULT:      -1.9      3.315      4.593
REMARK  2 active torsions:
REMARK  status: ('A' for Active; 'I' for Inactive)
REMARK    1  A    between atoms: C1_1  and  C5_5 
REMARK    2  A    between atoms: C1_1  and  C8_8 
ROOT
HETATM    1  C2  UNL     1     -33.281   6.079   2.395  1.00 20.00     0.017 C 
HETATM    2  C3  UNL     1     -33.629   8.038   3.814  1.00 20.00     0.017 C 
HETATM    3  C4  UNL     1     -35.547   6.242   3.718  1.00 20.00     0.010 A 
HETATM    4  C5  UNL     1     -33.316   7.616   2.367  1.00 20.00     0.057 C 
HETATM    5  C6  UNL     1     -34.159   5.685   3.546  1.00 20.00    -0.009 A 
HETATM    6  C7  UNL     1     -34.371   6.880   4.411  1.00 20.00    -0.009 A 
ENDROOT
BRANCH   4   7
HETATM    7  C1  UNL     1     -32.024   8.195   1.885  1.00 20.00     0.144 C 
HETATM    8  O9  UNL     1     -31.046   8.249   2.628  1.00 20.00    -0.296 OA
BRANCH   7   9
HETATM    9  C8  UNL     1     -32.020   8.692   0.457  1.00 20.00     0.193 C 
HETATM   10 CL10 UNL     1     -32.617  10.355   0.371  1.00 20.00    -0.123 Cl
ENDBRANCH   7   9
ENDBRANCH   4   7
TORSDOF 2
ENDMDL
MODEL 3
REMARK VINA RESULT:      -1.6      3.063      4.334
REMARK  2 active torsions:
REMARK  status: ('A' for Active; 'I' for Inactive)
REMARK    1  A    between atoms: C1_1  and  C5_5 
REMARK    2  A    between atoms: C1_1  and  C8_8 
ROOT
HETATM    1  C2  UNL     1     -33.613   5.317   2.857  1.00 20.00     0.017 C 
HETATM    2  C3  UNL     1     -33.677   7.692   3.434  1.00 20.00     0.017 C 
HETATM    3  C4  UNL     1     -35.803   6.244   3.979  1.00 20.00     0.010 A 
HETATM    4  C5  UNL     1     -33.459   6.725   2.256  1.00 20.00     0.057 C 
HETATM    5  C6  UNL     1     -34.499   5.494   4.055  1.00 20.00    -0.009 A 
HETATM    6  C7  UNL     1     -34.538   6.942   4.406  1.00 20.00    -0.009 A 
ENDROOT
BRANCH   4   7
HETATM    7  C1  UNL     1     -32.120   6.915   1.617  1.00 20.00     0.144 C 
HETATM    8  O9  UNL     1     -31.535   5.969   1.095  1.00 20.00    -0.296 OA
BRANCH   7   9
HETATM    9  C8  UNL     1     -31.565   8.320   1.667  1.00 20.00     0.193 C 
HETATM   10 CL10 UNL     1     -32.312   9.334   0.424  1.00 20.00    -0.123 Cl
ENDBRANCH   7   9
ENDBRANCH   4   7
TORSDOF 2
ENDMDL
MODEL 4
REMARK VINA RESULT:      -1.4      0.893      1.577
REMARK  2 active torsions:
REMARK  status: ('A' for Active; 'I' for Inactive)
REMARK    1  A    between atoms: C1_1  and  C5_5 
REMARK    2  A    between atoms: C1_1  and  C8_8 
ROOT
HETATM    1  C2  UNL     1     -33.040   5.561   2.020  1.00 20.00     0.017 C 
HETATM    2  C3  UNL     1     -33.899   7.155   3.661  1.00 20.00     0.017 C 
HETATM    3  C4  UNL     1     -31.885   7.919   2.153  1.00 20.00     0.010 A 
HETATM    4  C5  UNL     1     -33.318   5.736   3.523  1.00 20.00     0.057 C 
HETATM    5  C6  UNL     1     -32.829   6.949   1.492  1.00 20.00    -0.009 A 
HETATM    6  C7  UNL     1     -33.353   7.921   2.493  1.00 20.00    -0.009 A 
ENDROOT
BRANCH   4   7
HETATM    7  C1  UNL     1     -34.258   4.696   4.042  1.00 20.00     0.144 C 
HETATM    8  O9  UNL     1     -35.397   4.999   4.390  1.00 20.00    -0.296 OA
BRANCH   7   9
HETATM    9  C8  UNL     1     -33.710   3.288   4.101  1.00 20.00     0.193 C 
HETATM   10 CL10 UNL     1     -32.681   3.076   5.525  1.00 20.00    -0.123 Cl
ENDBRANCH   7   9
ENDBRANCH   4   7
TORSDOF 2
ENDMDL
MODEL 5
REMARK VINA RESULT:      -1.1      1.492      1.643
REMARK  2 active torsions:
REMARK  status: ('A' for Active; 'I' for Inactive)
REMARK    1  A    between atoms: C1_1  and  C5_5 
REMARK    2  A    between atoms: C1_1  and  C8_8 
ROOT
HETATM    1  C2  UNL     1     -32.341   8.462   3.093  1.00 20.00     0.017 C 
HETATM    2  C3  UNL     1     -33.142   6.446   1.965  1.00 20.00     0.017 C 
HETATM    3  C4  UNL     1     -31.842   8.219   0.522  1.00 20.00     0.010 A 
HETATM    4  C5  UNL     1     -33.613   7.645   2.808  1.00 20.00     0.057 C 
HETATM    5  C6  UNL     1     -31.407   8.144   1.962  1.00 20.00    -0.009 A 
HETATM    6  C7  UNL     1     -31.896   6.915   1.276  1.00 20.00    -0.009 A 
ENDROOT
BRANCH   4   7
HETATM    7  C1  UNL     1     -34.289   7.208   4.069  1.00 20.00     0.144 C 
HETATM    8  O9  UNL     1     -34.037   7.760   5.138  1.00 20.00    -0.296 OA
BRANCH   7   9
HETATM    9  C8  UNL     1     -35.274   6.070   3.925  1.00 20.00     0.193 C 
HETATM   10 CL10 UNL     1     -34.531   4.536   4.399  1.00 20.00    -0.123 Cl
ENDBRANCH   7   9
ENDBRANCH   4   7
TORSDOF 2
ENDMDL
MODEL 6
REMARK VINA RESULT:      -0.9      1.859      1.971
REMARK  2 active torsions:
REMARK  status: ('A' for Active; 'I' for Inactive)
REMARK    1  A    between atoms: C1_1  and  C5_5 
REMARK    2  A    between atoms: C1_1  and  C8_8 
ROOT
HETATM    1  C2  UNL     1     -33.050   7.784   3.346  1.00 20.00     0.017 C 
HETATM    2  C3  UNL     1     -32.578   6.082   1.657  1.00 20.00     0.017 C 
HETATM    3  C4  UNL     1     -32.205   8.599   0.993  1.00 20.00     0.010 A 
HETATM    4  C5  UNL     1     -33.687   6.609   2.586  1.00 20.00     0.057 C 
HETATM    5  C6  UNL     1     -31.962   8.293   2.448  1.00 20.00    -0.009 A 
HETATM    6  C7  UNL     1     -31.674   7.254   1.418  1.00 20.00    -0.009 A 
ENDROOT
BRANCH   4   7
HETATM    7  C1  UNL     1     -34.187   5.548   3.515  1.00 20.00     0.144 C 
HETATM    8  O9  UNL     1     -33.557   4.504   3.670  1.00 20.00    -0.296 OA
BRANCH   7   9
HETATM    9  C8  UNL     1     -35.486   5.856   4.223  1.00 20.00     0.193 C 
HETATM   10 CL10 UNL     1     -36.582   6.751   3.160  1.00 20.00    -0.123 Cl
ENDBRANCH   7   9
ENDBRANCH   4   7
TORSDOF 2
ENDMDL
MODEL 7
REMARK VINA RESULT:      -0.7      3.380      4.501
REMARK  2 active torsions:
REMARK  status: ('A' for Active; 'I' for Inactive)
REMARK    1  A    between atoms: C1_1  and  C5_5 
REMARK    2  A    between atoms: C1_1  and  C8_8 
ROOT
HETATM    1  C2  UNL     1     -33.807   7.769   3.514  1.00 20.00     0.017 C 
HETATM    2  C3  UNL     1     -33.276   5.917   2.010  1.00 20.00     0.017 C 
HETATM    3  C4  UNL     1     -34.338   5.331   4.343  1.00 20.00     0.010 A 
HETATM    4  C5  UNL     1     -32.652   7.129   2.726  1.00 20.00     0.057 C 
HETATM    5  C6  UNL     1     -34.777   6.653   3.770  1.00 20.00    -0.009 A 
HETATM    6  C7  UNL     1     -34.452   5.524   2.853  1.00 20.00    -0.009 A 
ENDROOT
BRANCH   4   7
HETATM    7  C1  UNL     1     -32.036   8.091   1.760  1.00 20.00     0.144 C 
HETATM    8  O9  UNL     1     -30.955   7.841   1.231  1.00 20.00    -0.296 OA
BRANCH   7   9
HETATM    9  C8  UNL     1     -32.826   9.353   1.497  1.00 20.00     0.193 C 
HETATM   10 CL10 UNL     1     -32.553   9.931  -0.152  1.00 20.00    -0.123 Cl
ENDBRANCH   7   9
ENDBRANCH   4   7
TORSDOF 2
ENDMDL
MODEL 8
REMARK VINA RESULT:      -0.2      1.841      2.390
REMARK  2 active torsions:
REMARK  status: ('A' for Active; 'I' for Inactive)
REMARK    1  A    between atoms: C1_1  and  C5_5 
REMARK    2  A    between atoms: C1_1  and  C8_8 
ROOT
HETATM    1  C2  UNL     1     -33.103   5.721   1.750  1.00 20.00     0.017 C 
HETATM    2  C3  UNL     1     -33.334   7.449   3.463  1.00 20.00     0.017 C 
HETATM    3  C4  UNL     1     -31.363   7.693   1.740  1.00 20.00     0.010 A 
HETATM    4  C5  UNL     1     -33.163   5.931   3.273  1.00 20.00     0.057 C 
HETATM    5  C6  UNL     1     -32.593   7.017   1.192  1.00 20.00    -0.009 A 
HETATM    6  C7  UNL     1     -32.734   8.070   2.237  1.00 20.00    -0.009 A 
ENDROOT
BRANCH   4   7
HETATM    7  C1  UNL     1     -34.283   5.162   3.898  1.00 20.00     0.144 C 
HETATM    8  O9  UNL     1     -34.222   3.938   3.998  1.00 20.00    -0.296 OA
BRANCH   7   9
HETATM    9  C8  UNL     1     -35.456   5.985   4.380  1.00 20.00     0.193 C 
HETATM   10 CL10 UNL     1     -36.373   6.629   3.011  1.00 20.00    -0.123 Cl
ENDBRANCH   7   9
ENDBRANCH   4   7
TORSDOF 2
ENDMDL
MODEL 9
REMARK VINA RESULT:      -0.2      2.546      3.736
REMARK  2 active torsions:
REMARK  status: ('A' for Active; 'I' for Inactive)
REMARK    1  A    between atoms: C1_1  and  C5_5 
REMARK    2  A    between atoms: C1_1  and  C8_8 
ROOT
HETATM    1  C2  UNL     1     -33.621   5.188   3.053  1.00 20.00     0.017 C 
HETATM    2  C3  UNL     1     -33.626   7.627   3.210  1.00 20.00     0.017 C 
HETATM    3  C4  UNL     1     -35.799   6.350   3.958  1.00 20.00     0.010 A 
HETATM    4  C5  UNL     1     -33.420   6.466   2.220  1.00 20.00     0.057 C 
HETATM    5  C6  UNL     1     -34.518   5.592   4.186  1.00 20.00    -0.009 A 
HETATM    6  C7  UNL     1     -34.520   7.079   4.281  1.00 20.00    -0.009 A 
ENDROOT
BRANCH   4   7
HETATM    7  C1  UNL     1     -32.068   6.510   1.583  1.00 20.00     0.144 C 
HETATM    8  O9  UNL     1     -31.408   7.547   1.584  1.00 20.00    -0.296 OA
BRANCH   7   9
HETATM    9  C8  UNL     1     -31.596   5.217   0.957  1.00 20.00     0.193 C 
HETATM   10 CL10 UNL     1     -32.911   4.435   0.067  1.00 20.00    -0.123 Cl
ENDBRANCH   7   9
ENDBRANCH   4   7
TORSDOF 2
ENDMDL
