MODEL 1
REMARK VINA RESULT:      -1.9      0.000      0.000
REMARK  3 active torsions:
REMARK  status: ('A' for Active; 'I' for Inactive)
REMARK    1  A    between atoms: C1_1  and  C7_7 
REMARK    2  A    between atoms: C2_2  and  C3_3 
REMARK    3  A    between atoms: C3_3  and  C9_9 
ROOT
HETATM    1  C1  UNL     1     -33.208   7.708   3.123  1.00 20.00    -0.012 C 
HETATM    2  C3  UNL     1     -32.703   7.243   1.966  1.00 20.00    -0.024 C 
ENDROOT
BRANCH   1   3
HETATM    3  C7  UNL     1     -34.083   6.985   4.061  1.00 20.00     0.009 C 
HETATM    4  C5  UNL     1     -35.545   6.776   3.591  1.00 20.00     0.008 C 
HETATM    5  C4  UNL     1     -35.482   5.384   4.255  1.00 20.00     0.001 C 
HETATM    6  C6  UNL     1     -33.954   5.440   4.048  1.00 20.00     0.008 C 
ENDBRANCH   1   3
BRANCH   2   7
HETATM    7  C2  UNL     1     -31.849   8.185   1.193  1.00 20.00     0.265 C 
HETATM    8  O10 UNL     1     -32.264   9.248   0.742  1.00 20.00    -0.302 OA
ENDBRANCH   2   7
BRANCH   2   9
HETATM    9  C9  UNL     1     -32.961   5.879   1.388  1.00 20.00     0.037 C 
HETATM   10  C8  UNL     1     -31.671   5.118   1.119  1.00 20.00     0.010 C 
ENDBRANCH   2   9
TORSDOF 3
ENDMDL
MODEL 2
REMARK VINA RESULT:      -1.5      2.007      4.465
REMARK  3 active torsions:
REMARK  status: ('A' for Active; 'I' for Inactive)
REMARK    1  A    between atoms: C1_1  and  C7_7 
REMARK    2  A    between atoms: C2_2  and  C3_3 
REMARK    3  A    between atoms: C3_3  and  C9_9 
ROOT
HETATM    1  C1  UNL     1     -32.138   7.640   1.146  1.00 20.00    -0.012 C 
HETATM    2  C3  UNL     1     -32.770   7.000   2.145  1.00 20.00    -0.024 C 
ENDROOT
BRANCH   1   3
HETATM    3  C7  UNL     1     -31.901   9.090   1.032  1.00 20.00     0.009 C 
HETATM    4  C5  UNL     1     -31.944   9.666  -0.407  1.00 20.00     0.008 C 
HETATM    5  C4  UNL     1     -32.632  10.912   0.193  1.00 20.00     0.001 C 
HETATM    6  C6  UNL     1     -33.122   9.996   1.334  1.00 20.00     0.008 C 
ENDBRANCH   1   3
BRANCH   2   7
HETATM    7  C2  UNL     1     -32.886   5.522   2.012  1.00 20.00     0.265 C 
HETATM    8  O10 UNL     1     -32.251   4.872   1.190  1.00 20.00    -0.302 OA
ENDBRANCH   2   7
BRANCH   2   9
HETATM    9  C9  UNL     1     -33.390   7.657   3.347  1.00 20.00     0.037 C 
HETATM   10  C8  UNL     1     -34.577   6.869   3.883  1.00 20.00     0.010 C 
ENDBRANCH   2   9
TORSDOF 3
ENDMDL
MODEL 3
REMARK VINA RESULT:      -1.5      2.455      4.520
REMARK  3 active torsions:
REMARK  status: ('A' for Active; 'I' for Inactive)
REMARK    1  A    between atoms: C1_1  and  C7_7 
REMARK    2  A    between atoms: C2_2  and  C3_3 
REMARK    3  A    between atoms: C3_3  and  C9_9 
ROOT
HETATM    1  C1  UNL     1     -33.215   5.312   2.690  1.00 20.00    -0.012 C 
HETATM    2  C3  UNL     1     -34.143   5.224   3.659  1.00 20.00    -0.024 C 
ENDROOT
BRANCH   1   3
HETATM    3  C7  UNL     1     -33.005   6.438   1.763  1.00 20.00     0.009 C 
HETATM    4  C5  UNL     1     -32.372   7.709   2.385  1.00 20.00     0.008 C 
HETATM    5  C4  UNL     1     -31.590   7.876   1.065  1.00 20.00     0.001 C 
HETATM    6  C6  UNL     1     -31.737   6.351   0.876  1.00 20.00     0.008 C 
ENDBRANCH   1   3
BRANCH   2   7
HETATM    7  C2  UNL     1     -34.152   3.966   4.453  1.00 20.00     0.265 C 
HETATM    8  O10 UNL     1     -33.185   3.217   4.530  1.00 20.00    -0.302 OA
ENDBRANCH   2   7
BRANCH   2   9
HETATM    9  C9  UNL     1     -35.179   6.269   3.970  1.00 20.00     0.037 C 
HETATM   10  C8  UNL     1     -34.558   7.542   4.530  1.00 20.00     0.010 C 
ENDBRANCH   2   9
TORSDOF 3
ENDMDL
MODEL 4
REMARK VINA RESULT:      -1.5      0.768      1.194
REMARK  3 active torsions:
REMARK  status: ('A' for Active; 'I' for Inactive)
REMARK    1  A    between atoms: C1_1  and  C7_7 
REMARK    2  A    between atoms: C2_2  and  C3_3 
REMARK    3  A    between atoms: C3_3  and  C9_9 
ROOT
HETATM    1  C1  UNL     1     -33.504   6.975   2.822  1.00 20.00    -0.012 C 
HETATM    2  C3  UNL     1     -32.652   6.951   1.782  1.00 20.00    -0.024 C 
ENDROOT
BRANCH   1   3
HETATM    3  C7  UNL     1     -34.493   5.944   3.181  1.00 20.00     0.009 C 
HETATM    4  C5  UNL     1     -33.945   4.741   3.991  1.00 20.00     0.008 C 
HETATM    5  C4  UNL     1     -35.273   4.762   4.777  1.00 20.00     0.001 C 
HETATM    6  C6  UNL     1     -35.374   6.258   4.416  1.00 20.00     0.008 C 
ENDBRANCH   1   3
BRANCH   2   7
HETATM    7  C2  UNL     1     -31.757   8.131   1.634  1.00 20.00     0.265 C 
HETATM    8  O10 UNL     1     -32.004   9.069   0.884  1.00 20.00    -0.302 OA
ENDBRANCH   2   7
BRANCH   2   9
HETATM    9  C9  UNL     1     -32.562   5.858   0.754  1.00 20.00     0.037 C 
HETATM   10  C8  UNL     1     -31.536   4.799   1.132  1.00 20.00     0.010 C 
ENDBRANCH   2   9
TORSDOF 3
ENDMDL
MODEL 5
REMARK VINA RESULT:      -1.4      2.074      4.174
REMARK  3 active torsions:
REMARK  status: ('A' for Active; 'I' for Inactive)
REMARK    1  A    between atoms: C1_1  and  C7_7 
REMARK    2  A    between atoms: C2_2  and  C3_3 
REMARK    3  A    between atoms: C3_3  and  C9_9 
ROOT
HETATM    1  C1  UNL     1     -32.898   8.131   2.130  1.00 20.00    -0.012 C 
HETATM    2  C3  UNL     1     -32.882   6.791   2.233  1.00 20.00    -0.024 C 
ENDROOT
BRANCH   1   3
HETATM    3  C7  UNL     1     -32.146   8.955   1.167  1.00 20.00     0.009 C 
HETATM    4  C5  UNL     1     -32.563   8.801  -0.318  1.00 20.00     0.008 C 
HETATM    5  C4  UNL     1     -32.320  10.318  -0.466  1.00 20.00     0.001 C 
HETATM    6  C6  UNL     1     -32.599  10.432   1.047  1.00 20.00     0.008 C 
ENDBRANCH   1   3
BRANCH   2   7
HETATM    7  C2  UNL     1     -33.729   6.201   3.305  1.00 20.00     0.265 C 
HETATM    8  O10 UNL     1     -34.699   6.777   3.784  1.00 20.00    -0.302 OA
ENDBRANCH   2   7
BRANCH   2   9
HETATM    9  C9  UNL     1     -32.057   5.861   1.386  1.00 20.00     0.037 C 
HETATM   10  C8  UNL     1     -32.923   4.922   0.558  1.00 20.00     0.010 C 
ENDBRANCH   2   9
TORSDOF 3
ENDMDL
MODEL 6
REMARK VINA RESULT:      -1.3      2.197      4.499
REMARK  3 active torsions:
REMARK  status: ('A' for Active; 'I' for Inactive)
REMARK    1  A    between atoms: C1_1  and  C7_7 
REMARK    2  A    between atoms: C2_2  and  C3_3 
REMARK    3  A    between atoms: C3_3  and  C9_9 
ROOT
HETATM    1  C1  UNL     1     -32.364   6.928   1.782  1.00 20.00    -0.012 C 
HETATM    2  C3  UNL     1     -33.220   6.446   2.700  1.00 20.00    -0.024 C 
ENDROOT
BRANCH   1   3
HETATM    3  C7  UNL     1     -31.980   8.336   1.581  1.00 20.00     0.009 C 
HETATM    4  C5  UNL     1     -31.479   8.700   0.160  1.00 20.00     0.008 C 
HETATM    5  C4  UNL     1     -32.222  10.043   0.323  1.00 20.00     0.001 C 
HETATM    6  C6  UNL     1     -33.149   9.321   1.323  1.00 20.00     0.008 C 
ENDBRANCH   1   3
BRANCH   2   7
HETATM    7  C2  UNL     1     -33.444   4.975   2.685  1.00 20.00     0.265 C 
HETATM    8  O10 UNL     1     -33.469   4.291   3.701  1.00 20.00    -0.302 OA
ENDBRANCH   2   7
BRANCH   2   9
HETATM    9  C9  UNL     1     -33.981   7.271   3.700  1.00 20.00     0.037 C 
HETATM   10  C8  UNL     1     -35.349   6.677   4.010  1.00 20.00     0.010 C 
ENDBRANCH   2   9
TORSDOF 3
ENDMDL
MODEL 7
REMARK VINA RESULT:      -1.1      2.075      4.106
REMARK  3 active torsions:
REMARK  status: ('A' for Active; 'I' for Inactive)
REMARK    1  A    between atoms: C1_1  and  C7_7 
REMARK    2  A    between atoms: C2_2  and  C3_3 
REMARK    3  A    between atoms: C3_3  and  C9_9 
ROOT
HETATM    1  C1  UNL     1     -33.621   7.478   3.085  1.00 20.00    -0.012 C 
HETATM    2  C3  UNL     1     -34.057   6.261   3.453  1.00 20.00    -0.024 C 
ENDROOT
BRANCH   1   3
HETATM    3  C7  UNL     1     -32.328   7.804   2.457  1.00 20.00     0.009 C 
HETATM    4  C5  UNL     1     -31.960   6.966   1.206  1.00 20.00     0.008 C 
HETATM    5  C4  UNL     1     -31.354   8.256   0.612  1.00 20.00     0.001 C 
HETATM    6  C6  UNL     1     -32.328   9.038   1.519  1.00 20.00     0.008 C 
ENDBRANCH   1   3
BRANCH   2   7
HETATM    7  C2  UNL     1     -35.405   6.205   4.080  1.00 20.00     0.265 C 
HETATM    8  O10 UNL     1     -36.437   6.468   3.474  1.00 20.00    -0.302 OA
ENDBRANCH   2   7
BRANCH   2   9
HETATM    9  C9  UNL     1     -33.284   4.979   3.314  1.00 20.00     0.037 C 
HETATM   10  C8  UNL     1     -33.843   3.873   4.198  1.00 20.00     0.010 C 
ENDBRANCH   2   9
TORSDOF 3
ENDMDL
MODEL 8
REMARK VINA RESULT:      -0.7      1.775      3.817
REMARK  3 active torsions:
REMARK  status: ('A' for Active; 'I' for Inactive)
REMARK    1  A    between atoms: C1_1  and  C7_7 
REMARK    2  A    between atoms: C2_2  and  C3_3 
REMARK    3  A    between atoms: C3_3  and  C9_9 
ROOT
HETATM    1  C1  UNL     1     -33.149   7.338   2.997  1.00 20.00    -0.012 C 
HETATM    2  C3  UNL     1     -34.136   7.284   3.909  1.00 20.00    -0.024 C 
ENDROOT
BRANCH   1   3
HETATM    3  C7  UNL     1     -33.066   6.583   1.735  1.00 20.00     0.009 C 
HETATM    4  C5  UNL     1     -31.700   6.645   1.004  1.00 20.00     0.008 C 
HETATM    5  C4  UNL     1     -31.918   5.163   0.629  1.00 20.00     0.001 C 
HETATM    6  C6  UNL     1     -32.818   5.059   1.878  1.00 20.00     0.008 C 
ENDBRANCH   1   3
BRANCH   2   7
HETATM    7  C2  UNL     1     -33.971   8.146   5.111  1.00 20.00     0.265 C 
HETATM    8  O10 UNL     1     -32.877   8.476   5.553  1.00 20.00    -0.302 OA
ENDBRANCH   2   7
BRANCH   2   9
HETATM    9  C9  UNL     1     -35.354   6.407   3.824  1.00 20.00     0.037 C 
HETATM   10  C8  UNL     1     -35.145   5.068   4.517  1.00 20.00     0.010 C 
ENDBRANCH   2   9
TORSDOF 3
ENDMDL
MODEL 9
REMARK VINA RESULT:      -0.6      1.163      2.072
REMARK  3 active torsions:
REMARK  status: ('A' for Active; 'I' for Inactive)
REMARK    1  A    between atoms: C1_1  and  C7_7 
REMARK    2  A    between atoms: C2_2  and  C3_3 
REMARK    3  A    between atoms: C3_3  and  C9_9 
ROOT
HETATM    1  C1  UNL     1     -33.270   6.877   2.395  1.00 20.00    -0.012 C 
HETATM    2  C3  UNL     1     -32.396   7.894   2.299  1.00 20.00    -0.024 C 
ENDROOT
BRANCH   1   3
HETATM    3  C7  UNL     1     -33.785   6.266   3.633  1.00 20.00     0.009 C 
HETATM    4  C5  UNL     1     -35.316   6.380   3.851  1.00 20.00     0.008 C 
HETATM    5  C4  UNL     1     -35.263   4.955   4.442  1.00 20.00     0.001 C 
HETATM    6  C6  UNL     1     -33.997   4.731   3.589  1.00 20.00     0.008 C 
ENDBRANCH   1   3
BRANCH   2   7
HETATM    7  C2  UNL     1     -32.026   8.318   0.921  1.00 20.00     0.265 C 
HETATM    8  O10 UNL     1     -32.299   9.423   0.465  1.00 20.00    -0.302 OA
ENDBRANCH   2   7
BRANCH   2   9
HETATM    9  C9  UNL     1     -31.748   8.599   3.458  1.00 20.00     0.037 C 
HETATM   10  C8  UNL     1     -32.613   8.558   4.710  1.00 20.00     0.010 C 
ENDBRANCH   2   9
TORSDOF 3
ENDMDL
