MODEL 1
REMARK VINA RESULT:      -1.6      0.000      0.000
REMARK  1 active torsions:
REMARK  status: ('A' for Active; 'I' for Inactive)
REMARK    1  A    between atoms: C8_8  and  C9_9 
ROOT
HETATM    1  C1  UNL     1     -33.650   5.976   2.526  1.00 20.00     0.074 C 
HETATM    2  C2  UNL     1     -32.646   5.858   1.654  1.00 20.00     0.139 C 
HETATM    3  C3  UNL     1     -33.682   7.176   3.385  1.00 20.00     0.153 C 
HETATM    4  C4  UNL     1     -32.483   8.088   3.323  1.00 20.00     0.116 C 
HETATM    5  C9  UNL     1     -31.878   8.088   1.923  1.00 20.00     0.139 C 
HETATM    6  O10 UNL     1     -34.616   7.366   4.159  1.00 20.00    -0.293 OA
HETATM    7  O11 UNL     1     -31.660   6.771   1.396  1.00 20.00    -0.357 OA
ENDROOT
BRANCH   5   8
HETATM    8  C8  UNL     1     -32.717   8.888   0.949  1.00 20.00     0.015 C 
HETATM    9  C6  UNL     1     -32.101   9.147  -0.450  1.00 20.00     0.007 C 
HETATM   10  C5  UNL     1     -32.759  10.542  -0.401  1.00 20.00     0.001 C 
HETATM   11  C7  UNL     1     -32.719  10.427   1.137  1.00 20.00     0.007 C 
ENDBRANCH   5   8
TORSDOF 1
ENDMDL
MODEL 2
REMARK VINA RESULT:       0.7      2.231      4.850
REMARK  1 active torsions:
REMARK  status: ('A' for Active; 'I' for Inactive)
REMARK    1  A    between atoms: C8_8  and  C9_9 
ROOT
HETATM    1  C1  UNL     1     -32.594   7.875   3.027  1.00 20.00     0.074 C 
HETATM    2  C2  UNL     1     -32.491   6.995   2.028  1.00 20.00     0.139 C 
HETATM    3  C3  UNL     1     -33.716   7.719   3.973  1.00 20.00     0.153 C 
HETATM    4  C4  UNL     1     -34.751   6.677   3.632  1.00 20.00     0.116 C 
HETATM    5  C9  UNL     1     -34.111   5.499   2.905  1.00 20.00     0.139 C 
HETATM    6  O10 UNL     1     -33.821   8.461   4.946  1.00 20.00    -0.293 OA
HETATM    7  O11 UNL     1     -33.271   5.892   1.811  1.00 20.00    -0.357 OA
ENDROOT
BRANCH   5   8
HETATM    8  C8  UNL     1     -33.324   4.616   3.852  1.00 20.00     0.015 C 
HETATM    9  C6  UNL     1     -33.065   3.159   3.389  1.00 20.00     0.007 C 
HETATM   10  C5  UNL     1     -33.251   2.737   4.862  1.00 20.00     0.001 C 
HETATM   11  C7  UNL     1     -34.107   4.007   5.044  1.00 20.00     0.007 C 
ENDBRANCH   5   8
TORSDOF 1
ENDMDL
