MODEL 1
REMARK VINA RESULT:      -2.5      0.000      0.000
REMARK  5 active torsions:
REMARK  status: ('A' for Active; 'I' for Inactive)
REMARK    1  A    between atoms: C2_2  and  C8_8 
REMARK    2  A    between atoms: C2_2  and  C9_9 
REMARK    3  A    between atoms: C3_3  and  C8_8 
REMARK    4  A    between atoms: C3_3  and  C10_10 
REMARK    5  A    between atoms: C6_6  and  C10_10 
ROOT
HETATM    1  C3  UNL     1     -32.438   6.634   1.762  1.00 20.00     0.131 C 
HETATM    2  O11 UNL     1     -31.718   5.639   1.687  1.00 20.00    -0.298 OA
ENDROOT
BRANCH   1   3
HETATM    3  C8  UNL     1     -33.933   6.546   2.048  1.00 20.00     0.111 C 
BRANCH   3   4
HETATM    4  C2  UNL     1     -34.225   6.593   3.526  1.00 20.00    -0.083 C 
HETATM    5  C1  UNL     1     -33.911   7.673   4.260  1.00 20.00     0.014 C 
BRANCH   4   6
HETATM    6  C9  UNL     1     -34.876   5.383   4.154  1.00 20.00     0.029 C 
HETATM    7  C7  UNL     1     -33.992   4.145   4.098  1.00 20.00     0.010 C 
ENDBRANCH   4   6
ENDBRANCH   3   4
ENDBRANCH   1   3
BRANCH   1   8
HETATM    8  C10 UNL     1     -31.885   8.041   1.615  1.00 20.00     0.083 C 
BRANCH   8   9
HETATM    9  C6  UNL     1     -32.799   8.975   0.887  1.00 20.00    -0.008 A 
HETATM   10  C4  UNL     1     -32.455  10.435   0.773  1.00 20.00     0.005 A 
HETATM   11  C5  UNL     1     -32.391   9.550  -0.441  1.00 20.00     0.005 A 
ENDBRANCH   8   9
ENDBRANCH   1   8
TORSDOF 5
ENDMDL
MODEL 2
REMARK VINA RESULT:      -2.0      1.044      1.236
REMARK  5 active torsions:
REMARK  status: ('A' for Active; 'I' for Inactive)
REMARK    1  A    between atoms: C2_2  and  C8_8 
REMARK    2  A    between atoms: C2_2  and  C9_9 
REMARK    3  A    between atoms: C3_3  and  C8_8 
REMARK    4  A    between atoms: C3_3  and  C10_10 
REMARK    5  A    between atoms: C6_6  and  C10_10 
ROOT
HETATM    1  C3  UNL     1     -32.365   7.487   2.072  1.00 20.00     0.131 C 
HETATM    2  O11 UNL     1     -31.608   8.072   2.846  1.00 20.00    -0.298 OA
ENDROOT
BRANCH   1   3
HETATM    3  C8  UNL     1     -33.085   6.197   2.447  1.00 20.00     0.111 C 
BRANCH   3   4
HETATM    4  C2  UNL     1     -34.082   6.413   3.556  1.00 20.00    -0.083 C 
HETATM    5  C1  UNL     1     -34.313   7.639   4.052  1.00 20.00     0.014 C 
BRANCH   4   6
HETATM    6  C9  UNL     1     -34.809   5.202   4.094  1.00 20.00     0.029 C 
HETATM    7  C7  UNL     1     -33.914   3.975   4.193  1.00 20.00     0.010 C 
ENDBRANCH   4   6
ENDBRANCH   3   4
ENDBRANCH   1   3
BRANCH   1   8
HETATM    8  C10 UNL     1     -32.678   8.029   0.688  1.00 20.00     0.083 C 
BRANCH   8   9
HETATM    9  C6  UNL     1     -32.088   9.377   0.421  1.00 20.00    -0.008 A 
HETATM   10  C4  UNL     1     -32.682  10.268  -0.635  1.00 20.00     0.005 A 
HETATM   11  C5  UNL     1     -32.833  10.621   0.818  1.00 20.00     0.005 A 
ENDBRANCH   8   9
ENDBRANCH   1   8
TORSDOF 5
ENDMDL
MODEL 3
REMARK VINA RESULT:      -2.0      1.722      5.426
REMARK  5 active torsions:
REMARK  status: ('A' for Active; 'I' for Inactive)
REMARK    1  A    between atoms: C2_2  and  C8_8 
REMARK    2  A    between atoms: C2_2  and  C9_9 
REMARK    3  A    between atoms: C3_3  and  C8_8 
REMARK    4  A    between atoms: C3_3  and  C10_10 
REMARK    5  A    between atoms: C6_6  and  C10_10 
ROOT
HETATM    1  C3  UNL     1     -34.397   6.030   3.671  1.00 20.00     0.131 C 
HETATM    2  O11 UNL     1     -35.553   6.086   4.091  1.00 20.00    -0.298 OA
ENDROOT
BRANCH   1   3
HETATM    3  C8  UNL     1     -33.568   7.275   3.380  1.00 20.00     0.111 C 
BRANCH   3   4
HETATM    4  C2  UNL     1     -32.740   7.119   2.131  1.00 20.00    -0.083 C 
HETATM    5  C1  UNL     1     -32.856   6.030   1.354  1.00 20.00     0.014 C 
BRANCH   4   6
HETATM    6  C9  UNL     1     -31.772   8.226   1.785  1.00 20.00     0.029 C 
HETATM    7  C7  UNL     1     -32.323   9.183   0.737  1.00 20.00     0.010 C 
ENDBRANCH   4   6
ENDBRANCH   3   4
ENDBRANCH   1   3
BRANCH   1   8
HETATM    8  C10 UNL     1     -33.685   4.707   3.448  1.00 20.00     0.083 C 
BRANCH   8   9
HETATM    9  C6  UNL     1     -33.891   3.717   4.551  1.00 20.00    -0.008 A 
HETATM   10  C4  UNL     1     -33.328   2.327   4.436  1.00 20.00     0.005 A 
HETATM   11  C5  UNL     1     -32.736   3.299   5.418  1.00 20.00     0.005 A 
ENDBRANCH   8   9
ENDBRANCH   1   8
TORSDOF 5
ENDMDL
MODEL 4
REMARK VINA RESULT:      -2.0      0.500      1.597
REMARK  5 active torsions:
REMARK  status: ('A' for Active; 'I' for Inactive)
REMARK    1  A    between atoms: C2_2  and  C8_8 
REMARK    2  A    between atoms: C2_2  and  C9_9 
REMARK    3  A    between atoms: C3_3  and  C8_8 
REMARK    4  A    between atoms: C3_3  and  C10_10 
REMARK    5  A    between atoms: C6_6  and  C10_10 
ROOT
HETATM    1  C3  UNL     1     -32.297   6.546   1.633  1.00 20.00     0.131 C 
HETATM    2  O11 UNL     1     -31.519   5.598   1.534  1.00 20.00    -0.298 OA
ENDROOT
BRANCH   1   3
HETATM    3  C8  UNL     1     -33.795   6.359   1.847  1.00 20.00     0.111 C 
BRANCH   3   4
HETATM    4  C2  UNL     1     -34.130   6.133   3.298  1.00 20.00    -0.083 C 
HETATM    5  C1  UNL     1     -34.041   4.911   3.849  1.00 20.00     0.014 C 
BRANCH   4   6
HETATM    6  C9  UNL     1     -34.576   7.326   4.112  1.00 20.00     0.029 C 
HETATM    7  C7  UNL     1     -33.419   8.025   4.813  1.00 20.00     0.010 C 
ENDBRANCH   4   6
ENDBRANCH   3   4
ENDBRANCH   1   3
BRANCH   1   8
HETATM    8  C10 UNL     1     -31.821   7.987   1.590  1.00 20.00     0.083 C 
BRANCH   8   9
HETATM    9  C6  UNL     1     -32.766   8.914   0.894  1.00 20.00    -0.008 A 
HETATM   10  C4  UNL     1     -32.478  10.390   0.840  1.00 20.00     0.005 A 
HETATM   11  C5  UNL     1     -32.375   9.557  -0.408  1.00 20.00     0.005 A 
ENDBRANCH   8   9
ENDBRANCH   1   8
TORSDOF 5
ENDMDL
MODEL 5
REMARK VINA RESULT:      -1.7      0.973      4.472
REMARK  5 active torsions:
REMARK  status: ('A' for Active; 'I' for Inactive)
REMARK    1  A    between atoms: C2_2  and  C8_8 
REMARK    2  A    between atoms: C2_2  and  C9_9 
REMARK    3  A    between atoms: C3_3  and  C8_8 
REMARK    4  A    between atoms: C3_3  and  C10_10 
REMARK    5  A    between atoms: C6_6  and  C10_10 
ROOT
HETATM    1  C3  UNL     1     -32.546   5.825   1.620  1.00 20.00     0.131 C 
HETATM    2  O11 UNL     1     -31.621   5.134   1.196  1.00 20.00    -0.298 OA
ENDROOT
BRANCH   1   3
HETATM    3  C8  UNL     1     -32.980   7.120   0.944  1.00 20.00     0.111 C 
BRANCH   3   4
HETATM    4  C2  UNL     1     -32.041   8.257   1.253  1.00 20.00    -0.083 C 
HETATM    5  C1  UNL     1     -31.454   8.364   2.456  1.00 20.00     0.014 C 
BRANCH   4   6
HETATM    6  C9  UNL     1     -31.787   9.276   0.167  1.00 20.00     0.029 C 
HETATM    7  C7  UNL     1     -32.711  10.483   0.265  1.00 20.00     0.010 C 
ENDBRANCH   4   6
ENDBRANCH   3   4
ENDBRANCH   1   3
BRANCH   1   8
HETATM    8  C10 UNL     1     -33.363   5.420   2.835  1.00 20.00     0.083 C 
BRANCH   8   9
HETATM    9  C6  UNL     1     -34.500   6.345   3.133  1.00 20.00    -0.008 A 
HETATM   10  C4  UNL     1     -35.357   6.125   4.350  1.00 20.00     0.005 A 
HETATM   11  C5  UNL     1     -34.417   7.297   4.294  1.00 20.00     0.005 A 
ENDBRANCH   8   9
ENDBRANCH   1   8
TORSDOF 5
ENDMDL
MODEL 6
REMARK VINA RESULT:      -1.7      1.994      5.035
REMARK  5 active torsions:
REMARK  status: ('A' for Active; 'I' for Inactive)
REMARK    1  A    between atoms: C2_2  and  C8_8 
REMARK    2  A    between atoms: C2_2  and  C9_9 
REMARK    3  A    between atoms: C3_3  and  C8_8 
REMARK    4  A    between atoms: C3_3  and  C10_10 
REMARK    5  A    between atoms: C6_6  and  C10_10 
ROOT
HETATM    1  C3  UNL     1     -34.840   6.121   3.807  1.00 20.00     0.131 C 
HETATM    2  O11 UNL     1     -35.878   6.613   3.367  1.00 20.00    -0.298 OA
ENDROOT
BRANCH   1   3
HETATM    3  C8  UNL     1     -33.511   6.868   3.803  1.00 20.00     0.111 C 
BRANCH   3   4
HETATM    4  C2  UNL     1     -32.945   6.997   2.412  1.00 20.00    -0.083 C 
HETATM    5  C1  UNL     1     -32.270   8.095   2.037  1.00 20.00     0.014 C 
BRANCH   4   6
HETATM    6  C9  UNL     1     -33.167   5.851   1.453  1.00 20.00     0.029 C 
HETATM    7  C7  UNL     1     -31.881   5.111   1.113  1.00 20.00     0.010 C 
ENDBRANCH   4   6
ENDBRANCH   3   4
ENDBRANCH   1   3
BRANCH   1   8
HETATM    8  C10 UNL     1     -34.807   4.737   4.433  1.00 20.00     0.083 C 
BRANCH   8   9
HETATM    9  C6  UNL     1     -33.511   4.016   4.234  1.00 20.00    -0.008 A 
HETATM   10  C4  UNL     1     -32.821   3.365   5.401  1.00 20.00     0.005 A 
HETATM   11  C5  UNL     1     -33.456   2.517   4.335  1.00 20.00     0.005 A 
ENDBRANCH   8   9
ENDBRANCH   1   8
TORSDOF 5
ENDMDL
MODEL 7
REMARK VINA RESULT:      -1.7      1.328      1.808
REMARK  5 active torsions:
REMARK  status: ('A' for Active; 'I' for Inactive)
REMARK    1  A    between atoms: C2_2  and  C8_8 
REMARK    2  A    between atoms: C2_2  and  C9_9 
REMARK    3  A    between atoms: C3_3  and  C8_8 
REMARK    4  A    between atoms: C3_3  and  C10_10 
REMARK    5  A    between atoms: C6_6  and  C10_10 
ROOT
HETATM    1  C3  UNL     1     -32.320   8.143   2.723  1.00 20.00     0.131 C 
HETATM    2  O11 UNL     1     -31.496   8.644   3.487  1.00 20.00    -0.298 OA
ENDROOT
BRANCH   1   3
HETATM    3  C8  UNL     1     -33.651   7.580   3.207  1.00 20.00     0.111 C 
BRANCH   3   4
HETATM    4  C2  UNL     1     -33.747   6.093   2.979  1.00 20.00    -0.083 C 
HETATM    5  C1  UNL     1     -33.155   5.514   1.922  1.00 20.00     0.014 C 
BRANCH   4   6
HETATM    6  C9  UNL     1     -34.536   5.278   3.977  1.00 20.00     0.029 C 
HETATM    7  C7  UNL     1     -33.912   3.915   4.247  1.00 20.00     0.010 C 
ENDBRANCH   4   6
ENDBRANCH   3   4
ENDBRANCH   1   3
BRANCH   1   8
HETATM    8  C10 UNL     1     -32.095   8.084   1.222  1.00 20.00     0.083 C 
BRANCH   8   9
HETATM    9  C6  UNL     1     -31.849   9.420   0.596  1.00 20.00    -0.008 A 
HETATM   10  C4  UNL     1     -32.697   9.885  -0.556  1.00 20.00     0.005 A 
HETATM   11  C5  UNL     1     -32.833  10.540   0.791  1.00 20.00     0.005 A 
ENDBRANCH   8   9
ENDBRANCH   1   8
TORSDOF 5
ENDMDL
MODEL 8
REMARK VINA RESULT:      -1.6      1.334      1.659
REMARK  5 active torsions:
REMARK  status: ('A' for Active; 'I' for Inactive)
REMARK    1  A    between atoms: C2_2  and  C8_8 
REMARK    2  A    between atoms: C2_2  and  C9_9 
REMARK    3  A    between atoms: C3_3  and  C8_8 
REMARK    4  A    between atoms: C3_3  and  C10_10 
REMARK    5  A    between atoms: C6_6  and  C10_10 
ROOT
HETATM    1  C3  UNL     1     -32.693   7.913   2.833  1.00 20.00     0.131 C 
HETATM    2  O11 UNL     1     -32.055   8.268   3.823  1.00 20.00    -0.298 OA
ENDROOT
BRANCH   1   3
HETATM    3  C8  UNL     1     -34.177   7.569   2.893  1.00 20.00     0.111 C 
BRANCH   3   4
HETATM    4  C2  UNL     1     -34.418   6.238   3.559  1.00 20.00    -0.083 C 
HETATM    5  C1  UNL     1     -35.458   6.056   4.389  1.00 20.00     0.014 C 
BRANCH   4   6
HETATM    6  C9  UNL     1     -33.447   5.118   3.265  1.00 20.00     0.029 C 
HETATM    7  C7  UNL     1     -33.723   3.869   4.092  1.00 20.00     0.010 C 
ENDBRANCH   4   6
ENDBRANCH   3   4
ENDBRANCH   1   3
BRANCH   1   8
HETATM    8  C10 UNL     1     -32.061   7.829   1.455  1.00 20.00     0.083 C 
BRANCH   8   9
HETATM    9  C6  UNL     1     -31.769   9.162   0.843  1.00 20.00    -0.008 A 
HETATM   10  C4  UNL     1     -32.506   9.607  -0.391  1.00 20.00     0.005 A 
HETATM   11  C5  UNL     1     -32.780  10.272   0.929  1.00 20.00     0.005 A 
ENDBRANCH   8   9
ENDBRANCH   1   8
TORSDOF 5
ENDMDL
MODEL 9
REMARK VINA RESULT:      -1.5      0.963      4.643
REMARK  5 active torsions:
REMARK  status: ('A' for Active; 'I' for Inactive)
REMARK    1  A    between atoms: C2_2  and  C8_8 
REMARK    2  A    between atoms: C2_2  and  C9_9 
REMARK    3  A    between atoms: C3_3  and  C8_8 
REMARK    4  A    between atoms: C3_3  and  C10_10 
REMARK    5  A    between atoms: C6_6  and  C10_10 
ROOT
HETATM    1  C3  UNL     1     -32.252   6.354   1.633  1.00 20.00     0.131 C 
HETATM    2  O11 UNL     1     -31.627   5.458   1.068  1.00 20.00    -0.298 OA
ENDROOT
BRANCH   1   3
HETATM    3  C8  UNL     1     -31.633   7.708   1.958  1.00 20.00     0.111 C 
BRANCH   3   4
HETATM    4  C2  UNL     1     -31.797   8.687   0.824  1.00 20.00    -0.083 C 
HETATM    5  C1  UNL     1     -31.069   8.576  -0.299  1.00 20.00     0.014 C 
BRANCH   4   6
HETATM    6  C9  UNL     1     -32.805   9.800   0.995  1.00 20.00     0.029 C 
HETATM    7  C7  UNL     1     -32.935  10.670  -0.248  1.00 20.00     0.010 C 
ENDBRANCH   4   6
ENDBRANCH   3   4
ENDBRANCH   1   3
BRANCH   1   8
HETATM    8  C10 UNL     1     -33.713   6.197   2.018  1.00 20.00     0.083 C 
BRANCH   8   9
HETATM    9  C6  UNL     1     -33.955   6.229   3.494  1.00 20.00    -0.008 A 
HETATM   10  C4  UNL     1     -34.472   7.481   4.149  1.00 20.00     0.005 A 
HETATM   11  C5  UNL     1     -35.359   6.274   4.030  1.00 20.00     0.005 A 
ENDBRANCH   8   9
ENDBRANCH   1   8
TORSDOF 5
ENDMDL
