MODEL 1
REMARK VINA RESULT:      -1.8      0.000      0.000
REMARK  4 active torsions:
REMARK  status: ('A' for Active; 'I' for Inactive)
REMARK    1  A    between atoms: C3_3  and  C7_7 
REMARK    2  A    between atoms: C6_6  and  C7_7 
REMARK    3  A    between atoms: C6_6  and  O9_9 
REMARK    4  A    between atoms: C7_7  and  C8_8 
ROOT
HETATM    1  C7  UNL     1     -33.312   7.291   2.215  1.00 20.00     0.032 C 
ENDROOT
BRANCH   1   2
HETATM    2  C3  UNL     1     -32.944   5.832   2.040  1.00 20.00    -0.007 A 
HETATM    3  C1  UNL     1     -33.154   5.152   0.716  1.00 20.00     0.005 A 
HETATM    4  C2  UNL     1     -31.760   5.447   1.198  1.00 20.00     0.005 A 
ENDBRANCH   1   2
BRANCH   1   5
HETATM    5  C6  UNL     1     -32.061   8.178   2.095  1.00 20.00     0.173 C 
BRANCH   5   6
HETATM    6  O9  UNL     1     -31.929   8.634   0.752  1.00 20.00    -0.396 OA
HETATM    7  C5  UNL     1     -32.503   9.922   0.582  1.00 20.00     0.201 C 
ENDBRANCH   5   6
ENDBRANCH   1   5
BRANCH   1   8
HETATM    8  C8  UNL     1     -34.075   7.582   3.531  1.00 20.00     0.084 C 
HETATM    9  C4  UNL     1     -34.943   6.419   4.004  1.00 20.00     0.027 C 
HETATM   10 CL10 UNL     1     -32.978   8.073   4.860  1.00 20.00    -0.125 Cl
ENDBRANCH   1   8
TORSDOF 4
ENDMDL
MODEL 2
REMARK VINA RESULT:      -1.3      2.887      4.010
REMARK  4 active torsions:
REMARK  status: ('A' for Active; 'I' for Inactive)
REMARK    1  A    between atoms: C3_3  and  C7_7 
REMARK    2  A    between atoms: C6_6  and  C7_7 
REMARK    3  A    between atoms: C6_6  and  O9_9 
REMARK    4  A    between atoms: C7_7  and  C8_8 
ROOT
HETATM    1  C7  UNL     1     -33.475   5.751   3.282  1.00 20.00     0.032 C 
ENDROOT
BRANCH   1   2
HETATM    2  C3  UNL     1     -33.202   6.286   1.891  1.00 20.00    -0.007 A 
HETATM    3  C1  UNL     1     -31.971   7.108   1.625  1.00 20.00     0.005 A 
HETATM    4  C2  UNL     1     -32.081   5.715   1.068  1.00 20.00     0.005 A 
ENDBRANCH   1   2
BRANCH   1   5
HETATM    5  C6  UNL     1     -33.900   4.274   3.215  1.00 20.00     0.173 C 
BRANCH   5   6
HETATM    6  O9  UNL     1     -34.110   3.779   4.533  1.00 20.00    -0.396 OA
HETATM    7  C5  UNL     1     -33.095   2.862   4.912  1.00 20.00     0.201 C 
ENDBRANCH   5   6
ENDBRANCH   1   5
BRANCH   1   8
HETATM    8  C8  UNL     1     -34.507   6.590   4.075  1.00 20.00     0.084 C 
HETATM    9  C4  UNL     1     -34.039   8.012   4.371  1.00 20.00     0.027 C 
HETATM   10 CL10 UNL     1     -36.102   6.655   3.260  1.00 20.00    -0.125 Cl
ENDBRANCH   1   8
TORSDOF 4
ENDMDL
MODEL 3
REMARK VINA RESULT:      -1.2      1.467      3.029
REMARK  4 active torsions:
REMARK  status: ('A' for Active; 'I' for Inactive)
REMARK    1  A    between atoms: C3_3  and  C7_7 
REMARK    2  A    between atoms: C6_6  and  C7_7 
REMARK    3  A    between atoms: C6_6  and  O9_9 
REMARK    4  A    between atoms: C7_7  and  C8_8 
ROOT
HETATM    1  C7  UNL     1     -32.606   7.047   2.565  1.00 20.00     0.032 C 
ENDROOT
BRANCH   1   2
HETATM    2  C3  UNL     1     -33.723   7.820   3.237  1.00 20.00    -0.007 A 
HETATM    3  C1  UNL     1     -34.717   7.106   4.111  1.00 20.00     0.005 A 
HETATM    4  C2  UNL     1     -33.705   8.035   4.725  1.00 20.00     0.005 A 
ENDBRANCH   1   2
BRANCH   1   5
HETATM    5  C6  UNL     1     -31.885   7.934   1.535  1.00 20.00     0.173 C 
BRANCH   5   6
HETATM    6  O9  UNL     1     -32.575   9.172   1.408  1.00 20.00    -0.396 OA
HETATM    7  C5  UNL     1     -32.379   9.747   0.125  1.00 20.00     0.201 C 
ENDBRANCH   5   6
ENDBRANCH   1   5
BRANCH   1   8
HETATM    8  C8  UNL     1     -33.073   5.718   1.924  1.00 20.00     0.084 C 
HETATM    9  C4  UNL     1     -32.079   5.141   0.920  1.00 20.00     0.027 C 
HETATM   10 CL10 UNL     1     -33.460   4.470   3.150  1.00 20.00    -0.125 Cl
ENDBRANCH   1   8
TORSDOF 4
ENDMDL
MODEL 4
REMARK VINA RESULT:      -1.1      2.604      3.743
REMARK  4 active torsions:
REMARK  status: ('A' for Active; 'I' for Inactive)
REMARK    1  A    between atoms: C3_3  and  C7_7 
REMARK    2  A    between atoms: C6_6  and  C7_7 
REMARK    3  A    between atoms: C6_6  and  O9_9 
REMARK    4  A    between atoms: C7_7  and  C8_8 
ROOT
HETATM    1  C7  UNL     1     -33.435   5.786   3.118  1.00 20.00     0.032 C 
ENDROOT
BRANCH   1   2
HETATM    2  C3  UNL     1     -33.030   6.029   1.679  1.00 20.00    -0.007 A 
HETATM    3  C1  UNL     1     -31.859   6.919   1.363  1.00 20.00     0.005 A 
HETATM    4  C2  UNL     1     -31.758   5.435   1.141  1.00 20.00     0.005 A 
ENDBRANCH   1   2
BRANCH   1   5
HETATM    5  C6  UNL     1     -33.951   4.347   3.294  1.00 20.00     0.173 C 
BRANCH   5   6
HETATM    6  O9  UNL     1     -33.772   3.940   4.646  1.00 20.00    -0.396 OA
HETATM    7  C5  UNL     1     -33.038   2.727   4.731  1.00 20.00     0.201 C 
ENDBRANCH   5   6
ENDBRANCH   1   5
BRANCH   1   8
HETATM    8  C8  UNL     1     -34.463   6.813   3.653  1.00 20.00     0.084 C 
HETATM    9  C4  UNL     1     -35.700   6.173   4.274  1.00 20.00     0.027 C 
HETATM   10 CL10 UNL     1     -33.737   7.952   4.830  1.00 20.00    -0.125 Cl
ENDBRANCH   1   8
TORSDOF 4
ENDMDL
MODEL 5
REMARK VINA RESULT:      -0.9      2.621      3.755
REMARK  4 active torsions:
REMARK  status: ('A' for Active; 'I' for Inactive)
REMARK    1  A    between atoms: C3_3  and  C7_7 
REMARK    2  A    between atoms: C6_6  and  C7_7 
REMARK    3  A    between atoms: C6_6  and  O9_9 
REMARK    4  A    between atoms: C7_7  and  C8_8 
ROOT
HETATM    1  C7  UNL     1     -33.467   6.264   3.166  1.00 20.00     0.032 C 
ENDROOT
BRANCH   1   2
HETATM    2  C3  UNL     1     -34.167   4.928   3.304  1.00 20.00    -0.007 A 
HETATM    3  C1  UNL     1     -33.641   3.894   4.261  1.00 20.00     0.005 A 
HETATM    4  C2  UNL     1     -34.934   4.602   4.555  1.00 20.00     0.005 A 
ENDBRANCH   1   2
BRANCH   1   5
HETATM    5  C6  UNL     1     -34.411   7.409   3.572  1.00 20.00     0.173 C 
BRANCH   5   6
HETATM    6  O9  UNL     1     -34.127   7.808   4.909  1.00 20.00    -0.396 OA
HETATM    7  C5  UNL     1     -32.827   8.368   5.019  1.00 20.00     0.201 C 
ENDBRANCH   5   6
ENDBRANCH   1   5
BRANCH   1   8
HETATM    8  C8  UNL     1     -32.873   6.508   1.757  1.00 20.00     0.084 C 
HETATM    9  C4  UNL     1     -31.990   7.750   1.672  1.00 20.00     0.027 C 
HETATM   10 CL10 UNL     1     -31.954   5.093   1.152  1.00 20.00    -0.125 Cl
ENDBRANCH   1   8
TORSDOF 4
ENDMDL
MODEL 6
REMARK VINA RESULT:      -0.9      1.481      3.615
REMARK  4 active torsions:
REMARK  status: ('A' for Active; 'I' for Inactive)
REMARK    1  A    between atoms: C3_3  and  C7_7 
REMARK    2  A    between atoms: C6_6  and  C7_7 
REMARK    3  A    between atoms: C6_6  and  O9_9 
REMARK    4  A    between atoms: C7_7  and  C8_8 
ROOT
HETATM    1  C7  UNL     1     -33.222   7.030   2.030  1.00 20.00     0.032 C 
ENDROOT
BRANCH   1   2
HETATM    2  C3  UNL     1     -33.562   6.815   3.491  1.00 20.00    -0.007 A 
HETATM    3  C1  UNL     1     -34.594   7.678   4.162  1.00 20.00     0.005 A 
HETATM    4  C2  UNL     1     -34.891   6.232   3.880  1.00 20.00     0.005 A 
ENDBRANCH   1   2
BRANCH   1   5
HETATM    5  C6  UNL     1     -33.049   5.678   1.315  1.00 20.00     0.173 C 
BRANCH   5   6
HETATM    6  O9  UNL     1     -31.671   5.323   1.296  1.00 20.00    -0.396 OA
HETATM    7  C5  UNL     1     -31.406   4.322   0.325  1.00 20.00     0.201 C 
ENDBRANCH   5   6
ENDBRANCH   1   5
BRANCH   1   8
HETATM    8  C8  UNL     1     -31.986   7.936   1.810  1.00 20.00     0.084 C 
HETATM    9  C4  UNL     1     -32.210   9.033   0.772  1.00 20.00     0.027 C 
HETATM   10 CL10 UNL     1     -31.407   8.680   3.334  1.00 20.00    -0.125 Cl
ENDBRANCH   1   8
TORSDOF 4
ENDMDL
MODEL 7
REMARK VINA RESULT:      -0.8      2.970      4.653
REMARK  4 active torsions:
REMARK  status: ('A' for Active; 'I' for Inactive)
REMARK    1  A    between atoms: C3_3  and  C7_7 
REMARK    2  A    between atoms: C6_6  and  C7_7 
REMARK    3  A    between atoms: C6_6  and  O9_9 
REMARK    4  A    between atoms: C7_7  and  C8_8 
ROOT
HETATM    1  C7  UNL     1     -33.682   5.698   2.453  1.00 20.00     0.032 C 
ENDROOT
BRANCH   1   2
HETATM    2  C3  UNL     1     -34.442   6.860   3.058  1.00 20.00    -0.007 A 
HETATM    3  C1  UNL     1     -35.475   6.617   4.123  1.00 20.00     0.005 A 
HETATM    4  C2  UNL     1     -34.174   7.282   4.476  1.00 20.00     0.005 A 
ENDBRANCH   1   2
BRANCH   1   5
HETATM    5  C6  UNL     1     -33.000   4.870   3.556  1.00 20.00     0.173 C 
BRANCH   5   6
HETATM    6  O9  UNL     1     -33.861   3.808   3.954  1.00 20.00    -0.396 OA
HETATM    7  C5  UNL     1     -33.184   2.873   4.781  1.00 20.00     0.201 C 
ENDBRANCH   5   6
ENDBRANCH   1   5
BRANCH   1   8
HETATM    8  C8  UNL     1     -32.663   6.124   1.368  1.00 20.00     0.084 C 
HETATM    9  C4  UNL     1     -31.963   7.446   1.673  1.00 20.00     0.027 C 
HETATM   10 CL10 UNL     1     -31.427   4.863   1.061  1.00 20.00    -0.125 Cl
ENDBRANCH   1   8
TORSDOF 4
ENDMDL
MODEL 8
REMARK VINA RESULT:      -0.7      1.942      3.230
REMARK  4 active torsions:
REMARK  status: ('A' for Active; 'I' for Inactive)
REMARK    1  A    between atoms: C3_3  and  C7_7 
REMARK    2  A    between atoms: C6_6  and  C7_7 
REMARK    3  A    between atoms: C6_6  and  O9_9 
REMARK    4  A    between atoms: C7_7  and  C8_8 
ROOT
HETATM    1  C7  UNL     1     -32.800   6.402   2.368  1.00 20.00     0.032 C 
ENDROOT
BRANCH   1   2
HETATM    2  C3  UNL     1     -34.229   6.168   2.811  1.00 20.00    -0.007 A 
HETATM    3  C1  UNL     1     -34.515   5.391   4.067  1.00 20.00     0.005 A 
HETATM    4  C2  UNL     1     -34.770   6.872   4.024  1.00 20.00     0.005 A 
ENDBRANCH   1   2
BRANCH   1   5
HETATM    5  C6  UNL     1     -32.479   7.907   2.367  1.00 20.00     0.173 C 
BRANCH   5   6
HETATM    6  O9  UNL     1     -31.851   8.258   1.139  1.00 20.00    -0.396 OA
HETATM    7  C5  UNL     1     -32.310   9.514   0.661  1.00 20.00     0.201 C 
ENDBRANCH   5   6
ENDBRANCH   1   5
BRANCH   1   8
HETATM    8  C8  UNL     1     -32.465   5.762   0.998  1.00 20.00     0.084 C 
HETATM    9  C4  UNL     1     -31.436   4.638   1.084  1.00 20.00     0.027 C 
HETATM   10 CL10 UNL     1     -33.926   5.157   0.154  1.00 20.00    -0.125 Cl
ENDBRANCH   1   8
TORSDOF 4
ENDMDL
MODEL 9
REMARK VINA RESULT:      -0.6      2.436      3.589
REMARK  4 active torsions:
REMARK  status: ('A' for Active; 'I' for Inactive)
REMARK    1  A    between atoms: C3_3  and  C7_7 
REMARK    2  A    between atoms: C6_6  and  C7_7 
REMARK    3  A    between atoms: C6_6  and  O9_9 
REMARK    4  A    between atoms: C7_7  and  C8_8 
ROOT
HETATM    1  C7  UNL     1     -33.318   6.105   3.229  1.00 20.00     0.032 C 
ENDROOT
BRANCH   1   2
HETATM    2  C3  UNL     1     -34.099   4.813   3.353  1.00 20.00    -0.007 A 
HETATM    3  C1  UNL     1     -33.662   3.755   4.328  1.00 20.00     0.005 A 
HETATM    4  C2  UNL     1     -34.919   4.540   4.583  1.00 20.00     0.005 A 
ENDBRANCH   1   2
BRANCH   1   5
HETATM    5  C6  UNL     1     -34.263   7.315   3.326  1.00 20.00     0.173 C 
BRANCH   5   6
HETATM    6  O9  UNL     1     -34.237   7.832   4.652  1.00 20.00    -0.396 OA
HETATM    7  C5  UNL     1     -32.945   8.306   5.000  1.00 20.00     0.201 C 
ENDBRANCH   5   6
ENDBRANCH   1   5
BRANCH   1   8
HETATM    8  C8  UNL     1     -32.449   6.180   1.949  1.00 20.00     0.084 C 
HETATM    9  C4  UNL     1     -33.089   5.513   0.735  1.00 20.00     0.027 C 
HETATM   10 CL10 UNL     1     -32.005   7.865   1.526  1.00 20.00    -0.125 Cl
ENDBRANCH   1   8
TORSDOF 4
ENDMDL
