MODEL 1
REMARK VINA RESULT:      -3.1      0.000      0.000
REMARK  3 active torsions:
REMARK  status: ('A' for Active; 'I' for Inactive)
REMARK    1  A    between atoms: C5_5  and  C8_8 
REMARK    2  A    between atoms: C7_7  and  C8_8 
REMARK    3  A    between atoms: C8_8  and  O9_9 
ROOT
HETATM    1  C1  UNL     1     -32.390   9.817   0.176  1.00 20.00     0.012 C 
HETATM    2  C2  UNL     1     -32.270   8.967   1.015  1.00 20.00    -0.115 C 
HETATM    3  C7  UNL     1     -32.118   7.926   2.046  1.00 20.00     0.125 C 
ENDROOT
BRANCH   3   4
HETATM    4  C8  UNL     1     -33.325   6.974   2.088  1.00 20.00     0.137 C 
BRANCH   4   5
HETATM    5  C5  UNL     1     -33.932   6.902   3.463  1.00 20.00    -0.017 A 
HETATM    6  C3  UNL     1     -34.359   5.548   3.978  1.00 20.00     0.012 A 
HETATM    7  C4  UNL     1     -35.398   6.554   3.572  1.00 20.00     0.012 A 
HETATM    8  C6  UNL     1     -33.365   7.885   4.449  1.00 20.00     0.018 C 
ENDBRANCH   4   5
BRANCH   4   9
HETATM    9  O9  UNL     1     -32.876   5.671   1.699  1.00 20.00    -0.394 OA
HETATM   10  H21 UNL     1     -33.231   5.518   0.812  1.00 20.00     0.210 HD
ENDBRANCH   4   9
ENDBRANCH   3   4
TORSDOF 3
ENDMDL
MODEL 2
REMARK VINA RESULT:      -1.6      1.867      4.286
REMARK  3 active torsions:
REMARK  status: ('A' for Active; 'I' for Inactive)
REMARK    1  A    between atoms: C5_5  and  C8_8 
REMARK    2  A    between atoms: C7_7  and  C8_8 
REMARK    3  A    between atoms: C8_8  and  O9_9 
ROOT
HETATM    1  C1  UNL     1     -32.846   2.706   5.279  1.00 20.00     0.012 C 
HETATM    2  C2  UNL     1     -33.409   3.407   4.482  1.00 20.00    -0.115 C 
HETATM    3  C7  UNL     1     -34.103   4.263   3.505  1.00 20.00     0.125 C 
ENDROOT
BRANCH   3   4
HETATM    4  C8  UNL     1     -33.373   5.598   3.286  1.00 20.00     0.137 C 
BRANCH   4   5
HETATM    5  C5  UNL     1     -34.209   6.770   3.719  1.00 20.00    -0.017 A 
HETATM    6  C3  UNL     1     -33.808   8.144   3.237  1.00 20.00     0.012 A 
HETATM    7  C4  UNL     1     -33.592   7.765   4.674  1.00 20.00     0.012 A 
HETATM    8  C6  UNL     1     -35.677   6.473   3.860  1.00 20.00     0.018 C 
ENDBRANCH   4   5
BRANCH   4   9
HETATM    9  O9  UNL     1     -33.077   5.717   1.889  1.00 20.00    -0.394 OA
HETATM   10  H21 UNL     1     -33.029   6.666   1.705  1.00 20.00     0.210 HD
ENDBRANCH   4   9
ENDBRANCH   3   4
TORSDOF 3
ENDMDL
MODEL 3
REMARK VINA RESULT:      -1.6      1.328      4.144
REMARK  3 active torsions:
REMARK  status: ('A' for Active; 'I' for Inactive)
REMARK    1  A    between atoms: C5_5  and  C8_8 
REMARK    2  A    between atoms: C7_7  and  C8_8 
REMARK    3  A    between atoms: C8_8  and  O9_9 
ROOT
HETATM    1  C1  UNL     1     -33.360   3.005   4.659  1.00 20.00     0.012 C 
HETATM    2  C2  UNL     1     -33.702   3.992   4.068  1.00 20.00    -0.115 C 
HETATM    3  C7  UNL     1     -34.128   5.203   3.345  1.00 20.00     0.125 C 
ENDROOT
BRANCH   3   4
HETATM    4  C8  UNL     1     -32.976   5.831   2.543  1.00 20.00     0.137 C 
BRANCH   4   5
HETATM    5  C5  UNL     1     -32.923   7.324   2.715  1.00 20.00    -0.017 A 
HETATM    6  C3  UNL     1     -32.747   8.174   1.480  1.00 20.00     0.012 A 
HETATM    7  C4  UNL     1     -31.610   8.022   2.450  1.00 20.00     0.012 A 
HETATM    8  C6  UNL     1     -33.795   7.856   3.819  1.00 20.00     0.018 C 
ENDBRANCH   4   5
BRANCH   4   9
HETATM    9  O9  UNL     1     -33.179   5.520   1.159  1.00 20.00    -0.394 OA
HETATM   10  H21 UNL     1     -33.944   4.929   1.126  1.00 20.00     0.210 HD
ENDBRANCH   4   9
ENDBRANCH   3   4
TORSDOF 3
ENDMDL
MODEL 4
REMARK VINA RESULT:      -1.2      1.436      4.146
REMARK  3 active torsions:
REMARK  status: ('A' for Active; 'I' for Inactive)
REMARK    1  A    between atoms: C5_5  and  C8_8 
REMARK    2  A    between atoms: C7_7  and  C8_8 
REMARK    3  A    between atoms: C8_8  and  O9_9 
ROOT
HETATM    1  C1  UNL     1     -34.181   4.284   4.487  1.00 20.00     0.012 C 
HETATM    2  C2  UNL     1     -34.520   5.326   3.996  1.00 20.00    -0.115 C 
HETATM    3  C7  UNL     1     -34.940   6.602   3.392  1.00 20.00     0.125 C 
ENDROOT
BRANCH   3   4
HETATM    4  C8  UNL     1     -33.799   7.634   3.371  1.00 20.00     0.137 C 
BRANCH   4   5
HETATM    5  C5  UNL     1     -32.841   7.384   2.239  1.00 20.00    -0.017 A 
HETATM    6  C3  UNL     1     -31.487   8.050   2.298  1.00 20.00     0.012 A 
HETATM    7  C4  UNL     1     -32.516   8.537   1.319  1.00 20.00     0.012 A 
HETATM    8  C6  UNL     1     -32.924   6.006   1.643  1.00 20.00     0.018 C 
ENDBRANCH   4   5
BRANCH   4   9
HETATM    9  O9  UNL     1     -33.096   7.543   4.617  1.00 20.00    -0.394 OA
HETATM   10  H21 UNL     1     -32.704   8.415   4.768  1.00 20.00     0.210 HD
ENDBRANCH   4   9
ENDBRANCH   3   4
TORSDOF 3
ENDMDL
MODEL 5
REMARK VINA RESULT:      -0.9      1.371      1.909
REMARK  3 active torsions:
REMARK  status: ('A' for Active; 'I' for Inactive)
REMARK    1  A    between atoms: C5_5  and  C8_8 
REMARK    2  A    between atoms: C7_7  and  C8_8 
REMARK    3  A    between atoms: C8_8  and  O9_9 
ROOT
HETATM    1  C1  UNL     1     -32.505   9.923   0.301  1.00 20.00     0.012 C 
HETATM    2  C2  UNL     1     -32.198   8.964   0.955  1.00 20.00    -0.115 C 
HETATM    3  C7  UNL     1     -31.817   7.787   1.755  1.00 20.00     0.125 C 
ENDROOT
BRANCH   3   4
HETATM    4  C8  UNL     1     -32.745   7.586   2.964  1.00 20.00     0.137 C 
BRANCH   4   5
HETATM    5  C5  UNL     1     -33.590   6.350   2.821  1.00 20.00    -0.017 A 
HETATM    6  C3  UNL     1     -35.003   6.392   3.355  1.00 20.00     0.012 A 
HETATM    7  C4  UNL     1     -33.956   5.593   4.076  1.00 20.00     0.012 A 
HETATM    8  C6  UNL     1     -33.333   5.559   1.568  1.00 20.00     0.018 C 
ENDBRANCH   4   5
BRANCH   4   9
HETATM    9  O9  UNL     1     -33.596   8.734   3.066  1.00 20.00    -0.394 OA
HETATM   10  H21 UNL     1     -33.874   8.782   3.991  1.00 20.00     0.210 HD
ENDBRANCH   4   9
ENDBRANCH   3   4
TORSDOF 3
ENDMDL
MODEL 6
REMARK VINA RESULT:      -0.8      1.562      2.320
REMARK  3 active torsions:
REMARK  status: ('A' for Active; 'I' for Inactive)
REMARK    1  A    between atoms: C5_5  and  C8_8 
REMARK    2  A    between atoms: C7_7  and  C8_8 
REMARK    3  A    between atoms: C8_8  and  O9_9 
ROOT
HETATM    1  C1  UNL     1     -32.804  10.653   0.416  1.00 20.00     0.012 C 
HETATM    2  C2  UNL     1     -32.321   9.554   0.439  1.00 20.00    -0.115 C 
HETATM    3  C7  UNL     1     -31.728   8.206   0.463  1.00 20.00     0.125 C 
ENDROOT
BRANCH   3   4
HETATM    4  C8  UNL     1     -31.759   7.586   1.870  1.00 20.00     0.137 C 
BRANCH   4   5
HETATM    5  C5  UNL     1     -32.775   6.482   1.971  1.00 20.00    -0.017 A 
HETATM    6  C3  UNL     1     -32.328   5.076   1.646  1.00 20.00     0.012 A 
HETATM    7  C4  UNL     1     -33.225   5.814   0.693  1.00 20.00     0.012 A 
HETATM    8  C6  UNL     1     -33.788   6.663   3.068  1.00 20.00     0.018 C 
ENDBRANCH   4   5
BRANCH   4   9
HETATM    9  O9  UNL     1     -32.089   8.622   2.803  1.00 20.00    -0.394 OA
HETATM   10  H21 UNL     1     -31.259   8.871   3.233  1.00 20.00     0.210 HD
ENDBRANCH   4   9
ENDBRANCH   3   4
TORSDOF 3
ENDMDL
MODEL 7
REMARK VINA RESULT:      -0.4      0.963      3.963
REMARK  3 active torsions:
REMARK  status: ('A' for Active; 'I' for Inactive)
REMARK    1  A    between atoms: C5_5  and  C8_8 
REMARK    2  A    between atoms: C7_7  and  C8_8 
REMARK    3  A    between atoms: C8_8  and  O9_9 
ROOT
HETATM    1  C1  UNL     1     -35.403   5.162   4.557  1.00 20.00     0.012 C 
HETATM    2  C2  UNL     1     -34.853   6.108   4.064  1.00 20.00    -0.115 C 
HETATM    3  C7  UNL     1     -34.182   7.273   3.462  1.00 20.00     0.125 C 
ENDROOT
BRANCH   3   4
HETATM    4  C8  UNL     1     -32.916   6.873   2.687  1.00 20.00     0.137 C 
BRANCH   4   5
HETATM    5  C5  UNL     1     -32.114   8.074   2.267  1.00 20.00    -0.017 A 
HETATM    6  C3  UNL     1     -32.553   8.820   1.029  1.00 20.00     0.012 A 
HETATM    7  C4  UNL     1     -31.310   7.978   0.992  1.00 20.00     0.012 A 
HETATM    8  C6  UNL     1     -31.541   8.872   3.405  1.00 20.00     0.018 C 
ENDBRANCH   4   5
BRANCH   4   9
HETATM    9  O9  UNL     1     -33.320   6.141   1.523  1.00 20.00    -0.394 OA
HETATM   10  H21 UNL     1     -32.737   6.431   0.808  1.00 20.00     0.210 HD
ENDBRANCH   4   9
ENDBRANCH   3   4
TORSDOF 3
ENDMDL
MODEL 8
REMARK VINA RESULT:      -0.4      2.016      4.366
REMARK  3 active torsions:
REMARK  status: ('A' for Active; 'I' for Inactive)
REMARK    1  A    between atoms: C5_5  and  C8_8 
REMARK    2  A    between atoms: C7_7  and  C8_8 
REMARK    3  A    between atoms: C8_8  and  O9_9 
ROOT
HETATM    1  C1  UNL     1     -33.197   2.754   4.425  1.00 20.00     0.012 C 
HETATM    2  C2  UNL     1     -33.857   3.752   4.525  1.00 20.00    -0.115 C 
HETATM    3  C7  UNL     1     -34.668   4.975   4.652  1.00 20.00     0.125 C 
ENDROOT
BRANCH   3   4
HETATM    4  C8  UNL     1     -34.818   5.710   3.310  1.00 20.00     0.137 C 
BRANCH   4   5
HETATM    5  C5  UNL     1     -33.595   6.520   2.977  1.00 20.00    -0.017 A 
HETATM    6  C3  UNL     1     -33.328   6.835   1.524  1.00 20.00     0.012 A 
HETATM    7  C4  UNL     1     -32.469   5.833   2.240  1.00 20.00     0.012 A 
HETATM    8  C6  UNL     1     -33.237   7.562   4.001  1.00 20.00     0.018 C 
ENDBRANCH   4   5
BRANCH   4   9
HETATM    9  O9  UNL     1     -35.952   6.580   3.405  1.00 20.00    -0.394 OA
HETATM   10  H21 UNL     1     -35.708   7.271   4.037  1.00 20.00     0.210 HD
ENDBRANCH   4   9
ENDBRANCH   3   4
TORSDOF 3
ENDMDL
MODEL 9
REMARK VINA RESULT:      -0.3      1.488      4.364
REMARK  3 active torsions:
REMARK  status: ('A' for Active; 'I' for Inactive)
REMARK    1  A    between atoms: C5_5  and  C8_8 
REMARK    2  A    between atoms: C7_7  and  C8_8 
REMARK    3  A    between atoms: C8_8  and  O9_9 
ROOT
HETATM    1  C1  UNL     1     -34.651   6.367   3.772  1.00 20.00     0.012 C 
HETATM    2  C2  UNL     1     -33.845   6.676   2.938  1.00 20.00    -0.115 C 
HETATM    3  C7  UNL     1     -32.855   7.050   1.913  1.00 20.00     0.125 C 
ENDROOT
BRANCH   3   4
HETATM    4  C8  UNL     1     -32.452   8.530   2.014  1.00 20.00     0.137 C 
BRANCH   4   5
HETATM    5  C5  UNL     1     -32.089   9.103   0.671  1.00 20.00    -0.017 A 
HETATM    6  C3  UNL     1     -32.224  10.595   0.477  1.00 20.00     0.012 A 
HETATM    7  C4  UNL     1     -33.201   9.665  -0.183  1.00 20.00     0.012 A 
HETATM    8  C6  UNL     1     -30.953   8.402  -0.021  1.00 20.00     0.018 C 
ENDBRANCH   4   5
BRANCH   4   9
HETATM    9  O9  UNL     1     -31.322   8.624   2.890  1.00 20.00    -0.394 OA
HETATM   10  H21 UNL     1     -30.861   9.439   2.647  1.00 20.00     0.210 HD
ENDBRANCH   4   9
ENDBRANCH   3   4
TORSDOF 3
ENDMDL
