MODEL 1
REMARK VINA RESULT:      -2.8      0.000      0.000
REMARK  4 active torsions:
REMARK  status: ('A' for Active; 'I' for Inactive)
REMARK    1  A    between atoms: C2_2  and  C8_8 
REMARK    2  A    between atoms: C3_3  and  C8_8 
REMARK    3  A    between atoms: C3_3  and  C9_9 
REMARK    4  A    between atoms: C6_6  and  C9_9 
ROOT
HETATM    1  C1  UNL     1     -32.409   9.497   0.457  1.00 20.00    -0.111 C 
HETATM    2  C2  UNL     1     -32.014   8.583   1.129  1.00 20.00    -0.100 C 
HETATM    3  C7  UNL     1     -32.891  10.610  -0.360  1.00 20.00     0.112 C 
ENDROOT
BRANCH   2   4
HETATM    4  C8  UNL     1     -31.532   7.470   1.954  1.00 20.00     0.172 C 
BRANCH   4   5
HETATM    5  C3  UNL     1     -32.210   6.155   1.613  1.00 20.00     0.138 C 
HETATM    6  O10 UNL     1     -31.620   5.233   1.050  1.00 20.00    -0.297 OA
BRANCH   5   7
HETATM    7  C9  UNL     1     -33.671   6.050   2.012  1.00 20.00     0.083 C 
BRANCH   7   8
HETATM    8  C6  UNL     1     -33.909   6.205   3.481  1.00 20.00    -0.007 A 
HETATM    9  C4  UNL     1     -34.426   7.504   4.033  1.00 20.00     0.005 A 
HETATM   10  C5  UNL     1     -35.311   6.290   4.016  1.00 20.00     0.005 A 
ENDBRANCH   7   8
ENDBRANCH   5   7
ENDBRANCH   4   5
ENDBRANCH   2   4
TORSDOF 4
ENDMDL
MODEL 2
REMARK VINA RESULT:      -2.7      2.382      5.301
REMARK  4 active torsions:
REMARK  status: ('A' for Active; 'I' for Inactive)
REMARK    1  A    between atoms: C2_2  and  C8_8 
REMARK    2  A    between atoms: C3_3  and  C8_8 
REMARK    3  A    between atoms: C3_3  and  C9_9 
REMARK    4  A    between atoms: C6_6  and  C9_9 
ROOT
HETATM    1  C1  UNL     1     -33.848   3.641   4.423  1.00 20.00    -0.111 C 
HETATM    2  C2  UNL     1     -34.439   4.675   4.264  1.00 20.00    -0.100 C 
HETATM    3  C7  UNL     1     -33.129   2.382   4.616  1.00 20.00     0.112 C 
ENDROOT
BRANCH   2   4
HETATM    4  C8  UNL     1     -35.153   5.941   4.069  1.00 20.00     0.172 C 
BRANCH   4   5
HETATM    5  C3  UNL     1     -34.219   7.096   3.756  1.00 20.00     0.138 C 
HETATM    6  O10 UNL     1     -34.099   8.070   4.499  1.00 20.00    -0.297 OA
BRANCH   5   7
HETATM    7  C9  UNL     1     -33.437   6.971   2.461  1.00 20.00     0.083 C 
BRANCH   7   8
HETATM    8  C6  UNL     1     -32.356   7.994   2.307  1.00 20.00    -0.007 A 
HETATM    9  C4  UNL     1     -31.275   7.805   1.280  1.00 20.00     0.005 A 
HETATM   10  C5  UNL     1     -32.314   8.873   1.088  1.00 20.00     0.005 A 
ENDBRANCH   7   8
ENDBRANCH   5   7
ENDBRANCH   4   5
ENDBRANCH   2   4
TORSDOF 4
ENDMDL
MODEL 3
REMARK VINA RESULT:      -2.1      2.480      5.174
REMARK  4 active torsions:
REMARK  status: ('A' for Active; 'I' for Inactive)
REMARK    1  A    between atoms: C2_2  and  C8_8 
REMARK    2  A    between atoms: C3_3  and  C8_8 
REMARK    3  A    between atoms: C3_3  and  C9_9 
REMARK    4  A    between atoms: C6_6  and  C9_9 
ROOT
HETATM    1  C1  UNL     1     -33.891   3.982   4.293  1.00 20.00    -0.111 C 
HETATM    2  C2  UNL     1     -34.354   5.066   4.059  1.00 20.00    -0.100 C 
HETATM    3  C7  UNL     1     -33.328   2.663   4.577  1.00 20.00     0.112 C 
ENDROOT
BRANCH   2   4
HETATM    4  C8  UNL     1     -34.917   6.389   3.767  1.00 20.00     0.172 C 
BRANCH   4   5
HETATM    5  C3  UNL     1     -34.039   7.520   4.271  1.00 20.00     0.138 C 
HETATM    6  O10 UNL     1     -34.339   8.206   5.248  1.00 20.00    -0.297 OA
BRANCH   5   7
HETATM    7  C9  UNL     1     -32.761   7.754   3.487  1.00 20.00     0.083 C 
BRANCH   7   8
HETATM    8  C6  UNL     1     -32.900   7.511   2.017  1.00 20.00    -0.007 A 
HETATM    9  C4  UNL     1     -31.793   7.898   1.077  1.00 20.00     0.005 A 
HETATM   10  C5  UNL     1     -32.077   6.447   1.345  1.00 20.00     0.005 A 
ENDBRANCH   7   8
ENDBRANCH   5   7
ENDBRANCH   4   5
ENDBRANCH   2   4
TORSDOF 4
ENDMDL
MODEL 4
REMARK VINA RESULT:      -2.1      0.936      1.265
REMARK  4 active torsions:
REMARK  status: ('A' for Active; 'I' for Inactive)
REMARK    1  A    between atoms: C2_2  and  C8_8 
REMARK    2  A    between atoms: C3_3  and  C8_8 
REMARK    3  A    between atoms: C3_3  and  C9_9 
REMARK    4  A    between atoms: C6_6  and  C9_9 
ROOT
HETATM    1  C1  UNL     1     -32.409   9.608   0.338  1.00 20.00    -0.111 C 
HETATM    2  C2  UNL     1     -32.065   8.716   1.067  1.00 20.00    -0.100 C 
HETATM    3  C7  UNL     1     -32.827  10.694  -0.548  1.00 20.00     0.112 C 
ENDROOT
BRANCH   2   4
HETATM    4  C8  UNL     1     -31.647   7.623   1.950  1.00 20.00     0.172 C 
BRANCH   4   5
HETATM    5  C3  UNL     1     -32.703   6.540   2.077  1.00 20.00     0.138 C 
HETATM    6  O10 UNL     1     -32.748   5.567   1.324  1.00 20.00    -0.297 OA
BRANCH   5   7
HETATM    7  C9  UNL     1     -33.707   6.736   3.198  1.00 20.00     0.083 C 
BRANCH   7   8
HETATM    8  C6  UNL     1     -34.658   5.593   3.365  1.00 20.00    -0.007 A 
HETATM    9  C4  UNL     1     -34.276   4.405   4.203  1.00 20.00     0.005 A 
HETATM   10  C5  UNL     1     -35.333   5.357   4.687  1.00 20.00     0.005 A 
ENDBRANCH   7   8
ENDBRANCH   5   7
ENDBRANCH   4   5
ENDBRANCH   2   4
TORSDOF 4
ENDMDL
MODEL 5
REMARK VINA RESULT:      -2.1      2.605      3.398
REMARK  4 active torsions:
REMARK  status: ('A' for Active; 'I' for Inactive)
REMARK    1  A    between atoms: C2_2  and  C8_8 
REMARK    2  A    between atoms: C3_3  and  C8_8 
REMARK    3  A    between atoms: C3_3  and  C9_9 
REMARK    4  A    between atoms: C6_6  and  C9_9 
ROOT
HETATM    1  C1  UNL     1     -32.307   8.077   1.861  1.00 20.00    -0.111 C 
HETATM    2  C2  UNL     1     -32.950   7.798   2.837  1.00 20.00    -0.100 C 
HETATM    3  C7  UNL     1     -31.524   8.417   0.674  1.00 20.00     0.112 C 
ENDROOT
BRANCH   2   4
HETATM    4  C8  UNL     1     -33.742   7.458   4.025  1.00 20.00     0.172 C 
BRANCH   4   5
HETATM    5  C3  UNL     1     -34.532   6.174   3.851  1.00 20.00     0.138 C 
HETATM    6  O10 UNL     1     -35.756   6.129   3.967  1.00 20.00    -0.297 OA
BRANCH   5   7
HETATM    7  C9  UNL     1     -33.710   4.941   3.524  1.00 20.00     0.083 C 
BRANCH   7   8
HETATM    8  C6  UNL     1     -33.964   3.785   4.439  1.00 20.00    -0.007 A 
HETATM    9  C4  UNL     1     -33.240   2.483   4.235  1.00 20.00     0.005 A 
HETATM   10  C5  UNL     1     -32.911   3.349   5.419  1.00 20.00     0.005 A 
ENDBRANCH   7   8
ENDBRANCH   5   7
ENDBRANCH   4   5
ENDBRANCH   2   4
TORSDOF 4
ENDMDL
MODEL 6
REMARK VINA RESULT:      -2.0      0.997      4.560
REMARK  4 active torsions:
REMARK  status: ('A' for Active; 'I' for Inactive)
REMARK    1  A    between atoms: C2_2  and  C8_8 
REMARK    2  A    between atoms: C3_3  and  C8_8 
REMARK    3  A    between atoms: C3_3  and  C9_9 
REMARK    4  A    between atoms: C6_6  and  C9_9 
ROOT
HETATM    1  C1  UNL     1     -34.568   6.399   3.910  1.00 20.00    -0.111 C 
HETATM    2  C2  UNL     1     -33.685   7.119   3.527  1.00 20.00    -0.100 C 
HETATM    3  C7  UNL     1     -35.642   5.524   4.376  1.00 20.00     0.112 C 
ENDROOT
BRANCH   2   4
HETATM    4  C8  UNL     1     -32.612   8.000   3.054  1.00 20.00     0.172 C 
BRANCH   4   5
HETATM    5  C3  UNL     1     -31.974   7.504   1.769  1.00 20.00     0.138 C 
HETATM    6  O10 UNL     1     -31.769   6.310   1.549  1.00 20.00    -0.297 OA
BRANCH   5   7
HETATM    7  C9  UNL     1     -31.602   8.581   0.766  1.00 20.00     0.083 C 
BRANCH   7   8
HETATM    8  C6  UNL     1     -32.706   9.550   0.482  1.00 20.00    -0.007 A 
HETATM    9  C4  UNL     1     -32.419  11.023   0.399  1.00 20.00     0.005 A 
HETATM   10  C5  UNL     1     -32.772  10.256  -0.844  1.00 20.00     0.005 A 
ENDBRANCH   7   8
ENDBRANCH   5   7
ENDBRANCH   4   5
ENDBRANCH   2   4
TORSDOF 4
ENDMDL
MODEL 7
REMARK VINA RESULT:      -2.0      1.558      4.935
REMARK  4 active torsions:
REMARK  status: ('A' for Active; 'I' for Inactive)
REMARK    1  A    between atoms: C2_2  and  C8_8 
REMARK    2  A    between atoms: C3_3  and  C8_8 
REMARK    3  A    between atoms: C3_3  and  C9_9 
REMARK    4  A    between atoms: C6_6  and  C9_9 
ROOT
HETATM    1  C1  UNL     1     -33.538   4.066   4.044  1.00 20.00    -0.111 C 
HETATM    2  C2  UNL     1     -33.604   5.129   3.488  1.00 20.00    -0.100 C 
HETATM    3  C7  UNL     1     -33.458   2.772   4.720  1.00 20.00     0.112 C 
ENDROOT
BRANCH   2   4
HETATM    4  C8  UNL     1     -33.683   6.430   2.816  1.00 20.00     0.172 C 
BRANCH   4   5
HETATM    5  C3  UNL     1     -32.537   6.655   1.845  1.00 20.00     0.138 C 
HETATM    6  O10 UNL     1     -32.051   5.744   1.174  1.00 20.00    -0.297 OA
BRANCH   5   7
HETATM    7  C9  UNL     1     -32.027   8.081   1.756  1.00 20.00     0.083 C 
BRANCH   7   8
HETATM    8  C6  UNL     1     -32.788   8.937   0.793  1.00 20.00    -0.007 A 
HETATM    9  C4  UNL     1     -32.708  10.435   0.884  1.00 20.00     0.005 A 
HETATM   10  C5  UNL     1     -32.060   9.716  -0.266  1.00 20.00     0.005 A 
ENDBRANCH   7   8
ENDBRANCH   5   7
ENDBRANCH   4   5
ENDBRANCH   2   4
TORSDOF 4
ENDMDL
MODEL 8
REMARK VINA RESULT:      -1.5      1.738      2.160
REMARK  4 active torsions:
REMARK  status: ('A' for Active; 'I' for Inactive)
REMARK    1  A    between atoms: C2_2  and  C8_8 
REMARK    2  A    between atoms: C3_3  and  C8_8 
REMARK    3  A    between atoms: C3_3  and  C9_9 
REMARK    4  A    between atoms: C6_6  and  C9_9 
ROOT
HETATM    1  C1  UNL     1     -32.411   9.465   0.513  1.00 20.00    -0.111 C 
HETATM    2  C2  UNL     1     -32.440   8.553   1.294  1.00 20.00    -0.100 C 
HETATM    3  C7  UNL     1     -32.376  10.576  -0.438  1.00 20.00     0.112 C 
ENDROOT
BRANCH   2   4
HETATM    4  C8  UNL     1     -32.481   7.436   2.244  1.00 20.00     0.172 C 
BRANCH   4   5
HETATM    5  C3  UNL     1     -32.863   7.876   3.645  1.00 20.00     0.138 C 
HETATM    6  O10 UNL     1     -32.095   8.506   4.373  1.00 20.00    -0.297 OA
BRANCH   5   7
HETATM    7  C9  UNL     1     -34.259   7.486   4.095  1.00 20.00     0.083 C 
BRANCH   7   8
HETATM    8  C6  UNL     1     -34.721   6.168   3.559  1.00 20.00    -0.007 A 
HETATM    9  C4  UNL     1     -34.078   4.892   4.027  1.00 20.00     0.005 A 
HETATM   10  C5  UNL     1     -35.486   5.219   4.439  1.00 20.00     0.005 A 
ENDBRANCH   7   8
ENDBRANCH   5   7
ENDBRANCH   4   5
ENDBRANCH   2   4
TORSDOF 4
ENDMDL
MODEL 9
REMARK VINA RESULT:      -1.0      1.871      4.077
REMARK  4 active torsions:
REMARK  status: ('A' for Active; 'I' for Inactive)
REMARK    1  A    between atoms: C2_2  and  C8_8 
REMARK    2  A    between atoms: C3_3  and  C8_8 
REMARK    3  A    between atoms: C3_3  and  C9_9 
REMARK    4  A    between atoms: C6_6  and  C9_9 
ROOT
HETATM    1  C1  UNL     1     -34.477   6.771   3.891  1.00 20.00    -0.111 C 
HETATM    2  C2  UNL     1     -33.578   7.507   3.585  1.00 20.00    -0.100 C 
HETATM    3  C7  UNL     1     -35.572   5.876   4.263  1.00 20.00     0.112 C 
ENDROOT
BRANCH   2   4
HETATM    4  C8  UNL     1     -32.480   8.402   3.206  1.00 20.00     0.172 C 
BRANCH   4   5
HETATM    5  C3  UNL     1     -32.143   8.317   1.728  1.00 20.00     0.138 C 
HETATM    6  O10 UNL     1     -32.484   9.181   0.920  1.00 20.00    -0.297 OA
BRANCH   5   7
HETATM    7  C9  UNL     1     -31.355   7.090   1.308  1.00 20.00     0.083 C 
BRANCH   7   8
HETATM    8  C6  UNL     1     -32.079   5.800   1.533  1.00 20.00    -0.007 A 
HETATM    9  C4  UNL     1     -33.217   5.403   0.635  1.00 20.00     0.005 A 
HETATM   10  C5  UNL     1     -31.912   4.659   0.568  1.00 20.00     0.005 A 
ENDBRANCH   7   8
ENDBRANCH   5   7
ENDBRANCH   4   5
ENDBRANCH   2   4
TORSDOF 4
ENDMDL
