MODEL 1
REMARK VINA RESULT:      -0.9      0.000      0.000
REMARK  3 active torsions:
REMARK  status: ('A' for Active; 'I' for Inactive)
REMARK    1  A    between atoms: C1_1  and  C7_7 
REMARK    2  A    between atoms: C2_2  and  C3_3 
REMARK    3  A    between atoms: C3_3  and  C10_10 
ROOT
HETATM    1  C1  UNL     1     -32.132   7.567   1.385  1.00 20.00    -0.012 C 
HETATM    2  C3  UNL     1     -32.946   6.955   2.264  1.00 20.00    -0.020 C 
ENDROOT
BRANCH   2   3
HETATM    3  C2  UNL     1     -33.018   5.474   2.094  1.00 20.00     0.265 C 
HETATM    4  O11 UNL     1     -32.577   4.876   1.120  1.00 20.00    -0.302 OA
ENDBRANCH   2   3
BRANCH   2   5
HETATM    5  C10 UNL     1     -33.753   7.632   3.357  1.00 20.00     0.013 C 
HETATM    6  C8  UNL     1     -32.873   8.101   4.520  1.00 20.00     0.015 C 
HETATM    7  C9  UNL     1     -34.905   6.754   3.854  1.00 20.00     0.015 C 
ENDBRANCH   2   5
BRANCH   1   8
HETATM    8  C7  UNL     1     -31.921   9.032   1.385  1.00 20.00     0.009 C 
HETATM    9  C5  UNL     1     -31.288   9.613   0.095  1.00 20.00     0.008 C 
HETATM   10  C4  UNL     1     -32.712   9.922  -0.406  1.00 20.00     0.001 C 
HETATM   11  C6  UNL     1     -33.173   9.884   1.064  1.00 20.00     0.008 C 
ENDBRANCH   1   8
TORSDOF 3
ENDMDL
MODEL 2
REMARK VINA RESULT:       0.0      1.704      2.731
REMARK  3 active torsions:
REMARK  status: ('A' for Active; 'I' for Inactive)
REMARK    1  A    between atoms: C1_1  and  C7_7 
REMARK    2  A    between atoms: C2_2  and  C3_3 
REMARK    3  A    between atoms: C3_3  and  C10_10 
ROOT
HETATM    1  C1  UNL     1     -32.701   8.393   1.958  1.00 20.00    -0.012 C 
HETATM    2  C3  UNL     1     -32.939   7.071   2.034  1.00 20.00    -0.020 C 
ENDROOT
BRANCH   2   3
HETATM    3  C2  UNL     1     -33.764   6.671   3.211  1.00 20.00     0.265 C 
HETATM    4  O11 UNL     1     -34.203   7.460   4.038  1.00 20.00    -0.302 OA
ENDBRANCH   2   3
BRANCH   2   5
HETATM    5  C10 UNL     1     -32.450   6.017   1.058  1.00 20.00     0.013 C 
HETATM    6  C8  UNL     1     -33.605   5.255   0.401  1.00 20.00     0.015 C 
HETATM    7  C9  UNL     1     -31.447   5.054   1.700  1.00 20.00     0.015 C 
ENDBRANCH   2   5
BRANCH   1   8
HETATM    8  C7  UNL     1     -31.903   8.995   0.867  1.00 20.00     0.009 C 
HETATM    9  C5  UNL     1     -32.529   8.898  -0.548  1.00 20.00     0.008 C 
HETATM   10  C4  UNL     1     -33.111  10.308  -0.336  1.00 20.00     0.001 C 
HETATM   11  C6  UNL     1     -32.019  10.533   0.728  1.00 20.00     0.008 C 
ENDBRANCH   1   8
TORSDOF 3
ENDMDL
MODEL 3
REMARK VINA RESULT:       0.3      1.865      4.126
REMARK  3 active torsions:
REMARK  status: ('A' for Active; 'I' for Inactive)
REMARK    1  A    between atoms: C1_1  and  C7_7 
REMARK    2  A    between atoms: C2_2  and  C3_3 
REMARK    3  A    between atoms: C3_3  and  C10_10 
ROOT
HETATM    1  C1  UNL     1     -32.677   7.861   2.848  1.00 20.00    -0.012 C 
HETATM    2  C3  UNL     1     -32.423   7.265   1.669  1.00 20.00    -0.020 C 
ENDROOT
BRANCH   2   3
HETATM    3  C2  UNL     1     -31.860   8.182   0.635  1.00 20.00     0.265 C 
HETATM    4  O11 UNL     1     -32.246   9.331   0.459  1.00 20.00    -0.302 OA
ENDBRANCH   2   3
BRANCH   2   5
HETATM    5  C10 UNL     1     -32.657   5.803   1.337  1.00 20.00     0.013 C 
HETATM    6  C8  UNL     1     -31.350   5.057   1.050  1.00 20.00     0.015 C 
HETATM    7  C9  UNL     1     -33.659   5.621   0.194  1.00 20.00     0.015 C 
ENDBRANCH   2   5
BRANCH   1   8
HETATM    8  C7  UNL     1     -33.238   7.127   4.004  1.00 20.00     0.009 C 
HETATM    9  C5  UNL     1     -34.524   7.734   4.618  1.00 20.00     0.008 C 
HETATM   10  C4  UNL     1     -35.342   6.767   3.740  1.00 20.00     0.001 C 
HETATM   11  C6  UNL     1     -34.085   5.880   3.653  1.00 20.00     0.008 C 
ENDBRANCH   1   8
TORSDOF 3
ENDMDL
MODEL 4
REMARK VINA RESULT:       0.4      2.712      5.344
REMARK  3 active torsions:
REMARK  status: ('A' for Active; 'I' for Inactive)
REMARK    1  A    between atoms: C1_1  and  C7_7 
REMARK    2  A    between atoms: C2_2  and  C3_3 
REMARK    3  A    between atoms: C3_3  and  C10_10 
ROOT
HETATM    1  C1  UNL     1     -34.082   5.118   3.947  1.00 20.00    -0.012 C 
HETATM    2  C3  UNL     1     -33.699   6.192   3.232  1.00 20.00    -0.020 C 
ENDROOT
BRANCH   2   3
HETATM    3  C2  UNL     1     -34.371   7.461   3.639  1.00 20.00     0.265 C 
HETATM    4  O11 UNL     1     -34.131   8.057   4.682  1.00 20.00    -0.302 OA
ENDBRANCH   2   3
BRANCH   2   5
HETATM    5  C10 UNL     1     -32.686   6.200   2.103  1.00 20.00     0.013 C 
HETATM    6  C8  UNL     1     -32.145   7.604   1.819  1.00 20.00     0.015 C 
HETATM    7  C9  UNL     1     -33.234   5.551   0.829  1.00 20.00     0.015 C 
ENDBRANCH   2   5
BRANCH   1   8
HETATM    8  C7  UNL     1     -33.535   3.765   3.702  1.00 20.00     0.009 C 
HETATM    9  C5  UNL     1     -32.042   3.574   4.071  1.00 20.00     0.008 C 
HETATM   10  C4  UNL     1     -32.499   3.029   5.438  1.00 20.00     0.001 C 
HETATM   11  C6  UNL     1     -33.860   2.710   4.788  1.00 20.00     0.008 C 
ENDBRANCH   1   8
TORSDOF 3
ENDMDL
MODEL 5
REMARK VINA RESULT:       0.5      2.377      4.914
REMARK  3 active torsions:
REMARK  status: ('A' for Active; 'I' for Inactive)
REMARK    1  A    between atoms: C1_1  and  C7_7 
REMARK    2  A    between atoms: C2_2  and  C3_3 
REMARK    3  A    between atoms: C3_3  and  C10_10 
ROOT
HETATM    1  C1  UNL     1     -33.154   4.870   3.005  1.00 20.00    -0.012 C 
HETATM    2  C3  UNL     1     -33.390   6.177   2.792  1.00 20.00    -0.020 C 
ENDROOT
BRANCH   2   3
HETATM    3  C2  UNL     1     -32.557   6.774   1.707  1.00 20.00     0.265 C 
HETATM    4  O11 UNL     1     -31.856   7.768   1.852  1.00 20.00    -0.302 OA
ENDBRANCH   2   3
BRANCH   2   5
HETATM    5  C10 UNL     1     -34.391   7.039   3.538  1.00 20.00     0.013 C 
HETATM    6  C8  UNL     1     -33.756   7.768   4.726  1.00 20.00     0.015 C 
HETATM    7  C9  UNL     1     -35.627   6.247   3.973  1.00 20.00     0.015 C 
ENDBRANCH   2   5
BRANCH   1   8
HETATM    8  C7  UNL     1     -33.875   4.091   4.036  1.00 20.00     0.009 C 
HETATM    9  C5  UNL     1     -33.620   2.563   4.015  1.00 20.00     0.008 C 
HETATM   10  C4  UNL     1     -32.533   2.778   5.086  1.00 20.00     0.001 C 
HETATM   11  C6  UNL     1     -33.235   4.101   5.446  1.00 20.00     0.008 C 
ENDBRANCH   1   8
TORSDOF 3
ENDMDL
MODEL 6
REMARK VINA RESULT:       0.5      1.872      2.716
REMARK  3 active torsions:
REMARK  status: ('A' for Active; 'I' for Inactive)
REMARK    1  A    between atoms: C1_1  and  C7_7 
REMARK    2  A    between atoms: C2_2  and  C3_3 
REMARK    3  A    between atoms: C3_3  and  C10_10 
ROOT
HETATM    1  C1  UNL     1     -32.736   8.279   2.390  1.00 20.00    -0.012 C 
HETATM    2  C3  UNL     1     -33.384   7.253   2.972  1.00 20.00    -0.020 C 
ENDROOT
BRANCH   2   3
HETATM    3  C2  UNL     1     -33.946   7.578   4.316  1.00 20.00     0.265 C 
HETATM    4  O11 UNL     1     -33.322   8.156   5.197  1.00 20.00    -0.302 OA
ENDBRANCH   2   3
BRANCH   2   5
HETATM    5  C10 UNL     1     -33.570   5.866   2.388  1.00 20.00     0.013 C 
HETATM    6  C8  UNL     1     -33.930   4.830   3.458  1.00 20.00     0.015 C 
HETATM    7  C9  UNL     1     -32.357   5.415   1.569  1.00 20.00     0.015 C 
ENDBRANCH   2   5
BRANCH   1   8
HETATM    8  C7  UNL     1     -32.106   8.165   1.056  1.00 20.00     0.009 C 
HETATM    9  C5  UNL     1     -32.972   8.650  -0.134  1.00 20.00     0.008 C 
HETATM   10  C4  UNL     1     -32.265  10.015  -0.031  1.00 20.00     0.001 C 
HETATM   11  C6  UNL     1     -31.111   9.294   0.692  1.00 20.00     0.008 C 
ENDBRANCH   1   8
TORSDOF 3
ENDMDL
MODEL 7
REMARK VINA RESULT:       0.5      2.126      4.784
REMARK  3 active torsions:
REMARK  status: ('A' for Active; 'I' for Inactive)
REMARK    1  A    between atoms: C1_1  and  C7_7 
REMARK    2  A    between atoms: C2_2  and  C3_3 
REMARK    3  A    between atoms: C3_3  and  C10_10 
ROOT
HETATM    1  C1  UNL     1     -33.646   7.226   3.891  1.00 20.00    -0.012 C 
HETATM    2  C3  UNL     1     -32.779   7.868   3.086  1.00 20.00    -0.020 C 
ENDROOT
BRANCH   2   3
HETATM    3  C2  UNL     1     -31.936   8.879   3.789  1.00 20.00     0.265 C 
HETATM    4  O11 UNL     1     -31.862   8.980   5.007  1.00 20.00    -0.302 OA
ENDBRANCH   2   3
BRANCH   2   5
HETATM    5  C10 UNL     1     -32.611   7.647   1.595  1.00 20.00     0.013 C 
HETATM    6  C8  UNL     1     -31.725   6.436   1.285  1.00 20.00     0.015 C 
HETATM    7  C9  UNL     1     -32.104   8.900   0.877  1.00 20.00     0.015 C 
ENDBRANCH   2   5
BRANCH   1   8
HETATM    8  C7  UNL     1     -34.572   6.186   3.391  1.00 20.00     0.009 C 
HETATM    9  C5  UNL     1     -33.945   4.786   3.170  1.00 20.00     0.008 C 
HETATM   10  C4  UNL     1     -34.434   4.398   4.579  1.00 20.00     0.001 C 
HETATM   11  C6  UNL     1     -35.475   5.528   4.463  1.00 20.00     0.008 C 
ENDBRANCH   1   8
TORSDOF 3
ENDMDL
MODEL 8
REMARK VINA RESULT:       0.5      1.664      2.331
REMARK  3 active torsions:
REMARK  status: ('A' for Active; 'I' for Inactive)
REMARK    1  A    between atoms: C1_1  and  C7_7 
REMARK    2  A    between atoms: C2_2  and  C3_3 
REMARK    3  A    between atoms: C3_3  and  C10_10 
ROOT
HETATM    1  C1  UNL     1     -32.881   6.288   2.303  1.00 20.00    -0.012 C 
HETATM    2  C3  UNL     1     -33.721   5.735   3.197  1.00 20.00    -0.020 C 
ENDROOT
BRANCH   2   3
HETATM    3  C2  UNL     1     -33.613   4.250   3.291  1.00 20.00     0.265 C 
HETATM    4  O11 UNL     1     -33.965   3.600   4.268  1.00 20.00    -0.302 OA
ENDBRANCH   2   3
BRANCH   2   5
HETATM    5  C10 UNL     1     -34.717   6.479   4.067  1.00 20.00     0.013 C 
HETATM    6  C8  UNL     1     -36.022   6.782   3.325  1.00 20.00     0.015 C 
HETATM    7  C9  UNL     1     -34.118   7.751   4.674  1.00 20.00     0.015 C 
ENDBRANCH   2   5
BRANCH   1   8
HETATM    8  C7  UNL     1     -32.830   7.746   2.057  1.00 20.00     0.009 C 
HETATM    9  C5  UNL     1     -31.442   8.407   2.256  1.00 20.00     0.008 C 
HETATM   10  C4  UNL     1     -31.202   8.248   0.743  1.00 20.00     0.001 C 
HETATM   11  C6  UNL     1     -32.732   8.167   0.570  1.00 20.00     0.008 C 
ENDBRANCH   1   8
TORSDOF 3
ENDMDL
MODEL 9
REMARK VINA RESULT:       0.6      1.229      3.902
REMARK  3 active torsions:
REMARK  status: ('A' for Active; 'I' for Inactive)
REMARK    1  A    between atoms: C1_1  and  C7_7 
REMARK    2  A    between atoms: C2_2  and  C3_3 
REMARK    3  A    between atoms: C3_3  and  C10_10 
ROOT
HETATM    1  C1  UNL     1     -33.223   5.729   2.652  1.00 20.00    -0.012 C 
HETATM    2  C3  UNL     1     -32.550   6.540   1.815  1.00 20.00    -0.020 C 
ENDROOT
BRANCH   2   3
HETATM    3  C2  UNL     1     -31.980   5.843   0.625  1.00 20.00     0.265 C 
HETATM    4  O11 UNL     1     -31.593   4.681   0.633  1.00 20.00    -0.302 OA
ENDBRANCH   2   3
BRANCH   2   5
HETATM    5  C10 UNL     1     -32.342   8.032   1.990  1.00 20.00     0.013 C 
HETATM    6  C8  UNL     1     -32.212   8.761   0.649  1.00 20.00     0.015 C 
HETATM    7  C9  UNL     1     -31.158   8.348   2.908  1.00 20.00     0.015 C 
ENDBRANCH   2   5
BRANCH   1   8
HETATM    8  C7  UNL     1     -33.865   6.223   3.890  1.00 20.00     0.009 C 
HETATM    9  C5  UNL     1     -34.728   7.499   3.730  1.00 20.00     0.008 C 
HETATM   10  C4  UNL     1     -35.962   6.588   3.577  1.00 20.00     0.001 C 
HETATM   11  C6  UNL     1     -35.164   5.489   4.304  1.00 20.00     0.008 C 
ENDBRANCH   1   8
TORSDOF 3
ENDMDL
