MODEL 1
REMARK VINA RESULT:      -1.1      0.000      0.000
REMARK  6 active torsions:
REMARK  status: ('A' for Active; 'I' for Inactive)
REMARK    1  A    between atoms: C1_1  and  C6_6 
REMARK    2  A    between atoms: C1_1  and  C7_7 
REMARK    3  A    between atoms: C6_6  and  C8_8 
REMARK    4  A    between atoms: C7_7  and  C10_10 
REMARK    5  A    between atoms: C8_8  and  C9_9 
REMARK    6  A    between atoms: C9_9  and  C11_11 
ROOT
HETATM    1  C1  UNL     1     -31.791   7.845   1.820  1.00 20.00     0.127 C 
HETATM    2  O12 UNL     1     -31.044   8.292   2.689  1.00 20.00    -0.298 OA
ENDROOT
BRANCH   1   3
HETATM    3  C6  UNL     1     -31.764   6.384   1.400  1.00 20.00     0.078 C 
BRANCH   3   4
HETATM    4  C8  UNL     1     -33.116   5.695   1.582  1.00 20.00     0.008 C 
BRANCH   4   5
HETATM    5  C9  UNL     1     -33.429   5.472   3.064  1.00 20.00     0.004 C 
BRANCH   5   6
HETATM    6  C11 UNL     1     -34.617   6.309   3.574  1.00 20.00    -0.023 C 
HETATM    7  C4  UNL     1     -35.504   5.453   4.480  1.00 20.00     0.009 C 
HETATM    8  C5  UNL     1     -34.167   7.563   4.327  1.00 20.00     0.009 C 
ENDBRANCH   5   6
ENDBRANCH   4   5
ENDBRANCH   3   4
ENDBRANCH   1   3
BRANCH   1   9
HETATM    9  C7  UNL     1     -32.836   8.707   1.125  1.00 20.00     0.082 C 
BRANCH   9  10
HETATM   10  C10 UNL     1     -32.249   9.909   0.370  1.00 20.00    -0.016 C 
HETATM   11  C2  UNL     1     -32.619  11.209   1.088  1.00 20.00     0.010 C 
HETATM   12  C3  UNL     1     -32.747   9.958  -1.076  1.00 20.00     0.010 C 
ENDBRANCH   9  10
ENDBRANCH   1   9
TORSDOF 6
ENDMDL
MODEL 2
REMARK VINA RESULT:      -1.0      1.263      4.850
REMARK  6 active torsions:
REMARK  status: ('A' for Active; 'I' for Inactive)
REMARK    1  A    between atoms: C1_1  and  C6_6 
REMARK    2  A    between atoms: C1_1  and  C7_7 
REMARK    3  A    between atoms: C6_6  and  C8_8 
REMARK    4  A    between atoms: C7_7  and  C10_10 
REMARK    5  A    between atoms: C8_8  and  C9_9 
REMARK    6  A    between atoms: C9_9  and  C11_11 
ROOT
HETATM    1  C1  UNL     1     -32.904   5.764   1.645  1.00 20.00     0.127 C 
HETATM    2  O12 UNL     1     -33.624   5.409   0.714  1.00 20.00    -0.298 OA
ENDROOT
BRANCH   1   3
HETATM    3  C6  UNL     1     -31.575   6.468   1.419  1.00 20.00     0.078 C 
BRANCH   3   4
HETATM    4  C8  UNL     1     -31.590   7.920   1.897  1.00 20.00     0.008 C 
BRANCH   4   5
HETATM    5  C9  UNL     1     -32.715   8.712   1.225  1.00 20.00     0.004 C 
BRANCH   5   6
HETATM    6  C11 UNL     1     -32.215   9.927   0.422  1.00 20.00    -0.023 C 
HETATM    7  C4  UNL     1     -32.757   9.862  -1.008  1.00 20.00     0.009 C 
HETATM    8  C5  UNL     1     -32.613  11.256   1.066  1.00 20.00     0.009 C 
ENDBRANCH   5   6
ENDBRANCH   4   5
ENDBRANCH   3   4
ENDBRANCH   1   3
BRANCH   1   9
HETATM    9  C7  UNL     1     -33.305   5.573   3.102  1.00 20.00     0.082 C 
BRANCH   9  10
HETATM   10  C10 UNL     1     -34.535   6.391   3.521  1.00 20.00    -0.016 C 
HETATM   11  C2  UNL     1     -34.097   7.636   4.295  1.00 20.00     0.010 C 
HETATM   12  C3  UNL     1     -35.493   5.560   4.378  1.00 20.00     0.010 C 
ENDBRANCH   9  10
ENDBRANCH   1   9
TORSDOF 6
ENDMDL
MODEL 3
REMARK VINA RESULT:      -0.9      0.462      1.131
REMARK  6 active torsions:
REMARK  status: ('A' for Active; 'I' for Inactive)
REMARK    1  A    between atoms: C1_1  and  C6_6 
REMARK    2  A    between atoms: C1_1  and  C7_7 
REMARK    3  A    between atoms: C6_6  and  C8_8 
REMARK    4  A    between atoms: C7_7  and  C10_10 
REMARK    5  A    between atoms: C8_8  and  C9_9 
REMARK    6  A    between atoms: C9_9  and  C11_11 
ROOT
HETATM    1  C1  UNL     1     -31.592   7.907   1.727  1.00 20.00     0.127 C 
HETATM    2  O12 UNL     1     -31.607   8.307   2.889  1.00 20.00    -0.298 OA
ENDROOT
BRANCH   1   3
HETATM    3  C6  UNL     1     -31.732   6.434   1.375  1.00 20.00     0.078 C 
BRANCH   3   4
HETATM    4  C8  UNL     1     -33.167   5.929   1.523  1.00 20.00     0.008 C 
BRANCH   4   5
HETATM    5  C9  UNL     1     -33.473   5.550   2.974  1.00 20.00     0.004 C 
BRANCH   5   6
HETATM    6  C11 UNL     1     -34.675   6.309   3.566  1.00 20.00    -0.023 C 
HETATM    7  C4  UNL     1     -35.469   5.384   4.491  1.00 20.00     0.009 C 
HETATM    8  C5  UNL     1     -34.254   7.566   4.329  1.00 20.00     0.009 C 
ENDBRANCH   5   6
ENDBRANCH   4   5
ENDBRANCH   3   4
ENDBRANCH   1   3
BRANCH   1   9
HETATM    9  C7  UNL     1     -31.478   8.856   0.542  1.00 20.00     0.082 C 
BRANCH   9  10
HETATM   10  C10 UNL     1     -32.680   9.799   0.382  1.00 20.00    -0.016 C 
HETATM   11  C2  UNL     1     -32.912  10.105  -1.099  1.00 20.00     0.010 C 
HETATM   12  C3  UNL     1     -32.472  11.104   1.154  1.00 20.00     0.010 C 
ENDBRANCH   9  10
ENDBRANCH   1   9
TORSDOF 6
ENDMDL
MODEL 4
REMARK VINA RESULT:      -0.9      1.329      4.931
REMARK  6 active torsions:
REMARK  status: ('A' for Active; 'I' for Inactive)
REMARK    1  A    between atoms: C1_1  and  C6_6 
REMARK    2  A    between atoms: C1_1  and  C7_7 
REMARK    3  A    between atoms: C6_6  and  C8_8 
REMARK    4  A    between atoms: C7_7  and  C10_10 
REMARK    5  A    between atoms: C8_8  and  C9_9 
REMARK    6  A    between atoms: C9_9  and  C11_11 
ROOT
HETATM    1  C1  UNL     1     -32.927   5.743   1.659  1.00 20.00     0.127 C 
HETATM    2  O12 UNL     1     -33.589   5.374   0.691  1.00 20.00    -0.298 OA
ENDROOT
BRANCH   1   3
HETATM    3  C6  UNL     1     -31.615   6.495   1.505  1.00 20.00     0.078 C 
BRANCH   3   4
HETATM    4  C8  UNL     1     -31.731   7.967   1.901  1.00 20.00     0.008 C 
BRANCH   4   5
HETATM    5  C9  UNL     1     -31.513   8.883   0.694  1.00 20.00     0.004 C 
BRANCH   5   6
HETATM    6  C11 UNL     1     -32.708   9.810   0.403  1.00 20.00    -0.023 C 
HETATM    7  C4  UNL     1     -32.560  11.111   1.194  1.00 20.00     0.009 C 
HETATM    8  C5  UNL     1     -32.853  10.125  -1.087  1.00 20.00     0.009 C 
ENDBRANCH   5   6
ENDBRANCH   4   5
ENDBRANCH   3   4
ENDBRANCH   1   3
BRANCH   1   9
HETATM    9  C7  UNL     1     -33.389   5.518   3.093  1.00 20.00     0.082 C 
BRANCH   9  10
HETATM   10  C10 UNL     1     -34.598   6.376   3.498  1.00 20.00    -0.016 C 
HETATM   11  C2  UNL     1     -34.124   7.641   4.216  1.00 20.00     0.010 C 
HETATM   12  C3  UNL     1     -35.557   5.597   4.401  1.00 20.00     0.010 C 
ENDBRANCH   9  10
ENDBRANCH   1   9
TORSDOF 6
ENDMDL
MODEL 5
REMARK VINA RESULT:      -0.8      2.265      3.824
REMARK  6 active torsions:
REMARK  status: ('A' for Active; 'I' for Inactive)
REMARK    1  A    between atoms: C1_1  and  C6_6 
REMARK    2  A    between atoms: C1_1  and  C7_7 
REMARK    3  A    between atoms: C6_6  and  C8_8 
REMARK    4  A    between atoms: C7_7  and  C10_10 
REMARK    5  A    between atoms: C8_8  and  C9_9 
REMARK    6  A    between atoms: C9_9  and  C11_11 
ROOT
HETATM    1  C1  UNL     1     -34.236   6.973   3.838  1.00 20.00     0.127 C 
HETATM    2  O12 UNL     1     -33.706   7.614   4.743  1.00 20.00    -0.298 OA
ENDROOT
BRANCH   1   3
HETATM    3  C6  UNL     1     -35.342   5.962   4.101  1.00 20.00     0.078 C 
BRANCH   3   4
HETATM    4  C8  UNL     1     -34.824   4.680   4.752  1.00 20.00     0.008 C 
BRANCH   4   5
HETATM    5  C9  UNL     1     -33.829   3.959   3.839  1.00 20.00     0.004 C 
BRANCH   5   6
HETATM    6  C11 UNL     1     -32.893   2.995   4.592  1.00 20.00    -0.023 C 
HETATM    7  C4  UNL     1     -32.731   3.456   6.042  1.00 20.00     0.009 C 
HETATM    8  C5  UNL     1     -33.397   1.550   4.563  1.00 20.00     0.009 C 
ENDBRANCH   5   6
ENDBRANCH   4   5
ENDBRANCH   3   4
ENDBRANCH   1   3
BRANCH   1   9
HETATM    9  C7  UNL     1     -33.864   7.171   2.375  1.00 20.00     0.082 C 
BRANCH   9  10
HETATM   10  C10 UNL     1     -32.366   6.991   2.084  1.00 20.00    -0.016 C 
HETATM   11  C2  UNL     1     -31.824   8.222   1.356  1.00 20.00     0.010 C 
HETATM   12  C3  UNL     1     -32.107   5.738   1.246  1.00 20.00     0.010 C 
ENDBRANCH   9  10
ENDBRANCH   1   9
TORSDOF 6
ENDMDL
MODEL 6
REMARK VINA RESULT:      -0.8      2.650      5.943
REMARK  6 active torsions:
REMARK  status: ('A' for Active; 'I' for Inactive)
REMARK    1  A    between atoms: C1_1  and  C6_6 
REMARK    2  A    between atoms: C1_1  and  C7_7 
REMARK    3  A    between atoms: C6_6  and  C8_8 
REMARK    4  A    between atoms: C7_7  and  C10_10 
REMARK    5  A    between atoms: C8_8  and  C9_9 
REMARK    6  A    between atoms: C9_9  and  C11_11 
ROOT
HETATM    1  C1  UNL     1     -34.837   5.171   4.129  1.00 20.00     0.127 C 
HETATM    2  O12 UNL     1     -35.772   4.890   4.877  1.00 20.00    -0.298 OA
ENDROOT
BRANCH   1   3
HETATM    3  C6  UNL     1     -34.757   6.500   3.395  1.00 20.00     0.078 C 
BRANCH   3   4
HETATM    4  C8  UNL     1     -33.921   7.536   4.145  1.00 20.00     0.008 C 
BRANCH   4   5
HETATM    5  C9  UNL     1     -32.634   7.866   3.383  1.00 20.00     0.004 C 
BRANCH   5   6
HETATM    6  C11 UNL     1     -32.723   7.572   1.874  1.00 20.00    -0.023 C 
HETATM    7  C4  UNL     1     -32.180   8.763   1.081  1.00 20.00     0.009 C 
HETATM    8  C5  UNL     1     -31.967   6.302   1.480  1.00 20.00     0.009 C 
ENDBRANCH   5   6
ENDBRANCH   4   5
ENDBRANCH   3   4
ENDBRANCH   1   3
BRANCH   1   9
HETATM    9  C7  UNL     1     -33.659   4.231   3.912  1.00 20.00     0.082 C 
BRANCH   9  10
HETATM   10  C10 UNL     1     -33.518   3.150   4.995  1.00 20.00    -0.016 C 
HETATM   11  C2  UNL     1     -32.377   3.511   5.949  1.00 20.00     0.010 C 
HETATM   12  C3  UNL     1     -33.261   1.773   4.379  1.00 20.00     0.010 C 
ENDBRANCH   9  10
ENDBRANCH   1   9
TORSDOF 6
ENDMDL
MODEL 7
REMARK VINA RESULT:      -0.7      2.062      5.463
REMARK  6 active torsions:
REMARK  status: ('A' for Active; 'I' for Inactive)
REMARK    1  A    between atoms: C1_1  and  C6_6 
REMARK    2  A    between atoms: C1_1  and  C7_7 
REMARK    3  A    between atoms: C6_6  and  C8_8 
REMARK    4  A    between atoms: C7_7  and  C10_10 
REMARK    5  A    between atoms: C8_8  and  C9_9 
REMARK    6  A    between atoms: C9_9  and  C11_11 
ROOT
HETATM    1  C1  UNL     1     -35.246   6.201   4.019  1.00 20.00     0.127 C 
HETATM    2  O12 UNL     1     -36.242   6.459   3.345  1.00 20.00    -0.298 OA
ENDROOT
BRANCH   1   3
HETATM    3  C6  UNL     1     -34.239   7.268   4.419  1.00 20.00     0.078 C 
BRANCH   3   4
HETATM    4  C8  UNL     1     -33.799   8.133   3.239  1.00 20.00     0.008 C 
BRANCH   4   5
HETATM    5  C9  UNL     1     -32.272   8.199   3.141  1.00 20.00     0.004 C 
BRANCH   5   6
HETATM    6  C11 UNL     1     -31.743   8.065   1.701  1.00 20.00    -0.023 C 
HETATM    7  C4  UNL     1     -32.105   6.687   1.142  1.00 20.00     0.009 C 
HETATM    8  C5  UNL     1     -32.285   9.156   0.776  1.00 20.00     0.009 C 
ENDBRANCH   5   6
ENDBRANCH   4   5
ENDBRANCH   3   4
ENDBRANCH   1   3
BRANCH   1   9
HETATM    9  C7  UNL     1     -34.962   4.801   4.548  1.00 20.00     0.082 C 
BRANCH   9  10
HETATM   10  C10 UNL     1     -33.577   4.260   4.163  1.00 20.00    -0.016 C 
HETATM   11  C2  UNL     1     -33.439   4.211   2.640  1.00 20.00     0.010 C 
HETATM   12  C3  UNL     1     -33.339   2.867   4.749  1.00 20.00     0.010 C 
ENDBRANCH   9  10
ENDBRANCH   1   9
TORSDOF 6
ENDMDL
MODEL 8
REMARK VINA RESULT:      -0.6      1.490      3.007
REMARK  6 active torsions:
REMARK  status: ('A' for Active; 'I' for Inactive)
REMARK    1  A    between atoms: C1_1  and  C6_6 
REMARK    2  A    between atoms: C1_1  and  C7_7 
REMARK    3  A    between atoms: C6_6  and  C8_8 
REMARK    4  A    between atoms: C7_7  and  C10_10 
REMARK    5  A    between atoms: C8_8  and  C9_9 
REMARK    6  A    between atoms: C9_9  and  C11_11 
ROOT
HETATM    1  C1  UNL     1     -33.374   7.906   3.906  1.00 20.00     0.127 C 
HETATM    2  O12 UNL     1     -32.449   8.372   4.569  1.00 20.00    -0.298 OA
ENDROOT
BRANCH   1   3
HETATM    3  C6  UNL     1     -34.606   7.292   4.553  1.00 20.00     0.078 C 
BRANCH   3   4
HETATM    4  C8  UNL     1     -35.123   6.072   3.792  1.00 20.00     0.008 C 
BRANCH   4   5
HETATM    5  C9  UNL     1     -34.936   4.790   4.608  1.00 20.00     0.004 C 
BRANCH   5   6
HETATM    6  C11 UNL     1     -33.977   3.779   3.953  1.00 20.00    -0.023 C 
HETATM    7  C4  UNL     1     -33.091   4.492   2.929  1.00 20.00     0.009 C 
HETATM    8  C5  UNL     1     -33.102   3.055   4.978  1.00 20.00     0.009 C 
ENDBRANCH   5   6
ENDBRANCH   4   5
ENDBRANCH   3   4
ENDBRANCH   1   3
BRANCH   1   9
HETATM    9  C7  UNL     1     -33.386   7.948   2.384  1.00 20.00     0.082 C 
BRANCH   9  10
HETATM   10  C10 UNL     1     -32.051   8.387   1.763  1.00 20.00    -0.016 C 
HETATM   11  C2  UNL     1     -32.300   9.422   0.664  1.00 20.00     0.010 C 
HETATM   12  C3  UNL     1     -31.284   7.195   1.187  1.00 20.00     0.010 C 
ENDBRANCH   9  10
ENDBRANCH   1   9
TORSDOF 6
ENDMDL
MODEL 9
REMARK VINA RESULT:      -0.6      1.290      1.894
REMARK  6 active torsions:
REMARK  status: ('A' for Active; 'I' for Inactive)
REMARK    1  A    between atoms: C1_1  and  C6_6 
REMARK    2  A    between atoms: C1_1  and  C7_7 
REMARK    3  A    between atoms: C6_6  and  C8_8 
REMARK    4  A    between atoms: C7_7  and  C10_10 
REMARK    5  A    between atoms: C8_8  and  C9_9 
REMARK    6  A    between atoms: C9_9  and  C11_11 
ROOT
HETATM    1  C1  UNL     1     -32.340   7.775   1.967  1.00 20.00     0.127 C 
HETATM    2  O12 UNL     1     -32.921   7.933   3.039  1.00 20.00    -0.298 OA
ENDROOT
BRANCH   1   3
HETATM    3  C6  UNL     1     -32.242   6.416   1.291  1.00 20.00     0.078 C 
BRANCH   3   4
HETATM    4  C8  UNL     1     -33.313   5.440   1.776  1.00 20.00     0.008 C 
BRANCH   4   5
HETATM    5  C9  UNL     1     -32.815   4.616   2.966  1.00 20.00     0.004 C 
BRANCH   5   6
HETATM    6  C11 UNL     1     -33.950   3.976   3.788  1.00 20.00    -0.023 C 
HETATM    7  C4  UNL     1     -33.359   3.068   4.868  1.00 20.00     0.009 C 
HETATM    8  C5  UNL     1     -34.864   5.020   4.433  1.00 20.00     0.009 C 
ENDBRANCH   5   6
ENDBRANCH   4   5
ENDBRANCH   3   4
ENDBRANCH   1   3
BRANCH   1   9
HETATM    9  C7  UNL     1     -31.711   8.933   1.204  1.00 20.00     0.082 C 
BRANCH   9  10
HETATM   10  C10 UNL     1     -32.733   9.907   0.599  1.00 20.00    -0.016 C 
HETATM   11  C2  UNL     1     -32.674   9.845  -0.929  1.00 20.00     0.010 C 
HETATM   12  C3  UNL     1     -32.482  11.342   1.068  1.00 20.00     0.010 C 
ENDBRANCH   9  10
ENDBRANCH   1   9
TORSDOF 6
ENDMDL
