MODEL 1
REMARK VINA RESULT:      -0.4      0.000      0.000
REMARK  2 active torsions:
REMARK  status: ('A' for Active; 'I' for Inactive)
REMARK    1  A    between atoms: C6_6  and  C8_8 
REMARK    2  A    between atoms: C7_7  and  C9_9 
ROOT
HETATM    1  C4  UNL     1     -34.165   6.603   3.108  1.00 20.00     0.034 C 
HETATM    2  C5  UNL     1     -33.758   7.690   4.080  1.00 20.00     0.168 C 
HETATM    3  C7  UNL     1     -32.859   6.330   2.391  1.00 20.00     0.031 C 
HETATM    4  C8  UNL     1     -32.249   7.727   2.290  1.00 20.00     0.130 C 
HETATM    5  O10 UNL     1     -32.705   8.439   3.456  1.00 20.00    -0.385 OA
ENDROOT
BRANCH   4   6
HETATM    6  C6  UNL     1     -32.689   8.518   1.063  1.00 20.00     0.015 C 
HETATM    7  C2  UNL     1     -31.589   8.856   0.023  1.00 20.00     0.007 C 
HETATM    8  C1  UNL     1     -32.299  10.210  -0.179  1.00 20.00     0.001 C 
HETATM    9  C3  UNL     1     -32.861  10.048   1.248  1.00 20.00     0.007 C 
ENDBRANCH   4   6
BRANCH   3  10
HETATM   10  C9  UNL     1     -33.015   5.551   1.097  1.00 20.00     0.121 C 
HETATM   11 CL11 UNL     1     -31.495   4.732   0.682  1.00 20.00    -0.130 Cl
ENDBRANCH   3  10
TORSDOF 2
ENDMDL
MODEL 2
REMARK VINA RESULT:       0.9      2.565      4.714
REMARK  2 active torsions:
REMARK  status: ('A' for Active; 'I' for Inactive)
REMARK    1  A    between atoms: C6_6  and  C8_8 
REMARK    2  A    between atoms: C7_7  and  C9_9 
ROOT
HETATM    1  C4  UNL     1     -33.433   7.710   3.494  1.00 20.00     0.034 C 
HETATM    2  C5  UNL     1     -34.698   7.597   4.317  1.00 20.00     0.168 C 
HETATM    3  C7  UNL     1     -33.656   6.643   2.442  1.00 20.00     0.031 C 
HETATM    4  C8  UNL     1     -34.357   5.545   3.242  1.00 20.00     0.130 C 
HETATM    5  O10 UNL     1     -35.116   6.225   4.259  1.00 20.00    -0.385 OA
ENDROOT
BRANCH   4   6
HETATM    6  C6  UNL     1     -33.410   4.575   3.940  1.00 20.00     0.015 C 
HETATM    7  C2  UNL     1     -33.339   3.137   3.364  1.00 20.00     0.007 C 
HETATM    8  C1  UNL     1     -33.198   2.640   4.817  1.00 20.00     0.001 C 
HETATM    9  C3  UNL     1     -33.924   3.929   5.254  1.00 20.00     0.007 C 
ENDBRANCH   4   6
BRANCH   3  10
HETATM   10  C9  UNL     1     -32.401   6.248   1.684  1.00 20.00     0.121 C 
HETATM   11 CL11 UNL     1     -31.361   7.665   1.431  1.00 20.00    -0.130 Cl
ENDBRANCH   3  10
TORSDOF 2
ENDMDL
MODEL 3
REMARK VINA RESULT:       1.2      2.127      4.179
REMARK  2 active torsions:
REMARK  status: ('A' for Active; 'I' for Inactive)
REMARK    1  A    between atoms: C6_6  and  C8_8 
REMARK    2  A    between atoms: C7_7  and  C9_9 
ROOT
HETATM    1  C4  UNL     1     -32.210   7.040   0.311  1.00 20.00     0.034 C 
HETATM    2  C5  UNL     1     -31.819   5.676   0.839  1.00 20.00     0.168 C 
HETATM    3  C7  UNL     1     -31.935   7.922   1.512  1.00 20.00     0.031 C 
HETATM    4  C8  UNL     1     -32.361   7.026   2.673  1.00 20.00     0.130 C 
HETATM    5  O10 UNL     1     -32.090   5.677   2.248  1.00 20.00    -0.385 OA
ENDROOT
BRANCH   4   6
HETATM    6  C6  UNL     1     -33.842   7.113   3.024  1.00 20.00     0.015 C 
HETATM    7  C2  UNL     1     -34.190   7.554   4.469  1.00 20.00     0.007 C 
HETATM    8  C1  UNL     1     -35.363   6.554   4.414  1.00 20.00     0.001 C 
HETATM    9  C3  UNL     1     -34.557   5.777   3.353  1.00 20.00     0.007 C 
ENDBRANCH   4   6
BRANCH   3  10
HETATM   10  C9  UNL     1     -32.576   9.296   1.431  1.00 20.00     0.121 C 
HETATM   11 CL11 UNL     1     -32.578   9.879  -0.246  1.00 20.00    -0.130 Cl
ENDBRANCH   3  10
TORSDOF 2
ENDMDL
MODEL 4
REMARK VINA RESULT:       1.3      2.427      3.203
REMARK  2 active torsions:
REMARK  status: ('A' for Active; 'I' for Inactive)
REMARK    1  A    between atoms: C6_6  and  C8_8 
REMARK    2  A    between atoms: C7_7  and  C9_9 
ROOT
HETATM    1  C4  UNL     1     -35.424   6.151   4.004  1.00 20.00     0.034 C 
HETATM    2  C5  UNL     1     -34.944   7.587   4.037  1.00 20.00     0.168 C 
HETATM    3  C7  UNL     1     -34.137   5.393   4.253  1.00 20.00     0.031 C 
HETATM    4  C8  UNL     1     -33.116   6.232   3.485  1.00 20.00     0.130 C 
HETATM    5  O10 UNL     1     -33.593   7.589   3.553  1.00 20.00    -0.385 OA
ENDROOT
BRANCH   4   6
HETATM    6  C6  UNL     1     -32.980   5.862   2.012  1.00 20.00     0.015 C 
HETATM    7  C2  UNL     1     -31.965   4.741   1.668  1.00 20.00     0.007 C 
HETATM    8  C1  UNL     1     -31.629   5.538   0.391  1.00 20.00     0.001 C 
HETATM    9  C3  UNL     1     -32.107   6.800   1.139  1.00 20.00     0.007 C 
ENDBRANCH   4   6
BRANCH   3  10
HETATM   10  C9  UNL     1     -34.212   3.916   3.911  1.00 20.00     0.121 C 
HETATM   11 CL11 UNL     1     -33.073   2.991   4.910  1.00 20.00    -0.130 Cl
ENDBRANCH   3  10
TORSDOF 2
ENDMDL
MODEL 5
REMARK VINA RESULT:       1.4      1.836      2.022
REMARK  2 active torsions:
REMARK  status: ('A' for Active; 'I' for Inactive)
REMARK    1  A    between atoms: C6_6  and  C8_8 
REMARK    2  A    between atoms: C7_7  and  C9_9 
ROOT
HETATM    1  C4  UNL     1     -33.237   8.125   4.249  1.00 20.00     0.034 C 
HETATM    2  C5  UNL     1     -31.924   8.871   4.359  1.00 20.00     0.168 C 
HETATM    3  C7  UNL     1     -32.908   7.082   3.201  1.00 20.00     0.031 C 
HETATM    4  C8  UNL     1     -31.998   7.858   2.250  1.00 20.00     0.130 C 
HETATM    5  O10 UNL     1     -31.299   8.814   3.069  1.00 20.00    -0.385 OA
ENDROOT
BRANCH   4   6
HETATM    6  C6  UNL     1     -32.737   8.632   1.163  1.00 20.00     0.015 C 
HETATM    7  C2  UNL     1     -31.994   8.818  -0.185  1.00 20.00     0.007 C 
HETATM    8  C1  UNL     1     -32.628  10.222  -0.256  1.00 20.00     0.001 C 
HETATM    9  C3  UNL     1     -32.727  10.178   1.283  1.00 20.00     0.007 C 
ENDBRANCH   4   6
BRANCH   3  10
HETATM   10  C9  UNL     1     -34.127   6.410   2.593  1.00 20.00     0.121 C 
HETATM   11 CL11 UNL     1     -35.420   6.267   3.801  1.00 20.00    -0.130 Cl
ENDBRANCH   3  10
TORSDOF 2
ENDMDL
MODEL 6
REMARK VINA RESULT:       1.4      1.455      3.800
REMARK  2 active torsions:
REMARK  status: ('A' for Active; 'I' for Inactive)
REMARK    1  A    between atoms: C6_6  and  C8_8 
REMARK    2  A    between atoms: C7_7  and  C9_9 
ROOT
HETATM    1  C4  UNL     1     -31.246   7.365   1.771  1.00 20.00     0.034 C 
HETATM    2  C5  UNL     1     -32.111   8.607   1.749  1.00 20.00     0.168 C 
HETATM    3  C7  UNL     1     -32.213   6.310   1.275  1.00 20.00     0.031 C 
HETATM    4  C8  UNL     1     -33.526   6.749   1.921  1.00 20.00     0.130 C 
HETATM    5  O10 UNL     1     -33.458   8.185   2.012  1.00 20.00    -0.385 OA
ENDROOT
BRANCH   4   6
HETATM    6  C6  UNL     1     -33.748   6.206   3.328  1.00 20.00     0.015 C 
HETATM    7  C2  UNL     1     -34.109   4.702   3.444  1.00 20.00     0.007 C 
HETATM    8  C1  UNL     1     -35.044   5.092   4.607  1.00 20.00     0.001 C 
HETATM    9  C3  UNL     1     -35.126   6.497   3.976  1.00 20.00     0.007 C 
ENDBRANCH   4   6
BRANCH   3  10
HETATM   10  C9  UNL     1     -31.761   4.884   1.535  1.00 20.00     0.121 C 
HETATM   11 CL11 UNL     1     -31.326   4.086   0.010  1.00 20.00    -0.130 Cl
ENDBRANCH   3  10
TORSDOF 2
ENDMDL
MODEL 7
REMARK VINA RESULT:       1.8      2.104      3.428
REMARK  2 active torsions:
REMARK  status: ('A' for Active; 'I' for Inactive)
REMARK    1  A    between atoms: C6_6  and  C8_8 
REMARK    2  A    between atoms: C7_7  and  C9_9 
ROOT
HETATM    1  C4  UNL     1     -32.698   8.040   4.046  1.00 20.00     0.034 C 
HETATM    2  C5  UNL     1     -33.979   7.501   4.646  1.00 20.00     0.168 C 
HETATM    3  C7  UNL     1     -33.071   8.154   2.583  1.00 20.00     0.031 C 
HETATM    4  C8  UNL     1     -33.949   6.921   2.378  1.00 20.00     0.130 C 
HETATM    5  O10 UNL     1     -34.608   6.695   3.639  1.00 20.00    -0.385 OA
ENDROOT
BRANCH   4   6
HETATM    6  C6  UNL     1     -33.181   5.652   2.023  1.00 20.00     0.015 C 
HETATM    7  C2  UNL     1     -31.686   5.827   1.649  1.00 20.00     0.007 C 
HETATM    8  C1  UNL     1     -31.892   4.707   0.608  1.00 20.00     0.001 C 
HETATM    9  C3  UNL     1     -33.385   5.096   0.590  1.00 20.00     0.007 C 
ENDBRANCH   4   6
BRANCH   3  10
HETATM   10  C9  UNL     1     -31.881   8.314   1.652  1.00 20.00     0.121 C 
HETATM   11 CL11 UNL     1     -32.245   9.503   0.385  1.00 20.00    -0.130 Cl
ENDBRANCH   3  10
TORSDOF 2
ENDMDL
MODEL 8
REMARK VINA RESULT:       2.0      2.249      4.218
REMARK  2 active torsions:
REMARK  status: ('A' for Active; 'I' for Inactive)
REMARK    1  A    between atoms: C6_6  and  C8_8 
REMARK    2  A    between atoms: C7_7  and  C9_9 
ROOT
HETATM    1  C4  UNL     1     -32.335   7.951   4.121  1.00 20.00     0.034 C 
HETATM    2  C5  UNL     1     -33.384   8.167   5.191  1.00 20.00     0.168 C 
HETATM    3  C7  UNL     1     -33.177   7.958   2.862  1.00 20.00     0.031 C 
HETATM    4  C8  UNL     1     -34.447   7.244   3.320  1.00 20.00     0.130 C 
HETATM    5  O10 UNL     1     -34.599   7.570   4.715  1.00 20.00    -0.385 OA
ENDROOT
BRANCH   4   6
HETATM    6  C6  UNL     1     -34.392   5.725   3.203  1.00 20.00     0.015 C 
HETATM    7  C2  UNL     1     -34.999   4.914   4.378  1.00 20.00     0.007 C 
HETATM    8  C1  UNL     1     -33.858   3.898   4.170  1.00 20.00     0.001 C 
HETATM    9  C3  UNL     1     -33.040   5.050   3.551  1.00 20.00     0.007 C 
ENDBRANCH   4   6
BRANCH   3  10
HETATM   10  C9  UNL     1     -32.472   7.393   1.641  1.00 20.00     0.121 C 
HETATM   11 CL11 UNL     1     -31.921   8.707   0.583  1.00 20.00    -0.130 Cl
ENDBRANCH   3  10
TORSDOF 2
ENDMDL
MODEL 9
REMARK VINA RESULT:       2.1      2.287      3.027
REMARK  2 active torsions:
REMARK  status: ('A' for Active; 'I' for Inactive)
REMARK    1  A    between atoms: C6_6  and  C8_8 
REMARK    2  A    between atoms: C7_7  and  C9_9 
ROOT
HETATM    1  C4  UNL     1     -33.492   5.433   3.943  1.00 20.00     0.034 C 
HETATM    2  C5  UNL     1     -33.092   4.576   2.761  1.00 20.00     0.168 C 
HETATM    3  C7  UNL     1     -34.360   6.482   3.280  1.00 20.00     0.031 C 
HETATM    4  C8  UNL     1     -33.637   6.705   1.953  1.00 20.00     0.130 C 
HETATM    5  O10 UNL     1     -33.037   5.440   1.616  1.00 20.00    -0.385 OA
ENDROOT
BRANCH   4   6
HETATM    6  C6  UNL     1     -32.525   7.746   2.009  1.00 20.00     0.015 C 
HETATM    7  C2  UNL     1     -32.693   8.993   1.103  1.00 20.00     0.007 C 
HETATM    8  C1  UNL     1     -31.169   8.943   0.875  1.00 20.00     0.001 C 
HETATM    9  C3  UNL     1     -31.242   7.436   1.194  1.00 20.00     0.007 C 
ENDBRANCH   4   6
BRANCH   3  10
HETATM   10  C9  UNL     1     -34.615   7.708   4.140  1.00 20.00     0.121 C 
HETATM   11 CL11 UNL     1     -33.194   8.065   5.142  1.00 20.00    -0.130 Cl
ENDBRANCH   3  10
TORSDOF 2
ENDMDL
