MODEL 1
REMARK VINA RESULT:      -3.2      0.000      0.000
REMARK  3 active torsions:
REMARK  status: ('A' for Active; 'I' for Inactive)
REMARK    1  A    between atoms: C3_3  and  C7_7 
REMARK    2  A    between atoms: C3_3  and  C8_8 
REMARK    3  A    between atoms: C6_6  and  C8_8 
ROOT
HETATM    1  C1  UNL     1     -35.375   5.895   4.160  1.00 20.00     0.012 C 
HETATM    2  C2  UNL     1     -34.499   6.650   3.837  1.00 20.00    -0.110 C 
HETATM    3  C7  UNL     1     -33.429   7.577   3.448  1.00 20.00     0.171 C 
ENDROOT
BRANCH   3   4
HETATM    4  C3  UNL     1     -32.731   7.159   2.166  1.00 20.00     0.138 C 
HETATM    5  O9  UNL     1     -32.808   6.018   1.713  1.00 20.00    -0.297 OA
BRANCH   4   6
HETATM    6  C8  UNL     1     -31.927   8.247   1.477  1.00 20.00     0.083 C 
BRANCH   6   7
HETATM    7  C6  UNL     1     -32.749   9.152   0.616  1.00 20.00    -0.007 A 
HETATM    8  C4  UNL     1     -32.691  10.642   0.809  1.00 20.00     0.005 A 
HETATM    9  C5  UNL     1     -32.088  10.020  -0.420  1.00 20.00     0.005 A 
ENDBRANCH   6   7
ENDBRANCH   4   6
ENDBRANCH   3   4
TORSDOF 3
ENDMDL
MODEL 2
REMARK VINA RESULT:      -3.1      0.934      4.246
REMARK  3 active torsions:
REMARK  status: ('A' for Active; 'I' for Inactive)
REMARK    1  A    between atoms: C3_3  and  C7_7 
REMARK    2  A    between atoms: C3_3  and  C8_8 
REMARK    3  A    between atoms: C6_6  and  C8_8 
ROOT
HETATM    1  C1  UNL     1     -32.484   9.742   0.053  1.00 20.00     0.012 C 
HETATM    2  C2  UNL     1     -32.137   8.933   0.870  1.00 20.00    -0.110 C 
HETATM    3  C7  UNL     1     -31.710   7.950   1.872  1.00 20.00     0.171 C 
ENDROOT
BRANCH   3   4
HETATM    4  C3  UNL     1     -32.278   6.566   1.613  1.00 20.00     0.138 C 
HETATM    5  O9  UNL     1     -31.607   5.656   1.127  1.00 20.00    -0.297 OA
BRANCH   4   6
HETATM    6  C8  UNL     1     -33.736   6.378   1.992  1.00 20.00     0.083 C 
BRANCH   6   7
HETATM    7  C6  UNL     1     -33.966   6.252   3.464  1.00 20.00    -0.007 A 
HETATM    8  C4  UNL     1     -34.397   7.446   4.269  1.00 20.00     0.005 A 
HETATM    9  C5  UNL     1     -35.361   6.319   4.021  1.00 20.00     0.005 A 
ENDBRANCH   6   7
ENDBRANCH   4   6
ENDBRANCH   3   4
TORSDOF 3
ENDMDL
MODEL 3
REMARK VINA RESULT:      -2.9      0.663      4.605
REMARK  3 active torsions:
REMARK  status: ('A' for Active; 'I' for Inactive)
REMARK    1  A    between atoms: C3_3  and  C7_7 
REMARK    2  A    between atoms: C3_3  and  C8_8 
REMARK    3  A    between atoms: C6_6  and  C8_8 
ROOT
HETATM    1  C1  UNL     1     -32.655   9.921  -0.115  1.00 20.00     0.012 C 
HETATM    2  C2  UNL     1     -32.193   9.185   0.713  1.00 20.00    -0.110 C 
HETATM    3  C7  UNL     1     -31.623   8.290   1.727  1.00 20.00     0.171 C 
ENDROOT
BRANCH   3   4
HETATM    4  C3  UNL     1     -32.503   7.084   2.003  1.00 20.00     0.138 C 
HETATM    5  O9  UNL     1     -32.437   6.051   1.337  1.00 20.00    -0.297 OA
BRANCH   4   6
HETATM    6  C8  UNL     1     -33.476   7.236   3.158  1.00 20.00     0.083 C 
BRANCH   6   7
HETATM    7  C6  UNL     1     -34.566   6.212   3.170  1.00 20.00    -0.007 A 
HETATM    8  C4  UNL     1     -34.430   4.969   4.005  1.00 20.00     0.005 A 
HETATM    9  C5  UNL     1     -35.422   6.030   4.393  1.00 20.00     0.005 A 
ENDBRANCH   6   7
ENDBRANCH   4   6
ENDBRANCH   3   4
TORSDOF 3
ENDMDL
MODEL 4
REMARK VINA RESULT:      -2.8      1.221      4.453
REMARK  3 active torsions:
REMARK  status: ('A' for Active; 'I' for Inactive)
REMARK    1  A    between atoms: C3_3  and  C7_7 
REMARK    2  A    between atoms: C3_3  and  C8_8 
REMARK    3  A    between atoms: C6_6  and  C8_8 
ROOT
HETATM    1  C1  UNL     1     -32.743  10.684   0.007  1.00 20.00     0.012 C 
HETATM    2  C2  UNL     1     -32.310   9.595   0.268  1.00 20.00    -0.110 C 
HETATM    3  C7  UNL     1     -31.777   8.264   0.581  1.00 20.00     0.171 C 
ENDROOT
BRANCH   3   4
HETATM    4  C3  UNL     1     -32.125   7.811   1.988  1.00 20.00     0.138 C 
HETATM    5  O9  UNL     1     -31.599   8.298   2.988  1.00 20.00    -0.297 OA
BRANCH   4   6
HETATM    6  C8  UNL     1     -33.168   6.711   2.081  1.00 20.00     0.083 C 
BRANCH   6   7
HETATM    7  C6  UNL     1     -33.669   6.470   3.469  1.00 20.00    -0.007 A 
HETATM    8  C4  UNL     1     -34.403   7.553   4.209  1.00 20.00     0.005 A 
HETATM    9  C5  UNL     1     -35.144   6.336   3.729  1.00 20.00     0.005 A 
ENDBRANCH   6   7
ENDBRANCH   4   6
ENDBRANCH   3   4
TORSDOF 3
ENDMDL
MODEL 5
REMARK VINA RESULT:      -2.8      1.810      2.755
REMARK  3 active torsions:
REMARK  status: ('A' for Active; 'I' for Inactive)
REMARK    1  A    between atoms: C3_3  and  C7_7 
REMARK    2  A    between atoms: C3_3  and  C8_8 
REMARK    3  A    between atoms: C6_6  and  C8_8 
ROOT
HETATM    1  C1  UNL     1     -33.548   3.364   4.439  1.00 20.00     0.012 C 
HETATM    2  C2  UNL     1     -34.242   4.333   4.296  1.00 20.00    -0.110 C 
HETATM    3  C7  UNL     1     -35.096   5.514   4.124  1.00 20.00     0.171 C 
ENDROOT
BRANCH   3   4
HETATM    4  C3  UNL     1     -34.304   6.763   3.779  1.00 20.00     0.138 C 
HETATM    5  O9  UNL     1     -34.313   7.768   4.489  1.00 20.00    -0.297 OA
BRANCH   4   6
HETATM    6  C8  UNL     1     -33.498   6.690   2.494  1.00 20.00     0.083 C 
BRANCH   6   7
HETATM    7  C6  UNL     1     -32.433   7.735   2.390  1.00 20.00    -0.007 A 
HETATM    8  C4  UNL     1     -31.347   7.609   1.358  1.00 20.00     0.005 A 
HETATM    9  C5  UNL     1     -32.402   8.670   1.212  1.00 20.00     0.005 A 
ENDBRANCH   6   7
ENDBRANCH   4   6
ENDBRANCH   3   4
TORSDOF 3
ENDMDL
MODEL 6
REMARK VINA RESULT:      -2.6      2.496      5.453
REMARK  3 active torsions:
REMARK  status: ('A' for Active; 'I' for Inactive)
REMARK    1  A    between atoms: C3_3  and  C7_7 
REMARK    2  A    between atoms: C3_3  and  C8_8 
REMARK    3  A    between atoms: C6_6  and  C8_8 
ROOT
HETATM    1  C1  UNL     1     -31.980   7.634   1.760  1.00 20.00     0.012 C 
HETATM    2  C2  UNL     1     -32.779   7.575   2.655  1.00 20.00    -0.110 C 
HETATM    3  C7  UNL     1     -33.753   7.511   3.750  1.00 20.00     0.171 C 
ENDROOT
BRANCH   3   4
HETATM    4  C3  UNL     1     -34.485   6.182   3.804  1.00 20.00     0.138 C 
HETATM    5  O9  UNL     1     -35.690   6.099   4.037  1.00 20.00    -0.297 OA
BRANCH   4   6
HETATM    6  C8  UNL     1     -33.628   4.954   3.551  1.00 20.00     0.083 C 
BRANCH   6   7
HETATM    7  C6  UNL     1     -33.920   3.813   4.472  1.00 20.00    -0.007 A 
HETATM    8  C4  UNL     1     -33.334   2.454   4.207  1.00 20.00     0.005 A 
HETATM    9  C5  UNL     1     -32.843   3.270   5.371  1.00 20.00     0.005 A 
ENDBRANCH   6   7
ENDBRANCH   4   6
ENDBRANCH   3   4
TORSDOF 3
ENDMDL
MODEL 7
REMARK VINA RESULT:      -2.4      1.447      4.640
REMARK  3 active torsions:
REMARK  status: ('A' for Active; 'I' for Inactive)
REMARK    1  A    between atoms: C3_3  and  C7_7 
REMARK    2  A    between atoms: C3_3  and  C8_8 
REMARK    3  A    between atoms: C6_6  and  C8_8 
ROOT
HETATM    1  C1  UNL     1     -32.424   9.941   0.080  1.00 20.00     0.012 C 
HETATM    2  C2  UNL     1     -32.386   8.990   0.812  1.00 20.00    -0.110 C 
HETATM    3  C7  UNL     1     -32.338   7.824   1.701  1.00 20.00     0.171 C 
ENDROOT
BRANCH   3   4
HETATM    4  C3  UNL     1     -32.355   8.208   3.170  1.00 20.00     0.138 C 
HETATM    5  O9  UNL     1     -31.413   8.784   3.714  1.00 20.00    -0.297 OA
BRANCH   4   6
HETATM    6  C8  UNL     1     -33.614   7.830   3.929  1.00 20.00     0.083 C 
BRANCH   6   7
HETATM    7  C6  UNL     1     -34.365   6.688   3.322  1.00 20.00    -0.007 A 
HETATM    8  C4  UNL     1     -34.107   5.280   3.783  1.00 20.00     0.005 A 
HETATM    9  C5  UNL     1     -35.407   5.955   4.123  1.00 20.00     0.005 A 
ENDBRANCH   6   7
ENDBRANCH   4   6
ENDBRANCH   3   4
TORSDOF 3
ENDMDL
MODEL 8
REMARK VINA RESULT:      -1.8      1.724      2.558
REMARK  3 active torsions:
REMARK  status: ('A' for Active; 'I' for Inactive)
REMARK    1  A    between atoms: C3_3  and  C7_7 
REMARK    2  A    between atoms: C3_3  and  C8_8 
REMARK    3  A    between atoms: C6_6  and  C8_8 
ROOT
HETATM    1  C1  UNL     1     -33.273   2.905   4.692  1.00 20.00     0.012 C 
HETATM    2  C2  UNL     1     -33.803   3.923   4.340  1.00 20.00    -0.110 C 
HETATM    3  C7  UNL     1     -34.456   5.167   3.916  1.00 20.00     0.171 C 
ENDROOT
BRANCH   3   4
HETATM    4  C3  UNL     1     -33.658   5.916   2.863  1.00 20.00     0.138 C 
HETATM    5  O9  UNL     1     -33.085   5.344   1.936  1.00 20.00    -0.297 OA
BRANCH   4   6
HETATM    6  C8  UNL     1     -33.611   7.424   3.031  1.00 20.00     0.083 C 
BRANCH   6   7
HETATM    7  C6  UNL     1     -32.325   8.042   2.584  1.00 20.00    -0.007 A 
HETATM    8  C4  UNL     1     -31.646   7.561   1.332  1.00 20.00     0.005 A 
HETATM    9  C5  UNL     1     -32.289   8.919   1.363  1.00 20.00     0.005 A 
ENDBRANCH   6   7
ENDBRANCH   4   6
ENDBRANCH   3   4
TORSDOF 3
ENDMDL
MODEL 9
REMARK VINA RESULT:      -1.8      1.371      1.482
REMARK  3 active torsions:
REMARK  status: ('A' for Active; 'I' for Inactive)
REMARK    1  A    between atoms: C3_3  and  C7_7 
REMARK    2  A    between atoms: C3_3  and  C8_8 
REMARK    3  A    between atoms: C6_6  and  C8_8 
ROOT
HETATM    1  C1  UNL     1     -34.185   4.368   4.080  1.00 20.00     0.012 C 
HETATM    2  C2  UNL     1     -33.664   5.049   3.239  1.00 20.00    -0.110 C 
HETATM    3  C7  UNL     1     -33.028   5.876   2.207  1.00 20.00     0.171 C 
ENDROOT
BRANCH   3   4
HETATM    4  C3  UNL     1     -32.906   7.333   2.619  1.00 20.00     0.138 C 
HETATM    5  O9  UNL     1     -33.476   7.790   3.609  1.00 20.00    -0.297 OA
BRANCH   4   6
HETATM    6  C8  UNL     1     -32.032   8.193   1.723  1.00 20.00     0.083 C 
BRANCH   6   7
HETATM    7  C6  UNL     1     -32.802   9.031   0.753  1.00 20.00    -0.007 A 
HETATM    8  C4  UNL     1     -32.546  10.509   0.657  1.00 20.00     0.005 A 
HETATM    9  C5  UNL     1     -32.123   9.600  -0.463  1.00 20.00     0.005 A 
ENDBRANCH   6   7
ENDBRANCH   4   6
ENDBRANCH   3   4
TORSDOF 3
ENDMDL
