MODEL 1
REMARK VINA RESULT:      -1.5      0.000      0.000
REMARK  3 active torsions:
REMARK  status: ('A' for Active; 'I' for Inactive)
REMARK    1  A    between atoms: C1_1  and  C6_6 
REMARK    2  A    between atoms: C2_2  and  C8_8 
REMARK    3  A    between atoms: C2_2  and  C9_9 
ROOT
HETATM    1  C1  UNL     1     -33.442   7.136   2.937  1.00 20.00    -0.018 C 
HETATM    2  C2  UNL     1     -32.616   7.133   1.873  1.00 20.00    -0.070 C 
ENDROOT
BRANCH   1   3
HETATM    3  C6  UNL     1     -34.427   6.068   3.185  1.00 20.00     0.008 C 
HETATM    4  C4  UNL     1     -33.905   4.843   3.978  1.00 20.00     0.008 C 
HETATM    5  C3  UNL     1     -35.280   4.800   4.674  1.00 20.00     0.001 C 
HETATM    6  C5  UNL     1     -35.396   6.309   4.369  1.00 20.00     0.008 C 
ENDBRANCH   1   3
BRANCH   2   7
HETATM    7  C8  UNL     1     -32.685   5.991   0.878  1.00 20.00     0.030 C 
HETATM    8  C7  UNL     1     -31.582   4.963   1.090  1.00 20.00     0.010 C 
ENDBRANCH   2   7
BRANCH   2   9
HETATM    9  C9  UNL     1     -31.595   8.205   1.591  1.00 20.00     0.148 C 
HETATM   10 CL10 UNL     1     -32.281   9.451   0.524  1.00 20.00    -0.126 Cl
ENDBRANCH   2   9
TORSDOF 3
ENDMDL
MODEL 2
REMARK VINA RESULT:      -1.1      0.947      1.489
REMARK  3 active torsions:
REMARK  status: ('A' for Active; 'I' for Inactive)
REMARK    1  A    between atoms: C1_1  and  C6_6 
REMARK    2  A    between atoms: C2_2  and  C8_8 
REMARK    3  A    between atoms: C2_2  and  C9_9 
ROOT
HETATM    1  C1  UNL     1     -32.932   8.053   2.530  1.00 20.00    -0.018 C 
HETATM    2  C2  UNL     1     -32.045   7.716   1.574  1.00 20.00    -0.070 C 
ENDROOT
BRANCH   1   3
HETATM    3  C6  UNL     1     -33.434   7.091   3.527  1.00 20.00     0.008 C 
HETATM    4  C4  UNL     1     -34.472   7.648   4.536  1.00 20.00     0.008 C 
HETATM    5  C3  UNL     1     -35.187   6.285   4.439  1.00 20.00     0.001 C 
HETATM    6  C5  UNL     1     -34.553   6.138   3.038  1.00 20.00     0.008 C 
ENDBRANCH   1   3
BRANCH   2   7
HETATM    7  C8  UNL     1     -31.528   6.293   1.505  1.00 20.00     0.030 C 
HETATM    8  C7  UNL     1     -32.422   5.385   0.671  1.00 20.00     0.010 C 
ENDBRANCH   2   7
BRANCH   2   9
HETATM    9  C9  UNL     1     -31.508   8.674   0.544  1.00 20.00     0.148 C 
HETATM   10 CL10 UNL     1     -32.586  10.079   0.379  1.00 20.00    -0.126 Cl
ENDBRANCH   2   9
TORSDOF 3
ENDMDL
MODEL 3
REMARK VINA RESULT:      -0.9      2.594      4.738
REMARK  3 active torsions:
REMARK  status: ('A' for Active; 'I' for Inactive)
REMARK    1  A    between atoms: C1_1  and  C6_6 
REMARK    2  A    between atoms: C2_2  and  C8_8 
REMARK    3  A    between atoms: C2_2  and  C9_9 
ROOT
HETATM    1  C1  UNL     1     -33.309   5.388   2.687  1.00 20.00    -0.018 C 
HETATM    2  C2  UNL     1     -34.232   5.434   3.667  1.00 20.00    -0.070 C 
ENDROOT
BRANCH   1   3
HETATM    3  C6  UNL     1     -33.039   6.526   1.791  1.00 20.00     0.008 C 
HETATM    4  C4  UNL     1     -32.304   7.729   2.435  1.00 20.00     0.008 C 
HETATM    5  C3  UNL     1     -31.542   7.881   1.102  1.00 20.00     0.001 C 
HETATM    6  C5  UNL     1     -31.803   6.378   0.870  1.00 20.00     0.008 C 
ENDBRANCH   1   3
BRANCH   2   7
HETATM    7  C8  UNL     1     -35.037   6.701   3.874  1.00 20.00     0.030 C 
HETATM    8  C7  UNL     1     -34.312   7.720   4.743  1.00 20.00     0.010 C 
ENDBRANCH   2   7
BRANCH   2   9
HETATM    9  C9  UNL     1     -34.530   4.292   4.603  1.00 20.00     0.148 C 
HETATM   10 CL10 UNL     1     -33.197   3.113   4.589  1.00 20.00    -0.126 Cl
ENDBRANCH   2   9
TORSDOF 3
ENDMDL
MODEL 4
REMARK VINA RESULT:      -0.8      2.252      4.420
REMARK  3 active torsions:
REMARK  status: ('A' for Active; 'I' for Inactive)
REMARK    1  A    between atoms: C1_1  and  C6_6 
REMARK    2  A    between atoms: C2_2  and  C8_8 
REMARK    3  A    between atoms: C2_2  and  C9_9 
ROOT
HETATM    1  C1  UNL     1     -33.045   8.068   2.079  1.00 20.00    -0.018 C 
HETATM    2  C2  UNL     1     -32.902   6.734   2.197  1.00 20.00    -0.070 C 
ENDROOT
BRANCH   1   3
HETATM    3  C6  UNL     1     -32.228   8.880   1.160  1.00 20.00     0.008 C 
HETATM    4  C4  UNL     1     -32.630   8.813  -0.335  1.00 20.00     0.008 C 
HETATM    5  C3  UNL     1     -32.290  10.315  -0.417  1.00 20.00     0.001 C 
HETATM    6  C5  UNL     1     -32.584  10.386   1.097  1.00 20.00     0.008 C 
ENDBRANCH   1   3
BRANCH   2   7
HETATM    7  C8  UNL     1     -31.863   6.018   1.357  1.00 20.00     0.030 C 
HETATM    8  C7  UNL     1     -32.436   4.816   0.618  1.00 20.00     0.010 C 
ENDBRANCH   2   7
BRANCH   2   9
HETATM    9  C9  UNL     1     -33.723   5.874   3.122  1.00 20.00     0.148 C 
HETATM   10 CL10 UNL     1     -34.907   6.865   4.004  1.00 20.00    -0.126 Cl
ENDBRANCH   2   9
TORSDOF 3
ENDMDL
MODEL 5
REMARK VINA RESULT:      -0.8      2.425      4.821
REMARK  3 active torsions:
REMARK  status: ('A' for Active; 'I' for Inactive)
REMARK    1  A    between atoms: C1_1  and  C6_6 
REMARK    2  A    between atoms: C2_2  and  C8_8 
REMARK    3  A    between atoms: C2_2  and  C9_9 
ROOT
HETATM    1  C1  UNL     1     -32.584   7.075   1.923  1.00 20.00    -0.018 C 
HETATM    2  C2  UNL     1     -33.431   6.841   2.945  1.00 20.00    -0.070 C 
ENDROOT
BRANCH   1   3
HETATM    3  C6  UNL     1     -32.084   8.421   1.593  1.00 20.00     0.008 C 
HETATM    4  C4  UNL     1     -31.362   8.554   0.228  1.00 20.00     0.008 C 
HETATM    5  C3  UNL     1     -32.030   9.938   0.094  1.00 20.00     0.001 C 
HETATM    6  C5  UNL     1     -33.136   9.410   1.032  1.00 20.00     0.008 C 
ENDBRANCH   1   3
BRANCH   2   7
HETATM    7  C8  UNL     1     -33.900   7.999   3.804  1.00 20.00     0.030 C 
HETATM    8  C7  UNL     1     -33.081   8.151   5.078  1.00 20.00     0.010 C 
ENDBRANCH   2   7
BRANCH   2   9
HETATM    9  C9  UNL     1     -33.957   5.478   3.312  1.00 20.00     0.148 C 
HETATM   10 CL10 UNL     1     -35.437   5.625   4.287  1.00 20.00    -0.126 Cl
ENDBRANCH   2   9
TORSDOF 3
ENDMDL
MODEL 6
REMARK VINA RESULT:      -0.4      2.261      4.780
REMARK  3 active torsions:
REMARK  status: ('A' for Active; 'I' for Inactive)
REMARK    1  A    between atoms: C1_1  and  C6_6 
REMARK    2  A    between atoms: C2_2  and  C8_8 
REMARK    3  A    between atoms: C2_2  and  C9_9 
ROOT
HETATM    1  C1  UNL     1     -32.151   7.614   1.104  1.00 20.00    -0.018 C 
HETATM    2  C2  UNL     1     -32.712   6.973   2.148  1.00 20.00    -0.070 C 
ENDROOT
BRANCH   1   3
HETATM    3  C6  UNL     1     -31.934   9.071   1.084  1.00 20.00     0.008 C 
HETATM    4  C4  UNL     1     -31.692   9.696  -0.313  1.00 20.00     0.008 C 
HETATM    5  C3  UNL     1     -32.521  10.905   0.166  1.00 20.00     0.001 C 
HETATM    6  C5  UNL     1     -33.213   9.942   1.153  1.00 20.00     0.008 C 
ENDBRANCH   1   3
BRANCH   2   7
HETATM    7  C8  UNL     1     -33.144   7.767   3.365  1.00 20.00     0.030 C 
HETATM    8  C7  UNL     1     -34.413   7.216   4.002  1.00 20.00     0.010 C 
ENDBRANCH   2   7
BRANCH   2   9
HETATM    9  C9  UNL     1     -32.943   5.486   2.203  1.00 20.00     0.148 C 
HETATM   10 CL10 UNL     1     -32.416   4.719   0.687  1.00 20.00    -0.126 Cl
ENDBRANCH   2   9
TORSDOF 3
ENDMDL
MODEL 7
REMARK VINA RESULT:      -0.2      1.248      2.259
REMARK  3 active torsions:
REMARK  status: ('A' for Active; 'I' for Inactive)
REMARK    1  A    between atoms: C1_1  and  C6_6 
REMARK    2  A    between atoms: C2_2  and  C8_8 
REMARK    3  A    between atoms: C2_2  and  C9_9 
ROOT
HETATM    1  C1  UNL     1     -33.364   6.966   2.153  1.00 20.00    -0.018 C 
HETATM    2  C2  UNL     1     -32.371   7.869   2.033  1.00 20.00    -0.070 C 
ENDROOT
BRANCH   1   3
HETATM    3  C6  UNL     1     -33.745   6.365   3.443  1.00 20.00     0.008 C 
HETATM    4  C4  UNL     1     -35.254   6.421   3.792  1.00 20.00     0.008 C 
HETATM    5  C3  UNL     1     -35.089   5.015   4.404  1.00 20.00     0.001 C 
HETATM    6  C5  UNL     1     -33.893   4.823   3.448  1.00 20.00     0.008 C 
ENDBRANCH   1   3
BRANCH   2   7
HETATM    7  C8  UNL     1     -31.601   8.297   3.267  1.00 20.00     0.030 C 
HETATM    8  C7  UNL     1     -32.514   8.626   4.441  1.00 20.00     0.010 C 
ENDBRANCH   2   7
BRANCH   2   9
HETATM    9  C9  UNL     1     -31.960   8.506   0.732  1.00 20.00     0.148 C 
HETATM   10 CL10 UNL     1     -32.692  10.119   0.571  1.00 20.00    -0.126 Cl
ENDBRANCH   2   9
TORSDOF 3
ENDMDL
MODEL 8
REMARK VINA RESULT:      -0.1      2.386      4.691
REMARK  3 active torsions:
REMARK  status: ('A' for Active; 'I' for Inactive)
REMARK    1  A    between atoms: C1_1  and  C6_6 
REMARK    2  A    between atoms: C2_2  and  C8_8 
REMARK    3  A    between atoms: C2_2  and  C9_9 
ROOT
HETATM    1  C1  UNL     1     -32.960   8.510   2.147  1.00 20.00    -0.018 C 
HETATM    2  C2  UNL     1     -33.296   7.279   2.583  1.00 20.00    -0.070 C 
ENDROOT
BRANCH   1   3
HETATM    3  C6  UNL     1     -32.626   8.794   0.741  1.00 20.00     0.008 C 
HETATM    4  C4  UNL     1     -32.797  10.268   0.294  1.00 20.00     0.008 C 
HETATM    5  C3  UNL     1     -31.527  10.079  -0.561  1.00 20.00     0.001 C 
HETATM    6  C5  UNL     1     -31.118   8.968   0.430  1.00 20.00     0.008 C 
ENDBRANCH   1   3
BRANCH   2   7
HETATM    7  C8  UNL     1     -33.338   6.126   1.600  1.00 20.00     0.030 C 
HETATM    8  C7  UNL     1     -31.994   5.422   1.468  1.00 20.00     0.010 C 
ENDBRANCH   2   7
BRANCH   2   9
HETATM    9  C9  UNL     1     -33.648   6.955   4.011  1.00 20.00     0.148 C 
HETATM   10 CL10 UNL     1     -35.268   6.227   4.102  1.00 20.00    -0.126 Cl
ENDBRANCH   2   9
TORSDOF 3
ENDMDL
MODEL 9
REMARK VINA RESULT:       0.0      1.003      2.071
REMARK  3 active torsions:
REMARK  status: ('A' for Active; 'I' for Inactive)
REMARK    1  A    between atoms: C1_1  and  C6_6 
REMARK    2  A    between atoms: C2_2  and  C8_8 
REMARK    3  A    between atoms: C2_2  and  C9_9 
ROOT
HETATM    1  C1  UNL     1     -33.119   6.089   2.149  1.00 20.00    -0.018 C 
HETATM    2  C2  UNL     1     -32.814   7.358   2.485  1.00 20.00    -0.070 C 
ENDROOT
BRANCH   1   3
HETATM    3  C6  UNL     1     -34.214   5.337   2.786  1.00 20.00     0.008 C 
HETATM    4  C4  UNL     1     -33.803   4.424   3.969  1.00 20.00     0.008 C 
HETATM    5  C3  UNL     1     -35.126   4.833   4.648  1.00 20.00     0.001 C 
HETATM    6  C5  UNL     1     -35.067   6.128   3.809  1.00 20.00     0.008 C 
ENDBRANCH   1   3
BRANCH   2   7
HETATM    7  C8  UNL     1     -33.620   8.059   3.560  1.00 20.00     0.030 C 
HETATM    8  C7  UNL     1     -32.807   8.324   4.821  1.00 20.00     0.010 C 
ENDBRANCH   2   7
BRANCH   2   9
HETATM    9  C9  UNL     1     -31.705   8.157   1.851  1.00 20.00     0.148 C 
HETATM   10 CL10 UNL     1     -32.371   9.349   0.712  1.00 20.00    -0.126 Cl
ENDBRANCH   2   9
TORSDOF 3
ENDMDL
