MODEL 1
REMARK VINA RESULT:      -0.2      0.000      0.000
REMARK  3 active torsions:
REMARK  status: ('A' for Active; 'I' for Inactive)
REMARK    1  A    between atoms: C3_3  and  C8_8 
REMARK    2  A    between atoms: C8_8  and  C9_9 
REMARK    3  A    between atoms: C8_8  and  O10_10 
ROOT
HETATM    1  C8  UNL     1     -33.147   5.845   3.194  1.00 20.00     0.133 C 
ENDROOT
BRANCH   1   2
HETATM    2  C3  UNL     1     -34.201   6.794   3.759  1.00 20.00    -0.017 A 
HETATM    3  C1  UNL     1     -34.091   8.261   3.413  1.00 20.00     0.012 A 
HETATM    4  C2  UNL     1     -33.764   7.797   4.803  1.00 20.00     0.012 A 
HETATM    5  C4  UNL     1     -35.576   6.200   3.885  1.00 20.00     0.018 C 
ENDBRANCH   1   2
BRANCH   1   6
HETATM    6  C9  UNL     1     -32.719   6.115   1.720  1.00 20.00    -0.025 C 
HETATM    7  C5  UNL     1     -32.012   7.478   1.605  1.00 20.00     0.017 C 
HETATM    8  C6  UNL     1     -31.729   5.019   1.272  1.00 20.00     0.017 C 
HETATM    9  C7  UNL     1     -33.917   6.097   0.752  1.00 20.00     0.017 C 
ENDBRANCH   1   6
BRANCH   1  10
HETATM   10  O10 UNL     1     -33.633   4.508   3.342  1.00 20.00    -0.394 OA
HETATM   11  H28 UNL     1     -33.634   4.323   4.292  1.00 20.00     0.210 HD
ENDBRANCH   1  10
TORSDOF 3
ENDMDL
MODEL 2
REMARK VINA RESULT:       0.2      0.431      1.496
REMARK  3 active torsions:
REMARK  status: ('A' for Active; 'I' for Inactive)
REMARK    1  A    between atoms: C3_3  and  C8_8 
REMARK    2  A    between atoms: C8_8  and  C9_9 
REMARK    3  A    between atoms: C8_8  and  O10_10 
ROOT
HETATM    1  C8  UNL     1     -33.203   5.767   3.179  1.00 20.00     0.133 C 
ENDROOT
BRANCH   1   2
HETATM    2  C3  UNL     1     -34.285   6.661   3.781  1.00 20.00    -0.017 A 
HETATM    3  C1  UNL     1     -35.475   5.994   4.430  1.00 20.00     0.012 A 
HETATM    4  C2  UNL     1     -35.638   6.687   3.108  1.00 20.00     0.012 A 
HETATM    5  C4  UNL     1     -33.775   7.939   4.388  1.00 20.00     0.018 C 
ENDBRANCH   1   2
BRANCH   1   6
HETATM    6  C9  UNL     1     -32.754   6.135   1.733  1.00 20.00    -0.025 C 
HETATM    7  C5  UNL     1     -32.211   7.576   1.688  1.00 20.00     0.017 C 
HETATM    8  C6  UNL     1     -31.623   5.180   1.297  1.00 20.00     0.017 C 
HETATM    9  C7  UNL     1     -33.903   6.009   0.715  1.00 20.00     0.017 C 
ENDBRANCH   1   6
BRANCH   1  10
HETATM   10  O10 UNL     1     -33.667   4.416   3.235  1.00 20.00    -0.394 OA
HETATM   11  H28 UNL     1     -32.982   3.877   2.813  1.00 20.00     0.210 HD
ENDBRANCH   1  10
TORSDOF 3
ENDMDL
MODEL 3
REMARK VINA RESULT:       0.6      1.417      3.419
REMARK  3 active torsions:
REMARK  status: ('A' for Active; 'I' for Inactive)
REMARK    1  A    between atoms: C3_3  and  C8_8 
REMARK    2  A    between atoms: C8_8  and  C9_9 
REMARK    3  A    between atoms: C8_8  and  O10_10 
ROOT
HETATM    1  C8  UNL     1     -33.305   6.909   1.905  1.00 20.00     0.133 C 
ENDROOT
BRANCH   1   2
HETATM    2  C3  UNL     1     -32.317   8.069   1.809  1.00 20.00    -0.017 A 
HETATM    3  C1  UNL     1     -32.839   9.407   1.342  1.00 20.00     0.012 A 
HETATM    4  C2  UNL     1     -31.967   8.589   0.433  1.00 20.00     0.012 A 
HETATM    5  C4  UNL     1     -31.235   8.059   2.854  1.00 20.00     0.018 C 
ENDBRANCH   1   2
BRANCH   1   6
HETATM    6  C9  UNL     1     -34.014   6.742   3.283  1.00 20.00    -0.025 C 
HETATM    7  C5  UNL     1     -35.538   6.903   3.129  1.00 20.00     0.017 C 
HETATM    8  C6  UNL     1     -33.733   5.326   3.829  1.00 20.00     0.017 C 
HETATM    9  C7  UNL     1     -33.514   7.761   4.324  1.00 20.00     0.017 C 
ENDBRANCH   1   6
BRANCH   1  10
HETATM   10  O10 UNL     1     -32.614   5.710   1.545  1.00 20.00    -0.394 OA
HETATM   11  H28 UNL     1     -31.724   5.788   1.917  1.00 20.00     0.210 HD
ENDBRANCH   1  10
TORSDOF 3
ENDMDL
MODEL 4
REMARK VINA RESULT:       0.8      1.525      2.362
REMARK  3 active torsions:
REMARK  status: ('A' for Active; 'I' for Inactive)
REMARK    1  A    between atoms: C3_3  and  C8_8 
REMARK    2  A    between atoms: C8_8  and  C9_9 
REMARK    3  A    between atoms: C8_8  and  O10_10 
ROOT
HETATM    1  C8  UNL     1     -33.425   7.044   2.268  1.00 20.00     0.133 C 
ENDROOT
BRANCH   1   2
HETATM    2  C3  UNL     1     -34.168   7.008   3.602  1.00 20.00    -0.017 A 
HETATM    3  C1  UNL     1     -34.800   5.703   4.024  1.00 20.00     0.012 A 
HETATM    4  C2  UNL     1     -35.670   6.841   3.572  1.00 20.00     0.012 A 
HETATM    5  C4  UNL     1     -33.577   7.885   4.671  1.00 20.00     0.018 C 
ENDBRANCH   1   2
BRANCH   1   6
HETATM    6  C9  UNL     1     -32.883   5.674   1.762  1.00 20.00    -0.025 C 
HETATM    7  C5  UNL     1     -33.675   5.204   0.527  1.00 20.00     0.017 C 
HETATM    8  C6  UNL     1     -31.404   5.834   1.353  1.00 20.00     0.017 C 
HETATM    9  C7  UNL     1     -32.962   4.580   2.843  1.00 20.00     0.017 C 
ENDBRANCH   1   6
BRANCH   1  10
HETATM   10  O10 UNL     1     -32.364   7.996   2.380  1.00 20.00    -0.394 OA
HETATM   11  H28 UNL     1     -31.847   7.923   1.565  1.00 20.00     0.210 HD
ENDBRANCH   1  10
TORSDOF 3
ENDMDL
MODEL 5
REMARK VINA RESULT:       0.8      1.418      3.411
REMARK  3 active torsions:
REMARK  status: ('A' for Active; 'I' for Inactive)
REMARK    1  A    between atoms: C3_3  and  C8_8 
REMARK    2  A    between atoms: C8_8  and  C9_9 
REMARK    3  A    between atoms: C8_8  and  O10_10 
ROOT
HETATM    1  C8  UNL     1     -33.284   6.885   1.908  1.00 20.00     0.133 C 
ENDROOT
BRANCH   1   2
HETATM    2  C3  UNL     1     -32.309   8.058   1.817  1.00 20.00    -0.017 A 
HETATM    3  C1  UNL     1     -32.849   9.392   1.360  1.00 20.00     0.012 A 
HETATM    4  C2  UNL     1     -31.969   8.591   0.444  1.00 20.00     0.012 A 
HETATM    5  C4  UNL     1     -31.226   8.054   2.860  1.00 20.00     0.018 C 
ENDBRANCH   1   2
BRANCH   1   6
HETATM    6  C9  UNL     1     -34.004   6.714   3.280  1.00 20.00    -0.025 C 
HETATM    7  C5  UNL     1     -33.500   7.763   4.288  1.00 20.00     0.017 C 
HETATM    8  C6  UNL     1     -35.521   6.924   3.084  1.00 20.00     0.017 C 
HETATM    9  C7  UNL     1     -33.792   5.312   3.880  1.00 20.00     0.017 C 
ENDBRANCH   1   6
BRANCH   1  10
HETATM   10  O10 UNL     1     -32.574   5.694   1.559  1.00 20.00    -0.394 OA
HETATM   11  H28 UNL     1     -33.050   5.304   0.812  1.00 20.00     0.210 HD
ENDBRANCH   1  10
TORSDOF 3
ENDMDL
MODEL 6
REMARK VINA RESULT:       0.8      1.408      3.409
REMARK  3 active torsions:
REMARK  status: ('A' for Active; 'I' for Inactive)
REMARK    1  A    between atoms: C3_3  and  C8_8 
REMARK    2  A    between atoms: C8_8  and  C9_9 
REMARK    3  A    between atoms: C8_8  and  O10_10 
ROOT
HETATM    1  C8  UNL     1     -33.282   6.877   1.900  1.00 20.00     0.133 C 
ENDROOT
BRANCH   1   2
HETATM    2  C3  UNL     1     -32.311   8.053   1.817  1.00 20.00    -0.017 A 
HETATM    3  C1  UNL     1     -32.854   9.387   1.361  1.00 20.00     0.012 A 
HETATM    4  C2  UNL     1     -31.966   8.591   0.447  1.00 20.00     0.012 A 
HETATM    5  C4  UNL     1     -31.233   8.051   2.866  1.00 20.00     0.018 C 
ENDBRANCH   1   2
BRANCH   1   6
HETATM    6  C9  UNL     1     -34.013   6.704   3.266  1.00 20.00    -0.025 C 
HETATM    7  C5  UNL     1     -33.741   5.305   3.850  1.00 20.00     0.017 C 
HETATM    8  C6  UNL     1     -33.479   7.754   4.262  1.00 20.00     0.017 C 
HETATM    9  C7  UNL     1     -35.536   6.898   3.141  1.00 20.00     0.017 C 
ENDBRANCH   1   6
BRANCH   1  10
HETATM   10  O10 UNL     1     -32.564   5.689   1.558  1.00 20.00    -0.394 OA
HETATM   11  H28 UNL     1     -32.176   5.848   0.685  1.00 20.00     0.210 HD
ENDBRANCH   1  10
TORSDOF 3
ENDMDL
MODEL 7
REMARK VINA RESULT:       0.9      1.836      2.928
REMARK  3 active torsions:
REMARK  status: ('A' for Active; 'I' for Inactive)
REMARK    1  A    between atoms: C3_3  and  C8_8 
REMARK    2  A    between atoms: C8_8  and  C9_9 
REMARK    3  A    between atoms: C8_8  and  O10_10 
ROOT
HETATM    1  C8  UNL     1     -33.795   7.958   2.458  1.00 20.00     0.133 C 
ENDROOT
BRANCH   1   2
HETATM    2  C3  UNL     1     -34.045   7.203   3.763  1.00 20.00    -0.017 A 
HETATM    3  C1  UNL     1     -33.978   5.695   3.732  1.00 20.00     0.012 A 
HETATM    4  C2  UNL     1     -35.307   6.379   3.873  1.00 20.00     0.012 A 
HETATM    5  C4  UNL     1     -33.552   7.907   4.997  1.00 20.00     0.018 C 
ENDBRANCH   1   2
BRANCH   1   6
HETATM    6  C9  UNL     1     -32.342   7.875   1.901  1.00 20.00    -0.025 C 
HETATM    7  C5  UNL     1     -32.034   6.448   1.411  1.00 20.00     0.017 C 
HETATM    8  C6  UNL     1     -32.206   8.837   0.701  1.00 20.00     0.017 C 
HETATM    9  C7  UNL     1     -31.290   8.274   2.952  1.00 20.00     0.017 C 
ENDBRANCH   1   6
BRANCH   1  10
HETATM   10  O10 UNL     1     -34.183   9.320   2.656  1.00 20.00    -0.394 OA
HETATM   11  H28 UNL     1     -34.784   9.323   3.415  1.00 20.00     0.210 HD
ENDBRANCH   1  10
TORSDOF 3
ENDMDL
MODEL 8
REMARK VINA RESULT:       1.0      1.685      3.886
REMARK  3 active torsions:
REMARK  status: ('A' for Active; 'I' for Inactive)
REMARK    1  A    between atoms: C3_3  and  C8_8 
REMARK    2  A    between atoms: C8_8  and  C9_9 
REMARK    3  A    between atoms: C8_8  and  O10_10 
ROOT
HETATM    1  C8  UNL     1     -32.463   7.431   3.345  1.00 20.00     0.133 C 
ENDROOT
BRANCH   1   2
HETATM    2  C3  UNL     1     -32.384   7.161   1.844  1.00 20.00    -0.017 A 
HETATM    3  C1  UNL     1     -33.303   6.111   1.264  1.00 20.00     0.012 A 
HETATM    4  C2  UNL     1     -31.833   5.828   1.392  1.00 20.00     0.012 A 
HETATM    5  C4  UNL     1     -32.078   8.371   1.005  1.00 20.00     0.018 C 
ENDBRANCH   1   2
BRANCH   1   6
HETATM    6  C9  UNL     1     -33.897   7.646   3.916  1.00 20.00    -0.025 C 
HETATM    7  C5  UNL     1     -34.687   6.324   3.899  1.00 20.00     0.017 C 
HETATM    8  C6  UNL     1     -33.792   8.126   5.379  1.00 20.00     0.017 C 
HETATM    9  C7  UNL     1     -34.688   8.704   3.124  1.00 20.00     0.017 C 
ENDBRANCH   1   6
BRANCH   1  10
HETATM   10  O10 UNL     1     -31.630   8.557   3.634  1.00 20.00    -0.394 OA
HETATM   11  H28 UNL     1     -31.622   8.648   4.598  1.00 20.00     0.210 HD
ENDBRANCH   1  10
TORSDOF 3
ENDMDL
MODEL 9
REMARK VINA RESULT:       1.2      1.623      2.387
REMARK  3 active torsions:
REMARK  status: ('A' for Active; 'I' for Inactive)
REMARK    1  A    between atoms: C3_3  and  C8_8 
REMARK    2  A    between atoms: C8_8  and  C9_9 
REMARK    3  A    between atoms: C8_8  and  O10_10 
ROOT
HETATM    1  C8  UNL     1     -33.308   7.839   3.311  1.00 20.00     0.133 C 
ENDROOT
BRANCH   1   2
HETATM    2  C3  UNL     1     -34.122   6.554   3.447  1.00 20.00    -0.017 A 
HETATM    3  C1  UNL     1     -35.578   6.593   3.045  1.00 20.00     0.012 A 
HETATM    4  C2  UNL     1     -35.207   6.511   4.498  1.00 20.00     0.012 A 
HETATM    5  C4  UNL     1     -33.350   5.292   3.179  1.00 20.00     0.018 C 
ENDBRANCH   1   2
BRANCH   1   6
HETATM    6  C9  UNL     1     -32.330   7.890   2.099  1.00 20.00    -0.025 C 
HETATM    7  C5  UNL     1     -32.755   8.990   1.109  1.00 20.00     0.017 C 
HETATM    8  C6  UNL     1     -30.911   8.223   2.608  1.00 20.00     0.017 C 
HETATM    9  C7  UNL     1     -32.262   6.548   1.346  1.00 20.00     0.017 C 
ENDBRANCH   1   6
BRANCH   1  10
HETATM   10  O10 UNL     1     -32.603   8.045   4.538  1.00 20.00    -0.394 OA
HETATM   11  H28 UNL     1     -32.721   7.237   5.058  1.00 20.00     0.210 HD
ENDBRANCH   1  10
TORSDOF 3
ENDMDL
