MODEL 1
REMARK VINA RESULT:       0.0      0.000      0.000
REMARK  4 active torsions:
REMARK  status: ('A' for Active; 'I' for Inactive)
REMARK    1  A    between atoms: C1_1  and  C4_4 
REMARK    2  A    between atoms: C1_1  and  C9_9 
REMARK    3  A    between atoms: C9_9  and  C10_10 
REMARK    4  A    between atoms: C10_10  and  C11_11 
ROOT
HETATM    1  C1  UNL     1     -33.114   6.656   2.443  1.00 20.00     0.135 C 
HETATM    2  O12 UNL     1     -33.122   5.597   1.828  1.00 20.00    -0.297 OA
ENDROOT
BRANCH   1   3
HETATM    3  C4  UNL     1     -33.999   6.833   3.630  1.00 20.00     0.017 A 
HETATM    4  C2  UNL     1     -34.707   5.598   4.138  1.00 20.00     0.018 A 
HETATM    5  C3  UNL     1     -35.482   6.647   3.401  1.00 20.00     0.018 A 
HETATM    6  C5  UNL     1     -33.575   7.858   4.644  1.00 20.00     0.023 C 
ENDBRANCH   1   3
BRANCH   1   7
HETATM    7  C9  UNL     1     -32.249   7.851   2.094  1.00 20.00     0.080 C 
BRANCH   7   8
HETATM    8  C10 UNL     1     -33.058   8.969   1.431  1.00 20.00     0.015 C 
BRANCH   8   9
HETATM    9  C11 UNL     1     -32.301   9.805   0.365  1.00 20.00    -0.051 C 
HETATM   10  C6  UNL     1     -30.937   9.135   0.108  1.00 20.00     0.014 C 
HETATM   11  C7  UNL     1     -32.054  11.240   0.860  1.00 20.00     0.014 C 
HETATM   12  C8  UNL     1     -33.079   9.853  -0.960  1.00 20.00     0.014 C 
ENDBRANCH   8   9
ENDBRANCH   7   8
ENDBRANCH   1   7
TORSDOF 4
ENDMDL
MODEL 2
REMARK VINA RESULT:       0.0      0.050      1.246
REMARK  4 active torsions:
REMARK  status: ('A' for Active; 'I' for Inactive)
REMARK    1  A    between atoms: C1_1  and  C4_4 
REMARK    2  A    between atoms: C1_1  and  C9_9 
REMARK    3  A    between atoms: C9_9  and  C10_10 
REMARK    4  A    between atoms: C10_10  and  C11_11 
ROOT
HETATM    1  C1  UNL     1     -33.095   6.687   2.490  1.00 20.00     0.135 C 
HETATM    2  O12 UNL     1     -33.088   5.627   1.877  1.00 20.00    -0.297 OA
ENDROOT
BRANCH   1   3
HETATM    3  C4  UNL     1     -33.999   6.862   3.664  1.00 20.00     0.017 A 
HETATM    4  C2  UNL     1     -34.730   5.629   4.144  1.00 20.00     0.018 A 
HETATM    5  C3  UNL     1     -35.480   6.697   3.407  1.00 20.00     0.018 A 
HETATM    6  C5  UNL     1     -33.581   7.869   4.697  1.00 20.00     0.023 C 
ENDBRANCH   1   3
BRANCH   1   7
HETATM    7  C9  UNL     1     -32.233   7.887   2.152  1.00 20.00     0.080 C 
BRANCH   7   8
HETATM    8  C10 UNL     1     -33.035   8.991   1.458  1.00 20.00     0.015 C 
BRANCH   8   9
HETATM    9  C11 UNL     1     -32.278   9.781   0.357  1.00 20.00    -0.051 C 
HETATM   10  C6  UNL     1     -32.043  11.215   0.868  1.00 20.00     0.014 C 
HETATM   11  C7  UNL     1     -33.103   9.854  -0.939  1.00 20.00     0.014 C 
HETATM   12  C8  UNL     1     -30.913   9.142   0.053  1.00 20.00     0.014 C 
ENDBRANCH   8   9
ENDBRANCH   7   8
ENDBRANCH   1   7
TORSDOF 4
ENDMDL
MODEL 3
REMARK VINA RESULT:       0.1      0.048      1.252
REMARK  4 active torsions:
REMARK  status: ('A' for Active; 'I' for Inactive)
REMARK    1  A    between atoms: C1_1  and  C4_4 
REMARK    2  A    between atoms: C1_1  and  C9_9 
REMARK    3  A    between atoms: C9_9  and  C10_10 
REMARK    4  A    between atoms: C10_10  and  C11_11 
ROOT
HETATM    1  C1  UNL     1     -33.109   6.668   2.474  1.00 20.00     0.135 C 
HETATM    2  O12 UNL     1     -33.088   5.596   1.883  1.00 20.00    -0.297 OA
ENDROOT
BRANCH   1   3
HETATM    3  C4  UNL     1     -34.024   6.858   3.637  1.00 20.00     0.017 A 
HETATM    4  C2  UNL     1     -34.767   5.635   4.122  1.00 20.00     0.018 A 
HETATM    5  C3  UNL     1     -35.503   6.700   3.366  1.00 20.00     0.018 A 
HETATM    6  C5  UNL     1     -33.610   7.873   4.665  1.00 20.00     0.023 C 
ENDBRANCH   1   3
BRANCH   1   7
HETATM    7  C9  UNL     1     -32.254   7.867   2.119  1.00 20.00     0.080 C 
BRANCH   7   8
HETATM    8  C10 UNL     1     -33.058   8.950   1.395  1.00 20.00     0.015 C 
BRANCH   8   9
HETATM    9  C11 UNL     1     -32.271   9.791   0.355  1.00 20.00    -0.051 C 
HETATM   10  C6  UNL     1     -33.092   9.837  -0.948  1.00 20.00     0.014 C 
HETATM   11  C7  UNL     1     -30.904   9.156   0.049  1.00 20.00     0.014 C 
HETATM   12  C8  UNL     1     -32.060  11.232   0.850  1.00 20.00     0.014 C 
ENDBRANCH   8   9
ENDBRANCH   7   8
ENDBRANCH   1   7
TORSDOF 4
ENDMDL
MODEL 4
REMARK VINA RESULT:       0.4      1.189      4.935
REMARK  4 active torsions:
REMARK  status: ('A' for Active; 'I' for Inactive)
REMARK    1  A    between atoms: C1_1  and  C4_4 
REMARK    2  A    between atoms: C1_1  and  C9_9 
REMARK    3  A    between atoms: C9_9  and  C10_10 
REMARK    4  A    between atoms: C10_10  and  C11_11 
ROOT
HETATM    1  C1  UNL     1     -32.221   8.217   1.714  1.00 20.00     0.135 C 
HETATM    2  O12 UNL     1     -31.441   8.299   2.654  1.00 20.00    -0.297 OA
ENDROOT
BRANCH   1   3
HETATM    3  C4  UNL     1     -32.292   9.316   0.708  1.00 20.00     0.017 A 
HETATM    4  C2  UNL     1     -32.591   8.912  -0.718  1.00 20.00     0.018 A 
HETATM    5  C3  UNL     1     -31.205   9.342  -0.343  1.00 20.00     0.018 A 
HETATM    6  C5  UNL     1     -32.832  10.636   1.183  1.00 20.00     0.023 C 
ENDBRANCH   1   3
BRANCH   1   7
HETATM    7  C9  UNL     1     -33.158   7.052   1.468  1.00 20.00     0.080 C 
BRANCH   7   8
HETATM    8  C10 UNL     1     -33.280   6.146   2.697  1.00 20.00     0.015 C 
BRANCH   8   9
HETATM    9  C11 UNL     1     -34.456   6.470   3.657  1.00 20.00    -0.051 C 
HETATM   10  C6  UNL     1     -34.835   5.178   4.407  1.00 20.00     0.014 C 
HETATM   11  C7  UNL     1     -35.688   6.962   2.879  1.00 20.00     0.014 C 
HETATM   12  C8  UNL     1     -34.052   7.534   4.691  1.00 20.00     0.014 C 
ENDBRANCH   8   9
ENDBRANCH   7   8
ENDBRANCH   1   7
TORSDOF 4
ENDMDL
MODEL 5
REMARK VINA RESULT:       0.4      1.194      4.909
REMARK  4 active torsions:
REMARK  status: ('A' for Active; 'I' for Inactive)
REMARK    1  A    between atoms: C1_1  and  C4_4 
REMARK    2  A    between atoms: C1_1  and  C9_9 
REMARK    3  A    between atoms: C9_9  and  C10_10 
REMARK    4  A    between atoms: C10_10  and  C11_11 
ROOT
HETATM    1  C1  UNL     1     -32.225   8.215   1.735  1.00 20.00     0.135 C 
HETATM    2  O12 UNL     1     -31.455   8.307   2.682  1.00 20.00    -0.297 OA
ENDROOT
BRANCH   1   3
HETATM    3  C4  UNL     1     -32.297   9.311   0.725  1.00 20.00     0.017 A 
HETATM    4  C2  UNL     1     -32.580   8.900  -0.701  1.00 20.00     0.018 A 
HETATM    5  C3  UNL     1     -31.201   9.343  -0.316  1.00 20.00     0.018 A 
HETATM    6  C5  UNL     1     -32.851  10.627   1.193  1.00 20.00     0.023 C 
ENDBRANCH   1   3
BRANCH   1   7
HETATM    7  C9  UNL     1     -33.149   7.040   1.483  1.00 20.00     0.080 C 
BRANCH   7   8
HETATM    8  C10 UNL     1     -33.267   6.132   2.710  1.00 20.00     0.015 C 
BRANCH   8   9
HETATM    9  C11 UNL     1     -34.442   6.451   3.673  1.00 20.00    -0.051 C 
HETATM   10  C6  UNL     1     -35.624   6.972   2.832  1.00 20.00     0.014 C 
HETATM   11  C7  UNL     1     -34.049   7.538   4.687  1.00 20.00     0.014 C 
HETATM   12  C8  UNL     1     -34.899   5.193   4.430  1.00 20.00     0.014 C 
ENDBRANCH   8   9
ENDBRANCH   7   8
ENDBRANCH   1   7
TORSDOF 4
ENDMDL
MODEL 6
REMARK VINA RESULT:       0.5      1.185      4.976
REMARK  4 active torsions:
REMARK  status: ('A' for Active; 'I' for Inactive)
REMARK    1  A    between atoms: C1_1  and  C4_4 
REMARK    2  A    between atoms: C1_1  and  C9_9 
REMARK    3  A    between atoms: C9_9  and  C10_10 
REMARK    4  A    between atoms: C10_10  and  C11_11 
ROOT
HETATM    1  C1  UNL     1     -32.173   8.168   1.652  1.00 20.00     0.135 C 
HETATM    2  O12 UNL     1     -31.568   8.389   2.692  1.00 20.00    -0.297 OA
ENDROOT
BRANCH   1   3
HETATM    3  C4  UNL     1     -31.973   9.057   0.471  1.00 20.00     0.017 A 
HETATM    4  C2  UNL     1     -32.311  10.518   0.659  1.00 20.00     0.018 A 
HETATM    5  C3  UNL     1     -33.220   9.644  -0.152  1.00 20.00     0.018 A 
HETATM    6  C5  UNL     1     -30.831   8.720  -0.446  1.00 20.00     0.023 C 
ENDBRANCH   1   3
BRANCH   1   7
HETATM    7  C9  UNL     1     -33.146   7.024   1.445  1.00 20.00     0.080 C 
BRANCH   7   8
HETATM    8  C10 UNL     1     -33.264   6.141   2.689  1.00 20.00     0.015 C 
BRANCH   8   9
HETATM    9  C11 UNL     1     -34.443   6.475   3.641  1.00 20.00    -0.051 C 
HETATM   10  C6  UNL     1     -34.840   5.185   4.387  1.00 20.00     0.014 C 
HETATM   11  C7  UNL     1     -35.665   6.978   2.855  1.00 20.00     0.014 C 
HETATM   12  C8  UNL     1     -34.037   7.534   4.680  1.00 20.00     0.014 C 
ENDBRANCH   8   9
ENDBRANCH   7   8
ENDBRANCH   1   7
TORSDOF 4
ENDMDL
MODEL 7
REMARK VINA RESULT:       0.6      0.569      1.717
REMARK  4 active torsions:
REMARK  status: ('A' for Active; 'I' for Inactive)
REMARK    1  A    between atoms: C1_1  and  C4_4 
REMARK    2  A    between atoms: C1_1  and  C9_9 
REMARK    3  A    between atoms: C9_9  and  C10_10 
REMARK    4  A    between atoms: C10_10  and  C11_11 
ROOT
HETATM    1  C1  UNL     1     -33.074   6.340   2.154  1.00 20.00     0.135 C 
HETATM    2  O12 UNL     1     -32.978   5.519   1.251  1.00 20.00    -0.297 OA
ENDROOT
BRANCH   1   3
HETATM    3  C4  UNL     1     -33.931   6.046   3.339  1.00 20.00     0.017 A 
HETATM    4  C2  UNL     1     -35.267   6.749   3.400  1.00 20.00     0.018 A 
HETATM    5  C3  UNL     1     -34.157   7.183   4.309  1.00 20.00     0.018 A 
HETATM    6  C5  UNL     1     -33.851   4.656   3.904  1.00 20.00     0.023 C 
ENDBRANCH   1   3
BRANCH   1   7
HETATM    7  C9  UNL     1     -32.371   7.683   2.180  1.00 20.00     0.080 C 
BRANCH   7   8
HETATM    8  C10 UNL     1     -33.144   8.749   1.398  1.00 20.00     0.015 C 
BRANCH   8   9
HETATM    9  C11 UNL     1     -32.290   9.653   0.470  1.00 20.00    -0.051 C 
HETATM   10  C6  UNL     1     -32.970   9.702  -0.912  1.00 20.00     0.014 C 
HETATM   11  C7  UNL     1     -30.872   9.086   0.295  1.00 20.00     0.014 C 
HETATM   12  C8  UNL     1     -32.199  11.086   1.020  1.00 20.00     0.014 C 
ENDBRANCH   8   9
ENDBRANCH   7   8
ENDBRANCH   1   7
TORSDOF 4
ENDMDL
MODEL 8
REMARK VINA RESULT:       0.8      1.267      4.735
REMARK  4 active torsions:
REMARK  status: ('A' for Active; 'I' for Inactive)
REMARK    1  A    between atoms: C1_1  and  C4_4 
REMARK    2  A    between atoms: C1_1  and  C9_9 
REMARK    3  A    between atoms: C9_9  and  C10_10 
REMARK    4  A    between atoms: C10_10  and  C11_11 
ROOT
HETATM    1  C1  UNL     1     -32.113   6.696   1.468  1.00 20.00     0.135 C 
HETATM    2  O12 UNL     1     -31.197   5.900   1.308  1.00 20.00    -0.297 OA
ENDROOT
BRANCH   1   3
HETATM    3  C4  UNL     1     -31.819   8.153   1.596  1.00 20.00     0.017 A 
HETATM    4  C2  UNL     1     -32.727   9.096   0.839  1.00 20.00     0.018 A 
HETATM    5  C3  UNL     1     -31.331   8.856   0.350  1.00 20.00     0.018 A 
HETATM    6  C5  UNL     1     -31.276   8.622   2.916  1.00 20.00     0.023 C 
ENDBRANCH   1   3
BRANCH   1   7
HETATM    7  C9  UNL     1     -33.579   6.321   1.551  1.00 20.00     0.080 C 
BRANCH   7   8
HETATM    8  C10 UNL     1     -33.906   5.571   2.845  1.00 20.00     0.015 C 
BRANCH   8   9
HETATM    9  C11 UNL     1     -34.895   6.286   3.804  1.00 20.00    -0.051 C 
HETATM   10  C6  UNL     1     -35.393   5.256   4.837  1.00 20.00     0.014 C 
HETATM   11  C7  UNL     1     -36.111   6.835   3.039  1.00 20.00     0.014 C 
HETATM   12  C8  UNL     1     -34.208   7.437   4.556  1.00 20.00     0.014 C 
ENDBRANCH   8   9
ENDBRANCH   7   8
ENDBRANCH   1   7
TORSDOF 4
ENDMDL
MODEL 9
REMARK VINA RESULT:       1.1      1.360      1.868
REMARK  4 active torsions:
REMARK  status: ('A' for Active; 'I' for Inactive)
REMARK    1  A    between atoms: C1_1  and  C4_4 
REMARK    2  A    between atoms: C1_1  and  C9_9 
REMARK    3  A    between atoms: C9_9  and  C10_10 
REMARK    4  A    between atoms: C10_10  and  C11_11 
ROOT
HETATM    1  C1  UNL     1     -33.600   5.609   2.914  1.00 20.00     0.135 C 
HETATM    2  O12 UNL     1     -33.145   4.555   3.341  1.00 20.00    -0.297 OA
ENDROOT
BRANCH   1   3
HETATM    3  C4  UNL     1     -34.486   6.441   3.778  1.00 20.00     0.017 A 
HETATM    4  C2  UNL     1     -35.555   5.709   4.557  1.00 20.00     0.018 A 
HETATM    5  C3  UNL     1     -35.938   6.534   3.366  1.00 20.00     0.018 A 
HETATM    6  C5  UNL     1     -33.866   7.651   4.418  1.00 20.00     0.023 C 
ENDBRANCH   1   3
BRANCH   1   7
HETATM    7  C9  UNL     1     -33.331   6.168   1.531  1.00 20.00     0.080 C 
BRANCH   7   8
HETATM    8  C10 UNL     1     -31.902   6.699   1.396  1.00 20.00     0.015 C 
BRANCH   8   9
HETATM    9  C11 UNL     1     -31.760   8.244   1.354  1.00 20.00    -0.051 C 
HETATM   10  C6  UNL     1     -31.067   8.699   2.653  1.00 20.00     0.014 C 
HETATM   11  C7  UNL     1     -33.136   8.925   1.272  1.00 20.00     0.014 C 
HETATM   12  C8  UNL     1     -30.901   8.692   0.160  1.00 20.00     0.014 C 
ENDBRANCH   8   9
ENDBRANCH   7   8
ENDBRANCH   1   7
TORSDOF 4
ENDMDL
