MODEL 1
REMARK VINA RESULT:      -0.6      0.000      0.000
REMARK  2 active torsions:
REMARK  status: ('A' for Active; 'I' for Inactive)
REMARK    1  A    between atoms: C7_7  and  C9_9 
REMARK    2  A    between atoms: C9_9  and  O11_11 
ROOT
HETATM    1  C1  UNL     1     -34.708   5.163   4.412  1.00 20.00     0.010 A 
HETATM    2  C2  UNL     1     -33.439   5.951   2.245  1.00 20.00     0.012 C 
HETATM    3  C3  UNL     1     -34.071   7.658   3.871  1.00 20.00     0.012 C 
HETATM    4  C5  UNL     1     -34.688   5.501   2.945  1.00 20.00    -0.010 A 
HETATM    5  C6  UNL     1     -35.075   6.544   3.937  1.00 20.00    -0.010 A 
HETATM    6  C7  UNL     1     -32.851   7.060   3.142  1.00 20.00     0.021 C 
ENDROOT
BRANCH   6   7
HETATM    7  C9  UNL     1     -32.071   8.080   2.373  1.00 20.00     0.065 A 
HETATM    8  C4  UNL     1     -31.400   7.681   1.093  1.00 20.00     0.045 A 
HETATM    9  C8  UNL     1     -32.606   8.584   1.064  1.00 20.00     0.019 A 
HETATM   10  C10 UNL     1     -32.460  10.015   0.672  1.00 20.00     0.013 C 
BRANCH   7  11
HETATM   11  O11 UNL     1     -31.362   8.996   3.214  1.00 20.00    -0.389 OA
HETATM   12  H27 UNL     1     -31.504   9.876   2.835  1.00 20.00     0.210 HD
ENDBRANCH   7  11
ENDBRANCH   6   7
TORSDOF 2
ENDMDL
MODEL 2
REMARK VINA RESULT:      -0.4      0.675      1.413
REMARK  2 active torsions:
REMARK  status: ('A' for Active; 'I' for Inactive)
REMARK    1  A    between atoms: C7_7  and  C9_9 
REMARK    2  A    between atoms: C9_9  and  O11_11 
ROOT
HETATM    1  C1  UNL     1     -35.606   5.851   3.923  1.00 20.00     0.010 A 
HETATM    2  C2  UNL     1     -33.879   7.835   4.006  1.00 20.00     0.012 C 
HETATM    3  C3  UNL     1     -33.352   5.935   2.567  1.00 20.00     0.012 C 
HETATM    4  C5  UNL     1     -34.492   6.602   4.603  1.00 20.00    -0.010 A 
HETATM    5  C6  UNL     1     -34.170   5.442   3.725  1.00 20.00    -0.010 A 
HETATM    6  C7  UNL     1     -33.567   7.463   2.542  1.00 20.00     0.021 C 
ENDROOT
BRANCH   6   7
HETATM    7  C9  UNL     1     -32.395   8.209   1.987  1.00 20.00     0.065 A 
HETATM    8  C4  UNL     1     -31.692   7.675   0.774  1.00 20.00     0.045 A 
HETATM    9  C8  UNL     1     -32.531   8.922   0.673  1.00 20.00     0.019 A 
HETATM   10  C10 UNL     1     -31.881  10.244   0.443  1.00 20.00     0.013 C 
BRANCH   7  11
HETATM   11  O11 UNL     1     -31.574   8.801   2.998  1.00 20.00    -0.389 OA
HETATM   12  H27 UNL     1     -30.665   8.536   2.799  1.00 20.00     0.210 HD
ENDBRANCH   7  11
ENDBRANCH   6   7
TORSDOF 2
ENDMDL
MODEL 3
REMARK VINA RESULT:      -0.0      1.370      4.244
REMARK  2 active torsions:
REMARK  status: ('A' for Active; 'I' for Inactive)
REMARK    1  A    between atoms: C7_7  and  C9_9 
REMARK    2  A    between atoms: C9_9  and  O11_11 
ROOT
HETATM    1  C1  UNL     1     -31.959   8.797   0.564  1.00 20.00     0.010 A 
HETATM    2  C2  UNL     1     -32.920   6.585   1.619  1.00 20.00     0.012 C 
HETATM    3  C3  UNL     1     -32.437   8.442   3.127  1.00 20.00     0.012 C 
HETATM    4  C5  UNL     1     -31.784   7.380   1.045  1.00 20.00    -0.010 A 
HETATM    5  C6  UNL     1     -31.489   8.514   1.966  1.00 20.00    -0.010 A 
HETATM    6  C7  UNL     1     -33.577   7.513   2.660  1.00 20.00     0.021 C 
ENDROOT
BRANCH   6   7
HETATM    7  C9  UNL     1     -34.219   6.766   3.786  1.00 20.00     0.065 A 
HETATM    8  C4  UNL     1     -35.621   6.258   3.627  1.00 20.00     0.045 A 
HETATM    9  C8  UNL     1     -34.465   5.291   3.647  1.00 20.00     0.019 A 
HETATM   10  C10 UNL     1     -34.284   4.367   4.802  1.00 20.00     0.013 C 
BRANCH   7  11
HETATM   11  O11 UNL     1     -33.862   7.274   5.076  1.00 20.00    -0.389 OA
HETATM   12  H27 UNL     1     -34.559   7.898   5.323  1.00 20.00     0.210 HD
ENDBRANCH   7  11
ENDBRANCH   6   7
TORSDOF 2
ENDMDL
MODEL 4
REMARK VINA RESULT:       0.3      1.466      4.326
REMARK  2 active torsions:
REMARK  status: ('A' for Active; 'I' for Inactive)
REMARK    1  A    between atoms: C7_7  and  C9_9 
REMARK    2  A    between atoms: C9_9  and  O11_11 
ROOT
HETATM    1  C1  UNL     1     -32.456   9.773  -0.506  1.00 20.00     0.010 A 
HETATM    2  C2  UNL     1     -31.735   7.766   1.037  1.00 20.00     0.012 C 
HETATM    3  C3  UNL     1     -33.384   9.335   1.917  1.00 20.00     0.012 C 
HETATM    4  C5  UNL     1     -31.478   9.115   0.431  1.00 20.00    -0.010 A 
HETATM    5  C6  UNL     1     -32.485  10.073   0.969  1.00 20.00    -0.010 A 
HETATM    6  C7  UNL     1     -33.170   7.841   1.596  1.00 20.00     0.021 C 
ENDROOT
BRANCH   6   7
HETATM    7  C9  UNL     1     -33.382   6.953   2.782  1.00 20.00     0.065 A 
HETATM    8  C4  UNL     1     -33.222   7.518   4.162  1.00 20.00     0.045 A 
HETATM    9  C8  UNL     1     -34.592   7.157   3.648  1.00 20.00     0.019 A 
HETATM   10  C10 UNL     1     -35.326   5.997   4.230  1.00 20.00     0.013 C 
BRANCH   7  11
HETATM   11  O11 UNL     1     -32.914   5.617   2.575  1.00 20.00    -0.389 OA
HETATM   12  H27 UNL     1     -32.547   5.595   1.679  1.00 20.00     0.210 HD
ENDBRANCH   7  11
ENDBRANCH   6   7
TORSDOF 2
ENDMDL
MODEL 5
REMARK VINA RESULT:       0.5      2.186      4.517
REMARK  2 active torsions:
REMARK  status: ('A' for Active; 'I' for Inactive)
REMARK    1  A    between atoms: C7_7  and  C9_9 
REMARK    2  A    between atoms: C9_9  and  O11_11 
ROOT
HETATM    1  C1  UNL     1     -32.780   8.470   1.452  1.00 20.00     0.010 A 
HETATM    2  C2  UNL     1     -32.694   5.869   1.850  1.00 20.00     0.012 C 
HETATM    3  C3  UNL     1     -33.335   7.282   3.734  1.00 20.00     0.012 C 
HETATM    4  C5  UNL     1     -32.012   7.198   1.701  1.00 20.00    -0.010 A 
HETATM    5  C6  UNL     1     -32.403   8.060   2.852  1.00 20.00    -0.010 A 
HETATM    6  C7  UNL     1     -33.832   6.110   2.862  1.00 20.00     0.021 C 
ENDROOT
BRANCH   6   7
HETATM    7  C9  UNL     1     -34.172   4.891   3.660  1.00 20.00     0.065 A 
HETATM    8  C4  UNL     1     -33.955   3.535   3.059  1.00 20.00     0.045 A 
HETATM    9  C8  UNL     1     -33.067   4.016   4.177  1.00 20.00     0.019 A 
HETATM   10  C10 UNL     1     -33.151   3.384   5.524  1.00 20.00     0.013 C 
BRANCH   7  11
HETATM   11  O11 UNL     1     -35.341   5.057   4.470  1.00 20.00    -0.389 OA
HETATM   12  H27 UNL     1     -35.471   4.217   4.932  1.00 20.00     0.210 HD
ENDBRANCH   7  11
ENDBRANCH   6   7
TORSDOF 2
ENDMDL
MODEL 6
REMARK VINA RESULT:       1.1      1.120      1.336
REMARK  2 active torsions:
REMARK  status: ('A' for Active; 'I' for Inactive)
REMARK    1  A    between atoms: C7_7  and  C9_9 
REMARK    2  A    between atoms: C9_9  and  O11_11 
ROOT
HETATM    1  C1  UNL     1     -34.120   4.247   4.554  1.00 20.00     0.010 A 
HETATM    2  C2  UNL     1     -33.168   5.602   2.509  1.00 20.00     0.012 C 
HETATM    3  C3  UNL     1     -34.621   6.785   4.072  1.00 20.00     0.012 C 
HETATM    4  C5  UNL     1     -34.137   4.617   3.094  1.00 20.00    -0.010 A 
HETATM    5  C6  UNL     1     -35.025   5.339   4.049  1.00 20.00    -0.010 A 
HETATM    6  C7  UNL     1     -33.208   6.820   3.454  1.00 20.00     0.021 C 
ENDROOT
BRANCH   6   7
HETATM    7  C9  UNL     1     -32.906   8.110   2.759  1.00 20.00     0.065 A 
HETATM    8  C4  UNL     1     -31.530   8.697   2.864  1.00 20.00     0.045 A 
HETATM    9  C8  UNL     1     -32.002   8.107   1.560  1.00 20.00     0.019 A 
HETATM   10  C10 UNL     1     -32.269   8.993   0.392  1.00 20.00     0.013 C 
BRANCH   7  11
HETATM   11  O11 UNL     1     -34.002   9.029   2.779  1.00 20.00    -0.389 OA
HETATM   12  H27 UNL     1     -34.317   9.095   1.866  1.00 20.00     0.210 HD
ENDBRANCH   7  11
ENDBRANCH   6   7
TORSDOF 2
ENDMDL
MODEL 7
REMARK VINA RESULT:       1.5      1.324      4.294
REMARK  2 active torsions:
REMARK  status: ('A' for Active; 'I' for Inactive)
REMARK    1  A    between atoms: C7_7  and  C9_9 
REMARK    2  A    between atoms: C9_9  and  O11_11 
ROOT
HETATM    1  C1  UNL     1     -30.989   8.954   0.727  1.00 20.00     0.010 A 
HETATM    2  C2  UNL     1     -33.250   9.136   2.062  1.00 20.00     0.012 C 
HETATM    3  C3  UNL     1     -32.324   6.906   1.703  1.00 20.00     0.012 C 
HETATM    4  C5  UNL     1     -32.483   9.142   0.773  1.00 20.00    -0.010 A 
HETATM    5  C6  UNL     1     -31.917   7.781   0.553  1.00 20.00    -0.010 A 
HETATM    6  C7  UNL     1     -32.764   7.881   2.815  1.00 20.00     0.021 C 
ENDROOT
BRANCH   6   7
HETATM    7  C9  UNL     1     -33.805   7.302   3.720  1.00 20.00     0.065 A 
HETATM    8  C4  UNL     1     -35.215   7.164   3.226  1.00 20.00     0.045 A 
HETATM    9  C8  UNL     1     -34.362   5.939   3.427  1.00 20.00     0.019 A 
HETATM   10  C10 UNL     1     -34.675   4.982   4.526  1.00 20.00     0.013 C 
BRANCH   7  11
HETATM   11  O11 UNL     1     -33.638   7.686   5.089  1.00 20.00    -0.389 OA
HETATM   12  H27 UNL     1     -34.026   8.568   5.172  1.00 20.00     0.210 HD
ENDBRANCH   7  11
ENDBRANCH   6   7
TORSDOF 2
ENDMDL
MODEL 8
REMARK VINA RESULT:       1.9      1.489      2.143
REMARK  2 active torsions:
REMARK  status: ('A' for Active; 'I' for Inactive)
REMARK    1  A    between atoms: C7_7  and  C9_9 
REMARK    2  A    between atoms: C9_9  and  O11_11 
ROOT
HETATM    1  C1  UNL     1     -35.935   5.381   4.291  1.00 20.00     0.010 A 
HETATM    2  C2  UNL     1     -34.230   7.290   3.678  1.00 20.00     0.012 C 
HETATM    3  C3  UNL     1     -33.558   4.987   3.234  1.00 20.00     0.012 C 
HETATM    4  C5  UNL     1     -34.897   6.399   4.684  1.00 20.00    -0.010 A 
HETATM    5  C6  UNL     1     -34.486   4.992   4.414  1.00 20.00    -0.010 A 
HETATM    6  C7  UNL     1     -33.774   6.350   2.545  1.00 20.00     0.021 C 
ENDROOT
BRANCH   6   7
HETATM    7  C9  UNL     1     -32.554   6.843   1.831  1.00 20.00     0.065 A 
HETATM    8  C4  UNL     1     -32.674   7.997   0.882  1.00 20.00     0.045 A 
HETATM    9  C8  UNL     1     -31.972   8.176   2.203  1.00 20.00     0.019 A 
HETATM   10  C10 UNL     1     -30.497   8.388   2.242  1.00 20.00     0.013 C 
BRANCH   7  11
HETATM   11  O11 UNL     1     -31.658   5.792   1.457  1.00 20.00    -0.389 OA
HETATM   12  H27 UNL     1     -30.831   6.222   1.195  1.00 20.00     0.210 HD
ENDBRANCH   7  11
ENDBRANCH   6   7
TORSDOF 2
ENDMDL
MODEL 9
REMARK VINA RESULT:       2.2      2.483      3.783
REMARK  2 active torsions:
REMARK  status: ('A' for Active; 'I' for Inactive)
REMARK    1  A    between atoms: C7_7  and  C9_9 
REMARK    2  A    between atoms: C9_9  and  O11_11 
ROOT
HETATM    1  C1  UNL     1     -33.314   1.841   4.423  1.00 20.00     0.010 A 
HETATM    2  C2  UNL     1     -34.323   4.213   4.953  1.00 20.00     0.012 C 
HETATM    3  C3  UNL     1     -32.460   4.101   3.381  1.00 20.00     0.012 C 
HETATM    4  C5  UNL     1     -33.461   3.041   5.321  1.00 20.00    -0.010 A 
HETATM    5  C6  UNL     1     -32.323   2.973   4.361  1.00 20.00    -0.010 A 
HETATM    6  C7  UNL     1     -33.924   4.570   3.507  1.00 20.00     0.021 C 
ENDROOT
BRANCH   6   7
HETATM    7  C9  UNL     1     -34.102   6.022   3.193  1.00 20.00     0.065 A 
HETATM    8  C4  UNL     1     -35.433   6.669   3.435  1.00 20.00     0.045 A 
HETATM    9  C8  UNL     1     -34.258   7.005   4.317  1.00 20.00     0.019 A 
HETATM   10  C10 UNL     1     -33.635   8.358   4.250  1.00 20.00     0.013 C 
BRANCH   7  11
HETATM   11  O11 UNL     1     -33.387   6.436   2.024  1.00 20.00    -0.389 OA
HETATM   12  H27 UNL     1     -34.040   6.847   1.439  1.00 20.00     0.210 HD
ENDBRANCH   7  11
ENDBRANCH   6   7
TORSDOF 2
ENDMDL
