MODEL 1
REMARK VINA RESULT:      -2.0      0.000      0.000
REMARK  5 active torsions:
REMARK  status: ('A' for Active; 'I' for Inactive)
REMARK    1  A    between atoms: C1_1  and  C7_7 
REMARK    2  A    between atoms: C1_1  and  C9_9 
REMARK    3  A    between atoms: C4_4  and  C9_9 
REMARK    4  A    between atoms: C8_8  and  C9_9 
REMARK    5  A    between atoms: C8_8  and  O11_11 
ROOT
HETATM    1  C9  UNL     1     -33.279   7.151   2.228  1.00 20.00     0.083 C 
ENDROOT
BRANCH   1   2
HETATM    2  C1  UNL     1     -33.937   7.288   3.604  1.00 20.00     0.133 C 
HETATM    3  O10 UNL     1     -33.410   7.931   4.513  1.00 20.00    -0.297 OA
BRANCH   2   4
HETATM    4  C7  UNL     1     -35.260   6.563   3.803  1.00 20.00     0.074 C 
HETATM    5  C5  UNL     1     -35.083   5.195   4.438  1.00 20.00     0.013 C 
ENDBRANCH   2   4
ENDBRANCH   1   2
BRANCH   1   6
HETATM    6  C4  UNL     1     -32.851   5.731   1.957  1.00 20.00    -0.001 A 
HETATM    7  C2  UNL     1     -33.139   5.093   0.625  1.00 20.00     0.006 A 
HETATM    8  C3  UNL     1     -31.727   5.449   0.999  1.00 20.00     0.006 A 
ENDBRANCH   1   6
BRANCH   1   9
HETATM    9  C8  UNL     1     -32.086   8.103   2.120  1.00 20.00     0.179 C 
BRANCH   9  10
HETATM   10  O11 UNL     1     -31.984   8.591   0.788  1.00 20.00    -0.395 OA
HETATM   11  C6  UNL     1     -32.527   9.899   0.670  1.00 20.00     0.201 C 
ENDBRANCH   9  10
ENDBRANCH   1   9
TORSDOF 5
ENDMDL
MODEL 2
REMARK VINA RESULT:      -1.8      2.304      3.884
REMARK  5 active torsions:
REMARK  status: ('A' for Active; 'I' for Inactive)
REMARK    1  A    between atoms: C1_1  and  C7_7 
REMARK    2  A    between atoms: C1_1  and  C9_9 
REMARK    3  A    between atoms: C4_4  and  C9_9 
REMARK    4  A    between atoms: C8_8  and  C9_9 
REMARK    5  A    between atoms: C8_8  and  O11_11 
ROOT
HETATM    1  C9  UNL     1     -33.514   5.702   3.244  1.00 20.00     0.083 C 
ENDROOT
BRANCH   1   2
HETATM    2  C1  UNL     1     -34.633   6.562   3.840  1.00 20.00     0.133 C 
HETATM    3  O10 UNL     1     -35.760   6.107   4.045  1.00 20.00    -0.297 OA
BRANCH   2   4
HETATM    4  C7  UNL     1     -34.293   8.015   4.136  1.00 20.00     0.074 C 
HETATM    5  C5  UNL     1     -33.073   8.155   5.028  1.00 20.00     0.013 C 
ENDBRANCH   2   4
ENDBRANCH   1   2
BRANCH   1   6
HETATM    6  C4  UNL     1     -33.165   6.138   1.844  1.00 20.00    -0.001 A 
HETATM    7  C2  UNL     1     -31.960   7.004   1.597  1.00 20.00     0.006 A 
HETATM    8  C3  UNL     1     -31.959   5.568   1.151  1.00 20.00     0.006 A 
ENDBRANCH   1   6
BRANCH   1   9
HETATM    9  C8  UNL     1     -33.920   4.227   3.262  1.00 20.00     0.179 C 
BRANCH   9  10
HETATM   10  O11 UNL     1     -34.002   3.772   4.608  1.00 20.00    -0.395 OA
HETATM   11  C6  UNL     1     -33.003   2.801   4.891  1.00 20.00     0.201 C 
ENDBRANCH   9  10
ENDBRANCH   1   9
TORSDOF 5
ENDMDL
MODEL 3
REMARK VINA RESULT:      -1.5      1.391      4.080
REMARK  5 active torsions:
REMARK  status: ('A' for Active; 'I' for Inactive)
REMARK    1  A    between atoms: C1_1  and  C7_7 
REMARK    2  A    between atoms: C1_1  and  C9_9 
REMARK    3  A    between atoms: C4_4  and  C9_9 
REMARK    4  A    between atoms: C8_8  and  C9_9 
REMARK    5  A    between atoms: C8_8  and  O11_11 
ROOT
HETATM    1  C9  UNL     1     -33.286   7.130   1.995  1.00 20.00     0.083 C 
ENDROOT
BRANCH   1   2
HETATM    2  C1  UNL     1     -32.079   8.059   1.834  1.00 20.00     0.133 C 
HETATM    3  O10 UNL     1     -31.326   8.311   2.775  1.00 20.00    -0.297 OA
BRANCH   2   4
HETATM    4  C7  UNL     1     -31.877   8.682   0.460  1.00 20.00     0.074 C 
HETATM    5  C5  UNL     1     -32.533  10.046   0.338  1.00 20.00     0.013 C 
ENDBRANCH   2   4
ENDBRANCH   1   2
BRANCH   1   6
HETATM    6  C4  UNL     1     -33.541   6.797   3.443  1.00 20.00    -0.001 A 
HETATM    7  C2  UNL     1     -34.387   7.706   4.292  1.00 20.00     0.006 A 
HETATM    8  C3  UNL     1     -34.907   6.354   3.889  1.00 20.00     0.006 A 
ENDBRANCH   1   6
BRANCH   1   9
HETATM    9  C8  UNL     1     -33.076   5.853   1.178  1.00 20.00     0.179 C 
BRANCH   9  10
HETATM   10  O11 UNL     1     -31.766   5.350   1.408  1.00 20.00    -0.395 OA
HETATM   11  C6  UNL     1     -31.394   4.397   0.422  1.00 20.00     0.201 C 
ENDBRANCH   9  10
ENDBRANCH   1   9
TORSDOF 5
ENDMDL
MODEL 4
REMARK VINA RESULT:      -1.2      2.127      3.456
REMARK  5 active torsions:
REMARK  status: ('A' for Active; 'I' for Inactive)
REMARK    1  A    between atoms: C1_1  and  C7_7 
REMARK    2  A    between atoms: C1_1  and  C9_9 
REMARK    3  A    between atoms: C4_4  and  C9_9 
REMARK    4  A    between atoms: C8_8  and  C9_9 
REMARK    5  A    between atoms: C8_8  and  O11_11 
ROOT
HETATM    1  C9  UNL     1     -33.663   5.861   3.501  1.00 20.00     0.083 C 
ENDROOT
BRANCH   1   2
HETATM    2  C1  UNL     1     -34.323   4.600   4.068  1.00 20.00     0.133 C 
HETATM    3  O10 UNL     1     -35.424   4.637   4.617  1.00 20.00    -0.297 OA
BRANCH   2   4
HETATM    4  C7  UNL     1     -33.534   3.304   3.946  1.00 20.00     0.074 C 
HETATM    5  C5  UNL     1     -32.873   2.902   5.252  1.00 20.00     0.013 C 
ENDBRANCH   2   4
ENDBRANCH   1   2
BRANCH   1   6
HETATM    6  C4  UNL     1     -34.388   7.109   3.932  1.00 20.00    -0.001 A 
HETATM    7  C2  UNL     1     -33.795   8.006   4.983  1.00 20.00     0.006 A 
HETATM    8  C3  UNL     1     -33.857   8.463   3.553  1.00 20.00     0.006 A 
ENDBRANCH   1   6
BRANCH   1   9
HETATM    9  C8  UNL     1     -33.598   5.776   1.974  1.00 20.00     0.179 C 
BRANCH   9  10
HETATM   10  O11 UNL     1     -32.240   5.811   1.552  1.00 20.00    -0.395 OA
HETATM   11  C6  UNL     1     -31.777   7.146   1.397  1.00 20.00     0.201 C 
ENDBRANCH   9  10
ENDBRANCH   1   9
TORSDOF 5
ENDMDL
MODEL 5
REMARK VINA RESULT:      -1.1      1.914      3.003
REMARK  5 active torsions:
REMARK  status: ('A' for Active; 'I' for Inactive)
REMARK    1  A    between atoms: C1_1  and  C7_7 
REMARK    2  A    between atoms: C1_1  and  C9_9 
REMARK    3  A    between atoms: C4_4  and  C9_9 
REMARK    4  A    between atoms: C8_8  and  C9_9 
REMARK    5  A    between atoms: C8_8  and  O11_11 
ROOT
HETATM    1  C9  UNL     1     -34.248   5.901   3.067  1.00 20.00     0.083 C 
ENDROOT
BRANCH   1   2
HETATM    2  C1  UNL     1     -34.490   4.695   3.982  1.00 20.00     0.133 C 
HETATM    3  O10 UNL     1     -35.404   4.681   4.806  1.00 20.00    -0.297 OA
BRANCH   2   4
HETATM    4  C7  UNL     1     -33.522   3.530   3.842  1.00 20.00     0.074 C 
HETATM    5  C5  UNL     1     -33.060   2.993   5.185  1.00 20.00     0.013 C 
ENDBRANCH   2   4
ENDBRANCH   1   2
BRANCH   1   6
HETATM    6  C4  UNL     1     -32.844   5.910   2.520  1.00 20.00    -0.001 A 
HETATM    7  C2  UNL     1     -32.587   5.536   1.086  1.00 20.00     0.006 A 
HETATM    8  C3  UNL     1     -32.423   6.962   1.532  1.00 20.00     0.006 A 
ENDBRANCH   1   6
BRANCH   1   9
HETATM    9  C8  UNL     1     -34.540   7.199   3.824  1.00 20.00     0.179 C 
BRANCH   9  10
HETATM   10  O11 UNL     1     -33.323   7.898   4.055  1.00 20.00    -0.395 OA
HETATM   11  C6  UNL     1     -33.185   8.266   5.421  1.00 20.00     0.201 C 
ENDBRANCH   9  10
ENDBRANCH   1   9
TORSDOF 5
ENDMDL
MODEL 6
REMARK VINA RESULT:      -1.0      2.041      4.729
REMARK  5 active torsions:
REMARK  status: ('A' for Active; 'I' for Inactive)
REMARK    1  A    between atoms: C1_1  and  C7_7 
REMARK    2  A    between atoms: C1_1  and  C9_9 
REMARK    3  A    between atoms: C4_4  and  C9_9 
REMARK    4  A    between atoms: C8_8  and  C9_9 
REMARK    5  A    between atoms: C8_8  and  O11_11 
ROOT
HETATM    1  C9  UNL     1     -33.569   5.718   2.551  1.00 20.00     0.083 C 
ENDROOT
BRANCH   1   2
HETATM    2  C1  UNL     1     -32.404   6.240   1.704  1.00 20.00     0.133 C 
HETATM    3  O10 UNL     1     -31.832   5.526   0.879  1.00 20.00    -0.297 OA
BRANCH   2   4
HETATM    4  C7  UNL     1     -31.967   7.676   1.956  1.00 20.00     0.074 C 
HETATM    5  C5  UNL     1     -32.068   8.541   0.713  1.00 20.00     0.013 C 
ENDBRANCH   2   4
ENDBRANCH   1   2
BRANCH   1   6
HETATM    6  C4  UNL     1     -34.423   6.845   3.074  1.00 20.00    -0.001 A 
HETATM    7  C2  UNL     1     -35.515   6.568   4.071  1.00 20.00     0.006 A 
HETATM    8  C3  UNL     1     -34.277   7.308   4.496  1.00 20.00     0.006 A 
ENDBRANCH   1   6
BRANCH   1   9
HETATM    9  C8  UNL     1     -33.037   4.865   3.705  1.00 20.00     0.179 C 
BRANCH   9  10
HETATM   10  O11 UNL     1     -33.909   3.764   3.924  1.00 20.00    -0.395 OA
HETATM   11  C6  UNL     1     -33.301   2.773   4.742  1.00 20.00     0.201 C 
ENDBRANCH   9  10
ENDBRANCH   1   9
TORSDOF 5
ENDMDL
MODEL 7
REMARK VINA RESULT:      -1.0      1.492      3.930
REMARK  5 active torsions:
REMARK  status: ('A' for Active; 'I' for Inactive)
REMARK    1  A    between atoms: C1_1  and  C7_7 
REMARK    2  A    between atoms: C1_1  and  C9_9 
REMARK    3  A    between atoms: C4_4  and  C9_9 
REMARK    4  A    between atoms: C8_8  and  C9_9 
REMARK    5  A    between atoms: C8_8  and  O11_11 
ROOT
HETATM    1  C9  UNL     1     -33.437   6.290   3.264  1.00 20.00     0.083 C 
ENDROOT
BRANCH   1   2
HETATM    2  C1  UNL     1     -32.770   6.486   1.899  1.00 20.00     0.133 C 
HETATM    3  O10 UNL     1     -33.000   5.732   0.952  1.00 20.00    -0.297 OA
BRANCH   2   4
HETATM    4  C7  UNL     1     -31.785   7.639   1.781  1.00 20.00     0.074 C 
HETATM    5  C5  UNL     1     -32.316   8.770   0.918  1.00 20.00     0.013 C 
ENDBRANCH   2   4
ENDBRANCH   1   2
BRANCH   1   6
HETATM    6  C4  UNL     1     -34.178   4.979   3.337  1.00 20.00    -0.001 A 
HETATM    7  C2  UNL     1     -33.719   3.900   4.279  1.00 20.00     0.006 A 
HETATM    8  C3  UNL     1     -34.999   4.641   4.550  1.00 20.00     0.006 A 
ENDBRANCH   1   6
BRANCH   1   9
HETATM    9  C8  UNL     1     -34.380   7.459   3.559  1.00 20.00     0.179 C 
BRANCH   9  10
HETATM   10  O11 UNL     1     -34.185   7.901   4.897  1.00 20.00    -0.395 OA
HETATM   11  C6  UNL     1     -32.860   8.371   5.102  1.00 20.00     0.201 C 
ENDBRANCH   9  10
ENDBRANCH   1   9
TORSDOF 5
ENDMDL
MODEL 8
REMARK VINA RESULT:      -0.8      1.378      3.421
REMARK  5 active torsions:
REMARK  status: ('A' for Active; 'I' for Inactive)
REMARK    1  A    between atoms: C1_1  and  C7_7 
REMARK    2  A    between atoms: C1_1  and  C9_9 
REMARK    3  A    between atoms: C4_4  and  C9_9 
REMARK    4  A    between atoms: C8_8  and  C9_9 
REMARK    5  A    between atoms: C8_8  and  O11_11 
ROOT
HETATM    1  C9  UNL     1     -32.500   7.036   2.352  1.00 20.00     0.083 C 
ENDROOT
BRANCH   1   2
HETATM    2  C1  UNL     1     -32.653   5.853   1.390  1.00 20.00     0.133 C 
HETATM    3  O10 UNL     1     -33.619   5.756   0.633  1.00 20.00    -0.297 OA
BRANCH   2   4
HETATM    4  C7  UNL     1     -31.567   4.789   1.441  1.00 20.00     0.074 C 
HETATM    5  C5  UNL     1     -31.329   4.136   0.091  1.00 20.00     0.013 C 
ENDBRANCH   2   4
ENDBRANCH   1   2
BRANCH   1   6
HETATM    6  C4  UNL     1     -33.829   7.468   2.916  1.00 20.00    -0.001 A 
HETATM    7  C2  UNL     1     -34.602   6.550   3.823  1.00 20.00     0.006 A 
HETATM    8  C3  UNL     1     -33.961   7.792   4.378  1.00 20.00     0.006 A 
ENDBRANCH   1   6
BRANCH   1   9
HETATM    9  C8  UNL     1     -31.812   8.204   1.640  1.00 20.00     0.179 C 
BRANCH   9  10
HETATM   10  O11 UNL     1     -32.786   9.165   1.253  1.00 20.00    -0.395 OA
HETATM   11  C6  UNL     1     -32.396   9.853   0.072  1.00 20.00     0.201 C 
ENDBRANCH   9  10
ENDBRANCH   1   9
TORSDOF 5
ENDMDL
MODEL 9
REMARK VINA RESULT:      -0.6      1.237      3.031
REMARK  5 active torsions:
REMARK  status: ('A' for Active; 'I' for Inactive)
REMARK    1  A    between atoms: C1_1  and  C7_7 
REMARK    2  A    between atoms: C1_1  and  C9_9 
REMARK    3  A    between atoms: C4_4  and  C9_9 
REMARK    4  A    between atoms: C8_8  and  C9_9 
REMARK    5  A    between atoms: C8_8  and  O11_11 
ROOT
HETATM    1  C9  UNL     1     -32.188   8.290   2.234  1.00 20.00     0.083 C 
ENDROOT
BRANCH   1   2
HETATM    2  C1  UNL     1     -33.076   7.997   3.447  1.00 20.00     0.133 C 
HETATM    3  O10 UNL     1     -32.653   8.099   4.600  1.00 20.00    -0.297 OA
BRANCH   2   4
HETATM    4  C7  UNL     1     -34.499   7.542   3.156  1.00 20.00     0.074 C 
HETATM    5  C5  UNL     1     -34.929   6.380   4.034  1.00 20.00     0.013 C 
ENDBRANCH   2   4
ENDBRANCH   1   2
BRANCH   1   6
HETATM    6  C4  UNL     1     -32.943   9.031   1.160  1.00 20.00    -0.001 A 
HETATM    7  C2  UNL     1     -32.646  10.480   0.887  1.00 20.00     0.006 A 
HETATM    8  C3  UNL     1     -32.250   9.430  -0.113  1.00 20.00     0.006 A 
ENDBRANCH   1   6
BRANCH   1   9
HETATM    9  C8  UNL     1     -31.608   6.986   1.683  1.00 20.00     0.179 C 
BRANCH   9  10
HETATM   10  O11 UNL     1     -32.665   6.079   1.394  1.00 20.00    -0.395 OA
HETATM   11  C6  UNL     1     -32.166   4.811   0.988  1.00 20.00     0.201 C 
ENDBRANCH   9  10
ENDBRANCH   1   9
TORSDOF 5
ENDMDL
