MODEL 1
REMARK VINA RESULT:      -0.5      0.000      0.000
REMARK  5 active torsions:
REMARK  status: ('A' for Active; 'I' for Inactive)
REMARK    1  A    between atoms: C3_3  and  C9_9 
REMARK    2  A    between atoms: C7_7  and  C10_10 
REMARK    3  A    between atoms: C8_8  and  C10_10 
REMARK    4  A    between atoms: C9_9  and  C10_10 
REMARK    5  A    between atoms: C9_9  and  O11_11 
ROOT
HETATM    1  C9  UNL     1     -32.604   7.384   3.145  1.00 20.00     0.130 C 
ENDROOT
BRANCH   1   2
HETATM    2  C3  UNL     1     -33.887   7.335   3.969  1.00 20.00    -0.018 A 
HETATM    3  C1  UNL     1     -34.592   6.004   4.104  1.00 20.00     0.012 A 
HETATM    4  C2  UNL     1     -35.186   7.080   3.240  1.00 20.00     0.012 A 
HETATM    5  C4  UNL     1     -33.911   8.268   5.148  1.00 20.00     0.018 C 
ENDBRANCH   1   2
BRANCH   1   6
HETATM    6  C10 UNL     1     -32.841   7.598   1.627  1.00 20.00     0.014 C 
BRANCH   6   7
HETATM    7  C7  UNL     1     -32.815   6.286   0.813  1.00 20.00     0.002 C 
HETATM    8  C5  UNL     1     -32.040   5.144   1.458  1.00 20.00     0.005 C 
ENDBRANCH   6   7
BRANCH   6   9
HETATM    9  C8  UNL     1     -31.856   8.666   1.088  1.00 20.00     0.002 C 
HETATM   10  C6  UNL     1     -32.521   9.784   0.295  1.00 20.00     0.005 C 
ENDBRANCH   6   9
ENDBRANCH   1   6
BRANCH   1  11
HETATM   11  O11 UNL     1     -31.816   8.470   3.641  1.00 20.00    -0.394 OA
HETATM   12  H31 UNL     1     -32.413   9.018   4.173  1.00 20.00     0.210 HD
ENDBRANCH   1  11
TORSDOF 5
ENDMDL
MODEL 2
REMARK VINA RESULT:      -0.3      1.004      3.940
REMARK  5 active torsions:
REMARK  status: ('A' for Active; 'I' for Inactive)
REMARK    1  A    between atoms: C3_3  and  C9_9 
REMARK    2  A    between atoms: C7_7  and  C10_10 
REMARK    3  A    between atoms: C8_8  and  C10_10 
REMARK    4  A    between atoms: C9_9  and  C10_10 
REMARK    5  A    between atoms: C9_9  and  O11_11 
ROOT
HETATM    1  C9  UNL     1     -32.296   8.692   2.193  1.00 20.00     0.130 C 
ENDROOT
BRANCH   1   2
HETATM    2  C3  UNL     1     -32.094   9.169   0.758  1.00 20.00    -0.018 A 
HETATM    3  C1  UNL     1     -32.349  10.628   0.454  1.00 20.00     0.012 A 
HETATM    4  C2  UNL     1     -33.316   9.584  -0.028  1.00 20.00     0.012 A 
HETATM    5  C4  UNL     1     -30.980   8.479   0.020  1.00 20.00     0.018 C 
ENDBRANCH   1   2
BRANCH   1   6
HETATM    6  C10 UNL     1     -33.276   7.497   2.325  1.00 20.00     0.014 C 
BRANCH   6   7
HETATM    7  C7  UNL     1     -33.977   7.428   3.700  1.00 20.00     0.002 C 
HETATM    8  C5  UNL     1     -35.075   6.379   3.810  1.00 20.00     0.005 C 
ENDBRANCH   6   7
BRANCH   6   9
HETATM    9  C8  UNL     1     -32.553   6.180   1.947  1.00 20.00     0.002 C 
HETATM   10  C6  UNL     1     -33.137   5.475   0.730  1.00 20.00     0.005 C 
ENDBRANCH   6   9
ENDBRANCH   1   6
BRANCH   1  11
HETATM   11  O11 UNL     1     -31.019   8.291   2.697  1.00 20.00    -0.394 OA
HETATM   12  H31 UNL     1     -30.600   7.772   1.994  1.00 20.00     0.210 HD
ENDBRANCH   1  11
TORSDOF 5
ENDMDL
MODEL 3
REMARK VINA RESULT:      -0.0      1.135      1.665
REMARK  5 active torsions:
REMARK  status: ('A' for Active; 'I' for Inactive)
REMARK    1  A    between atoms: C3_3  and  C9_9 
REMARK    2  A    between atoms: C7_7  and  C10_10 
REMARK    3  A    between atoms: C8_8  and  C10_10 
REMARK    4  A    between atoms: C9_9  and  C10_10 
REMARK    5  A    between atoms: C9_9  and  O11_11 
ROOT
HETATM    1  C9  UNL     1     -33.154   6.680   3.402  1.00 20.00     0.130 C 
ENDROOT
BRANCH   1   2
HETATM    2  C3  UNL     1     -34.363   5.824   3.765  1.00 20.00    -0.018 A 
HETATM    3  C1  UNL     1     -35.719   6.263   3.259  1.00 20.00     0.012 A 
HETATM    4  C2  UNL     1     -35.382   6.407   4.716  1.00 20.00     0.012 A 
HETATM    5  C4  UNL     1     -34.085   4.349   3.846  1.00 20.00     0.018 C 
ENDBRANCH   1   2
BRANCH   1   6
HETATM    6  C10 UNL     1     -33.030   6.981   1.885  1.00 20.00     0.014 C 
BRANCH   6   7
HETATM    7  C7  UNL     1     -32.895   5.710   1.018  1.00 20.00     0.002 C 
HETATM    8  C5  UNL     1     -31.564   4.983   1.147  1.00 20.00     0.005 C 
ENDBRANCH   6   7
BRANCH   6   9
HETATM    9  C8  UNL     1     -31.891   8.004   1.645  1.00 20.00     0.002 C 
HETATM   10  C6  UNL     1     -32.284   9.177   0.756  1.00 20.00     0.005 C 
ENDBRANCH   6   9
ENDBRANCH   1   6
BRANCH   1  11
HETATM   11  O11 UNL     1     -33.278   7.920   4.104  1.00 20.00    -0.394 OA
HETATM   12  H31 UNL     1     -32.403   8.335   4.079  1.00 20.00     0.210 HD
ENDBRANCH   1  11
TORSDOF 5
ENDMDL
MODEL 4
REMARK VINA RESULT:       0.1      1.522      3.628
REMARK  5 active torsions:
REMARK  status: ('A' for Active; 'I' for Inactive)
REMARK    1  A    between atoms: C3_3  and  C9_9 
REMARK    2  A    between atoms: C7_7  and  C10_10 
REMARK    3  A    between atoms: C8_8  and  C10_10 
REMARK    4  A    between atoms: C9_9  and  C10_10 
REMARK    5  A    between atoms: C9_9  and  O11_11 
ROOT
HETATM    1  C9  UNL     1     -33.629   7.324   2.794  1.00 20.00     0.130 C 
ENDROOT
BRANCH   1   2
HETATM    2  C3  UNL     1     -32.416   8.218   2.556  1.00 20.00    -0.018 A 
HETATM    3  C1  UNL     1     -32.391   9.059   1.300  1.00 20.00     0.012 A 
HETATM    4  C2  UNL     1     -31.489   7.864   1.417  1.00 20.00     0.012 A 
HETATM    5  C4  UNL     1     -31.812   8.798   3.805  1.00 20.00     0.018 C 
ENDBRANCH   1   2
BRANCH   1   6
HETATM    6  C10 UNL     1     -33.308   5.807   2.755  1.00 20.00     0.014 C 
BRANCH   6   7
HETATM    7  C7  UNL     1     -33.279   5.222   1.326  1.00 20.00     0.002 C 
HETATM    8  C5  UNL     1     -31.919   4.716   0.866  1.00 20.00     0.005 C 
ENDBRANCH   6   7
BRANCH   6   9
HETATM    9  C8  UNL     1     -34.266   5.043   3.704  1.00 20.00     0.002 C 
HETATM   10  C6  UNL     1     -33.713   3.720   4.216  1.00 20.00     0.005 C 
ENDBRANCH   6   9
ENDBRANCH   1   6
BRANCH   1  11
HETATM   11  O11 UNL     1     -34.155   7.646   4.084  1.00 20.00    -0.394 OA
HETATM   12  H31 UNL     1     -34.247   6.805   4.557  1.00 20.00     0.210 HD
ENDBRANCH   1  11
TORSDOF 5
ENDMDL
MODEL 5
REMARK VINA RESULT:       0.1      1.541      2.771
REMARK  5 active torsions:
REMARK  status: ('A' for Active; 'I' for Inactive)
REMARK    1  A    between atoms: C3_3  and  C9_9 
REMARK    2  A    between atoms: C7_7  and  C10_10 
REMARK    3  A    between atoms: C8_8  and  C10_10 
REMARK    4  A    between atoms: C9_9  and  C10_10 
REMARK    5  A    between atoms: C9_9  and  O11_11 
ROOT
HETATM    1  C9  UNL     1     -33.320   6.620   1.805  1.00 20.00     0.130 C 
ENDROOT
BRANCH   1   2
HETATM    2  C3  UNL     1     -33.958   6.224   3.133  1.00 20.00    -0.018 A 
HETATM    3  C1  UNL     1     -35.378   6.669   3.396  1.00 20.00     0.012 A 
HETATM    4  C2  UNL     1     -34.243   7.319   4.135  1.00 20.00     0.012 A 
HETATM    5  C4  UNL     1     -33.531   4.881   3.657  1.00 20.00     0.018 C 
ENDBRANCH   1   2
BRANCH   1   6
HETATM    6  C10 UNL     1     -32.679   8.033   1.813  1.00 20.00     0.014 C 
BRANCH   6   7
HETATM    7  C7  UNL     1     -32.448   8.609   0.398  1.00 20.00     0.002 C 
HETATM    8  C5  UNL     1     -32.545  10.126   0.298  1.00 20.00     0.005 C 
ENDBRANCH   6   7
BRANCH   6   9
HETATM    9  C8  UNL     1     -31.396   8.023   2.681  1.00 20.00     0.002 C 
HETATM   10  C6  UNL     1     -31.410   9.025   3.828  1.00 20.00     0.005 C 
ENDBRANCH   6   9
ENDBRANCH   1   6
BRANCH   1  11
HETATM   11  O11 UNL     1     -32.301   5.660   1.513  1.00 20.00    -0.394 OA
HETATM   12  H31 UNL     1     -32.219   5.103   2.303  1.00 20.00     0.210 HD
ENDBRANCH   1  11
TORSDOF 5
ENDMDL
MODEL 6
REMARK VINA RESULT:       0.4      1.547      4.371
REMARK  5 active torsions:
REMARK  status: ('A' for Active; 'I' for Inactive)
REMARK    1  A    between atoms: C3_3  and  C9_9 
REMARK    2  A    between atoms: C7_7  and  C10_10 
REMARK    3  A    between atoms: C8_8  and  C10_10 
REMARK    4  A    between atoms: C9_9  and  C10_10 
REMARK    5  A    between atoms: C9_9  and  O11_11 
ROOT
HETATM    1  C9  UNL     1     -33.086   6.319   3.113  1.00 20.00     0.130 C 
ENDROOT
BRANCH   1   2
HETATM    2  C3  UNL     1     -32.559   6.737   1.744  1.00 20.00    -0.018 A 
HETATM    3  C1  UNL     1     -31.339   7.628   1.696  1.00 20.00     0.012 A 
HETATM    4  C2  UNL     1     -32.689   8.189   1.349  1.00 20.00     0.012 A 
HETATM    5  C4  UNL     1     -32.714   5.696   0.669  1.00 20.00     0.018 C 
ENDBRANCH   1   2
BRANCH   1   6
HETATM    6  C10 UNL     1     -34.325   7.126   3.582  1.00 20.00     0.014 C 
BRANCH   6   7
HETATM    7  C7  UNL     1     -34.073   7.946   4.866  1.00 20.00     0.002 C 
HETATM    8  C5  UNL     1     -32.651   8.468   5.026  1.00 20.00     0.005 C 
ENDBRANCH   6   7
BRANCH   6   9
HETATM    9  C8  UNL     1     -35.552   6.186   3.693  1.00 20.00     0.002 C 
HETATM   10  C6  UNL     1     -35.435   5.136   4.791  1.00 20.00     0.005 C 
ENDBRANCH   6   9
ENDBRANCH   1   6
BRANCH   1  11
HETATM   11  O11 UNL     1     -33.446   4.937   3.032  1.00 20.00    -0.394 OA
HETATM   12  H31 UNL     1     -34.408   4.901   3.139  1.00 20.00     0.210 HD
ENDBRANCH   1  11
TORSDOF 5
ENDMDL
MODEL 7
REMARK VINA RESULT:       0.7      1.954      3.764
REMARK  5 active torsions:
REMARK  status: ('A' for Active; 'I' for Inactive)
REMARK    1  A    between atoms: C3_3  and  C9_9 
REMARK    2  A    between atoms: C7_7  and  C10_10 
REMARK    3  A    between atoms: C8_8  and  C10_10 
REMARK    4  A    between atoms: C9_9  and  C10_10 
REMARK    5  A    between atoms: C9_9  and  O11_11 
ROOT
HETATM    1  C9  UNL     1     -34.262   6.395   3.221  1.00 20.00     0.130 C 
ENDROOT
BRANCH   1   2
HETATM    2  C3  UNL     1     -33.496   7.645   3.643  1.00 20.00    -0.018 A 
HETATM    3  C1  UNL     1     -33.037   7.744   5.079  1.00 20.00     0.012 A 
HETATM    4  C2  UNL     1     -34.173   8.600   4.598  1.00 20.00     0.012 A 
HETATM    5  C4  UNL     1     -32.607   8.224   2.577  1.00 20.00     0.018 C 
ENDBRANCH   1   2
BRANCH   1   6
HETATM    6  C10 UNL     1     -33.401   5.104   3.214  1.00 20.00     0.014 C 
BRANCH   6   7
HETATM    7  C7  UNL     1     -33.052   4.609   1.793  1.00 20.00     0.002 C 
HETATM    8  C5  UNL     1     -31.878   5.323   1.135  1.00 20.00     0.005 C 
ENDBRANCH   6   7
BRANCH   6   9
HETATM    9  C8  UNL     1     -34.079   4.017   4.085  1.00 20.00     0.002 C 
HETATM   10  C6  UNL     1     -33.110   3.010   4.691  1.00 20.00     0.005 C 
ENDBRANCH   6   9
ENDBRANCH   1   6
BRANCH   1  11
HETATM   11  O11 UNL     1     -35.340   6.219   4.145  1.00 20.00    -0.394 OA
HETATM   12  H31 UNL     1     -35.674   7.106   4.344  1.00 20.00     0.210 HD
ENDBRANCH   1  11
TORSDOF 5
ENDMDL
MODEL 8
REMARK VINA RESULT:       0.8      1.708      3.119
REMARK  5 active torsions:
REMARK  status: ('A' for Active; 'I' for Inactive)
REMARK    1  A    between atoms: C3_3  and  C9_9 
REMARK    2  A    between atoms: C7_7  and  C10_10 
REMARK    3  A    between atoms: C8_8  and  C10_10 
REMARK    4  A    between atoms: C9_9  and  C10_10 
REMARK    5  A    between atoms: C9_9  and  O11_11 
ROOT
HETATM    1  C9  UNL     1     -33.631   6.550   1.955  1.00 20.00     0.130 C 
ENDROOT
BRANCH   1   2
HETATM    2  C3  UNL     1     -34.152   6.129   3.325  1.00 20.00    -0.018 A 
HETATM    3  C1  UNL     1     -35.492   6.669   3.771  1.00 20.00     0.012 A 
HETATM    4  C2  UNL     1     -34.230   7.182   4.406  1.00 20.00     0.012 A 
HETATM    5  C4  UNL     1     -33.787   4.727   3.730  1.00 20.00     0.018 C 
ENDBRANCH   1   2
BRANCH   1   6
HETATM    6  C10 UNL     1     -32.087   6.680   1.882  1.00 20.00     0.014 C 
BRANCH   6   7
HETATM    7  C7  UNL     1     -31.599   8.142   1.785  1.00 20.00     0.002 C 
HETATM    8  C5  UNL     1     -32.374   9.014   0.806  1.00 20.00     0.005 C 
ENDBRANCH   6   7
BRANCH   6   9
HETATM    9  C8  UNL     1     -31.538   5.780   0.746  1.00 20.00     0.002 C 
HETATM   10  C6  UNL     1     -31.127   4.385   1.199  1.00 20.00     0.005 C 
ENDBRANCH   6   9
ENDBRANCH   1   6
BRANCH   1  11
HETATM   11  O11 UNL     1     -34.051   5.559   1.012  1.00 20.00    -0.394 OA
HETATM   12  H31 UNL     1     -33.349   5.504   0.346  1.00 20.00     0.210 HD
ENDBRANCH   1  11
TORSDOF 5
ENDMDL
MODEL 9
REMARK VINA RESULT:       0.8      1.669      2.605
REMARK  5 active torsions:
REMARK  status: ('A' for Active; 'I' for Inactive)
REMARK    1  A    between atoms: C3_3  and  C9_9 
REMARK    2  A    between atoms: C7_7  and  C10_10 
REMARK    3  A    between atoms: C8_8  and  C10_10 
REMARK    4  A    between atoms: C9_9  and  C10_10 
REMARK    5  A    between atoms: C9_9  and  O11_11 
ROOT
HETATM    1  C9  UNL     1     -33.419   6.502   1.996  1.00 20.00     0.130 C 
ENDROOT
BRANCH   1   2
HETATM    2  C3  UNL     1     -34.066   6.020   3.290  1.00 20.00    -0.018 A 
HETATM    3  C1  UNL     1     -35.509   6.395   3.543  1.00 20.00     0.012 A 
HETATM    4  C2  UNL     1     -34.416   7.055   4.334  1.00 20.00     0.012 A 
HETATM    5  C4  UNL     1     -33.595   4.672   3.762  1.00 20.00     0.018 C 
ENDBRANCH   1   2
BRANCH   1   6
HETATM    6  C10 UNL     1     -32.275   7.528   2.210  1.00 20.00     0.014 C 
BRANCH   6   7
HETATM    7  C7  UNL     1     -32.631   8.639   3.222  1.00 20.00     0.002 C 
HETATM    8  C5  UNL     1     -31.499   9.041   4.159  1.00 20.00     0.005 C 
ENDBRANCH   6   7
BRANCH   6   9
HETATM    9  C8  UNL     1     -31.805   8.083   0.841  1.00 20.00     0.002 C 
HETATM   10  C6  UNL     1     -32.341   9.470   0.513  1.00 20.00     0.005 C 
ENDBRANCH   6   9
ENDBRANCH   1   6
BRANCH   1  11
HETATM   11  O11 UNL     1     -32.883   5.355   1.329  1.00 20.00    -0.394 OA
HETATM   12  H31 UNL     1     -33.628   4.930   0.879  1.00 20.00     0.210 HD
ENDBRANCH   1  11
TORSDOF 5
ENDMDL
