MODEL 1
REMARK VINA RESULT:      -1.0      0.000      0.000
REMARK  6 active torsions:
REMARK  status: ('A' for Active; 'I' for Inactive)
REMARK    1  A    between atoms: C5_5  and  C10_10 
REMARK    2  A    between atoms: C6_6  and  C7_7 
REMARK    3  A    between atoms: C6_6  and  C10_10 
REMARK    4  A    between atoms: C7_7  and  C11_11 
REMARK    5  A    between atoms: C8_8  and  C9_9 
REMARK    6  A    between atoms: C8_8  and  C11_11 
ROOT
HETATM    1  C7  UNL     1     -33.112   6.357   1.807  1.00 20.00     0.020 C 
ENDROOT
BRANCH   1   2
HETATM    2  C6  UNL     1     -32.995   5.483   3.067  1.00 20.00     0.005 C 
BRANCH   2   3
HETATM    3  C10 UNL     1     -34.362   5.003   3.598  1.00 20.00    -0.019 C 
HETATM    4  C4  UNL     1     -35.272   6.172   3.985  1.00 20.00     0.010 C 
BRANCH   3   5
HETATM    5  C5  UNL     1     -34.200   4.005   4.763  1.00 20.00    -0.000 C 
HETATM    6  C1  UNL     1     -33.191   2.889   4.532  1.00 20.00     0.005 C 
ENDBRANCH   3   5
ENDBRANCH   2   3
ENDBRANCH   1   2
BRANCH   1   7
HETATM    7  C11 UNL     1     -32.861   7.850   2.073  1.00 20.00     0.082 C 
HETATM    8 CL12 UNL     1     -32.515   8.126   3.818  1.00 20.00    -0.125 Cl
BRANCH   7   9
HETATM    9  C8  UNL     1     -31.678   8.420   1.271  1.00 20.00     0.024 C 
BRANCH   9  10
HETATM   10  C9  UNL     1     -31.978   9.675   0.426  1.00 20.00    -0.021 C 
HETATM   11  C2  UNL     1     -32.874  10.674   1.159  1.00 20.00     0.009 C 
HETATM   12  C3  UNL     1     -32.637   9.262  -0.894  1.00 20.00     0.009 C 
ENDBRANCH   9  10
ENDBRANCH   7   9
ENDBRANCH   1   7
TORSDOF 6
ENDMDL
MODEL 2
REMARK VINA RESULT:      -1.0      1.349      1.779
REMARK  6 active torsions:
REMARK  status: ('A' for Active; 'I' for Inactive)
REMARK    1  A    between atoms: C5_5  and  C10_10 
REMARK    2  A    between atoms: C6_6  and  C7_7 
REMARK    3  A    between atoms: C6_6  and  C10_10 
REMARK    4  A    between atoms: C7_7  and  C11_11 
REMARK    5  A    between atoms: C8_8  and  C9_9 
REMARK    6  A    between atoms: C8_8  and  C11_11 
ROOT
HETATM    1  C7  UNL     1     -33.331   8.129   2.916  1.00 20.00     0.020 C 
ENDROOT
BRANCH   1   2
HETATM    2  C6  UNL     1     -33.749   7.166   4.039  1.00 20.00     0.005 C 
BRANCH   2   3
HETATM    3  C10 UNL     1     -34.724   6.069   3.563  1.00 20.00    -0.019 C 
HETATM    4  C4  UNL     1     -36.132   6.617   3.318  1.00 20.00     0.010 C 
BRANCH   3   5
HETATM    5  C5  UNL     1     -34.747   4.869   4.533  1.00 20.00    -0.000 C 
HETATM    6  C1  UNL     1     -33.773   3.745   4.205  1.00 20.00     0.005 C 
ENDBRANCH   3   5
ENDBRANCH   2   3
ENDBRANCH   1   2
BRANCH   1   7
HETATM    7  C11 UNL     1     -32.054   7.692   2.181  1.00 20.00     0.082 C 
HETATM    8 CL12 UNL     1     -32.312   6.111   1.362  1.00 20.00    -0.125 Cl
BRANCH   7   9
HETATM    9  C8  UNL     1     -31.594   8.699   1.111  1.00 20.00     0.024 C 
BRANCH   9  10
HETATM   10  C9  UNL     1     -32.681   9.647   0.565  1.00 20.00    -0.021 C 
HETATM   11  C2  UNL     1     -32.692   9.707  -0.963  1.00 20.00     0.009 C 
HETATM   12  C3  UNL     1     -32.473  11.053   1.135  1.00 20.00     0.009 C 
ENDBRANCH   9  10
ENDBRANCH   7   9
ENDBRANCH   1   7
TORSDOF 6
ENDMDL
MODEL 3
REMARK VINA RESULT:      -1.0      1.894      5.649
REMARK  6 active torsions:
REMARK  status: ('A' for Active; 'I' for Inactive)
REMARK    1  A    between atoms: C5_5  and  C10_10 
REMARK    2  A    between atoms: C6_6  and  C7_7 
REMARK    3  A    between atoms: C6_6  and  C10_10 
REMARK    4  A    between atoms: C7_7  and  C11_11 
REMARK    5  A    between atoms: C8_8  and  C9_9 
REMARK    6  A    between atoms: C8_8  and  C11_11 
ROOT
HETATM    1  C7  UNL     1     -31.674   7.145   1.780  1.00 20.00     0.020 C 
ENDROOT
BRANCH   1   2
HETATM    2  C6  UNL     1     -32.013   8.619   1.506  1.00 20.00     0.005 C 
BRANCH   2   3
HETATM    3  C10 UNL     1     -32.138   8.941   0.002  1.00 20.00    -0.019 C 
HETATM    4  C4  UNL     1     -30.805   8.780  -0.734  1.00 20.00     0.010 C 
BRANCH   3   5
HETATM    5  C5  UNL     1     -32.745  10.340  -0.231  1.00 20.00    -0.000 C 
HETATM    6  C1  UNL     1     -32.773  11.251   0.988  1.00 20.00     0.005 C 
ENDBRANCH   3   5
ENDBRANCH   2   3
ENDBRANCH   1   2
BRANCH   1   7
HETATM    7  C11 UNL     1     -32.870   6.197   1.590  1.00 20.00     0.082 C 
HETATM    8 CL12 UNL     1     -32.391   4.773   0.601  1.00 20.00    -0.125 Cl
BRANCH   7   9
HETATM    9  C8  UNL     1     -33.442   5.669   2.918  1.00 20.00     0.024 C 
BRANCH   9  10
HETATM   10  C9  UNL     1     -34.575   6.507   3.545  1.00 20.00    -0.021 C 
HETATM   11  C2  UNL     1     -34.047   7.679   4.373  1.00 20.00     0.009 C 
HETATM   12  C3  UNL     1     -35.454   5.610   4.422  1.00 20.00     0.009 C 
ENDBRANCH   9  10
ENDBRANCH   7   9
ENDBRANCH   1   7
TORSDOF 6
ENDMDL
MODEL 4
REMARK VINA RESULT:      -0.8      1.289      6.056
REMARK  6 active torsions:
REMARK  status: ('A' for Active; 'I' for Inactive)
REMARK    1  A    between atoms: C5_5  and  C10_10 
REMARK    2  A    between atoms: C6_6  and  C7_7 
REMARK    3  A    between atoms: C6_6  and  C10_10 
REMARK    4  A    between atoms: C7_7  and  C11_11 
REMARK    5  A    between atoms: C8_8  and  C9_9 
REMARK    6  A    between atoms: C8_8  and  C11_11 
ROOT
HETATM    1  C7  UNL     1     -33.095   5.429   2.329  1.00 20.00     0.020 C 
ENDROOT
BRANCH   1   2
HETATM    2  C6  UNL     1     -33.210   6.776   1.597  1.00 20.00     0.005 C 
BRANCH   2   3
HETATM    3  C10 UNL     1     -31.956   7.660   1.758  1.00 20.00    -0.019 C 
HETATM    4  C4  UNL     1     -32.016   8.521   3.022  1.00 20.00     0.010 C 
BRANCH   3   5
HETATM    5  C5  UNL     1     -31.703   8.521   0.502  1.00 20.00    -0.000 C 
HETATM    6  C1  UNL     1     -32.526   9.799   0.410  1.00 20.00     0.005 C 
ENDBRANCH   3   5
ENDBRANCH   2   3
ENDBRANCH   1   2
BRANCH   1   7
HETATM    7  C11 UNL     1     -33.700   5.448   3.743  1.00 20.00     0.082 C 
HETATM    8 CL12 UNL     1     -35.151   6.511   3.788  1.00 20.00    -0.125 Cl
BRANCH   7   9
HETATM    9  C8  UNL     1     -34.128   4.056   4.239  1.00 20.00     0.024 C 
BRANCH   9  10
HETATM   10  C9  UNL     1     -32.986   3.109   4.659  1.00 20.00    -0.021 C 
HETATM   11  C2  UNL     1     -33.337   1.636   4.445  1.00 20.00     0.009 C 
HETATM   12  C3  UNL     1     -32.635   3.346   6.131  1.00 20.00     0.009 C 
ENDBRANCH   9  10
ENDBRANCH   7   9
ENDBRANCH   1   7
TORSDOF 6
ENDMDL
MODEL 5
REMARK VINA RESULT:      -0.8      0.989      2.210
REMARK  6 active torsions:
REMARK  status: ('A' for Active; 'I' for Inactive)
REMARK    1  A    between atoms: C5_5  and  C10_10 
REMARK    2  A    between atoms: C6_6  and  C7_7 
REMARK    3  A    between atoms: C6_6  and  C10_10 
REMARK    4  A    between atoms: C7_7  and  C11_11 
REMARK    5  A    between atoms: C8_8  and  C9_9 
REMARK    6  A    between atoms: C8_8  and  C11_11 
ROOT
HETATM    1  C7  UNL     1     -32.010   6.387   1.636  1.00 20.00     0.020 C 
ENDROOT
BRANCH   1   2
HETATM    2  C6  UNL     1     -33.254   5.528   1.918  1.00 20.00     0.005 C 
BRANCH   2   3
HETATM    3  C10 UNL     1     -33.622   5.470   3.415  1.00 20.00    -0.019 C 
HETATM    4  C4  UNL     1     -33.882   4.038   3.889  1.00 20.00     0.010 C 
BRANCH   3   5
HETATM    5  C5  UNL     1     -34.811   6.397   3.745  1.00 20.00    -0.000 C 
HETATM    6  C1  UNL     1     -34.449   7.699   4.446  1.00 20.00     0.005 C 
ENDBRANCH   3   5
ENDBRANCH   2   3
ENDBRANCH   1   2
BRANCH   1   7
HETATM    7  C11 UNL     1     -32.234   7.887   1.890  1.00 20.00     0.082 C 
HETATM    8 CL12 UNL     1     -31.300   8.424   3.331  1.00 20.00    -0.125 Cl
BRANCH   7   9
HETATM    9  C8  UNL     1     -31.810   8.774   0.706  1.00 20.00     0.024 C 
BRANCH   9  10
HETATM   10  C9  UNL     1     -32.789   9.903   0.324  1.00 20.00    -0.021 C 
HETATM   11  C2  UNL     1     -32.754  10.228  -1.170  1.00 20.00     0.009 C 
HETATM   12  C3  UNL     1     -32.466  11.162   1.133  1.00 20.00     0.009 C 
ENDBRANCH   9  10
ENDBRANCH   7   9
ENDBRANCH   1   7
TORSDOF 6
ENDMDL
MODEL 6
REMARK VINA RESULT:      -0.6      0.466      1.066
REMARK  6 active torsions:
REMARK  status: ('A' for Active; 'I' for Inactive)
REMARK    1  A    between atoms: C5_5  and  C10_10 
REMARK    2  A    between atoms: C6_6  and  C7_7 
REMARK    3  A    between atoms: C6_6  and  C10_10 
REMARK    4  A    between atoms: C7_7  and  C11_11 
REMARK    5  A    between atoms: C8_8  and  C9_9 
REMARK    6  A    between atoms: C8_8  and  C11_11 
ROOT
HETATM    1  C7  UNL     1     -33.129   6.306   1.928  1.00 20.00     0.020 C 
ENDROOT
BRANCH   1   2
HETATM    2  C6  UNL     1     -33.000   5.396   3.160  1.00 20.00     0.005 C 
BRANCH   2   3
HETATM    3  C10 UNL     1     -34.358   4.864   3.663  1.00 20.00    -0.019 C 
HETATM    4  C4  UNL     1     -35.312   5.996   4.052  1.00 20.00     0.010 C 
BRANCH   3   5
HETATM    5  C5  UNL     1     -34.181   3.855   4.817  1.00 20.00    -0.000 C 
HETATM    6  C1  UNL     1     -33.044   2.858   4.644  1.00 20.00     0.005 C 
ENDBRANCH   3   5
ENDBRANCH   2   3
ENDBRANCH   1   2
BRANCH   1   7
HETATM    7  C11 UNL     1     -33.008   7.803   2.258  1.00 20.00     0.082 C 
HETATM    8 CL12 UNL     1     -32.627   8.031   4.002  1.00 20.00    -0.125 Cl
BRANCH   7   9
HETATM    9  C8  UNL     1     -31.913   8.518   1.446  1.00 20.00     0.024 C 
BRANCH   9  10
HETATM   10  C9  UNL     1     -32.398   9.322   0.222  1.00 20.00    -0.021 C 
HETATM   11  C2  UNL     1     -31.372   9.337  -0.912  1.00 20.00     0.009 C 
HETATM   12  C3  UNL     1     -32.720  10.758   0.644  1.00 20.00     0.009 C 
ENDBRANCH   9  10
ENDBRANCH   7   9
ENDBRANCH   1   7
TORSDOF 6
ENDMDL
MODEL 7
REMARK VINA RESULT:      -0.6      2.009      3.061
REMARK  6 active torsions:
REMARK  status: ('A' for Active; 'I' for Inactive)
REMARK    1  A    between atoms: C5_5  and  C10_10 
REMARK    2  A    between atoms: C6_6  and  C7_7 
REMARK    3  A    between atoms: C6_6  and  C10_10 
REMARK    4  A    between atoms: C7_7  and  C11_11 
REMARK    5  A    between atoms: C8_8  and  C9_9 
REMARK    6  A    between atoms: C8_8  and  C11_11 
ROOT
HETATM    1  C7  UNL     1     -32.739   7.910   3.520  1.00 20.00     0.020 C 
ENDROOT
BRANCH   1   2
HETATM    2  C6  UNL     1     -34.042   7.531   4.242  1.00 20.00     0.005 C 
BRANCH   2   3
HETATM    3  C10 UNL     1     -34.783   6.354   3.572  1.00 20.00    -0.019 C 
HETATM    4  C4  UNL     1     -36.175   6.757   3.079  1.00 20.00     0.010 C 
BRANCH   3   5
HETATM    5  C5  UNL     1     -34.849   5.123   4.500  1.00 20.00    -0.000 C 
HETATM    6  C1  UNL     1     -33.923   3.974   4.126  1.00 20.00     0.005 C 
ENDBRANCH   3   5
ENDBRANCH   2   3
ENDBRANCH   1   2
BRANCH   1   7
HETATM    7  C11 UNL     1     -32.789   7.670   2.002  1.00 20.00     0.082 C 
HETATM    8 CL12 UNL     1     -32.444   9.196   1.114  1.00 20.00    -0.125 Cl
BRANCH   7   9
HETATM    9  C8  UNL     1     -31.778   6.614   1.520  1.00 20.00     0.024 C 
BRANCH   9  10
HETATM   10  C9  UNL     1     -32.361   5.228   1.178  1.00 20.00    -0.021 C 
HETATM   11  C2  UNL     1     -31.376   4.353   0.401  1.00 20.00     0.009 C 
HETATM   12  C3  UNL     1     -33.650   5.397   0.368  1.00 20.00     0.009 C 
ENDBRANCH   9  10
ENDBRANCH   7   9
ENDBRANCH   1   7
TORSDOF 6
ENDMDL
MODEL 8
REMARK VINA RESULT:      -0.5      1.377      1.596
REMARK  6 active torsions:
REMARK  status: ('A' for Active; 'I' for Inactive)
REMARK    1  A    between atoms: C5_5  and  C10_10 
REMARK    2  A    between atoms: C6_6  and  C7_7 
REMARK    3  A    between atoms: C6_6  and  C10_10 
REMARK    4  A    between atoms: C7_7  and  C11_11 
REMARK    5  A    between atoms: C8_8  and  C9_9 
REMARK    6  A    between atoms: C8_8  and  C11_11 
ROOT
HETATM    1  C7  UNL     1     -32.379   7.590   3.364  1.00 20.00     0.020 C 
ENDROOT
BRANCH   1   2
HETATM    2  C6  UNL     1     -33.907   7.536   3.521  1.00 20.00     0.005 C 
BRANCH   2   3
HETATM    3  C10 UNL     1     -34.472   6.102   3.436  1.00 20.00    -0.019 C 
HETATM    4  C4  UNL     1     -35.661   5.895   4.379  1.00 20.00     0.010 C 
BRANCH   3   5
HETATM    5  C5  UNL     1     -33.375   5.044   3.672  1.00 20.00    -0.000 C 
HETATM    6  C1  UNL     1     -33.851   3.733   4.283  1.00 20.00     0.005 C 
ENDBRANCH   3   5
ENDBRANCH   2   3
ENDBRANCH   1   2
BRANCH   1   7
HETATM    7  C11 UNL     1     -31.918   7.671   1.899  1.00 20.00     0.082 C 
HETATM    8 CL12 UNL     1     -31.817   6.024   1.182  1.00 20.00    -0.125 Cl
BRANCH   7   9
HETATM    9  C8  UNL     1     -32.857   8.507   1.012  1.00 20.00     0.024 C 
BRANCH   9  10
HETATM   10  C9  UNL     1     -32.265   9.814   0.446  1.00 20.00    -0.021 C 
HETATM   11  C2  UNL     1     -32.713  11.048   1.230  1.00 20.00     0.009 C 
HETATM   12  C3  UNL     1     -32.662   9.965  -1.025  1.00 20.00     0.009 C 
ENDBRANCH   9  10
ENDBRANCH   7   9
ENDBRANCH   1   7
TORSDOF 6
ENDMDL
MODEL 9
REMARK VINA RESULT:      -0.1      1.813      5.254
REMARK  6 active torsions:
REMARK  status: ('A' for Active; 'I' for Inactive)
REMARK    1  A    between atoms: C5_5  and  C10_10 
REMARK    2  A    between atoms: C6_6  and  C7_7 
REMARK    3  A    between atoms: C6_6  and  C10_10 
REMARK    4  A    between atoms: C7_7  and  C11_11 
REMARK    5  A    between atoms: C8_8  and  C9_9 
REMARK    6  A    between atoms: C8_8  and  C11_11 
ROOT
HETATM    1  C7  UNL     1     -33.104   6.867   0.956  1.00 20.00     0.020 C 
ENDROOT
BRANCH   1   2
HETATM    2  C6  UNL     1     -31.711   7.489   0.768  1.00 20.00     0.005 C 
BRANCH   2   3
HETATM    3  C10 UNL     1     -31.571   8.872   1.437  1.00 20.00    -0.019 C 
HETATM    4  C4  UNL     1     -31.537   8.772   2.964  1.00 20.00     0.010 C 
BRANCH   3   5
HETATM    5  C5  UNL     1     -32.669   9.847   0.961  1.00 20.00    -0.000 C 
HETATM    6  C1  UNL     1     -32.683  10.136  -0.533  1.00 20.00     0.005 C 
ENDBRANCH   3   5
ENDBRANCH   2   3
ENDBRANCH   1   2
BRANCH   1   7
HETATM    7  C11 UNL     1     -33.067   5.465   1.587  1.00 20.00     0.082 C 
HETATM    8 CL12 UNL     1     -31.456   4.706   1.333  1.00 20.00    -0.125 Cl
BRANCH   7   9
HETATM    9  C8  UNL     1     -33.343   5.473   3.101  1.00 20.00     0.024 C 
BRANCH   9  10
HETATM   10  C9  UNL     1     -34.584   6.270   3.556  1.00 20.00    -0.021 C 
HETATM   11  C2  UNL     1     -34.214   7.563   4.285  1.00 20.00     0.009 C 
HETATM   12  C3  UNL     1     -35.452   5.395   4.466  1.00 20.00     0.009 C 
ENDBRANCH   9  10
ENDBRANCH   7   9
ENDBRANCH   1   7
TORSDOF 6
ENDMDL
