MODEL 1
REMARK VINA RESULT:      -2.3      0.000      0.000
REMARK  3 active torsions:
REMARK  status: ('A' for Active; 'I' for Inactive)
REMARK    1  A    between atoms: C1_1  and  C6_6 
REMARK    2  A    between atoms: C1_1  and  O8_8 
REMARK    3  A    between atoms: C4_4  and  C6_6 
ROOT
HETATM    1  C1  UNL     1     -32.743   7.116   2.191  1.00 20.00     0.132 C 
HETATM    2  N7  UNL     1     -32.823   5.943   1.659  1.00 20.00    -0.282 NA
HETATM    3  H19 UNL     1     -32.263   5.904   0.800  1.00 20.00     0.189 HD
ENDROOT
BRANCH   1   4
HETATM    4  C6  UNL     1     -31.945   8.243   1.601  1.00 20.00     0.090 C 
BRANCH   4   5
HETATM    5  C4  UNL     1     -32.765   9.101   0.694  1.00 20.00    -0.007 A 
HETATM    6  C2  UNL     1     -32.675  10.598   0.781  1.00 20.00     0.005 A 
HETATM    7  C3  UNL     1     -32.106   9.880  -0.410  1.00 20.00     0.005 A 
ENDBRANCH   4   5
ENDBRANCH   1   4
BRANCH   1   8
HETATM    8  O8  UNL     1     -33.389   7.487   3.327  1.00 20.00    -0.343 OA
HETATM    9  C5  UNL     1     -34.500   6.681   3.742  1.00 20.00     0.211 C 
ENDBRANCH   1   8
TORSDOF 3
ENDMDL
MODEL 2
REMARK VINA RESULT:      -2.1      2.620      3.638
REMARK  3 active torsions:
REMARK  status: ('A' for Active; 'I' for Inactive)
REMARK    1  A    between atoms: C1_1  and  C6_6 
REMARK    2  A    between atoms: C1_1  and  O8_8 
REMARK    3  A    between atoms: C4_4  and  C6_6 
ROOT
HETATM    1  C1  UNL     1     -34.585   5.168   3.990  1.00 20.00     0.132 C 
HETATM    2  N7  UNL     1     -35.628   4.975   4.725  1.00 20.00    -0.282 NA
HETATM    3  H19 UNL     1     -36.161   5.845   4.822  1.00 20.00     0.189 HD
ENDROOT
BRANCH   1   4
HETATM    4  C6  UNL     1     -34.228   6.498   3.391  1.00 20.00     0.090 C 
BRANCH   4   5
HETATM    5  C4  UNL     1     -32.860   6.497   2.790  1.00 20.00    -0.007 A 
HETATM    6  C2  UNL     1     -32.680   6.267   1.315  1.00 20.00     0.005 A 
HETATM    7  C3  UNL     1     -32.424   7.628   1.900  1.00 20.00     0.005 A 
ENDBRANCH   4   5
ENDBRANCH   1   4
BRANCH   1   8
HETATM    8  O8  UNL     1     -33.670   4.210   3.691  1.00 20.00    -0.343 OA
HETATM    9  C5  UNL     1     -33.414   3.214   4.690  1.00 20.00     0.211 C 
ENDBRANCH   1   8
TORSDOF 3
ENDMDL
MODEL 3
REMARK VINA RESULT:      -2.1      1.712      3.936
REMARK  3 active torsions:
REMARK  status: ('A' for Active; 'I' for Inactive)
REMARK    1  A    between atoms: C1_1  and  C6_6 
REMARK    2  A    between atoms: C1_1  and  O8_8 
REMARK    3  A    between atoms: C4_4  and  C6_6 
ROOT
HETATM    1  C1  UNL     1     -32.123   8.016   1.813  1.00 20.00     0.132 C 
HETATM    2  N7  UNL     1     -31.392   8.407   2.803  1.00 20.00    -0.282 NA
HETATM    3  H19 UNL     1     -31.612   7.862   3.644  1.00 20.00     0.189 HD
ENDROOT
BRANCH   1   4
HETATM    4  C6  UNL     1     -33.148   6.924   1.919  1.00 20.00     0.090 C 
BRANCH   4   5
HETATM    5  C4  UNL     1     -33.517   6.632   3.337  1.00 20.00    -0.007 A 
HETATM    6  C2  UNL     1     -34.313   7.627   4.134  1.00 20.00     0.005 A 
HETATM    7  C3  UNL     1     -34.944   6.333   3.702  1.00 20.00     0.005 A 
ENDBRANCH   4   5
ENDBRANCH   1   4
BRANCH   1   8
HETATM    8  O8  UNL     1     -32.077   8.556   0.568  1.00 20.00    -0.343 OA
HETATM    9  C5  UNL     1     -32.494   9.921   0.430  1.00 20.00     0.211 C 
ENDBRANCH   1   8
TORSDOF 3
ENDMDL
MODEL 4
REMARK VINA RESULT:      -2.0      1.524      3.776
REMARK  3 active torsions:
REMARK  status: ('A' for Active; 'I' for Inactive)
REMARK    1  A    between atoms: C1_1  and  C6_6 
REMARK    2  A    between atoms: C1_1  and  O8_8 
REMARK    3  A    between atoms: C4_4  and  C6_6 
ROOT
HETATM    1  C1  UNL     1     -32.228   6.351   1.570  1.00 20.00     0.132 C 
HETATM    2  N7  UNL     1     -31.642   5.284   1.140  1.00 20.00    -0.282 NA
HETATM    3  H19 UNL     1     -32.311   4.508   1.085  1.00 20.00     0.189 HD
ENDROOT
BRANCH   1   4
HETATM    4  C6  UNL     1     -33.682   6.406   1.940  1.00 20.00     0.090 C 
BRANCH   4   5
HETATM    5  C4  UNL     1     -33.894   6.289   3.414  1.00 20.00    -0.007 A 
HETATM    6  C2  UNL     1     -34.294   7.492   4.221  1.00 20.00     0.005 A 
HETATM    7  C3  UNL     1     -35.279   6.382   3.990  1.00 20.00     0.005 A 
ENDBRANCH   4   5
ENDBRANCH   1   4
BRANCH   1   8
HETATM    8  O8  UNL     1     -31.604   7.541   1.767  1.00 20.00    -0.343 OA
HETATM    9  C5  UNL     1     -32.176   8.693   1.133  1.00 20.00     0.211 C 
ENDBRANCH   1   8
TORSDOF 3
ENDMDL
MODEL 5
REMARK VINA RESULT:      -2.0      2.006      2.799
REMARK  3 active torsions:
REMARK  status: ('A' for Active; 'I' for Inactive)
REMARK    1  A    between atoms: C1_1  and  C6_6 
REMARK    2  A    between atoms: C1_1  and  O8_8 
REMARK    3  A    between atoms: C4_4  and  C6_6 
ROOT
HETATM    1  C1  UNL     1     -34.385   6.085   3.672  1.00 20.00     0.132 C 
HETATM    2  N7  UNL     1     -35.583   6.091   4.150  1.00 20.00    -0.282 NA
HETATM    3  H19 UNL     1     -35.911   7.055   4.276  1.00 20.00     0.189 HD
ENDROOT
BRANCH   1   4
HETATM    4  C6  UNL     1     -33.607   7.333   3.368  1.00 20.00     0.090 C 
BRANCH   4   5
HETATM    5  C4  UNL     1     -33.004   7.303   2.001  1.00 20.00    -0.007 A 
HETATM    6  C2  UNL     1     -32.424   8.554   1.401  1.00 20.00     0.005 A 
HETATM    7  C3  UNL     1     -31.517   7.434   1.827  1.00 20.00     0.005 A 
ENDBRANCH   4   5
ENDBRANCH   1   4
BRANCH   1   8
HETATM    8  O8  UNL     1     -33.669   4.960   3.411  1.00 20.00    -0.343 OA
HETATM    9  C5  UNL     1     -33.866   3.842   4.287  1.00 20.00     0.211 C 
ENDBRANCH   1   8
TORSDOF 3
ENDMDL
MODEL 6
REMARK VINA RESULT:      -1.9      3.162      4.125
REMARK  3 active torsions:
REMARK  status: ('A' for Active; 'I' for Inactive)
REMARK    1  A    between atoms: C1_1  and  C6_6 
REMARK    2  A    between atoms: C1_1  and  O8_8 
REMARK    3  A    between atoms: C4_4  and  C6_6 
ROOT
HETATM    1  C1  UNL     1     -34.470   4.503   4.111  1.00 20.00     0.132 C 
HETATM    2  N7  UNL     1     -35.551   4.856   4.721  1.00 20.00    -0.282 NA
HETATM    3  H19 UNL     1     -35.743   5.850   4.558  1.00 20.00     0.189 HD
ENDROOT
BRANCH   1   4
HETATM    4  C6  UNL     1     -33.631   5.445   3.298  1.00 20.00     0.090 C 
BRANCH   4   5
HETATM    5  C4  UNL     1     -34.161   6.842   3.327  1.00 20.00    -0.007 A 
HETATM    6  C2  UNL     1     -33.822   7.757   4.471  1.00 20.00     0.005 A 
HETATM    7  C3  UNL     1     -33.236   8.007   3.109  1.00 20.00     0.005 A 
ENDBRANCH   4   5
ENDBRANCH   1   4
BRANCH   1   8
HETATM    8  O8  UNL     1     -33.943   3.252   4.149  1.00 20.00    -0.343 OA
HETATM    9  C5  UNL     1     -32.936   2.995   5.137  1.00 20.00     0.211 C 
ENDBRANCH   1   8
TORSDOF 3
ENDMDL
MODEL 7
REMARK VINA RESULT:      -1.9      1.255      4.251
REMARK  3 active torsions:
REMARK  status: ('A' for Active; 'I' for Inactive)
REMARK    1  A    between atoms: C1_1  and  C6_6 
REMARK    2  A    between atoms: C1_1  and  O8_8 
REMARK    3  A    between atoms: C4_4  and  C6_6 
ROOT
HETATM    1  C1  UNL     1     -32.559   7.280   2.119  1.00 20.00     0.132 C 
HETATM    2  N7  UNL     1     -32.369   6.248   1.367  1.00 20.00    -0.282 NA
HETATM    3  H19 UNL     1     -32.912   5.450   1.714  1.00 20.00     0.189 HD
ENDROOT
BRANCH   1   4
HETATM    4  C6  UNL     1     -33.447   7.271   3.330  1.00 20.00     0.090 C 
BRANCH   4   5
HETATM    5  C4  UNL     1     -34.512   6.227   3.242  1.00 20.00    -0.007 A 
HETATM    6  C2  UNL     1     -34.402   4.962   4.046  1.00 20.00     0.005 A 
HETATM    7  C3  UNL     1     -35.438   5.991   4.402  1.00 20.00     0.005 A 
ENDBRANCH   4   5
ENDBRANCH   1   4
BRANCH   1   8
HETATM    8  O8  UNL     1     -31.965   8.486   1.929  1.00 20.00    -0.343 OA
HETATM    9  C5  UNL     1     -32.282   9.190   0.722  1.00 20.00     0.211 C 
ENDBRANCH   1   8
TORSDOF 3
ENDMDL
MODEL 8
REMARK VINA RESULT:      -1.7      2.480      3.216
REMARK  3 active torsions:
REMARK  status: ('A' for Active; 'I' for Inactive)
REMARK    1  A    between atoms: C1_1  and  C6_6 
REMARK    2  A    between atoms: C1_1  and  O8_8 
REMARK    3  A    between atoms: C4_4  and  C6_6 
ROOT
HETATM    1  C1  UNL     1     -34.612   6.386   3.882  1.00 20.00     0.132 C 
HETATM    2  N7  UNL     1     -35.701   5.798   4.250  1.00 20.00    -0.282 NA
HETATM    3  H19 UNL     1     -35.654   4.796   4.033  1.00 20.00     0.189 HD
ENDROOT
BRANCH   1   4
HETATM    4  C6  UNL     1     -33.467   5.674   3.222  1.00 20.00     0.090 C 
BRANCH   4   5
HETATM    5  C4  UNL     1     -33.198   6.192   1.847  1.00 20.00    -0.007 A 
HETATM    6  C2  UNL     1     -32.030   7.104   1.596  1.00 20.00     0.005 A 
HETATM    7  C3  UNL     1     -32.009   5.695   1.071  1.00 20.00     0.005 A 
ENDBRANCH   4   5
ENDBRANCH   1   4
BRANCH   1   8
HETATM    8  O8  UNL     1     -34.378   7.717   4.018  1.00 20.00    -0.343 OA
HETATM    9  C5  UNL     1     -33.352   8.110   4.940  1.00 20.00     0.211 C 
ENDBRANCH   1   8
TORSDOF 3
ENDMDL
MODEL 9
REMARK VINA RESULT:      -1.7      1.925      2.564
REMARK  3 active torsions:
REMARK  status: ('A' for Active; 'I' for Inactive)
REMARK    1  A    between atoms: C1_1  and  C6_6 
REMARK    2  A    between atoms: C1_1  and  O8_8 
REMARK    3  A    between atoms: C4_4  and  C6_6 
ROOT
HETATM    1  C1  UNL     1     -34.210   7.145   3.863  1.00 20.00     0.132 C 
HETATM    2  N7  UNL     1     -33.831   7.999   4.753  1.00 20.00    -0.282 NA
HETATM    3  H19 UNL     1     -33.000   8.506   4.428  1.00 20.00     0.189 HD
ENDROOT
BRANCH   1   4
HETATM    4  C6  UNL     1     -33.502   6.940   2.555  1.00 20.00     0.090 C 
BRANCH   4   5
HETATM    5  C4  UNL     1     -32.379   7.907   2.364  1.00 20.00    -0.007 A 
HETATM    6  C2  UNL     1     -31.333   7.655   1.314  1.00 20.00     0.005 A 
HETATM    7  C3  UNL     1     -32.325   8.770   1.135  1.00 20.00     0.005 A 
ENDBRANCH   4   5
ENDBRANCH   1   4
BRANCH   1   8
HETATM    8  O8  UNL     1     -35.271   6.309   4.007  1.00 20.00    -0.343 OA
HETATM    9  C5  UNL     1     -34.991   4.951   4.370  1.00 20.00     0.211 C 
ENDBRANCH   1   8
TORSDOF 3
ENDMDL
