MODEL 1
REMARK VINA RESULT:      -2.1      0.000      0.000
REMARK  1 active torsions:
REMARK  status: ('A' for Active; 'I' for Inactive)
REMARK    1  A    between atoms: C3_3  and  C7_7 
ROOT
HETATM    1  C1  UNL     1     -32.213   8.840   1.017  1.00 20.00     0.087 C 
HETATM    2  C2  UNL     1     -32.369   7.907   2.077  1.00 20.00     0.090 C 
HETATM    3  C3  UNL     1     -33.574   7.607   2.578  1.00 20.00    -0.011 C 
HETATM    4  N8  UNL     1     -32.083   9.601   0.152  1.00 20.00    -0.192 NA
ENDROOT
BRANCH   3   5
HETATM    5  C7  UNL     1     -33.787   6.648   3.676  1.00 20.00     0.009 C 
HETATM    6  C5  UNL     1     -35.266   6.358   4.038  1.00 20.00     0.008 C 
HETATM    7  C4  UNL     1     -34.844   4.892   4.271  1.00 20.00     0.001 C 
HETATM    8  C6  UNL     1     -33.683   5.150   3.289  1.00 20.00     0.008 C 
ENDBRANCH   3   5
TORSDOF 1
ENDMDL
MODEL 2
REMARK VINA RESULT:      -1.6      0.901      1.211
REMARK  1 active torsions:
REMARK  status: ('A' for Active; 'I' for Inactive)
REMARK    1  A    between atoms: C3_3  and  C7_7 
ROOT
HETATM    1  C1  UNL     1     -32.346   9.696   0.442  1.00 20.00     0.087 C 
HETATM    2  C2  UNL     1     -32.759   9.015   1.618  1.00 20.00     0.090 C 
HETATM    3  C3  UNL     1     -32.531   7.707   1.789  1.00 20.00    -0.011 C 
HETATM    4  N8  UNL     1     -32.011  10.255  -0.517  1.00 20.00    -0.192 NA
ENDROOT
BRANCH   3   5
HETATM    5  C7  UNL     1     -32.939   6.956   2.989  1.00 20.00     0.009 C 
HETATM    6  C5  UNL     1     -34.111   7.568   3.799  1.00 20.00     0.008 C 
HETATM    7  C4  UNL     1     -34.600   6.125   4.040  1.00 20.00     0.001 C 
HETATM    8  C6  UNL     1     -33.867   5.740   2.739  1.00 20.00     0.008 C 
ENDBRANCH   3   5
TORSDOF 1
ENDMDL
MODEL 3
REMARK VINA RESULT:      -1.3      2.627      4.700
REMARK  1 active torsions:
REMARK  status: ('A' for Active; 'I' for Inactive)
REMARK    1  A    between atoms: C3_3  and  C7_7 
ROOT
HETATM    1  C1  UNL     1     -34.857   6.208   4.055  1.00 20.00     0.087 C 
HETATM    2  C2  UNL     1     -34.024   7.263   3.598  1.00 20.00     0.090 C 
HETATM    3  C3  UNL     1     -33.113   7.071   2.635  1.00 20.00    -0.011 C 
HETATM    4  N8  UNL     1     -35.540   5.349   4.431  1.00 20.00    -0.192 NA
ENDROOT
BRANCH   3   5
HETATM    5  C7  UNL     1     -32.225   8.132   2.127  1.00 20.00     0.009 C 
HETATM    6  C5  UNL     1     -31.590   7.869   0.738  1.00 20.00     0.008 C 
HETATM    7  C4  UNL     1     -31.781   9.373   0.449  1.00 20.00     0.001 C 
HETATM    8  C6  UNL     1     -32.934   9.346   1.473  1.00 20.00     0.008 C 
ENDBRANCH   3   5
TORSDOF 1
ENDMDL
MODEL 4
REMARK VINA RESULT:      -1.3      2.373      4.857
REMARK  1 active torsions:
REMARK  status: ('A' for Active; 'I' for Inactive)
REMARK    1  A    between atoms: C3_3  and  C7_7 
ROOT
HETATM    1  C1  UNL     1     -34.060   6.549   3.505  1.00 20.00     0.087 C 
HETATM    2  C2  UNL     1     -33.500   7.714   2.917  1.00 20.00     0.090 C 
HETATM    3  C3  UNL     1     -32.606   7.638   1.923  1.00 20.00    -0.011 C 
HETATM    4  N8  UNL     1     -34.519   5.599   3.988  1.00 20.00    -0.192 NA
ENDROOT
BRANCH   3   5
HETATM    5  C7  UNL     1     -31.996   8.816   1.281  1.00 20.00     0.009 C 
HETATM    6  C5  UNL     1     -32.074   8.854  -0.267  1.00 20.00     0.008 C 
HETATM    7  C4  UNL     1     -32.304  10.375  -0.144  1.00 20.00     0.001 C 
HETATM    8  C6  UNL     1     -32.866  10.099   1.266  1.00 20.00     0.008 C 
ENDBRANCH   3   5
TORSDOF 1
ENDMDL
MODEL 5
REMARK VINA RESULT:      -1.1      3.225      4.759
REMARK  1 active torsions:
REMARK  status: ('A' for Active; 'I' for Inactive)
REMARK    1  A    between atoms: C3_3  and  C7_7 
ROOT
HETATM    1  C1  UNL     1     -33.626   3.587   4.206  1.00 20.00     0.087 C 
HETATM    2  C2  UNL     1     -33.721   4.880   3.627  1.00 20.00     0.090 C 
HETATM    3  C3  UNL     1     -33.038   5.207   2.522  1.00 20.00    -0.011 C 
HETATM    4  N8  UNL     1     -33.551   2.533   4.682  1.00 20.00    -0.192 NA
ENDROOT
BRANCH   3   5
HETATM    5  C7  UNL     1     -33.103   6.533   1.884  1.00 20.00     0.009 C 
HETATM    6  C5  UNL     1     -33.038   7.747   2.846  1.00 20.00     0.008 C 
HETATM    7  C4  UNL     1     -32.187   8.458   1.774  1.00 20.00     0.001 C 
HETATM    8  C6  UNL     1     -31.773   7.056   1.281  1.00 20.00     0.008 C 
ENDBRANCH   3   5
TORSDOF 1
ENDMDL
MODEL 6
REMARK VINA RESULT:      -0.9      3.513      4.771
REMARK  1 active torsions:
REMARK  status: ('A' for Active; 'I' for Inactive)
REMARK    1  A    between atoms: C3_3  and  C7_7 
ROOT
HETATM    1  C1  UNL     1     -33.450   2.881   4.419  1.00 20.00     0.087 C 
HETATM    2  C2  UNL     1     -33.515   4.214   3.933  1.00 20.00     0.090 C 
HETATM    3  C3  UNL     1     -34.583   4.991   4.155  1.00 20.00    -0.011 C 
HETATM    4  N8  UNL     1     -33.394   1.792   4.814  1.00 20.00    -0.192 NA
ENDROOT
BRANCH   3   5
HETATM    5  C7  UNL     1     -34.698   6.379   3.673  1.00 20.00     0.009 C 
HETATM    6  C5  UNL     1     -34.113   7.467   4.609  1.00 20.00     0.008 C 
HETATM    7  C4  UNL     1     -33.634   8.198   3.338  1.00 20.00     0.001 C 
HETATM    8  C6  UNL     1     -33.630   6.822   2.640  1.00 20.00     0.008 C 
ENDBRANCH   3   5
TORSDOF 1
ENDMDL
MODEL 7
REMARK VINA RESULT:      -0.6      0.994      1.498
REMARK  1 active torsions:
REMARK  status: ('A' for Active; 'I' for Inactive)
REMARK    1  A    between atoms: C3_3  and  C7_7 
ROOT
HETATM    1  C1  UNL     1     -31.950   8.159   1.533  1.00 20.00     0.087 C 
HETATM    2  C2  UNL     1     -33.039   7.516   2.178  1.00 20.00     0.090 C 
HETATM    3  C3  UNL     1     -33.160   6.182   2.193  1.00 20.00    -0.011 C 
HETATM    4  N8  UNL     1     -31.062   8.687   1.007  1.00 20.00    -0.192 NA
ENDROOT
BRANCH   3   5
HETATM    5  C7  UNL     1     -34.270   5.469   2.848  1.00 20.00     0.009 C 
HETATM    6  C5  UNL     1     -33.864   4.473   3.965  1.00 20.00     0.008 C 
HETATM    7  C4  UNL     1     -35.124   4.931   4.728  1.00 20.00     0.001 C 
HETATM    8  C6  UNL     1     -35.020   6.259   3.950  1.00 20.00     0.008 C 
ENDBRANCH   3   5
TORSDOF 1
ENDMDL
MODEL 8
REMARK VINA RESULT:      -0.3      1.112      1.793
REMARK  1 active torsions:
REMARK  status: ('A' for Active; 'I' for Inactive)
REMARK    1  A    between atoms: C3_3  and  C7_7 
ROOT
HETATM    1  C1  UNL     1     -32.243   7.942   1.488  1.00 20.00     0.087 C 
HETATM    2  C2  UNL     1     -32.590   6.606   1.821  1.00 20.00     0.090 C 
HETATM    3  C3  UNL     1     -33.558   6.331   2.706  1.00 20.00    -0.011 C 
HETATM    4  N8  UNL     1     -31.957   9.032   1.214  1.00 20.00    -0.192 NA
ENDROOT
BRANCH   3   5
HETATM    5  C7  UNL     1     -33.954   4.963   3.085  1.00 20.00     0.009 C 
HETATM    6  C5  UNL     1     -32.835   4.085   3.701  1.00 20.00     0.008 C 
HETATM    7  C4  UNL     1     -33.910   3.508   4.645  1.00 20.00     0.001 C 
HETATM    8  C6  UNL     1     -34.685   4.827   4.445  1.00 20.00     0.008 C 
ENDBRANCH   3   5
TORSDOF 1
ENDMDL
MODEL 9
REMARK VINA RESULT:      -0.0      2.538      3.113
REMARK  1 active torsions:
REMARK  status: ('A' for Active; 'I' for Inactive)
REMARK    1  A    between atoms: C3_3  and  C7_7 
ROOT
HETATM    1  C1  UNL     1     -31.940   4.759   0.727  1.00 20.00     0.087 C 
HETATM    2  C2  UNL     1     -32.790   5.497   1.594  1.00 20.00     0.090 C 
HETATM    3  C3  UNL     1     -32.559   6.786   1.875  1.00 20.00    -0.011 C 
HETATM    4  N8  UNL     1     -31.248   4.153   0.021  1.00 20.00    -0.192 NA
ENDROOT
BRANCH   3   5
HETATM    5  C7  UNL     1     -33.410   7.593   2.766  1.00 20.00     0.009 C 
HETATM    6  C5  UNL     1     -34.428   6.799   3.625  1.00 20.00     0.008 C 
HETATM    7  C4  UNL     1     -34.135   7.799   4.762  1.00 20.00     0.001 C 
HETATM    8  C6  UNL     1     -32.759   8.029   4.104  1.00 20.00     0.008 C 
ENDBRANCH   3   5
TORSDOF 1
ENDMDL
