MODEL 1
REMARK VINA RESULT:      -2.2      0.000      0.000
REMARK  3 active torsions:
REMARK  status: ('A' for Active; 'I' for Inactive)
REMARK    1  A    between atoms: C3_3  and  C7_7 
REMARK    2  A    between atoms: C6_6  and  C7_7 
REMARK    3  A    between atoms: C7_7  and  O8_8 
ROOT
HETATM    1  C7  UNL     1     -33.238   6.599   1.961  1.00 20.00     0.126 C 
ENDROOT
BRANCH   1   2
HETATM    2  C3  UNL     1     -33.937   6.241   3.244  1.00 20.00    -0.018 A 
HETATM    3  C1  UNL     1     -35.298   6.846   3.502  1.00 20.00     0.012 A 
HETATM    4  C2  UNL     1     -34.107   7.324   4.284  1.00 20.00     0.012 A 
HETATM    5  C4  UNL     1     -33.687   4.838   3.722  1.00 20.00     0.018 C 
ENDBRANCH   1   2
BRANCH   1   6
HETATM    6  C6  UNL     1     -32.178   7.692   2.170  1.00 20.00     0.028 C 
HETATM    7  C5  UNL     1     -32.196   8.753   1.078  1.00 20.00     0.007 C 
ENDBRANCH   1   6
BRANCH   1   8
HETATM    8  O8  UNL     1     -32.593   5.439   1.426  1.00 20.00    -0.395 OA
HETATM    9  H22 UNL     1     -31.925   5.763   0.804  1.00 20.00     0.210 HD
ENDBRANCH   1   8
TORSDOF 3
ENDMDL
MODEL 2
REMARK VINA RESULT:      -1.8      0.621      1.450
REMARK  3 active torsions:
REMARK  status: ('A' for Active; 'I' for Inactive)
REMARK    1  A    between atoms: C3_3  and  C7_7 
REMARK    2  A    between atoms: C6_6  and  C7_7 
REMARK    3  A    between atoms: C7_7  and  O8_8 
ROOT
HETATM    1  C7  UNL     1     -33.337   6.942   2.177  1.00 20.00     0.126 C 
ENDROOT
BRANCH   1   2
HETATM    2  C3  UNL     1     -33.999   6.889   3.527  1.00 20.00    -0.018 A 
HETATM    3  C1  UNL     1     -34.427   5.539   4.054  1.00 20.00     0.012 A 
HETATM    4  C2  UNL     1     -35.463   6.520   3.584  1.00 20.00     0.012 A 
HETATM    5  C4  UNL     1     -33.487   7.901   4.515  1.00 20.00     0.018 C 
ENDBRANCH   1   2
BRANCH   1   6
HETATM    6  C6  UNL     1     -32.144   7.911   2.161  1.00 20.00     0.028 C 
HETATM    7  C5  UNL     1     -32.161   8.852   0.964  1.00 20.00     0.007 C 
ENDBRANCH   1   6
BRANCH   1   8
HETATM    8  O8  UNL     1     -32.866   5.638   1.824  1.00 20.00    -0.395 OA
HETATM    9  H22 UNL     1     -33.059   5.065   2.581  1.00 20.00     0.210 HD
ENDBRANCH   1   8
TORSDOF 3
ENDMDL
MODEL 3
REMARK VINA RESULT:      -1.5      1.603      3.528
REMARK  3 active torsions:
REMARK  status: ('A' for Active; 'I' for Inactive)
REMARK    1  A    between atoms: C3_3  and  C7_7 
REMARK    2  A    between atoms: C6_6  and  C7_7 
REMARK    3  A    between atoms: C7_7  and  O8_8 
ROOT
HETATM    1  C7  UNL     1     -33.575   7.397   3.110  1.00 20.00     0.126 C 
ENDROOT
BRANCH   1   2
HETATM    2  C3  UNL     1     -32.537   7.345   2.022  1.00 20.00    -0.018 A 
HETATM    3  C1  UNL     1     -31.338   8.258   2.144  1.00 20.00     0.012 A 
HETATM    4  C2  UNL     1     -32.397   8.549   1.119  1.00 20.00     0.012 A 
HETATM    5  C4  UNL     1     -32.327   5.983   1.421  1.00 20.00     0.018 C 
ENDBRANCH   1   2
BRANCH   1   6
HETATM    6  C6  UNL     1     -34.165   6.009   3.404  1.00 20.00     0.028 C 
HETATM    7  C5  UNL     1     -35.465   6.073   4.195  1.00 20.00     0.007 C 
ENDBRANCH   1   6
BRANCH   1   8
HETATM    8  O8  UNL     1     -32.985   7.903   4.311  1.00 20.00    -0.395 OA
HETATM    9  H22 UNL     1     -32.993   8.868   4.230  1.00 20.00     0.210 HD
ENDBRANCH   1   8
TORSDOF 3
ENDMDL
MODEL 4
REMARK VINA RESULT:      -1.3      1.697      2.764
REMARK  3 active torsions:
REMARK  status: ('A' for Active; 'I' for Inactive)
REMARK    1  A    between atoms: C3_3  and  C7_7 
REMARK    2  A    between atoms: C6_6  and  C7_7 
REMARK    3  A    between atoms: C7_7  and  O8_8 
ROOT
HETATM    1  C7  UNL     1     -31.938   7.978   1.706  1.00 20.00     0.126 C 
ENDROOT
BRANCH   1   2
HETATM    2  C3  UNL     1     -32.735   6.726   1.944  1.00 20.00    -0.018 A 
HETATM    3  C1  UNL     1     -32.086   5.400   1.619  1.00 20.00     0.012 A 
HETATM    4  C2  UNL     1     -33.183   5.930   0.740  1.00 20.00     0.012 A 
HETATM    5  C4  UNL     1     -33.656   6.786   3.131  1.00 20.00     0.018 C 
ENDBRANCH   1   2
BRANCH   1   6
HETATM    6  C6  UNL     1     -32.802   9.104   1.117  1.00 20.00     0.028 C 
HETATM    7  C5  UNL     1     -32.208   9.707  -0.150  1.00 20.00     0.007 C 
ENDBRANCH   1   6
BRANCH   1   8
HETATM    8  O8  UNL     1     -31.380   8.434   2.942  1.00 20.00    -0.395 OA
HETATM    9  H22 UNL     1     -32.072   8.315   3.611  1.00 20.00     0.210 HD
ENDBRANCH   1   8
TORSDOF 3
ENDMDL
MODEL 5
REMARK VINA RESULT:      -1.2      1.663      3.642
REMARK  3 active torsions:
REMARK  status: ('A' for Active; 'I' for Inactive)
REMARK    1  A    between atoms: C3_3  and  C7_7 
REMARK    2  A    between atoms: C6_6  and  C7_7 
REMARK    3  A    between atoms: C7_7  and  O8_8 
ROOT
HETATM    1  C7  UNL     1     -33.862   6.778   2.957  1.00 20.00     0.126 C 
ENDROOT
BRANCH   1   2
HETATM    2  C3  UNL     1     -32.771   6.692   1.925  1.00 20.00    -0.018 A 
HETATM    3  C1  UNL     1     -33.027   5.856   0.692  1.00 20.00     0.012 A 
HETATM    4  C2  UNL     1     -32.071   5.366   1.742  1.00 20.00     0.012 A 
HETATM    5  C4  UNL     1     -31.957   7.947   1.769  1.00 20.00     0.018 C 
ENDBRANCH   1   2
BRANCH   1   6
HETATM    6  C6  UNL     1     -34.076   5.438   3.678  1.00 20.00     0.028 C 
HETATM    7  C5  UNL     1     -35.403   5.370   4.422  1.00 20.00     0.007 C 
ENDBRANCH   1   6
BRANCH   1   8
HETATM    8  O8  UNL     1     -33.522   7.768   3.933  1.00 20.00    -0.395 OA
HETATM    9  H22 UNL     1     -33.689   7.364   4.797  1.00 20.00     0.210 HD
ENDBRANCH   1   8
TORSDOF 3
ENDMDL
MODEL 6
REMARK VINA RESULT:      -1.2      1.171      3.198
REMARK  3 active torsions:
REMARK  status: ('A' for Active; 'I' for Inactive)
REMARK    1  A    between atoms: C3_3  and  C7_7 
REMARK    2  A    between atoms: C6_6  and  C7_7 
REMARK    3  A    between atoms: C7_7  and  O8_8 
ROOT
HETATM    1  C7  UNL     1     -33.112   6.357   3.280  1.00 20.00     0.126 C 
ENDROOT
BRANCH   1   2
HETATM    2  C3  UNL     1     -32.625   6.738   1.908  1.00 20.00    -0.018 A 
HETATM    3  C1  UNL     1     -31.411   7.633   1.811  1.00 20.00     0.012 A 
HETATM    4  C2  UNL     1     -32.770   8.179   1.479  1.00 20.00     0.012 A 
HETATM    5  C4  UNL     1     -32.798   5.670   0.863  1.00 20.00     0.018 C 
ENDBRANCH   1   2
BRANCH   1   6
HETATM    6  C6  UNL     1     -34.339   7.180   3.701  1.00 20.00     0.028 C 
HETATM    7  C5  UNL     1     -35.550   6.316   4.027  1.00 20.00     0.007 C 
ENDBRANCH   1   6
BRANCH   1   8
HETATM    8  O8  UNL     1     -33.469   4.971   3.294  1.00 20.00    -0.395 OA
HETATM    9  H22 UNL     1     -34.253   4.900   3.858  1.00 20.00     0.210 HD
ENDBRANCH   1   8
TORSDOF 3
ENDMDL
MODEL 7
REMARK VINA RESULT:      -1.2      1.451      3.192
REMARK  3 active torsions:
REMARK  status: ('A' for Active; 'I' for Inactive)
REMARK    1  A    between atoms: C3_3  and  C7_7 
REMARK    2  A    between atoms: C6_6  and  C7_7 
REMARK    3  A    between atoms: C7_7  and  O8_8 
ROOT
HETATM    1  C7  UNL     1     -33.392   5.363   3.500  1.00 20.00     0.126 C 
ENDROOT
BRANCH   1   2
HETATM    2  C3  UNL     1     -34.214   6.600   3.739  1.00 20.00    -0.018 A 
HETATM    3  C1  UNL     1     -33.697   7.911   3.193  1.00 20.00     0.012 A 
HETATM    4  C2  UNL     1     -33.659   7.651   4.672  1.00 20.00     0.012 A 
HETATM    5  C4  UNL     1     -35.701   6.374   3.736  1.00 20.00     0.018 C 
ENDBRANCH   1   2
BRANCH   1   6
HETATM    6  C6  UNL     1     -34.105   4.096   3.999  1.00 20.00     0.028 C 
HETATM    7  C5  UNL     1     -33.160   3.114   4.680  1.00 20.00     0.007 C 
ENDBRANCH   1   6
BRANCH   1   8
HETATM    8  O8  UNL     1     -33.140   5.219   2.099  1.00 20.00    -0.395 OA
HETATM    9  H22 UNL     1     -32.378   5.784   1.902  1.00 20.00     0.210 HD
ENDBRANCH   1   8
TORSDOF 3
ENDMDL
MODEL 8
REMARK VINA RESULT:      -1.2      2.092      3.720
REMARK  3 active torsions:
REMARK  status: ('A' for Active; 'I' for Inactive)
REMARK    1  A    between atoms: C3_3  and  C7_7 
REMARK    2  A    between atoms: C6_6  and  C7_7 
REMARK    3  A    between atoms: C7_7  and  O8_8 
ROOT
HETATM    1  C7  UNL     1     -34.496   4.692   3.887  1.00 20.00     0.126 C 
ENDROOT
BRANCH   1   2
HETATM    2  C3  UNL     1     -34.151   6.065   3.380  1.00 20.00    -0.018 A 
HETATM    3  C1  UNL     1     -34.081   7.194   4.383  1.00 20.00     0.012 A 
HETATM    4  C2  UNL     1     -35.227   7.125   3.414  1.00 20.00     0.012 A 
HETATM    5  C4  UNL     1     -33.180   6.083   2.231  1.00 20.00     0.018 C 
ENDBRANCH   1   2
BRANCH   1   6
HETATM    6  C6  UNL     1     -33.341   4.069   4.687  1.00 20.00     0.028 C 
HETATM    7  C5  UNL     1     -33.277   2.554   4.556  1.00 20.00     0.007 C 
ENDBRANCH   1   6
BRANCH   1   8
HETATM    8  O8  UNL     1     -35.645   4.770   4.737  1.00 20.00    -0.395 OA
HETATM    9  H22 UNL     1     -36.049   5.634   4.566  1.00 20.00     0.210 HD
ENDBRANCH   1   8
TORSDOF 3
ENDMDL
MODEL 9
REMARK VINA RESULT:      -1.0      1.603      2.353
REMARK  3 active torsions:
REMARK  status: ('A' for Active; 'I' for Inactive)
REMARK    1  A    between atoms: C3_3  and  C7_7 
REMARK    2  A    between atoms: C6_6  and  C7_7 
REMARK    3  A    between atoms: C7_7  and  O8_8 
ROOT
HETATM    1  C7  UNL     1     -32.843   6.888   2.782  1.00 20.00     0.126 C 
ENDROOT
BRANCH   1   2
HETATM    2  C3  UNL     1     -33.970   7.025   3.769  1.00 20.00    -0.018 A 
HETATM    3  C1  UNL     1     -34.706   5.771   4.182  1.00 20.00     0.012 A 
HETATM    4  C2  UNL     1     -35.376   6.767   3.279  1.00 20.00     0.012 A 
HETATM    5  C4  UNL     1     -33.769   8.097   4.803  1.00 20.00     0.018 C 
ENDBRANCH   1   2
BRANCH   1   6
HETATM    6  C6  UNL     1     -33.249   6.049   1.560  1.00 20.00     0.028 C 
HETATM    7  C5  UNL     1     -32.140   5.124   1.080  1.00 20.00     0.007 C 
ENDBRANCH   1   6
BRANCH   1   8
HETATM    8  O8  UNL     1     -32.442   8.184   2.329  1.00 20.00    -0.395 OA
HETATM    9  H22 UNL     1     -32.631   8.796   3.056  1.00 20.00     0.210 HD
ENDBRANCH   1   8
TORSDOF 3
ENDMDL
