MODEL 1
REMARK VINA RESULT:      -2.1      0.000      0.000
REMARK  3 active torsions:
REMARK  status: ('A' for Active; 'I' for Inactive)
REMARK    1  A    between atoms: C5_5  and  C8_8 
REMARK    2  A    between atoms: C6_6  and  C8_8 
REMARK    3  A    between atoms: C8_8  and  O9_9 
ROOT
HETATM    1  C8  UNL     1     -33.415   6.539   2.056  1.00 20.00     0.130 C 
ENDROOT
BRANCH   1   2
HETATM    2  C5  UNL     1     -32.501   7.750   2.241  1.00 20.00     0.015 A 
HETATM    3  C1  UNL     1     -31.212   7.850   1.473  1.00 20.00     0.007 A 
HETATM    4  C2  UNL     1     -32.359   8.765   1.142  1.00 20.00     0.007 A 
ENDBRANCH   1   2
BRANCH   1   5
HETATM    5  C6  UNL     1     -34.078   6.118   3.338  1.00 20.00    -0.018 A 
HETATM    6  C3  UNL     1     -35.462   6.653   3.630  1.00 20.00     0.012 A 
HETATM    7  C4  UNL     1     -34.284   7.166   4.407  1.00 20.00     0.012 A 
HETATM    8  C7  UNL     1     -33.758   4.716   3.777  1.00 20.00     0.018 C 
ENDBRANCH   1   5
BRANCH   1   9
HETATM    9  O9  UNL     1     -32.638   5.458   1.534  1.00 20.00    -0.394 OA
HETATM   10  H23 UNL     1     -31.755   5.817   1.363  1.00 20.00     0.210 HD
ENDBRANCH   1   9
TORSDOF 3
ENDMDL
MODEL 2
REMARK VINA RESULT:      -1.6      0.604      1.372
REMARK  3 active torsions:
REMARK  status: ('A' for Active; 'I' for Inactive)
REMARK    1  A    between atoms: C5_5  and  C8_8 
REMARK    2  A    between atoms: C6_6  and  C8_8 
REMARK    3  A    between atoms: C8_8  and  O9_9 
ROOT
HETATM    1  C8  UNL     1     -33.506   6.864   2.295  1.00 20.00     0.130 C 
ENDROOT
BRANCH   1   2
HETATM    2  C5  UNL     1     -32.407   7.924   2.248  1.00 20.00     0.015 A 
HETATM    3  C1  UNL     1     -31.286   7.812   1.253  1.00 20.00     0.007 A 
HETATM    4  C2  UNL     1     -32.329   8.883   1.094  1.00 20.00     0.007 A 
ENDBRANCH   1   2
BRANCH   1   5
HETATM    5  C6  UNL     1     -34.167   6.779   3.643  1.00 20.00    -0.018 A 
HETATM    6  C3  UNL     1     -34.552   5.411   4.158  1.00 20.00     0.012 A 
HETATM    7  C4  UNL     1     -35.618   6.362   3.694  1.00 20.00     0.012 A 
HETATM    8  C7  UNL     1     -33.689   7.797   4.640  1.00 20.00     0.018 C 
ENDBRANCH   1   5
BRANCH   1   9
HETATM    9  O9  UNL     1     -32.932   5.599   1.956  1.00 20.00    -0.394 OA
HETATM   10  H23 UNL     1     -32.246   5.781   1.296  1.00 20.00     0.210 HD
ENDBRANCH   1   9
TORSDOF 3
ENDMDL
MODEL 3
REMARK VINA RESULT:      -1.6      1.706      2.876
REMARK  3 active torsions:
REMARK  status: ('A' for Active; 'I' for Inactive)
REMARK    1  A    between atoms: C5_5  and  C8_8 
REMARK    2  A    between atoms: C6_6  and  C8_8 
REMARK    3  A    between atoms: C8_8  and  O9_9 
ROOT
HETATM    1  C8  UNL     1     -31.985   7.923   1.642  1.00 20.00     0.130 C 
ENDROOT
BRANCH   1   2
HETATM    2  C5  UNL     1     -32.819   8.904   0.820  1.00 20.00     0.015 A 
HETATM    3  C1  UNL     1     -32.534  10.379   0.884  1.00 20.00     0.007 A 
HETATM    4  C2  UNL     1     -32.214   9.604  -0.364  1.00 20.00     0.007 A 
ENDBRANCH   1   2
BRANCH   1   5
HETATM    5  C6  UNL     1     -32.716   6.638   1.919  1.00 20.00    -0.018 A 
HETATM    6  C3  UNL     1     -31.993   5.338   1.649  1.00 20.00     0.012 A 
HETATM    7  C4  UNL     1     -33.105   5.776   0.740  1.00 20.00     0.012 A 
HETATM    8  C7  UNL     1     -33.653   6.692   3.094  1.00 20.00     0.018 C 
ENDBRANCH   1   5
BRANCH   1   9
HETATM    9  O9  UNL     1     -31.626   8.552   2.875  1.00 20.00    -0.394 OA
HETATM   10  H23 UNL     1     -30.660   8.502   2.933  1.00 20.00     0.210 HD
ENDBRANCH   1   9
TORSDOF 3
ENDMDL
MODEL 4
REMARK VINA RESULT:      -1.1      1.469      3.741
REMARK  3 active torsions:
REMARK  status: ('A' for Active; 'I' for Inactive)
REMARK    1  A    between atoms: C5_5  and  C8_8 
REMARK    2  A    between atoms: C6_6  and  C8_8 
REMARK    3  A    between atoms: C8_8  and  O9_9 
ROOT
HETATM    1  C8  UNL     1     -33.586   7.504   3.090  1.00 20.00     0.130 C 
ENDROOT
BRANCH   1   2
HETATM    2  C5  UNL     1     -34.472   6.259   3.119  1.00 20.00     0.015 A 
HETATM    3  C1  UNL     1     -34.275   5.213   4.180  1.00 20.00     0.007 A 
HETATM    4  C2  UNL     1     -35.499   6.086   4.202  1.00 20.00     0.007 A 
ENDBRANCH   1   2
BRANCH   1   5
HETATM    5  C6  UNL     1     -32.522   7.429   2.031  1.00 20.00    -0.018 A 
HETATM    6  C3  UNL     1     -31.314   8.327   2.175  1.00 20.00     0.012 A 
HETATM    7  C4  UNL     1     -32.343   8.622   1.121  1.00 20.00     0.012 A 
HETATM    8  C7  UNL     1     -32.315   6.059   1.446  1.00 20.00     0.018 C 
ENDBRANCH   1   5
BRANCH   1   9
HETATM    9  O9  UNL     1     -32.980   7.659   4.376  1.00 20.00    -0.394 OA
HETATM   10  H23 UNL     1     -33.410   7.015   4.958  1.00 20.00     0.210 HD
ENDBRANCH   1   9
TORSDOF 3
ENDMDL
MODEL 5
REMARK VINA RESULT:      -0.9      2.055      4.048
REMARK  3 active torsions:
REMARK  status: ('A' for Active; 'I' for Inactive)
REMARK    1  A    between atoms: C5_5  and  C8_8 
REMARK    2  A    between atoms: C6_6  and  C8_8 
REMARK    3  A    between atoms: C8_8  and  O9_9 
ROOT
HETATM    1  C8  UNL     1     -34.454   4.662   3.718  1.00 20.00     0.130 C 
ENDROOT
BRANCH   1   2
HETATM    2  C5  UNL     1     -33.211   3.889   4.156  1.00 20.00     0.015 A 
HETATM    3  C1  UNL     1     -33.120   3.326   5.547  1.00 20.00     0.007 A 
HETATM    4  C2  UNL     1     -33.281   2.403   4.371  1.00 20.00     0.007 A 
ENDBRANCH   1   2
BRANCH   1   5
HETATM    5  C6  UNL     1     -34.139   6.078   3.318  1.00 20.00    -0.018 A 
HETATM    6  C3  UNL     1     -34.106   7.130   4.403  1.00 20.00     0.012 A 
HETATM    7  C4  UNL     1     -35.243   7.104   3.422  1.00 20.00     0.012 A 
HETATM    8  C7  UNL     1     -33.161   6.205   2.184  1.00 20.00     0.018 C 
ENDBRANCH   1   5
BRANCH   1   9
HETATM    9  O9  UNL     1     -35.394   4.661   4.795  1.00 20.00    -0.394 OA
HETATM   10  H23 UNL     1     -35.862   3.814   4.744  1.00 20.00     0.210 HD
ENDBRANCH   1   9
TORSDOF 3
ENDMDL
MODEL 6
REMARK VINA RESULT:      -0.6      2.039      4.214
REMARK  3 active torsions:
REMARK  status: ('A' for Active; 'I' for Inactive)
REMARK    1  A    between atoms: C5_5  and  C8_8 
REMARK    2  A    between atoms: C6_6  and  C8_8 
REMARK    3  A    between atoms: C8_8  and  O9_9 
ROOT
HETATM    1  C8  UNL     1     -34.277   4.582   3.563  1.00 20.00     0.130 C 
ENDROOT
BRANCH   1   2
HETATM    2  C5  UNL     1     -33.112   3.758   4.108  1.00 20.00     0.015 A 
HETATM    3  C1  UNL     1     -33.112   3.299   5.539  1.00 20.00     0.007 A 
HETATM    4  C2  UNL     1     -33.300   2.302   4.431  1.00 20.00     0.007 A 
ENDBRANCH   1   2
BRANCH   1   5
HETATM    5  C6  UNL     1     -33.842   5.930   3.059  1.00 20.00    -0.018 A 
HETATM    6  C3  UNL     1     -33.768   6.138   1.563  1.00 20.00     0.012 A 
HETATM    7  C4  UNL     1     -32.503   6.029   2.365  1.00 20.00     0.012 A 
HETATM    8  C7  UNL     1     -34.283   7.089   3.909  1.00 20.00     0.018 C 
ENDBRANCH   1   5
BRANCH   1   9
HETATM    9  O9  UNL     1     -35.246   4.743   4.602  1.00 20.00    -0.394 OA
HETATM   10  H23 UNL     1     -34.957   4.174   5.331  1.00 20.00     0.210 HD
ENDBRANCH   1   9
TORSDOF 3
ENDMDL
MODEL 7
REMARK VINA RESULT:      -0.6      1.659      3.642
REMARK  3 active torsions:
REMARK  status: ('A' for Active; 'I' for Inactive)
REMARK    1  A    between atoms: C5_5  and  C8_8 
REMARK    2  A    between atoms: C6_6  and  C8_8 
REMARK    3  A    between atoms: C8_8  and  O9_9 
ROOT
HETATM    1  C8  UNL     1     -33.363   5.307   3.534  1.00 20.00     0.130 C 
ENDROOT
BRANCH   1   2
HETATM    2  C5  UNL     1     -33.925   4.047   4.193  1.00 20.00     0.015 A 
HETATM    3  C1  UNL     1     -33.223   2.728   4.026  1.00 20.00     0.007 A 
HETATM    4  C2  UNL     1     -33.213   3.423   5.360  1.00 20.00     0.007 A 
ENDBRANCH   1   2
BRANCH   1   5
HETATM    5  C6  UNL     1     -34.235   6.511   3.761  1.00 20.00    -0.018 A 
HETATM    6  C3  UNL     1     -33.789   7.829   3.168  1.00 20.00     0.012 A 
HETATM    7  C4  UNL     1     -33.705   7.611   4.652  1.00 20.00     0.012 A 
HETATM    8  C7  UNL     1     -35.709   6.220   3.800  1.00 20.00     0.018 C 
ENDBRANCH   1   5
BRANCH   1   9
HETATM    9  O9  UNL     1     -33.226   5.064   2.132  1.00 20.00    -0.394 OA
HETATM   10  H23 UNL     1     -34.077   5.299   1.732  1.00 20.00     0.210 HD
ENDBRANCH   1   9
TORSDOF 3
ENDMDL
MODEL 8
REMARK VINA RESULT:      -0.5      1.182      3.452
REMARK  3 active torsions:
REMARK  status: ('A' for Active; 'I' for Inactive)
REMARK    1  A    between atoms: C5_5  and  C8_8 
REMARK    2  A    between atoms: C6_6  and  C8_8 
REMARK    3  A    between atoms: C8_8  and  O9_9 
ROOT
HETATM    1  C8  UNL     1     -33.063   6.038   2.941  1.00 20.00     0.130 C 
ENDROOT
BRANCH   1   2
HETATM    2  C5  UNL     1     -34.346   6.822   3.215  1.00 20.00     0.015 A 
HETATM    3  C1  UNL     1     -35.346   6.313   4.216  1.00 20.00     0.007 A 
HETATM    4  C2  UNL     1     -34.530   7.538   4.523  1.00 20.00     0.007 A 
ENDBRANCH   1   2
BRANCH   1   5
HETATM    5  C6  UNL     1     -32.376   6.483   1.679  1.00 20.00    -0.018 A 
HETATM    6  C3  UNL     1     -31.348   7.586   1.783  1.00 20.00     0.012 A 
HETATM    7  C4  UNL     1     -32.683   7.867   1.156  1.00 20.00     0.012 A 
HETATM    8  C7  UNL     1     -32.135   5.387   0.678  1.00 20.00     0.018 C 
ENDBRANCH   1   5
BRANCH   1   9
HETATM    9  O9  UNL     1     -33.389   4.649   2.852  1.00 20.00    -0.394 OA
HETATM   10  H23 UNL     1     -32.650   4.171   3.257  1.00 20.00     0.210 HD
ENDBRANCH   1   9
TORSDOF 3
ENDMDL
MODEL 9
REMARK VINA RESULT:      -0.5      1.428      3.614
REMARK  3 active torsions:
REMARK  status: ('A' for Active; 'I' for Inactive)
REMARK    1  A    between atoms: C5_5  and  C8_8 
REMARK    2  A    between atoms: C6_6  and  C8_8 
REMARK    3  A    between atoms: C8_8  and  O9_9 
ROOT
HETATM    1  C8  UNL     1     -33.113   5.889   3.008  1.00 20.00     0.130 C 
ENDROOT
BRANCH   1   2
HETATM    2  C5  UNL     1     -34.340   6.767   3.255  1.00 20.00     0.015 A 
HETATM    3  C1  UNL     1     -35.379   6.352   4.258  1.00 20.00     0.007 A 
HETATM    4  C2  UNL     1     -34.481   7.523   4.545  1.00 20.00     0.007 A 
ENDBRANCH   1   2
BRANCH   1   5
HETATM    5  C6  UNL     1     -32.496   6.129   1.657  1.00 20.00    -0.018 A 
HETATM    6  C3  UNL     1     -33.108   5.430   0.465  1.00 20.00     0.012 A 
HETATM    7  C4  UNL     1     -31.777   4.979   0.993  1.00 20.00     0.012 A 
HETATM    8  C7  UNL     1     -31.948   7.515   1.456  1.00 20.00     0.018 C 
ENDBRANCH   1   5
BRANCH   1   9
HETATM    9  O9  UNL     1     -33.503   4.519   3.126  1.00 20.00    -0.394 OA
HETATM   10  H23 UNL     1     -33.830   4.408   4.031  1.00 20.00     0.210 HD
ENDBRANCH   1   9
TORSDOF 3
ENDMDL
