MODEL 1
REMARK VINA RESULT:      -2.2      0.000      0.000
REMARK  3 active torsions:
REMARK  status: ('A' for Active; 'I' for Inactive)
REMARK    1  A    between atoms: C1_1  and  C4_4 
REMARK    2  A    between atoms: C1_1  and  C7_7 
REMARK    3  A    between atoms: C7_7  and  O9_9 
ROOT
HETATM    1  C1  UNL     1     -33.089   6.469   2.263  1.00 20.00     0.158 C 
HETATM    2  O8  UNL     1     -32.885   5.683   1.339  1.00 20.00    -0.295 OA
ENDROOT
BRANCH   1   3
HETATM    3  C4  UNL     1     -34.010   6.129   3.375  1.00 20.00     0.019 A 
HETATM    4  C2  UNL     1     -35.356   6.823   3.387  1.00 20.00     0.018 A 
HETATM    5  C3  UNL     1     -34.306   7.223   4.379  1.00 20.00     0.018 A 
HETATM    6  C5  UNL     1     -33.963   4.715   3.895  1.00 20.00     0.023 C 
ENDBRANCH   1   3
BRANCH   1   7
HETATM    7  C7  UNL     1     -32.425   7.828   2.335  1.00 20.00     0.246 C 
BRANCH   7   8
HETATM    8  O9  UNL     1     -31.863   8.175   1.087  1.00 20.00    -0.389 OA
HETATM    9  C6  UNL     1     -32.339   9.435   0.622  1.00 20.00     0.202 C 
ENDBRANCH   7   8
ENDBRANCH   1   7
TORSDOF 3
ENDMDL
MODEL 2
REMARK VINA RESULT:      -2.1      0.655      1.431
REMARK  3 active torsions:
REMARK  status: ('A' for Active; 'I' for Inactive)
REMARK    1  A    between atoms: C1_1  and  C4_4 
REMARK    2  A    between atoms: C1_1  and  C7_7 
REMARK    3  A    between atoms: C7_7  and  O9_9 
ROOT
HETATM    1  C1  UNL     1     -33.077   6.957   2.430  1.00 20.00     0.158 C 
HETATM    2  O8  UNL     1     -33.080   5.996   1.662  1.00 20.00    -0.295 OA
ENDROOT
BRANCH   1   3
HETATM    3  C4  UNL     1     -33.962   6.995   3.620  1.00 20.00     0.019 A 
HETATM    4  C2  UNL     1     -34.529   5.674   4.096  1.00 20.00     0.018 A 
HETATM    5  C3  UNL     1     -35.421   6.657   3.400  1.00 20.00     0.018 A 
HETATM    6  C5  UNL     1     -33.647   8.026   4.675  1.00 20.00     0.023 C 
ENDBRANCH   1   3
BRANCH   1   7
HETATM    7  C7  UNL     1     -32.183   8.160   2.221  1.00 20.00     0.246 C 
BRANCH   7   8
HETATM    8  O9  UNL     1     -31.990   8.405   0.843  1.00 20.00    -0.389 OA
HETATM    9  C6  UNL     1     -32.420   9.712   0.471  1.00 20.00     0.202 C 
ENDBRANCH   7   8
ENDBRANCH   1   7
TORSDOF 3
ENDMDL
MODEL 3
REMARK VINA RESULT:      -1.3      2.490      4.114
REMARK  3 active torsions:
REMARK  status: ('A' for Active; 'I' for Inactive)
REMARK    1  A    between atoms: C1_1  and  C4_4 
REMARK    2  A    between atoms: C1_1  and  C7_7 
REMARK    3  A    between atoms: C7_7  and  O9_9 
ROOT
HETATM    1  C1  UNL     1     -34.476   5.964   3.733  1.00 20.00     0.158 C 
HETATM    2  O8  UNL     1     -35.640   6.036   4.125  1.00 20.00    -0.295 OA
ENDROOT
BRANCH   1   3
HETATM    3  C4  UNL     1     -33.668   7.185   3.491  1.00 20.00     0.019 A 
HETATM    4  C2  UNL     1     -33.155   7.921   4.710  1.00 20.00     0.018 A 
HETATM    5  C3  UNL     1     -34.279   8.505   3.910  1.00 20.00     0.018 A 
HETATM    6  C5  UNL     1     -32.790   7.193   2.265  1.00 20.00     0.023 C 
ENDBRANCH   1   3
BRANCH   1   7
HETATM    7  C7  UNL     1     -33.787   4.642   3.470  1.00 20.00     0.246 C 
BRANCH   7   8
HETATM    8  O9  UNL     1     -34.169   3.681   4.432  1.00 20.00    -0.389 OA
HETATM    9  C6  UNL     1     -33.074   2.857   4.821  1.00 20.00     0.202 C 
ENDBRANCH   7   8
ENDBRANCH   1   7
TORSDOF 3
ENDMDL
MODEL 4
REMARK VINA RESULT:      -1.3      1.637      2.555
REMARK  3 active torsions:
REMARK  status: ('A' for Active; 'I' for Inactive)
REMARK    1  A    between atoms: C1_1  and  C4_4 
REMARK    2  A    between atoms: C1_1  and  C7_7 
REMARK    3  A    between atoms: C7_7  and  O9_9 
ROOT
HETATM    1  C1  UNL     1     -32.174   7.903   2.230  1.00 20.00     0.158 C 
HETATM    2  O8  UNL     1     -31.794   8.409   3.285  1.00 20.00    -0.295 OA
ENDROOT
BRANCH   1   3
HETATM    3  C4  UNL     1     -32.961   6.646   2.218  1.00 20.00     0.019 A 
HETATM    4  C2  UNL     1     -32.251   5.397   1.740  1.00 20.00     0.018 A 
HETATM    5  C3  UNL     1     -33.277   6.048   0.863  1.00 20.00     0.018 A 
HETATM    6  C5  UNL     1     -33.996   6.475   3.301  1.00 20.00     0.023 C 
ENDBRANCH   1   3
BRANCH   1   7
HETATM    7  C7  UNL     1     -31.870   8.517   0.880  1.00 20.00     0.246 C 
BRANCH   7   8
HETATM    8  O9  UNL     1     -32.465   9.793   0.767  1.00 20.00    -0.389 OA
HETATM    9  C6  UNL     1     -32.754  10.125  -0.588  1.00 20.00     0.202 C 
ENDBRANCH   7   8
ENDBRANCH   1   7
TORSDOF 3
ENDMDL
MODEL 5
REMARK VINA RESULT:      -1.2      1.948      3.940
REMARK  3 active torsions:
REMARK  status: ('A' for Active; 'I' for Inactive)
REMARK    1  A    between atoms: C1_1  and  C4_4 
REMARK    2  A    between atoms: C1_1  and  C7_7 
REMARK    3  A    between atoms: C7_7  and  O9_9 
ROOT
HETATM    1  C1  UNL     1     -33.690   7.258   3.432  1.00 20.00     0.158 C 
HETATM    2  O8  UNL     1     -33.362   7.891   4.435  1.00 20.00    -0.295 OA
ENDROOT
BRANCH   1   3
HETATM    3  C4  UNL     1     -32.801   7.176   2.247  1.00 20.00     0.019 A 
HETATM    4  C2  UNL     1     -31.531   8.000   2.284  1.00 20.00     0.018 A 
HETATM    5  C3  UNL     1     -32.665   8.426   1.404  1.00 20.00     0.018 A 
HETATM    6  C5  UNL     1     -32.739   5.852   1.527  1.00 20.00     0.023 C 
ENDBRANCH   1   3
BRANCH   1   7
HETATM    7  C7  UNL     1     -35.010   6.524   3.331  1.00 20.00     0.246 C 
BRANCH   7   8
HETATM    8  O9  UNL     1     -35.175   5.643   4.422  1.00 20.00    -0.389 OA
HETATM    9  C6  UNL     1     -34.400   4.457   4.269  1.00 20.00     0.202 C 
ENDBRANCH   7   8
ENDBRANCH   1   7
TORSDOF 3
ENDMDL
MODEL 6
REMARK VINA RESULT:      -1.0      2.107      4.347
REMARK  3 active torsions:
REMARK  status: ('A' for Active; 'I' for Inactive)
REMARK    1  A    between atoms: C1_1  and  C4_4 
REMARK    2  A    between atoms: C1_1  and  C7_7 
REMARK    3  A    between atoms: C7_7  and  O9_9 
ROOT
HETATM    1  C1  UNL     1     -33.881   5.881   3.129  1.00 20.00     0.158 C 
HETATM    2  O8  UNL     1     -34.542   6.642   3.836  1.00 20.00    -0.295 OA
ENDROOT
BRANCH   1   3
HETATM    3  C4  UNL     1     -32.934   6.402   2.113  1.00 20.00     0.019 A 
HETATM    4  C2  UNL     1     -33.148   5.953   0.683  1.00 20.00     0.018 A 
HETATM    5  C3  UNL     1     -32.000   5.399   1.470  1.00 20.00     0.018 A 
HETATM    6  C5  UNL     1     -32.404   7.798   2.322  1.00 20.00     0.023 C 
ENDBRANCH   1   3
BRANCH   1   7
HETATM    7  C7  UNL     1     -33.983   4.375   3.241  1.00 20.00     0.246 C 
BRANCH   7   8
HETATM    8  O9  UNL     1     -34.099   3.982   4.592  1.00 20.00    -0.389 OA
HETATM    9  C6  UNL     1     -33.162   2.964   4.931  1.00 20.00     0.202 C 
ENDBRANCH   7   8
ENDBRANCH   1   7
TORSDOF 3
ENDMDL
MODEL 7
REMARK VINA RESULT:      -0.9      1.581      1.886
REMARK  3 active torsions:
REMARK  status: ('A' for Active; 'I' for Inactive)
REMARK    1  A    between atoms: C1_1  and  C4_4 
REMARK    2  A    between atoms: C1_1  and  C7_7 
REMARK    3  A    between atoms: C7_7  and  O9_9 
ROOT
HETATM    1  C1  UNL     1     -32.412   7.896   2.573  1.00 20.00     0.158 C 
HETATM    2  O8  UNL     1     -32.035   8.445   3.607  1.00 20.00    -0.295 OA
ENDROOT
BRANCH   1   3
HETATM    3  C4  UNL     1     -33.329   6.730   2.609  1.00 20.00     0.019 A 
HETATM    4  C2  UNL     1     -34.759   6.996   3.031  1.00 20.00     0.018 A 
HETATM    5  C3  UNL     1     -33.827   6.292   3.969  1.00 20.00     0.018 A 
HETATM    6  C5  UNL     1     -33.107   5.651   1.579  1.00 20.00     0.023 C 
ENDBRANCH   1   3
BRANCH   1   7
HETATM    7  C7  UNL     1     -31.973   8.360   1.200  1.00 20.00     0.246 C 
BRANCH   7   8
HETATM    8  O9  UNL     1     -32.380   9.693   0.971  1.00 20.00    -0.389 OA
HETATM    9  C6  UNL     1     -32.673   9.930  -0.403  1.00 20.00     0.202 C 
ENDBRANCH   7   8
ENDBRANCH   1   7
TORSDOF 3
ENDMDL
MODEL 8
REMARK VINA RESULT:      -0.8      1.555      3.894
REMARK  3 active torsions:
REMARK  status: ('A' for Active; 'I' for Inactive)
REMARK    1  A    between atoms: C1_1  and  C4_4 
REMARK    2  A    between atoms: C1_1  and  C7_7 
REMARK    3  A    between atoms: C7_7  and  O9_9 
ROOT
HETATM    1  C1  UNL     1     -33.204   6.986   2.599  1.00 20.00     0.158 C 
HETATM    2  O8  UNL     1     -33.258   5.959   1.923  1.00 20.00    -0.295 OA
ENDROOT
BRANCH   1   3
HETATM    3  C4  UNL     1     -32.233   8.064   2.286  1.00 20.00     0.019 A 
HETATM    4  C2  UNL     1     -32.497   8.886   1.042  1.00 20.00     0.018 A 
HETATM    5  C3  UNL     1     -31.384   7.883   1.046  1.00 20.00     0.018 A 
HETATM    6  C5  UNL     1     -31.598   8.774   3.455  1.00 20.00     0.023 C 
ENDBRANCH   1   3
BRANCH   1   7
HETATM    7  C7  UNL     1     -34.111   7.225   3.786  1.00 20.00     0.246 C 
BRANCH   7   8
HETATM    8  O9  UNL     1     -35.300   6.472   3.665  1.00 20.00    -0.389 OA
HETATM    9  C6  UNL     1     -35.267   5.296   4.469  1.00 20.00     0.202 C 
ENDBRANCH   7   8
ENDBRANCH   1   7
TORSDOF 3
ENDMDL
MODEL 9
REMARK VINA RESULT:      -0.7      1.460      3.846
REMARK  3 active torsions:
REMARK  status: ('A' for Active; 'I' for Inactive)
REMARK    1  A    between atoms: C1_1  and  C4_4 
REMARK    2  A    between atoms: C1_1  and  C7_7 
REMARK    3  A    between atoms: C7_7  and  O9_9 
ROOT
HETATM    1  C1  UNL     1     -33.218   5.938   2.491  1.00 20.00     0.158 C 
HETATM    2  O8  UNL     1     -32.766   5.379   1.492  1.00 20.00    -0.295 OA
ENDROOT
BRANCH   1   3
HETATM    3  C4  UNL     1     -32.997   7.385   2.731  1.00 20.00     0.019 A 
HETATM    4  C2  UNL     1     -32.841   8.267   1.510  1.00 20.00     0.018 A 
HETATM    5  C3  UNL     1     -31.643   7.944   2.350  1.00 20.00     0.018 A 
HETATM    6  C5  UNL     1     -33.676   7.992   3.933  1.00 20.00     0.023 C 
ENDBRANCH   1   3
BRANCH   1   7
HETATM    7  C7  UNL     1     -34.024   5.201   3.539  1.00 20.00     0.246 C 
BRANCH   7   8
HETATM    8  O9  UNL     1     -33.759   3.814   3.487  1.00 20.00    -0.389 OA
HETATM    9  C6  UNL     1     -33.385   3.298   4.761  1.00 20.00     0.202 C 
ENDBRANCH   7   8
ENDBRANCH   1   7
TORSDOF 3
ENDMDL
