MODEL 1
REMARK VINA RESULT:      -1.9      0.000      0.000
REMARK  2 active torsions:
REMARK  status: ('A' for Active; 'I' for Inactive)
REMARK    1  A    between atoms: C1_1  and  C3_3 
REMARK       I    between atoms: C3_3  and  N7_7 
REMARK    2  A    between atoms: N7_7  and  O9_9 
ROOT
HETATM    1  C3  UNL     1     -32.459   6.650   1.963  1.00 20.00     0.266 C 
HETATM    2  C5  UNL     1     -33.668   4.854   3.204  1.00 20.00     0.189 C 
HETATM    3  N7  UNL     1     -33.374   6.245   2.906  1.00 20.00    -0.228 N 
HETATM    4  O8  UNL     1     -31.799   5.865   1.281  1.00 20.00    -0.266 OA
ENDROOT
BRANCH   1   5
HETATM    5  C1  UNL     1     -32.287   8.125   1.800  1.00 20.00     0.072 C 
HETATM    6  C2  UNL     1     -32.472   8.697   0.601  1.00 20.00    -0.025 C 
HETATM    7  C4  UNL     1     -32.321  10.163   0.360  1.00 20.00     0.036 C 
ENDBRANCH   1   5
BRANCH   3   8
HETATM    8  O9  UNL     1     -34.135   7.129   3.692  1.00 20.00    -0.281 OA
HETATM    9  C6  UNL     1     -35.329   6.469   4.107  1.00 20.00     0.238 C 
ENDBRANCH   3   8
TORSDOF 2
ENDMDL
MODEL 2
REMARK VINA RESULT:      -1.1      1.885      4.083
REMARK  2 active torsions:
REMARK  status: ('A' for Active; 'I' for Inactive)
REMARK    1  A    between atoms: C1_1  and  C3_3 
REMARK       I    between atoms: C3_3  and  N7_7 
REMARK    2  A    between atoms: N7_7  and  O9_9 
ROOT
HETATM    1  C3  UNL     1     -32.324   7.385   1.843  1.00 20.00     0.266 C 
HETATM    2  C5  UNL     1     -31.154   8.669   0.051  1.00 20.00     0.189 C 
HETATM    3  N7  UNL     1     -32.117   8.543   1.131  1.00 20.00    -0.228 N 
HETATM    4  O8  UNL     1     -31.708   6.341   1.628  1.00 20.00    -0.266 OA
ENDROOT
BRANCH   1   5
HETATM    5  C1  UNL     1     -33.361   7.446   2.916  1.00 20.00     0.072 C 
HETATM    6  C2  UNL     1     -34.148   6.386   3.155  1.00 20.00    -0.025 C 
HETATM    7  C4  UNL     1     -35.205   6.370   4.211  1.00 20.00     0.036 C 
ENDBRANCH   1   5
BRANCH   3   8
HETATM    8  O9  UNL     1     -32.812   9.744   1.366  1.00 20.00    -0.281 OA
HETATM    9  C6  UNL     1     -32.656  10.597   0.234  1.00 20.00     0.238 C 
ENDBRANCH   3   8
TORSDOF 2
ENDMDL
MODEL 3
REMARK VINA RESULT:      -1.0      1.636      4.799
REMARK  2 active torsions:
REMARK  status: ('A' for Active; 'I' for Inactive)
REMARK    1  A    between atoms: C1_1  and  C3_3 
REMARK       I    between atoms: C3_3  and  N7_7 
REMARK    2  A    between atoms: N7_7  and  O9_9 
ROOT
HETATM    1  C3  UNL     1     -34.485   5.879   3.718  1.00 20.00     0.266 C 
HETATM    2  C5  UNL     1     -34.052   8.258   3.100  1.00 20.00     0.189 C 
HETATM    3  N7  UNL     1     -33.765   6.835   3.041  1.00 20.00    -0.228 N 
HETATM    4  O8  UNL     1     -35.446   6.143   4.442  1.00 20.00    -0.266 OA
ENDROOT
BRANCH   1   5
HETATM    5  C1  UNL     1     -34.038   4.465   3.540  1.00 20.00     0.072 C 
HETATM    6  C2  UNL     1     -33.694   3.726   4.604  1.00 20.00    -0.025 C 
HETATM    7  C4  UNL     1     -33.239   2.306   4.506  1.00 20.00     0.036 C 
ENDBRANCH   1   5
BRANCH   3   8
HETATM    8  O9  UNL     1     -32.666   6.548   2.211  1.00 20.00    -0.281 OA
HETATM    9  C6  UNL     1     -32.040   7.772   1.834  1.00 20.00     0.238 C 
ENDBRANCH   3   8
TORSDOF 2
ENDMDL
MODEL 4
REMARK VINA RESULT:      -0.9      1.738      2.678
REMARK  2 active torsions:
REMARK  status: ('A' for Active; 'I' for Inactive)
REMARK    1  A    between atoms: C1_1  and  C3_3 
REMARK       I    between atoms: C3_3  and  N7_7 
REMARK    2  A    between atoms: N7_7  and  O9_9 
ROOT
HETATM    1  C3  UNL     1     -34.048   6.616   3.471  1.00 20.00     0.266 C 
HETATM    2  C5  UNL     1     -35.402   5.016   4.825  1.00 20.00     0.189 C 
HETATM    3  N7  UNL     1     -34.361   5.336   3.863  1.00 20.00    -0.228 N 
HETATM    4  O8  UNL     1     -34.624   7.616   3.902  1.00 20.00    -0.266 OA
ENDROOT
BRANCH   1   5
HETATM    5  C1  UNL     1     -32.950   6.749   2.466  1.00 20.00     0.072 C 
HETATM    6  C2  UNL     1     -32.507   7.963   2.107  1.00 20.00    -0.025 C 
HETATM    7  C4  UNL     1     -31.414   8.176   1.112  1.00 20.00     0.036 C 
ENDBRANCH   1   5
BRANCH   3   8
HETATM    8  O9  UNL     1     -33.712   4.186   3.380  1.00 20.00    -0.281 OA
HETATM    9  C6  UNL     1     -33.503   3.283   4.463  1.00 20.00     0.238 C 
ENDBRANCH   3   8
TORSDOF 2
ENDMDL
MODEL 5
REMARK VINA RESULT:      -0.8      1.939      2.872
REMARK  2 active torsions:
REMARK  status: ('A' for Active; 'I' for Inactive)
REMARK    1  A    between atoms: C1_1  and  C3_3 
REMARK       I    between atoms: C3_3  and  N7_7 
REMARK    2  A    between atoms: N7_7  and  O9_9 
ROOT
HETATM    1  C3  UNL     1     -32.783   7.295   2.235  1.00 20.00     0.266 C 
HETATM    2  C5  UNL     1     -33.702   8.019   4.439  1.00 20.00     0.189 C 
HETATM    3  N7  UNL     1     -33.524   7.054   3.368  1.00 20.00    -0.228 N 
HETATM    4  O8  UNL     1     -32.197   8.358   2.024  1.00 20.00    -0.266 OA
ENDROOT
BRANCH   1   5
HETATM    5  C1  UNL     1     -32.718   6.184   1.238  1.00 20.00     0.072 C 
HETATM    6  C2  UNL     1     -31.668   5.351   1.223  1.00 20.00    -0.025 C 
HETATM    7  C4  UNL     1     -31.533   4.218   0.259  1.00 20.00     0.036 C 
ENDBRANCH   1   5
BRANCH   3   8
HETATM    8  O9  UNL     1     -34.197   5.845   3.623  1.00 20.00    -0.281 OA
HETATM    9  C6  UNL     1     -35.512   6.138   4.087  1.00 20.00     0.238 C 
ENDBRANCH   3   8
TORSDOF 2
ENDMDL
MODEL 6
REMARK VINA RESULT:      -0.7      1.152      2.312
REMARK  2 active torsions:
REMARK  status: ('A' for Active; 'I' for Inactive)
REMARK    1  A    between atoms: C1_1  and  C3_3 
REMARK       I    between atoms: C3_3  and  N7_7 
REMARK    2  A    between atoms: N7_7  and  O9_9 
ROOT
HETATM    1  C3  UNL     1     -32.711   7.633   2.645  1.00 20.00     0.266 C 
HETATM    2  C5  UNL     1     -33.894   5.546   3.334  1.00 20.00     0.189 C 
HETATM    3  N7  UNL     1     -33.215   6.385   2.362  1.00 20.00    -0.228 N 
HETATM    4  O8  UNL     1     -32.789   8.156   3.757  1.00 20.00    -0.266 OA
ENDROOT
BRANCH   1   5
HETATM    5  C1  UNL     1     -32.050   8.350   1.515  1.00 20.00     0.072 C 
HETATM    6  C2  UNL     1     -32.699   9.325   0.861  1.00 20.00    -0.025 C 
HETATM    7  C4  UNL     1     -32.104  10.088  -0.277  1.00 20.00     0.036 C 
ENDBRANCH   1   5
BRANCH   3   8
HETATM    8  O9  UNL     1     -33.134   5.774   1.097  1.00 20.00    -0.281 OA
HETATM    9  C6  UNL     1     -32.015   4.891   1.082  1.00 20.00     0.238 C 
ENDBRANCH   3   8
TORSDOF 2
ENDMDL
MODEL 7
REMARK VINA RESULT:      -0.6      1.376      4.562
REMARK  2 active torsions:
REMARK  status: ('A' for Active; 'I' for Inactive)
REMARK    1  A    between atoms: C1_1  and  C3_3 
REMARK       I    between atoms: C3_3  and  N7_7 
REMARK    2  A    between atoms: N7_7  and  O9_9 
ROOT
HETATM    1  C3  UNL     1     -33.853   6.435   3.375  1.00 20.00     0.266 C 
HETATM    2  C5  UNL     1     -32.514   7.910   1.872  1.00 20.00     0.189 C 
HETATM    3  N7  UNL     1     -32.965   6.611   2.340  1.00 20.00    -0.228 N 
HETATM    4  O8  UNL     1     -34.351   7.369   4.004  1.00 20.00    -0.266 OA
ENDROOT
BRANCH   1   5
HETATM    5  C1  UNL     1     -34.196   5.022   3.718  1.00 20.00     0.072 C 
HETATM    6  C2  UNL     1     -33.261   4.204   4.222  1.00 20.00    -0.025 C 
HETATM    7  C4  UNL     1     -33.527   2.781   4.591  1.00 20.00     0.036 C 
ENDBRANCH   1   5
BRANCH   3   8
HETATM    8  O9  UNL     1     -32.389   5.554   1.611  1.00 20.00    -0.281 OA
HETATM    9  C6  UNL     1     -33.158   5.333   0.432  1.00 20.00     0.238 C 
ENDBRANCH   3   8
TORSDOF 2
ENDMDL
MODEL 8
REMARK VINA RESULT:      -0.2      1.285      3.966
REMARK  2 active torsions:
REMARK  status: ('A' for Active; 'I' for Inactive)
REMARK    1  A    between atoms: C1_1  and  C3_3 
REMARK       I    between atoms: C3_3  and  N7_7 
REMARK    2  A    between atoms: N7_7  and  O9_9 
ROOT
HETATM    1  C3  UNL     1     -33.060   5.843   2.203  1.00 20.00     0.266 C 
HETATM    2  C5  UNL     1     -32.231   8.145   1.708  1.00 20.00     0.189 C 
HETATM    3  N7  UNL     1     -32.803   7.138   2.586  1.00 20.00    -0.228 N 
HETATM    4  O8  UNL     1     -32.828   5.414   1.072  1.00 20.00    -0.266 OA
ENDROOT
BRANCH   1   5
HETATM    5  C1  UNL     1     -33.656   4.952   3.243  1.00 20.00     0.072 C 
HETATM    6  C2  UNL     1     -32.953   3.918   3.730  1.00 20.00    -0.025 C 
HETATM    7  C4  UNL     1     -33.480   2.986   4.771  1.00 20.00     0.036 C 
ENDBRANCH   1   5
BRANCH   3   8
HETATM    8  O9  UNL     1     -33.063   7.643   3.874  1.00 20.00    -0.281 OA
HETATM    9  C6  UNL     1     -34.472   7.661   4.087  1.00 20.00     0.238 C 
ENDBRANCH   3   8
TORSDOF 2
ENDMDL
MODEL 9
REMARK VINA RESULT:      -0.1      1.692      4.173
REMARK  2 active torsions:
REMARK  status: ('A' for Active; 'I' for Inactive)
REMARK    1  A    between atoms: C1_1  and  C3_3 
REMARK       I    between atoms: C3_3  and  N7_7 
REMARK    2  A    between atoms: N7_7  and  O9_9 
ROOT
HETATM    1  C3  UNL     1     -33.137   7.685   3.430  1.00 20.00     0.266 C 
HETATM    2  C5  UNL     1     -31.409   8.013   1.660  1.00 20.00     0.189 C 
HETATM    3  N7  UNL     1     -32.627   7.418   2.181  1.00 20.00    -0.228 N 
HETATM    4  O8  UNL     1     -32.603   8.458   4.227  1.00 20.00    -0.266 OA
ENDROOT
BRANCH   1   5
HETATM    5  C1  UNL     1     -34.399   6.974   3.795  1.00 20.00     0.072 C 
HETATM    6  C2  UNL     1     -34.359   5.701   4.218  1.00 20.00    -0.025 C 
HETATM    7  C4  UNL     1     -35.576   4.926   4.601  1.00 20.00     0.036 C 
ENDBRANCH   1   5
BRANCH   3   8
HETATM    8  O9  UNL     1     -33.225   6.538   1.261  1.00 20.00    -0.281 OA
HETATM    9  C6  UNL     1     -32.406   5.379   1.131  1.00 20.00     0.238 C 
ENDBRANCH   3   8
TORSDOF 2
ENDMDL
