MODEL 1
REMARK VINA RESULT:       1.5      0.000      0.000
REMARK  2 active torsions:
REMARK  status: ('A' for Active; 'I' for Inactive)
REMARK    1  A    between atoms: C5_5  and  C8_8 
REMARK    2  A    between atoms: C5_5  and  O9_9 
ROOT
HETATM    1  C1  UNL     1     -32.221   9.182   0.816  1.00 20.00     0.004 C 
HETATM    2  C2  UNL     1     -31.548   7.812   0.711  1.00 20.00     0.012 C 
HETATM    3  C3  UNL     1     -33.228   9.090   1.968  1.00 20.00     0.044 C 
HETATM    4  C4  UNL     1     -32.468   6.838   1.476  1.00 20.00    -0.011 C 
HETATM    5  C5  UNL     1     -32.959   7.738   2.643  1.00 20.00     0.123 C 
HETATM    6  C6  UNL     1     -31.677   5.608   1.943  1.00 20.00     0.018 C 
HETATM    7  C7  UNL     1     -33.607   6.362   0.553  1.00 20.00     0.018 C 
ENDROOT
BRANCH   5   8
HETATM    8  C8  UNL     1     -34.169   7.220   3.414  1.00 20.00     0.388 C 
HETATM    9  F10 UNL     1     -34.239   7.864   4.597  1.00 20.00    -0.211 F 
HETATM   10  F11 UNL     1     -33.989   5.909   3.675  1.00 20.00    -0.211 F 
ENDBRANCH   5   8
BRANCH   5  11
HETATM   11  O9  UNL     1     -31.892   7.922   3.582  1.00 20.00    -0.383 OA
HETATM   12  H25 UNL     1     -32.091   8.741   4.056  1.00 20.00     0.210 HD
ENDBRANCH   5  11
TORSDOF 2
ENDMDL
MODEL 2
REMARK VINA RESULT:       1.7      2.283      3.396
REMARK  2 active torsions:
REMARK  status: ('A' for Active; 'I' for Inactive)
REMARK    1  A    between atoms: C5_5  and  C8_8 
REMARK    2  A    between atoms: C5_5  and  O9_9 
ROOT
HETATM    1  C1  UNL     1     -33.042   5.329   1.830  1.00 20.00     0.004 C 
HETATM    2  C2  UNL     1     -33.088   5.845   3.269  1.00 20.00     0.012 C 
HETATM    3  C3  UNL     1     -32.834   6.553   0.930  1.00 20.00     0.044 C 
HETATM    4  C4  UNL     1     -33.359   7.359   3.158  1.00 20.00    -0.011 C 
HETATM    5  C5  UNL     1     -32.548   7.720   1.884  1.00 20.00     0.123 C 
HETATM    6  C6  UNL     1     -32.872   8.086   4.421  1.00 20.00     0.018 C 
HETATM    7  C7  UNL     1     -34.873   7.609   3.008  1.00 20.00     0.018 C 
ENDROOT
BRANCH   5   8
HETATM    8  C8  UNL     1     -32.866   9.075   1.259  1.00 20.00     0.388 C 
HETATM    9  F10 UNL     1     -32.743   8.977  -0.081  1.00 20.00    -0.211 F 
HETATM   10  F11 UNL     1     -31.955   9.975   1.685  1.00 20.00    -0.211 F 
ENDBRANCH   5   8
BRANCH   5  11
HETATM   11  O9  UNL     1     -31.148   7.702   2.191  1.00 20.00    -0.383 OA
HETATM   12  H25 UNL     1     -31.083   7.817   3.149  1.00 20.00     0.210 HD
ENDBRANCH   5  11
TORSDOF 2
ENDMDL
MODEL 3
REMARK VINA RESULT:       1.8      2.205      3.139
REMARK  2 active torsions:
REMARK  status: ('A' for Active; 'I' for Inactive)
REMARK    1  A    between atoms: C5_5  and  C8_8 
REMARK    2  A    between atoms: C5_5  and  O9_9 
ROOT
HETATM    1  C1  UNL     1     -34.070   7.347   3.735  1.00 20.00     0.004 C 
HETATM    2  C2  UNL     1     -32.698   7.979   3.499  1.00 20.00     0.012 C 
HETATM    3  C3  UNL     1     -34.304   6.359   2.586  1.00 20.00     0.044 C 
HETATM    4  C4  UNL     1     -32.362   7.700   2.020  1.00 20.00    -0.011 C 
HETATM    5  C5  UNL     1     -32.970   6.283   1.833  1.00 20.00     0.123 C 
HETATM    6  C6  UNL     1     -30.843   7.749   1.795  1.00 20.00     0.018 C 
HETATM    7  C7  UNL     1     -33.021   8.768   1.125  1.00 20.00     0.018 C 
ENDROOT
BRANCH   5   8
HETATM    8  C8  UNL     1     -33.141   5.822   0.389  1.00 20.00     0.388 C 
HETATM    9  F10 UNL     1     -34.444   5.920   0.052  1.00 20.00    -0.211 F 
HETATM   10  F11 UNL     1     -32.796   4.520   0.304  1.00 20.00    -0.211 F 
ENDBRANCH   5   8
BRANCH   5  11
HETATM   11  O9  UNL     1     -32.143   5.320   2.501  1.00 20.00    -0.383 OA
HETATM   12  H25 UNL     1     -32.670   4.981   3.237  1.00 20.00     0.210 HD
ENDBRANCH   5  11
TORSDOF 2
ENDMDL
MODEL 4
REMARK VINA RESULT:       1.9      2.244      3.215
REMARK  2 active torsions:
REMARK  status: ('A' for Active; 'I' for Inactive)
REMARK    1  A    between atoms: C5_5  and  C8_8 
REMARK    2  A    between atoms: C5_5  and  O9_9 
ROOT
HETATM    1  C1  UNL     1     -34.223   7.310   4.182  1.00 20.00     0.004 C 
HETATM    2  C2  UNL     1     -34.653   6.444   2.997  1.00 20.00     0.012 C 
HETATM    3  C3  UNL     1     -32.893   7.965   3.790  1.00 20.00     0.044 C 
HETATM    4  C4  UNL     1     -33.384   6.252   2.142  1.00 20.00    -0.011 C 
HETATM    5  C5  UNL     1     -32.695   7.634   2.305  1.00 20.00     0.123 C 
HETATM    6  C6  UNL     1     -33.759   5.922   0.690  1.00 20.00     0.018 C 
HETATM    7  C7  UNL     1     -32.548   5.085   2.705  1.00 20.00     0.018 C 
ENDROOT
BRANCH   5   8
HETATM    8  C8  UNL     1     -31.231   7.698   1.884  1.00 20.00     0.388 C 
HETATM    9  F10 UNL     1     -30.545   8.413   2.799  1.00 20.00    -0.211 F 
HETATM   10  F11 UNL     1     -31.145   8.355   0.708  1.00 20.00    -0.211 F 
ENDBRANCH   5   8
BRANCH   5  11
HETATM   11  O9  UNL     1     -33.410   8.613   1.539  1.00 20.00    -0.383 OA
HETATM   12  H25 UNL     1     -32.773   8.979   0.910  1.00 20.00     0.210 HD
ENDBRANCH   5  11
TORSDOF 2
ENDMDL
MODEL 5
REMARK VINA RESULT:       2.0      1.505      2.624
REMARK  2 active torsions:
REMARK  status: ('A' for Active; 'I' for Inactive)
REMARK    1  A    between atoms: C5_5  and  C8_8 
REMARK    2  A    between atoms: C5_5  and  O9_9 
ROOT
HETATM    1  C1  UNL     1     -31.778   5.349   1.712  1.00 20.00     0.004 C 
HETATM    2  C2  UNL     1     -31.644   6.670   0.952  1.00 20.00     0.012 C 
HETATM    3  C3  UNL     1     -32.852   5.564   2.784  1.00 20.00     0.044 C 
HETATM    4  C4  UNL     1     -32.292   7.737   1.860  1.00 20.00    -0.011 C 
HETATM    5  C5  UNL     1     -33.469   6.935   2.478  1.00 20.00     0.123 C 
HETATM    6  C6  UNL     1     -32.744   8.946   1.028  1.00 20.00     0.018 C 
HETATM    7  C7  UNL     1     -31.269   8.222   2.906  1.00 20.00     0.018 C 
ENDROOT
BRANCH   5   8
HETATM    8  C8  UNL     1     -34.127   7.564   3.702  1.00 20.00     0.388 C 
HETATM    9  F10 UNL     1     -33.203   7.690   4.677  1.00 20.00    -0.211 F 
HETATM   10  F11 UNL     1     -35.086   6.731   4.157  1.00 20.00    -0.211 F 
ENDBRANCH   5   8
BRANCH   5  11
HETATM   11  O9  UNL     1     -34.487   6.747   1.487  1.00 20.00    -0.383 OA
HETATM   12  H25 UNL     1     -35.099   6.094   1.852  1.00 20.00     0.210 HD
ENDBRANCH   5  11
TORSDOF 2
ENDMDL
MODEL 6
REMARK VINA RESULT:       2.0      1.856      3.117
REMARK  2 active torsions:
REMARK  status: ('A' for Active; 'I' for Inactive)
REMARK    1  A    between atoms: C5_5  and  C8_8 
REMARK    2  A    between atoms: C5_5  and  O9_9 
ROOT
HETATM    1  C1  UNL     1     -31.893   7.000   1.659  1.00 20.00     0.004 C 
HETATM    2  C2  UNL     1     -32.768   8.176   2.095  1.00 20.00     0.012 C 
HETATM    3  C3  UNL     1     -32.462   5.750   2.342  1.00 20.00     0.044 C 
HETATM    4  C4  UNL     1     -33.527   7.687   3.346  1.00 20.00    -0.011 C 
HETATM    5  C5  UNL     1     -33.782   6.199   2.984  1.00 20.00     0.123 C 
HETATM    6  C6  UNL     1     -34.815   8.499   3.544  1.00 20.00     0.018 C 
HETATM    7  C7  UNL     1     -32.642   7.867   4.596  1.00 20.00     0.018 C 
ENDROOT
BRANCH   5   8
HETATM    8  C8  UNL     1     -34.203   5.299   4.141  1.00 20.00     0.388 C 
HETATM    9  F10 UNL     1     -33.911   4.020   3.827  1.00 20.00    -0.211 F 
HETATM   10  F11 UNL     1     -35.542   5.384   4.293  1.00 20.00    -0.211 F 
ENDBRANCH   5   8
BRANCH   5  11
HETATM   11  O9  UNL     1     -34.804   6.123   1.981  1.00 20.00    -0.383 OA
HETATM   12  H25 UNL     1     -35.428   6.834   2.181  1.00 20.00     0.210 HD
ENDBRANCH   5  11
TORSDOF 2
ENDMDL
MODEL 7
REMARK VINA RESULT:       2.0      2.379      3.474
REMARK  2 active torsions:
REMARK  status: ('A' for Active; 'I' for Inactive)
REMARK    1  A    between atoms: C5_5  and  C8_8 
REMARK    2  A    between atoms: C5_5  and  O9_9 
ROOT
HETATM    1  C1  UNL     1     -32.836   8.177   4.707  1.00 20.00     0.004 C 
HETATM    2  C2  UNL     1     -34.332   7.903   4.547  1.00 20.00     0.012 C 
HETATM    3  C3  UNL     1     -32.134   7.493   3.528  1.00 20.00     0.044 C 
HETATM    4  C4  UNL     1     -34.434   6.718   3.565  1.00 20.00    -0.011 C 
HETATM    5  C5  UNL     1     -33.260   7.025   2.596  1.00 20.00     0.123 C 
HETATM    6  C6  UNL     1     -35.808   6.707   2.878  1.00 20.00     0.018 C 
HETATM    7  C7  UNL     1     -34.262   5.391   4.330  1.00 20.00     0.018 C 
ENDROOT
BRANCH   5   8
HETATM    8  C8  UNL     1     -32.828   5.874   1.693  1.00 20.00     0.388 C 
HETATM    9  F10 UNL     1     -31.544   6.064   1.329  1.00 20.00    -0.211 F 
HETATM   10  F11 UNL     1     -33.577   5.898   0.571  1.00 20.00    -0.211 F 
ENDBRANCH   5   8
BRANCH   5  11
HETATM   11  O9  UNL     1     -33.617   8.128   1.753  1.00 20.00    -0.383 OA
HETATM   12  H25 UNL     1     -33.476   7.827   0.845  1.00 20.00     0.210 HD
ENDBRANCH   5  11
TORSDOF 2
ENDMDL
MODEL 8
REMARK VINA RESULT:       2.3      1.889      3.065
REMARK  2 active torsions:
REMARK  status: ('A' for Active; 'I' for Inactive)
REMARK    1  A    between atoms: C5_5  and  C8_8 
REMARK    2  A    between atoms: C5_5  and  O9_9 
ROOT
HETATM    1  C1  UNL     1     -32.549   9.114   1.644  1.00 20.00     0.004 C 
HETATM    2  C2  UNL     1     -33.804   8.857   2.481  1.00 20.00     0.012 C 
HETATM    3  C3  UNL     1     -31.870   7.755   1.438  1.00 20.00     0.044 C 
HETATM    4  C4  UNL     1     -33.599   7.468   3.118  1.00 20.00    -0.011 C 
HETATM    5  C5  UNL     1     -32.863   6.715   1.976  1.00 20.00     0.123 C 
HETATM    6  C6  UNL     1     -34.952   6.843   3.491  1.00 20.00     0.018 C 
HETATM    7  C7  UNL     1     -32.756   7.601   4.402  1.00 20.00     0.018 C 
ENDROOT
BRANCH   5   8
HETATM    8  C8  UNL     1     -32.181   5.411   2.375  1.00 20.00     0.388 C 
HETATM    9  F10 UNL     1     -31.532   4.912   1.302  1.00 20.00    -0.211 F 
HETATM   10  F11 UNL     1     -33.127   4.516   2.729  1.00 20.00    -0.211 F 
ENDBRANCH   5   8
BRANCH   5  11
HETATM   11  O9  UNL     1     -33.794   6.416   0.928  1.00 20.00    -0.383 OA
HETATM   12  H25 UNL     1     -33.681   7.109   0.264  1.00 20.00     0.210 HD
ENDBRANCH   5  11
TORSDOF 2
ENDMDL
