MODEL 1
REMARK VINA RESULT:       0.2      0.000      0.000
REMARK  4 active torsions:
REMARK  status: ('A' for Active; 'I' for Inactive)
REMARK    1  A    between atoms: C5_5  and  C8_8 
REMARK    2  A    between atoms: C6_6  and  C8_8 
REMARK    3  A    between atoms: C7_7  and  C8_8 
REMARK    4  A    between atoms: C8_8  and  N9_9 
ROOT
HETATM    1  C8  UNL     1     -34.028   6.190   3.242  1.00 20.00     0.217 C 
ENDROOT
BRANCH   1   2
HETATM    2  C5  UNL     1     -33.802   5.787   1.756  1.00 20.00     0.043 C 
HETATM    3  C1  UNL     1     -32.376   5.404   1.372  1.00 20.00     0.008 C 
ENDBRANCH   1   2
BRANCH   1   4
HETATM    4  C6  UNL     1     -33.587   7.666   3.549  1.00 20.00     0.021 C 
HETATM    5  C2  UNL     1     -32.402   8.158   2.706  1.00 20.00     0.012 C 
HETATM    6  C3  UNL     1     -33.258   7.915   5.032  1.00 20.00     0.012 C 
ENDBRANCH   1   4
BRANCH   1   7
HETATM    7  C7  UNL     1     -35.504   5.926   3.599  1.00 20.00     0.391 C 
HETATM    8  F10 UNL     1     -35.690   6.047   4.941  1.00 20.00    -0.212 F 
HETATM    9  F11 UNL     1     -36.310   6.856   3.026  1.00 20.00    -0.212 F 
ENDBRANCH   1   7
BRANCH   1  10
HETATM   10  N9  UNL     1     -33.238   5.284   4.099  1.00 20.00     0.094 N 
HETATM   11  C4  UNL     1     -33.858   3.974   4.149  1.00 20.00     0.307 C 
HETATM   12  H28 UNL     1     -33.197   5.685   5.029  1.00 20.00     0.316 HD
ENDBRANCH   1  10
TORSDOF 4
ENDMDL
MODEL 2
REMARK VINA RESULT:       0.3      0.862      2.544
REMARK  4 active torsions:
REMARK  status: ('A' for Active; 'I' for Inactive)
REMARK    1  A    between atoms: C5_5  and  C8_8 
REMARK    2  A    between atoms: C6_6  and  C8_8 
REMARK    3  A    between atoms: C7_7  and  C8_8 
REMARK    4  A    between atoms: C8_8  and  N9_9 
ROOT
HETATM    1  C8  UNL     1     -33.871   6.126   3.366  1.00 20.00     0.217 C 
ENDROOT
BRANCH   1   2
HETATM    2  C5  UNL     1     -33.789   4.573   3.455  1.00 20.00     0.043 C 
HETATM    3  C1  UNL     1     -33.647   3.987   4.857  1.00 20.00     0.008 C 
ENDBRANCH   1   2
BRANCH   1   4
HETATM    4  C6  UNL     1     -33.413   6.682   1.971  1.00 20.00     0.021 C 
HETATM    5  C2  UNL     1     -32.858   5.614   1.017  1.00 20.00     0.012 C 
HETATM    6  C3  UNL     1     -32.381   7.821   2.070  1.00 20.00     0.012 C 
ENDBRANCH   1   4
BRANCH   1   7
HETATM    7  C7  UNL     1     -35.303   6.560   3.736  1.00 20.00     0.391 C 
HETATM    8  F10 UNL     1     -36.033   6.777   2.608  1.00 20.00    -0.212 F 
HETATM    9  F11 UNL     1     -35.945   5.573   4.410  1.00 20.00    -0.212 F 
ENDBRANCH   1   7
BRANCH   1  10
HETATM   10  N9  UNL     1     -32.995   6.702   4.404  1.00 20.00     0.094 N 
HETATM   11  C4  UNL     1     -33.606   7.887   4.976  1.00 20.00     0.307 C 
HETATM   12  H28 UNL     1     -32.109   6.940   3.974  1.00 20.00     0.316 HD
ENDBRANCH   1  10
TORSDOF 4
ENDMDL
MODEL 3
REMARK VINA RESULT:       0.6      0.481      1.150
REMARK  4 active torsions:
REMARK  status: ('A' for Active; 'I' for Inactive)
REMARK    1  A    between atoms: C5_5  and  C8_8 
REMARK    2  A    between atoms: C6_6  and  C8_8 
REMARK    3  A    between atoms: C7_7  and  C8_8 
REMARK    4  A    between atoms: C8_8  and  N9_9 
ROOT
HETATM    1  C8  UNL     1     -33.709   6.057   3.171  1.00 20.00     0.217 C 
ENDROOT
BRANCH   1   2
HETATM    2  C5  UNL     1     -33.687   5.869   1.626  1.00 20.00     0.043 C 
HETATM    3  C1  UNL     1     -32.448   5.191   1.048  1.00 20.00     0.008 C 
ENDBRANCH   1   2
BRANCH   1   4
HETATM    4  C6  UNL     1     -32.948   7.348   3.640  1.00 20.00     0.021 C 
HETATM    5  C2  UNL     1     -33.767   8.263   4.561  1.00 20.00     0.012 C 
HETATM    6  C3  UNL     1     -32.405   8.198   2.477  1.00 20.00     0.012 C 
ENDBRANCH   1   4
BRANCH   1   7
HETATM    7  C7  UNL     1     -35.176   6.029   3.644  1.00 20.00     0.391 C 
HETATM    8  F10 UNL     1     -35.277   6.563   4.891  1.00 20.00    -0.212 F 
HETATM    9  F11 UNL     1     -35.953   6.801   2.844  1.00 20.00    -0.212 F 
ENDBRANCH   1   7
BRANCH   1  10
HETATM   10  N9  UNL     1     -33.062   4.886   3.796  1.00 20.00     0.094 N 
HETATM   11  C4  UNL     1     -34.059   3.902   4.169  1.00 20.00     0.307 C 
HETATM   12  H28 UNL     1     -32.561   5.203   4.617  1.00 20.00     0.316 HD
ENDBRANCH   1  10
TORSDOF 4
ENDMDL
MODEL 4
REMARK VINA RESULT:       0.6      2.942      3.936
REMARK  4 active torsions:
REMARK  status: ('A' for Active; 'I' for Inactive)
REMARK    1  A    between atoms: C5_5  and  C8_8 
REMARK    2  A    between atoms: C6_6  and  C8_8 
REMARK    3  A    between atoms: C7_7  and  C8_8 
REMARK    4  A    between atoms: C8_8  and  N9_9 
ROOT
HETATM    1  C8  UNL     1     -32.931   7.800   2.389  1.00 20.00     0.217 C 
ENDROOT
BRANCH   1   2
HETATM    2  C5  UNL     1     -33.109   6.688   1.313  1.00 20.00     0.043 C 
HETATM    3  C1  UNL     1     -32.224   5.455   1.467  1.00 20.00     0.008 C 
ENDBRANCH   1   2
BRANCH   1   4
HETATM    4  C6  UNL     1     -33.974   7.691   3.557  1.00 20.00     0.021 C 
HETATM    5  C2  UNL     1     -33.410   8.041   4.941  1.00 20.00     0.012 C 
HETATM    6  C3  UNL     1     -34.654   6.313   3.649  1.00 20.00     0.012 C 
ENDBRANCH   1   4
BRANCH   1   7
HETATM    7  C7  UNL     1     -31.473   7.763   2.890  1.00 20.00     0.391 C 
HETATM    8  F10 UNL     1     -30.616   7.700   1.835  1.00 20.00    -0.212 F 
HETATM    9  F11 UNL     1     -31.165   8.905   3.553  1.00 20.00    -0.212 F 
ENDBRANCH   1   7
BRANCH   1  10
HETATM   10  N9  UNL     1     -33.099   9.114   1.738  1.00 20.00     0.094 N 
HETATM   11  C4  UNL     1     -32.411   9.133   0.461  1.00 20.00     0.307 C 
HETATM   12  H28 UNL     1     -32.714   9.822   2.352  1.00 20.00     0.316 HD
ENDBRANCH   1  10
TORSDOF 4
ENDMDL
MODEL 5
REMARK VINA RESULT:       0.7      2.131      3.086
REMARK  4 active torsions:
REMARK  status: ('A' for Active; 'I' for Inactive)
REMARK    1  A    between atoms: C5_5  and  C8_8 
REMARK    2  A    between atoms: C6_6  and  C8_8 
REMARK    3  A    between atoms: C7_7  and  C8_8 
REMARK    4  A    between atoms: C8_8  and  N9_9 
ROOT
HETATM    1  C8  UNL     1     -33.499   6.139   2.953  1.00 20.00     0.217 C 
ENDROOT
BRANCH   1   2
HETATM    2  C5  UNL     1     -33.554   5.146   4.151  1.00 20.00     0.043 C 
HETATM    3  C1  UNL     1     -33.602   3.663   3.794  1.00 20.00     0.008 C 
ENDBRANCH   1   2
BRANCH   1   4
HETATM    4  C6  UNL     1     -32.524   7.344   3.202  1.00 20.00     0.021 C 
HETATM    5  C2  UNL     1     -32.914   8.235   4.390  1.00 20.00     0.012 C 
HETATM    6  C3  UNL     1     -32.330   8.245   1.968  1.00 20.00     0.012 C 
ENDBRANCH   1   4
BRANCH   1   7
HETATM    7  C7  UNL     1     -33.147   5.345   1.678  1.00 20.00     0.391 C 
HETATM    8  F10 UNL     1     -33.732   5.920   0.593  1.00 20.00    -0.212 F 
HETATM    9  F11 UNL     1     -31.811   5.381   1.445  1.00 20.00    -0.212 F 
ENDBRANCH   1   7
BRANCH   1  10
HETATM   10  N9  UNL     1     -34.855   6.679   2.729  1.00 20.00     0.094 N 
HETATM   11  C4  UNL     1     -35.707   6.381   3.863  1.00 20.00     0.307 C 
HETATM   12  H28 UNL     1     -35.230   6.253   1.889  1.00 20.00     0.316 HD
ENDBRANCH   1  10
TORSDOF 4
ENDMDL
MODEL 6
REMARK VINA RESULT:       0.7      1.966      2.791
REMARK  4 active torsions:
REMARK  status: ('A' for Active; 'I' for Inactive)
REMARK    1  A    between atoms: C5_5  and  C8_8 
REMARK    2  A    between atoms: C6_6  and  C8_8 
REMARK    3  A    between atoms: C7_7  and  C8_8 
REMARK    4  A    between atoms: C8_8  and  N9_9 
ROOT
HETATM    1  C8  UNL     1     -33.155   6.166   2.520  1.00 20.00     0.217 C 
ENDROOT
BRANCH   1   2
HETATM    2  C5  UNL     1     -31.894   6.972   2.090  1.00 20.00     0.043 C 
HETATM    3  C1  UNL     1     -32.152   8.319   1.420  1.00 20.00     0.008 C 
ENDBRANCH   1   2
BRANCH   1   4
HETATM    4  C6  UNL     1     -34.244   7.061   3.212  1.00 20.00     0.021 C 
HETATM    5  C2  UNL     1     -33.718   7.905   4.381  1.00 20.00     0.012 C 
HETATM    6  C3  UNL     1     -35.469   6.268   3.704  1.00 20.00     0.012 C 
ENDBRANCH   1   4
BRANCH   1   7
HETATM    7  C7  UNL     1     -33.698   5.418   1.287  1.00 20.00     0.391 C 
HETATM    8  F10 UNL     1     -34.223   6.302   0.396  1.00 20.00    -0.212 F 
HETATM    9  F11 UNL     1     -32.696   4.781   0.632  1.00 20.00    -0.212 F 
ENDBRANCH   1   7
BRANCH   1  10
HETATM   10  N9  UNL     1     -32.740   5.120   3.475  1.00 20.00     0.094 N 
HETATM   11  C4  UNL     1     -33.794   4.137   3.632  1.00 20.00     0.307 C 
HETATM   12  H28 UNL     1     -32.542   5.565   4.364  1.00 20.00     0.316 HD
ENDBRANCH   1  10
TORSDOF 4
ENDMDL
MODEL 7
REMARK VINA RESULT:       0.8      2.450      3.332
REMARK  4 active torsions:
REMARK  status: ('A' for Active; 'I' for Inactive)
REMARK    1  A    between atoms: C5_5  and  C8_8 
REMARK    2  A    between atoms: C6_6  and  C8_8 
REMARK    3  A    between atoms: C7_7  and  C8_8 
REMARK    4  A    between atoms: C8_8  and  N9_9 
ROOT
HETATM    1  C8  UNL     1     -33.306   6.567   2.532  1.00 20.00     0.217 C 
ENDROOT
BRANCH   1   2
HETATM    2  C5  UNL     1     -32.762   5.213   3.077  1.00 20.00     0.043 C 
HETATM    3  C1  UNL     1     -33.775   4.316   3.782  1.00 20.00     0.008 C 
ENDBRANCH   1   2
BRANCH   1   4
HETATM    4  C6  UNL     1     -34.354   7.234   3.492  1.00 20.00     0.021 C 
HETATM    5  C2  UNL     1     -33.741   7.887   4.738  1.00 20.00     0.012 C 
HETATM    6  C3  UNL     1     -35.468   6.275   3.949  1.00 20.00     0.012 C 
ENDBRANCH   1   4
BRANCH   1   7
HETATM    7  C7  UNL     1     -32.106   7.487   2.232  1.00 20.00     0.391 C 
HETATM    8  F10 UNL     1     -31.178   6.821   1.493  1.00 20.00    -0.212 F 
HETATM    9  F11 UNL     1     -32.491   8.547   1.478  1.00 20.00    -0.212 F 
ENDBRANCH   1   7
BRANCH   1  10
HETATM   10  N9  UNL     1     -33.959   6.320   1.232  1.00 20.00     0.094 N 
HETATM   11  C4  UNL     1     -33.296   5.237   0.533  1.00 20.00     0.307 C 
HETATM   12  H28 UNL     1     -33.906   7.172   0.685  1.00 20.00     0.316 HD
ENDBRANCH   1  10
TORSDOF 4
ENDMDL
MODEL 8
REMARK VINA RESULT:       0.8      1.457      2.718
REMARK  4 active torsions:
REMARK  status: ('A' for Active; 'I' for Inactive)
REMARK    1  A    between atoms: C5_5  and  C8_8 
REMARK    2  A    between atoms: C6_6  and  C8_8 
REMARK    3  A    between atoms: C7_7  and  C8_8 
REMARK    4  A    between atoms: C8_8  and  N9_9 
ROOT
HETATM    1  C8  UNL     1     -33.954   6.499   3.414  1.00 20.00     0.217 C 
ENDROOT
BRANCH   1   2
HETATM    2  C5  UNL     1     -35.457   6.095   3.464  1.00 20.00     0.043 C 
HETATM    3  C1  UNL     1     -36.438   7.071   2.823  1.00 20.00     0.008 C 
ENDBRANCH   1   2
BRANCH   1   4
HETATM    4  C6  UNL     1     -33.416   6.668   1.948  1.00 20.00     0.021 C 
HETATM    5  C2  UNL     1     -32.740   5.415   1.376  1.00 20.00     0.012 C 
HETATM    6  C3  UNL     1     -32.450   7.855   1.780  1.00 20.00     0.012 C 
ENDBRANCH   1   4
BRANCH   1   7
HETATM    7  C7  UNL     1     -33.763   7.770   4.266  1.00 20.00     0.391 C 
HETATM    8  F10 UNL     1     -34.587   7.737   5.348  1.00 20.00    -0.212 F 
HETATM    9  F11 UNL     1     -32.501   7.831   4.760  1.00 20.00    -0.212 F 
ENDBRANCH   1   7
BRANCH   1  10
HETATM   10  N9  UNL     1     -33.162   5.446   4.079  1.00 20.00     0.094 N 
HETATM   11  C4  UNL     1     -33.984   4.275   4.316  1.00 20.00     0.307 C 
HETATM   12  H28 UNL     1     -32.820   5.815   4.958  1.00 20.00     0.316 HD
ENDBRANCH   1  10
TORSDOF 4
ENDMDL
MODEL 9
REMARK VINA RESULT:       0.9      1.558      3.029
REMARK  4 active torsions:
REMARK  status: ('A' for Active; 'I' for Inactive)
REMARK    1  A    between atoms: C5_5  and  C8_8 
REMARK    2  A    between atoms: C6_6  and  C8_8 
REMARK    3  A    between atoms: C7_7  and  C8_8 
REMARK    4  A    between atoms: C8_8  and  N9_9 
ROOT
HETATM    1  C8  UNL     1     -34.020   6.438   3.295  1.00 20.00     0.217 C 
ENDROOT
BRANCH   1   2
HETATM    2  C5  UNL     1     -34.192   7.742   4.127  1.00 20.00     0.043 C 
HETATM    3  C1  UNL     1     -33.143   7.995   5.206  1.00 20.00     0.008 C 
ENDBRANCH   1   2
BRANCH   1   4
HETATM    4  C6  UNL     1     -32.732   6.453   2.396  1.00 20.00     0.021 C 
HETATM    5  C2  UNL     1     -32.296   7.854   1.942  1.00 20.00     0.012 C 
HETATM    6  C3  UNL     1     -32.841   5.556   1.149  1.00 20.00     0.012 C 
ENDBRANCH   1   4
BRANCH   1   7
HETATM    7  C7  UNL     1     -34.054   5.236   4.260  1.00 20.00     0.391 C 
HETATM    8  F10 UNL     1     -35.341   4.925   4.575  1.00 20.00    -0.212 F 
HETATM    9  F11 UNL     1     -33.538   4.130   3.667  1.00 20.00    -0.212 F 
ENDBRANCH   1   7
BRANCH   1  10
HETATM   10  N9  UNL     1     -35.196   6.283   2.416  1.00 20.00     0.094 N 
HETATM   11  C4  UNL     1     -36.339   6.973   2.982  1.00 20.00     0.307 C 
HETATM   12  H28 UNL     1     -35.395   5.293   2.327  1.00 20.00     0.316 HD
ENDBRANCH   1  10
TORSDOF 4
ENDMDL
