MODEL 1
REMARK VINA RESULT:      -2.2      0.000      0.000
REMARK  5 active torsions:
REMARK  status: ('A' for Active; 'I' for Inactive)
REMARK    1  A    between atoms: C5_5  and  C7_7 
REMARK    2  A    between atoms: C6_6  and  C8_8 
REMARK    3  A    between atoms: C7_7  and  C9_9 
REMARK    4  A    between atoms: C8_8  and  C9_9 
REMARK    5  A    between atoms: C9_9  and  O10_10 
ROOT
HETATM    1  C1  UNL     1     -32.327   9.217   0.574  1.00 20.00     0.012 C 
HETATM    2  C2  UNL     1     -32.307   8.372   1.426  1.00 20.00    -0.117 C 
HETATM    3  C5  UNL     1     -32.278   7.338   2.473  1.00 20.00     0.096 C 
ENDROOT
BRANCH   3   4
HETATM    4  C7  UNL     1     -33.511   6.435   2.381  1.00 20.00     0.049 C 
BRANCH   4   5
HETATM    5  C9  UNL     1     -34.450   6.469   3.608  1.00 20.00     0.055 C 
HETATM    6  C4  UNL     1     -34.033   7.571   4.590  1.00 20.00     0.045 C 
BRANCH   5   7
HETATM    7  C8  UNL     1     -34.567   5.128   4.367  1.00 20.00     0.037 C 
BRANCH   7   8
HETATM    8  C6  UNL     1     -33.792   3.962   3.744  1.00 20.00    -0.002 C 
HETATM    9  C3  UNL     1     -33.220   3.045   4.816  1.00 20.00     0.005 C 
ENDBRANCH   7   8
ENDBRANCH   5   7
BRANCH   5  10
HETATM   10  O10 UNL     1     -35.757   6.838   3.143  1.00 20.00    -0.390 OA
HETATM   11  H26 UNL     1     -36.172   7.321   3.871  1.00 20.00     0.210 HD
ENDBRANCH   5  10
ENDBRANCH   4   5
ENDBRANCH   3   4
TORSDOF 5
ENDMDL
MODEL 2
REMARK VINA RESULT:      -1.8      2.067      2.988
REMARK  5 active torsions:
REMARK  status: ('A' for Active; 'I' for Inactive)
REMARK    1  A    between atoms: C5_5  and  C7_7 
REMARK    2  A    between atoms: C6_6  and  C8_8 
REMARK    3  A    between atoms: C7_7  and  C9_9 
REMARK    4  A    between atoms: C8_8  and  C9_9 
REMARK    5  A    between atoms: C9_9  and  O10_10 
ROOT
HETATM    1  C1  UNL     1     -32.799  10.614   0.047  1.00 20.00     0.012 C 
HETATM    2  C2  UNL     1     -32.265   9.571   0.311  1.00 20.00    -0.117 C 
HETATM    3  C5  UNL     1     -31.608   8.294   0.631  1.00 20.00     0.096 C 
ENDROOT
BRANCH   3   4
HETATM    4  C7  UNL     1     -32.227   7.660   1.880  1.00 20.00     0.049 C 
BRANCH   4   5
HETATM    5  C9  UNL     1     -32.674   6.189   1.724  1.00 20.00     0.055 C 
HETATM    6  C4  UNL     1     -33.514   6.001   0.454  1.00 20.00     0.045 C 
BRANCH   5   7
HETATM    7  C8  UNL     1     -33.448   5.619   2.934  1.00 20.00     0.037 C 
BRANCH   7   8
HETATM    8  C6  UNL     1     -34.246   6.652   3.738  1.00 20.00    -0.002 C 
HETATM    9  C3  UNL     1     -35.605   6.103   4.145  1.00 20.00     0.005 C 
ENDBRANCH   7   8
ENDBRANCH   5   7
BRANCH   5  10
HETATM   10  O10 UNL     1     -31.493   5.396   1.531  1.00 20.00    -0.390 OA
HETATM   11  H26 UNL     1     -31.745   4.487   1.746  1.00 20.00     0.210 HD
ENDBRANCH   5  10
ENDBRANCH   4   5
ENDBRANCH   3   4
TORSDOF 5
ENDMDL
MODEL 3
REMARK VINA RESULT:      -1.5      1.364      4.973
REMARK  5 active torsions:
REMARK  status: ('A' for Active; 'I' for Inactive)
REMARK    1  A    between atoms: C5_5  and  C7_7 
REMARK    2  A    between atoms: C6_6  and  C8_8 
REMARK    3  A    between atoms: C7_7  and  C9_9 
REMARK    4  A    between atoms: C8_8  and  C9_9 
REMARK    5  A    between atoms: C9_9  and  O10_10 
ROOT
HETATM    1  C1  UNL     1     -33.789   3.585   4.400  1.00 20.00     0.012 C 
HETATM    2  C2  UNL     1     -34.108   4.669   3.994  1.00 20.00    -0.117 C 
HETATM    3  C5  UNL     1     -34.503   5.997   3.497  1.00 20.00     0.096 C 
ENDROOT
BRANCH   3   4
HETATM    4  C7  UNL     1     -33.273   6.866   3.226  1.00 20.00     0.049 C 
BRANCH   4   5
HETATM    5  C9  UNL     1     -32.672   6.740   1.808  1.00 20.00     0.055 C 
HETATM    6  C4  UNL     1     -31.790   5.490   1.693  1.00 20.00     0.045 C 
BRANCH   5   7
HETATM    7  C8  UNL     1     -31.870   7.973   1.336  1.00 20.00     0.037 C 
BRANCH   7   8
HETATM    8  C6  UNL     1     -32.688   9.261   1.192  1.00 20.00    -0.002 C 
HETATM    9  C3  UNL     1     -32.426   9.934  -0.148  1.00 20.00     0.005 C 
ENDBRANCH   7   8
ENDBRANCH   5   7
BRANCH   5  10
HETATM   10  O10 UNL     1     -33.759   6.534   0.894  1.00 20.00    -0.390 OA
HETATM   11  H26 UNL     1     -33.622   7.162   0.171  1.00 20.00     0.210 HD
ENDBRANCH   5  10
ENDBRANCH   4   5
ENDBRANCH   3   4
TORSDOF 5
ENDMDL
MODEL 4
REMARK VINA RESULT:      -1.3      1.994      5.166
REMARK  5 active torsions:
REMARK  status: ('A' for Active; 'I' for Inactive)
REMARK    1  A    between atoms: C5_5  and  C7_7 
REMARK    2  A    between atoms: C6_6  and  C8_8 
REMARK    3  A    between atoms: C7_7  and  C9_9 
REMARK    4  A    between atoms: C8_8  and  C9_9 
REMARK    5  A    between atoms: C9_9  and  O10_10 
ROOT
HETATM    1  C1  UNL     1     -35.375   5.427   4.333  1.00 20.00     0.012 C 
HETATM    2  C2  UNL     1     -34.723   6.402   4.079  1.00 20.00    -0.117 C 
HETATM    3  C5  UNL     1     -33.922   7.598   3.772  1.00 20.00     0.096 C 
ENDROOT
BRANCH   3   4
HETATM    4  C7  UNL     1     -33.628   7.686   2.272  1.00 20.00     0.049 C 
BRANCH   4   5
HETATM    5  C9  UNL     1     -32.133   7.783   1.895  1.00 20.00     0.055 C 
HETATM    6  C4  UNL     1     -31.307   8.347   3.058  1.00 20.00     0.045 C 
BRANCH   5   7
HETATM    7  C8  UNL     1     -31.841   8.603   0.618  1.00 20.00     0.037 C 
BRANCH   7   8
HETATM    8  C6  UNL     1     -32.395  10.033   0.627  1.00 20.00    -0.002 C 
HETATM    9  C3  UNL     1     -33.005  10.396  -0.719  1.00 20.00     0.005 C 
ENDBRANCH   7   8
ENDBRANCH   5   7
BRANCH   5  10
HETATM   10  O10 UNL     1     -31.651   6.446   1.690  1.00 20.00    -0.390 OA
HETATM   11  H26 UNL     1     -31.213   6.191   2.514  1.00 20.00     0.210 HD
ENDBRANCH   5  10
ENDBRANCH   4   5
ENDBRANCH   3   4
TORSDOF 5
ENDMDL
MODEL 5
REMARK VINA RESULT:      -1.2      2.068      4.065
REMARK  5 active torsions:
REMARK  status: ('A' for Active; 'I' for Inactive)
REMARK    1  A    between atoms: C5_5  and  C7_7 
REMARK    2  A    between atoms: C6_6  and  C8_8 
REMARK    3  A    between atoms: C7_7  and  C9_9 
REMARK    4  A    between atoms: C8_8  and  C9_9 
REMARK    5  A    between atoms: C9_9  and  O10_10 
ROOT
HETATM    1  C1  UNL     1     -35.404   5.464   4.286  1.00 20.00     0.012 C 
HETATM    2  C2  UNL     1     -34.724   6.442   4.138  1.00 20.00    -0.117 C 
HETATM    3  C5  UNL     1     -33.890   7.641   3.962  1.00 20.00     0.096 C 
ENDROOT
BRANCH   3   4
HETATM    4  C7  UNL     1     -33.730   7.980   2.477  1.00 20.00     0.049 C 
BRANCH   4   5
HETATM    5  C9  UNL     1     -32.273   8.121   1.984  1.00 20.00     0.055 C 
HETATM    6  C4  UNL     1     -32.160   9.207   0.905  1.00 20.00     0.045 C 
BRANCH   5   7
HETATM    7  C8  UNL     1     -31.640   6.814   1.456  1.00 20.00     0.037 C 
BRANCH   7   8
HETATM    8  C6  UNL     1     -32.623   5.653   1.260  1.00 20.00    -0.002 C 
HETATM    9  C3  UNL     1     -31.967   4.495   0.521  1.00 20.00     0.005 C 
ENDBRANCH   7   8
ENDBRANCH   5   7
BRANCH   5  10
HETATM   10  O10 UNL     1     -31.484   8.588   3.089  1.00 20.00    -0.390 OA
HETATM   11  H26 UNL     1     -31.435   7.850   3.712  1.00 20.00     0.210 HD
ENDBRANCH   5  10
ENDBRANCH   4   5
ENDBRANCH   3   4
TORSDOF 5
ENDMDL
MODEL 6
REMARK VINA RESULT:      -1.1      1.784      4.453
REMARK  5 active torsions:
REMARK  status: ('A' for Active; 'I' for Inactive)
REMARK    1  A    between atoms: C5_5  and  C7_7 
REMARK    2  A    between atoms: C6_6  and  C8_8 
REMARK    3  A    between atoms: C7_7  and  C9_9 
REMARK    4  A    between atoms: C8_8  and  C9_9 
REMARK    5  A    between atoms: C9_9  and  O10_10 
ROOT
HETATM    1  C1  UNL     1     -33.404   8.388   5.221  1.00 20.00     0.012 C 
HETATM    2  C2  UNL     1     -33.937   7.645   4.444  1.00 20.00    -0.117 C 
HETATM    3  C5  UNL     1     -34.595   6.737   3.491  1.00 20.00     0.096 C 
ENDROOT
BRANCH   3   4
HETATM    4  C7  UNL     1     -33.589   5.747   2.898  1.00 20.00     0.049 C 
BRANCH   4   5
HETATM    5  C9  UNL     1     -32.795   6.262   1.677  1.00 20.00     0.055 C 
HETATM    6  C4  UNL     1     -31.742   5.238   1.233  1.00 20.00     0.045 C 
BRANCH   5   7
HETATM    7  C8  UNL     1     -32.114   7.634   1.882  1.00 20.00     0.037 C 
BRANCH   7   8
HETATM    8  C6  UNL     1     -31.785   8.392   0.590  1.00 20.00    -0.002 C 
HETATM    9  C3  UNL     1     -32.505   9.732   0.539  1.00 20.00     0.005 C 
ENDBRANCH   7   8
ENDBRANCH   5   7
BRANCH   5  10
HETATM   10  O10 UNL     1     -33.713   6.375   0.579  1.00 20.00    -0.390 OA
HETATM   11  H26 UNL     1     -34.482   5.839   0.819  1.00 20.00     0.210 HD
ENDBRANCH   5  10
ENDBRANCH   4   5
ENDBRANCH   3   4
TORSDOF 5
ENDMDL
MODEL 7
REMARK VINA RESULT:      -1.1      1.326      4.569
REMARK  5 active torsions:
REMARK  status: ('A' for Active; 'I' for Inactive)
REMARK    1  A    between atoms: C5_5  and  C7_7 
REMARK    2  A    between atoms: C6_6  and  C8_8 
REMARK    3  A    between atoms: C7_7  and  C9_9 
REMARK    4  A    between atoms: C8_8  and  C9_9 
REMARK    5  A    between atoms: C9_9  and  O10_10 
ROOT
HETATM    1  C1  UNL     1     -33.097   2.789   5.087  1.00 20.00     0.012 C 
HETATM    2  C2  UNL     1     -33.563   3.602   4.337  1.00 20.00    -0.117 C 
HETATM    3  C5  UNL     1     -34.134   4.596   3.414  1.00 20.00     0.096 C 
ENDROOT
BRANCH   3   4
HETATM    4  C7  UNL     1     -34.477   5.892   4.153  1.00 20.00     0.049 C 
BRANCH   4   5
HETATM    5  C9  UNL     1     -33.846   7.175   3.568  1.00 20.00     0.055 C 
HETATM    6  C4  UNL     1     -34.892   8.289   3.429  1.00 20.00     0.045 C 
BRANCH   5   7
HETATM    7  C8  UNL     1     -33.127   6.981   2.214  1.00 20.00     0.037 C 
BRANCH   7   8
HETATM    8  C6  UNL     1     -31.921   7.900   1.985  1.00 20.00    -0.002 C 
HETATM    9  C3  UNL     1     -32.192   8.896   0.866  1.00 20.00     0.005 C 
ENDBRANCH   7   8
ENDBRANCH   5   7
BRANCH   5  10
HETATM   10  O10 UNL     1     -32.888   7.660   4.521  1.00 20.00    -0.390 OA
HETATM   11  H26 UNL     1     -33.377   7.796   5.344  1.00 20.00     0.210 HD
ENDBRANCH   5  10
ENDBRANCH   4   5
ENDBRANCH   3   4
TORSDOF 5
ENDMDL
MODEL 8
REMARK VINA RESULT:      -1.0      1.314      1.813
REMARK  5 active torsions:
REMARK  status: ('A' for Active; 'I' for Inactive)
REMARK    1  A    between atoms: C5_5  and  C7_7 
REMARK    2  A    between atoms: C6_6  and  C8_8 
REMARK    3  A    between atoms: C7_7  and  C9_9 
REMARK    4  A    between atoms: C8_8  and  C9_9 
REMARK    5  A    between atoms: C9_9  and  O10_10 
ROOT
HETATM    1  C1  UNL     1     -31.352   4.653   0.703  1.00 20.00     0.012 C 
HETATM    2  C2  UNL     1     -31.990   5.490   1.281  1.00 20.00    -0.117 C 
HETATM    3  C5  UNL     1     -32.768   6.519   1.988  1.00 20.00     0.096 C 
ENDROOT
BRANCH   3   4
HETATM    4  C7  UNL     1     -34.203   6.045   2.234  1.00 20.00     0.049 C 
BRANCH   4   5
HETATM    5  C9  UNL     1     -34.720   6.218   3.679  1.00 20.00     0.055 C 
HETATM    6  C4  UNL     1     -34.064   7.428   4.358  1.00 20.00     0.045 C 
BRANCH   5   7
HETATM    7  C8  UNL     1     -34.546   4.974   4.580  1.00 20.00     0.037 C 
BRANCH   7   8
HETATM    8  C6  UNL     1     -33.849   3.784   3.912  1.00 20.00    -0.002 C 
HETATM    9  C3  UNL     1     -33.097   2.942   4.932  1.00 20.00     0.005 C 
ENDBRANCH   7   8
ENDBRANCH   5   7
BRANCH   5  10
HETATM   10  O10 UNL     1     -36.120   6.527   3.604  1.00 20.00    -0.390 OA
HETATM   11  H26 UNL     1     -36.495   6.274   4.460  1.00 20.00     0.210 HD
ENDBRANCH   5  10
ENDBRANCH   4   5
ENDBRANCH   3   4
TORSDOF 5
ENDMDL
MODEL 9
REMARK VINA RESULT:      -0.1      1.548      2.031
REMARK  5 active torsions:
REMARK  status: ('A' for Active; 'I' for Inactive)
REMARK    1  A    between atoms: C5_5  and  C7_7 
REMARK    2  A    between atoms: C6_6  and  C8_8 
REMARK    3  A    between atoms: C7_7  and  C9_9 
REMARK    4  A    between atoms: C8_8  and  C9_9 
REMARK    5  A    between atoms: C9_9  and  O10_10 
ROOT
HETATM    1  C1  UNL     1     -32.364   9.994  -0.260  1.00 20.00     0.012 C 
HETATM    2  C2  UNL     1     -32.343   9.349   0.753  1.00 20.00    -0.117 C 
HETATM    3  C5  UNL     1     -32.313   8.559   1.994  1.00 20.00     0.096 C 
ENDROOT
BRANCH   3   4
HETATM    4  C7  UNL     1     -33.731   8.297   2.507  1.00 20.00     0.049 C 
BRANCH   4   5
HETATM    5  C9  UNL     1     -33.857   7.171   3.558  1.00 20.00     0.055 C 
HETATM    6  C4  UNL     1     -33.316   7.627   4.920  1.00 20.00     0.045 C 
BRANCH   5   7
HETATM    7  C8  UNL     1     -33.182   5.839   3.162  1.00 20.00     0.037 C 
BRANCH   7   8
HETATM    8  C6  UNL     1     -33.271   5.487   1.673  1.00 20.00    -0.002 C 
HETATM    9  C3  UNL     1     -31.892   5.222   1.086  1.00 20.00     0.005 C 
ENDBRANCH   7   8
ENDBRANCH   5   7
BRANCH   5  10
HETATM   10  O10 UNL     1     -35.257   6.923   3.761  1.00 20.00    -0.390 OA
HETATM   11  H26 UNL     1     -35.394   6.939   4.718  1.00 20.00     0.210 HD
ENDBRANCH   5  10
ENDBRANCH   4   5
ENDBRANCH   3   4
TORSDOF 5
ENDMDL
