MODEL 1
REMARK VINA RESULT:       0.7      0.000      0.000
REMARK  1 active torsions:
REMARK  status: ('A' for Active; 'I' for Inactive)
REMARK    1  A    between atoms: C4_4  and  C7_7 
ROOT
HETATM    1  C1  UNL     1     -34.353   6.352   3.578  1.00 20.00     0.040 C 
HETATM    2  C2  UNL     1     -33.942   7.806   3.805  1.00 20.00     0.272 C 
HETATM    3  C3  UNL     1     -33.240   5.496   2.989  1.00 20.00     0.078 C 
HETATM    4  C4  UNL     1     -32.391   7.910   1.887  1.00 20.00     0.201 C 
HETATM    5  C5  UNL     1     -31.105   8.034   2.719  1.00 20.00     0.061 C 
HETATM    6  N8  UNL     1     -33.557   8.488   2.571  1.00 20.00     0.102 N 
HETATM    7  S9  UNL     1     -32.662   6.157   1.400  1.00 20.00    -0.128 SA
HETATM    8  H24 UNL     1     -34.356   8.491   1.935  1.00 20.00     0.317 HD
ENDROOT
BRANCH   4   9
HETATM    9  C7  UNL     1     -32.201   8.703   0.581  1.00 20.00     0.048 C 
HETATM   10  C6  UNL     1     -32.651  10.115   0.733  1.00 20.00     0.009 C 
ENDBRANCH   4   9
TORSDOF 1
ENDMDL
MODEL 2
REMARK VINA RESULT:       0.9      1.615      3.977
REMARK  1 active torsions:
REMARK  status: ('A' for Active; 'I' for Inactive)
REMARK    1  A    between atoms: C4_4  and  C7_7 
ROOT
HETATM    1  C1  UNL     1     -32.183   7.956   2.545  1.00 20.00     0.040 C 
HETATM    2  C2  UNL     1     -33.169   8.313   3.655  1.00 20.00     0.272 C 
HETATM    3  C3  UNL     1     -32.780   7.050   1.476  1.00 20.00     0.078 C 
HETATM    4  C4  UNL     1     -34.400   6.174   3.567  1.00 20.00     0.201 C 
HETATM    5  C5  UNL     1     -35.712   6.760   3.023  1.00 20.00     0.061 C 
HETATM    6  N8  UNL     1     -33.653   7.141   4.384  1.00 20.00     0.102 N 
HETATM    7  S9  UNL     1     -33.391   5.495   2.188  1.00 20.00    -0.128 SA
HETATM    8  H24 UNL     1     -32.857   6.674   4.819  1.00 20.00     0.317 HD
ENDROOT
BRANCH   4   9
HETATM    9  C7  UNL     1     -34.744   4.986   4.484  1.00 20.00     0.048 C 
HETATM   10  C6  UNL     1     -33.845   3.825   4.228  1.00 20.00     0.009 C 
ENDBRANCH   4   9
TORSDOF 1
ENDMDL
MODEL 3
REMARK VINA RESULT:       1.1      1.991      2.859
REMARK  1 active torsions:
REMARK  status: ('A' for Active; 'I' for Inactive)
REMARK    1  A    between atoms: C4_4  and  C7_7 
ROOT
HETATM    1  C1  UNL     1     -34.751   4.959   4.541  1.00 20.00     0.040 C 
HETATM    2  C2  UNL     1     -33.923   4.138   3.554  1.00 20.00     0.272 C 
HETATM    3  C3  UNL     1     -35.349   6.218   3.926  1.00 20.00     0.078 C 
HETATM    4  C4  UNL     1     -33.127   6.078   2.251  1.00 20.00     0.201 C 
HETATM    5  C5  UNL     1     -33.902   5.746   0.967  1.00 20.00     0.061 C 
HETATM    6  N8  UNL     1     -32.779   4.876   3.021  1.00 20.00     0.102 N 
HETATM    7  S9  UNL     1     -34.060   7.306   3.252  1.00 20.00    -0.128 SA
HETATM    8  H24 UNL     1     -32.166   5.134   3.795  1.00 20.00     0.317 HD
ENDROOT
BRANCH   4   9
HETATM    9  C7  UNL     1     -31.801   6.754   1.855  1.00 20.00     0.048 C 
HETATM   10  C6  UNL     1     -31.978   8.221   1.659  1.00 20.00     0.009 C 
ENDBRANCH   4   9
TORSDOF 1
ENDMDL
MODEL 4
REMARK VINA RESULT:       1.7      2.182      3.241
REMARK  1 active torsions:
REMARK  status: ('A' for Active; 'I' for Inactive)
REMARK    1  A    between atoms: C4_4  and  C7_7 
ROOT
HETATM    1  C1  UNL     1     -34.174   7.405   4.085  1.00 20.00     0.040 C 
HETATM    2  C2  UNL     1     -34.509   6.001   3.585  1.00 20.00     0.272 C 
HETATM    3  C3  UNL     1     -33.677   8.334   2.985  1.00 20.00     0.078 C 
HETATM    4  C4  UNL     1     -32.782   5.965   1.820  1.00 20.00     0.201 C 
HETATM    5  C5  UNL     1     -33.757   5.981   0.634  1.00 20.00     0.061 C 
HETATM    6  N8  UNL     1     -33.355   5.313   3.007  1.00 20.00     0.102 N 
HETATM    7  S9  UNL     1     -32.192   7.671   2.175  1.00 20.00    -0.128 SA
HETATM    8  H24 UNL     1     -32.635   5.220   3.724  1.00 20.00     0.317 HD
ENDROOT
BRANCH   4   9
HETATM    9  C7  UNL     1     -31.541   5.148   1.417  1.00 20.00     0.048 C 
HETATM   10  C6  UNL     1     -31.806   4.322   0.205  1.00 20.00     0.009 C 
ENDBRANCH   4   9
TORSDOF 1
ENDMDL
MODEL 5
REMARK VINA RESULT:       2.0      1.781      3.991
REMARK  1 active torsions:
REMARK  status: ('A' for Active; 'I' for Inactive)
REMARK    1  A    between atoms: C4_4  and  C7_7 
ROOT
HETATM    1  C1  UNL     1     -31.948   7.796   1.520  1.00 20.00     0.040 C 
HETATM    2  C2  UNL     1     -32.552   6.424   1.228  1.00 20.00     0.272 C 
HETATM    3  C3  UNL     1     -31.742   8.061   3.006  1.00 20.00     0.078 C 
HETATM    4  C4  UNL     1     -33.898   6.319   3.296  1.00 20.00     0.201 C 
HETATM    5  C5  UNL     1     -33.107   5.177   3.952  1.00 20.00     0.061 C 
HETATM    6  N8  UNL     1     -33.873   6.245   1.828  1.00 20.00     0.102 N 
HETATM    7  S9  UNL     1     -33.304   7.942   3.925  1.00 20.00    -0.128 SA
HETATM    8  H24 UNL     1     -34.506   6.946   1.442  1.00 20.00     0.317 HD
ENDROOT
BRANCH   4   9
HETATM    9  C7  UNL     1     -35.371   6.196   3.725  1.00 20.00     0.048 C 
HETATM   10  C6  UNL     1     -35.567   5.067   4.677  1.00 20.00     0.009 C 
ENDBRANCH   4   9
TORSDOF 1
ENDMDL
MODEL 6
REMARK VINA RESULT:       2.2      1.529      1.971
REMARK  1 active torsions:
REMARK  status: ('A' for Active; 'I' for Inactive)
REMARK    1  A    between atoms: C4_4  and  C7_7 
ROOT
HETATM    1  C1  UNL     1     -35.063   4.767   4.075  1.00 20.00     0.040 C 
HETATM    2  C2  UNL     1     -35.432   6.226   4.340  1.00 20.00     0.272 C 
HETATM    3  C3  UNL     1     -33.560   4.529   4.006  1.00 20.00     0.078 C 
HETATM    4  C4  UNL     1     -33.495   7.177   3.140  1.00 20.00     0.201 C 
HETATM    5  C5  UNL     1     -32.792   7.745   4.382  1.00 20.00     0.061 C 
HETATM    6  N8  UNL     1     -34.956   7.132   3.296  1.00 20.00     0.102 N 
HETATM    7  S9  UNL     1     -32.786   5.535   2.708  1.00 20.00    -0.128 SA
HETATM    8  H24 UNL     1     -35.384   6.864   2.409  1.00 20.00     0.317 HD
ENDROOT
BRANCH   4   9
HETATM    9  C7  UNL     1     -33.201   8.107   1.949  1.00 20.00     0.048 C 
HETATM   10  C6  UNL     1     -31.795   7.957   1.478  1.00 20.00     0.009 C 
ENDBRANCH   4   9
TORSDOF 1
ENDMDL
MODEL 7
REMARK VINA RESULT:       2.7      1.612      3.318
REMARK  1 active torsions:
REMARK  status: ('A' for Active; 'I' for Inactive)
REMARK    1  A    between atoms: C4_4  and  C7_7 
ROOT
HETATM    1  C1  UNL     1     -31.964   6.126   1.335  1.00 20.00     0.040 C 
HETATM    2  C2  UNL     1     -32.461   7.555   1.541  1.00 20.00     0.272 C 
HETATM    3  C3  UNL     1     -33.002   5.069   1.690  1.00 20.00     0.078 C 
HETATM    4  C4  UNL     1     -33.924   7.017   3.457  1.00 20.00     0.201 C 
HETATM    5  C5  UNL     1     -35.252   7.287   2.733  1.00 20.00     0.061 C 
HETATM    6  N8  UNL     1     -32.823   7.836   2.930  1.00 20.00     0.102 N 
HETATM    7  S9  UNL     1     -33.539   5.219   3.419  1.00 20.00    -0.128 SA
HETATM    8  H24 UNL     1     -31.997   7.712   3.515  1.00 20.00     0.317 HD
ENDROOT
BRANCH   4   9
HETATM    9  C7  UNL     1     -34.094   7.396   4.939  1.00 20.00     0.048 C 
HETATM   10  C6  UNL     1     -33.084   8.408   5.359  1.00 20.00     0.009 C 
ENDBRANCH   4   9
TORSDOF 1
ENDMDL
MODEL 8
REMARK VINA RESULT:       3.1      1.671      2.278
REMARK  1 active torsions:
REMARK  status: ('A' for Active; 'I' for Inactive)
REMARK    1  A    between atoms: C4_4  and  C7_7 
ROOT
HETATM    1  C1  UNL     1     -34.084   5.441   3.526  1.00 20.00     0.040 C 
HETATM    2  C2  UNL     1     -33.572   5.273   2.096  1.00 20.00     0.272 C 
HETATM    3  C3  UNL     1     -34.456   6.878   3.868  1.00 20.00     0.078 C 
HETATM    4  C4  UNL     1     -32.519   7.503   1.963  1.00 20.00     0.201 C 
HETATM    5  C5  UNL     1     -33.487   8.082   0.920  1.00 20.00     0.061 C 
HETATM    6  N8  UNL     1     -32.360   6.047   1.831  1.00 20.00     0.102 N 
HETATM    7  S9  UNL     1     -33.043   8.000   3.655  1.00 20.00    -0.128 SA
HETATM    8  H24 UNL     1     -31.623   5.728   2.460  1.00 20.00     0.317 HD
ENDROOT
BRANCH   4   9
HETATM    9  C7  UNL     1     -31.131   8.127   1.734  1.00 20.00     0.048 C 
HETATM   10  C6  UNL     1     -31.115   8.983   0.514  1.00 20.00     0.009 C 
ENDBRANCH   4   9
TORSDOF 1
ENDMDL
MODEL 9
REMARK VINA RESULT:       3.2      1.617      3.796
REMARK  1 active torsions:
REMARK  status: ('A' for Active; 'I' for Inactive)
REMARK    1  A    between atoms: C4_4  and  C7_7 
ROOT
HETATM    1  C1  UNL     1     -32.255   9.737  -0.250  1.00 20.00     0.040 C 
HETATM    2  C2  UNL     1     -31.316   8.600   0.146  1.00 20.00     0.272 C 
HETATM    3  C3  UNL     1     -32.804  10.510   0.942  1.00 20.00     0.078 C 
HETATM    4  C4  UNL     1     -32.459   8.086   2.274  1.00 20.00     0.201 C 
HETATM    5  C5  UNL     1     -31.321   8.557   3.192  1.00 20.00     0.061 C 
HETATM    6  N8  UNL     1     -31.965   7.591   0.981  1.00 20.00     0.102 N 
HETATM    7  S9  UNL     1     -33.709   9.422   2.080  1.00 20.00    -0.128 SA
HETATM    8  H24 UNL     1     -32.739   7.180   0.457  1.00 20.00     0.317 HD
ENDROOT
BRANCH   4   9
HETATM    9  C7  UNL     1     -33.179   6.910   2.958  1.00 20.00     0.048 C 
HETATM   10  C6  UNL     1     -34.188   7.390   3.944  1.00 20.00     0.009 C 
ENDBRANCH   4   9
TORSDOF 1
ENDMDL
