MODEL 1
REMARK VINA RESULT:      -2.5      0.000      0.000
REMARK  3 active torsions:
REMARK  status: ('A' for Active; 'I' for Inactive)
REMARK    1  A    between atoms: C3_3  and  N7_7 
REMARK    2  A    between atoms: C4_4  and  C5_5 
REMARK    3  A    between atoms: C4_4  and  N7_7 
ROOT
HETATM    1  C1  UNL     1     -32.235   9.118   0.844  1.00 20.00     0.089 C 
HETATM    2  C3  UNL     1     -31.933   8.065   1.811  1.00 20.00     0.395 C 
HETATM    3  N6  UNL     1     -32.472   9.957   0.077  1.00 20.00    -0.195 NA
ENDROOT
BRANCH   2   4
HETATM    4  N7  UNL     1     -33.087   7.188   2.003  1.00 20.00     0.099 N 
HETATM    5  C2  UNL     1     -32.736   5.803   1.690  1.00 20.00     0.311 C 
BRANCH   4   6
HETATM    6  C4  UNL     1     -33.585   7.290   3.374  1.00 20.00     0.304 C 
BRANCH   6   7
HETATM    7  C5  UNL     1     -34.466   6.112   3.735  1.00 20.00     0.252 C 
HETATM    8  F8  UNL     1     -35.767   6.504   3.693  1.00 20.00    -0.254 F 
ENDBRANCH   6   7
ENDBRANCH   4   6
ENDBRANCH   2   4
TORSDOF 3
ENDMDL
MODEL 2
REMARK VINA RESULT:      -1.7      2.751      4.544
REMARK  3 active torsions:
REMARK  status: ('A' for Active; 'I' for Inactive)
REMARK    1  A    between atoms: C3_3  and  N7_7 
REMARK    2  A    between atoms: C4_4  and  C5_5 
REMARK    3  A    between atoms: C4_4  and  N7_7 
ROOT
HETATM    1  C1  UNL     1     -34.543   4.795   4.173  1.00 20.00     0.089 C 
HETATM    2  C3  UNL     1     -35.276   6.056   4.075  1.00 20.00     0.395 C 
HETATM    3  N6  UNL     1     -33.964   3.792   4.253  1.00 20.00    -0.195 NA
ENDROOT
BRANCH   2   4
HETATM    4  N7  UNL     1     -34.410   7.124   3.580  1.00 20.00     0.099 N 
HETATM    5  C2  UNL     1     -33.755   7.809   4.694  1.00 20.00     0.311 C 
BRANCH   4   6
HETATM    6  C4  UNL     1     -33.414   6.588   2.653  1.00 20.00     0.304 C 
BRANCH   6   7
HETATM    7  C5  UNL     1     -32.450   7.661   2.192  1.00 20.00     0.252 C 
HETATM    8  F8  UNL     1     -31.461   7.082   1.460  1.00 20.00    -0.254 F 
ENDBRANCH   6   7
ENDBRANCH   4   6
ENDBRANCH   2   4
TORSDOF 3
ENDMDL
MODEL 3
REMARK VINA RESULT:      -1.6      2.444      3.154
REMARK  3 active torsions:
REMARK  status: ('A' for Active; 'I' for Inactive)
REMARK    1  A    between atoms: C3_3  and  N7_7 
REMARK    2  A    between atoms: C4_4  and  C5_5 
REMARK    3  A    between atoms: C4_4  and  N7_7 
ROOT
HETATM    1  C1  UNL     1     -32.559   6.970   1.949  1.00 20.00     0.089 C 
HETATM    2  C3  UNL     1     -33.247   5.698   2.164  1.00 20.00     0.395 C 
HETATM    3  N6  UNL     1     -32.012   7.979   1.774  1.00 20.00    -0.195 NA
ENDROOT
BRANCH   2   4
HETATM    4  N7  UNL     1     -33.703   5.580   3.548  1.00 20.00     0.099 N 
HETATM    5  C2  UNL     1     -34.747   6.566   3.829  1.00 20.00     0.311 C 
BRANCH   4   6
HETATM    6  C4  UNL     1     -34.194   4.228   3.812  1.00 20.00     0.304 C 
BRANCH   6   7
HETATM    7  C5  UNL     1     -33.307   3.497   4.797  1.00 20.00     0.252 C 
HETATM    8  F8  UNL     1     -33.334   2.168   4.514  1.00 20.00    -0.254 F 
ENDBRANCH   6   7
ENDBRANCH   4   6
ENDBRANCH   2   4
TORSDOF 3
ENDMDL
MODEL 4
REMARK VINA RESULT:      -1.6      2.593      4.020
REMARK  3 active torsions:
REMARK  status: ('A' for Active; 'I' for Inactive)
REMARK    1  A    between atoms: C3_3  and  N7_7 
REMARK    2  A    between atoms: C4_4  and  C5_5 
REMARK    3  A    between atoms: C4_4  and  N7_7 
ROOT
HETATM    1  C1  UNL     1     -34.565   6.703   3.711  1.00 20.00     0.089 C 
HETATM    2  C3  UNL     1     -33.626   7.655   3.120  1.00 20.00     0.395 C 
HETATM    3  N6  UNL     1     -35.312   5.950   4.182  1.00 20.00    -0.195 NA
ENDROOT
BRANCH   2   4
HETATM    4  N7  UNL     1     -32.524   6.958   2.459  1.00 20.00     0.099 N 
HETATM    5  C2  UNL     1     -33.037   5.908   1.579  1.00 20.00     0.311 C 
BRANCH   4   6
HETATM    6  C4  UNL     1     -31.703   7.901   1.701  1.00 20.00     0.304 C 
BRANCH   6   7
HETATM    7  C5  UNL     1     -32.541   9.005   1.093  1.00 20.00     0.252 C 
HETATM    8  F8  UNL     1     -31.892   9.508   0.009  1.00 20.00    -0.254 F 
ENDBRANCH   6   7
ENDBRANCH   4   6
ENDBRANCH   2   4
TORSDOF 3
ENDMDL
MODEL 5
REMARK VINA RESULT:      -1.5      2.400      3.922
REMARK  3 active torsions:
REMARK  status: ('A' for Active; 'I' for Inactive)
REMARK    1  A    between atoms: C3_3  and  N7_7 
REMARK    2  A    between atoms: C4_4  and  C5_5 
REMARK    3  A    between atoms: C4_4  and  N7_7 
ROOT
HETATM    1  C1  UNL     1     -34.580   6.664   3.869  1.00 20.00     0.089 C 
HETATM    2  C3  UNL     1     -33.401   7.451   3.511  1.00 20.00     0.395 C 
HETATM    3  N6  UNL     1     -35.515   6.040   4.157  1.00 20.00    -0.195 NA
ENDROOT
BRANCH   2   4
HETATM    4  N7  UNL     1     -33.093   7.311   2.089  1.00 20.00     0.099 N 
HETATM    5  C2  UNL     1     -31.812   7.944   1.777  1.00 20.00     0.311 C 
BRANCH   4   6
HETATM    6  C4  UNL     1     -33.071   5.900   1.707  1.00 20.00     0.304 C 
BRANCH   6   7
HETATM    7  C5  UNL     1     -31.662   5.422   1.424  1.00 20.00     0.252 C 
HETATM    8  F8  UNL     1     -31.676   4.631   0.319  1.00 20.00    -0.254 F 
ENDBRANCH   6   7
ENDBRANCH   4   6
ENDBRANCH   2   4
TORSDOF 3
ENDMDL
MODEL 6
REMARK VINA RESULT:      -1.2      2.353      2.877
REMARK  3 active torsions:
REMARK  status: ('A' for Active; 'I' for Inactive)
REMARK    1  A    between atoms: C3_3  and  N7_7 
REMARK    2  A    between atoms: C4_4  and  C5_5 
REMARK    3  A    between atoms: C4_4  and  N7_7 
ROOT
HETATM    1  C1  UNL     1     -32.738   6.262   1.783  1.00 20.00     0.089 C 
HETATM    2  C3  UNL     1     -33.153   7.431   2.556  1.00 20.00     0.395 C 
HETATM    3  N6  UNL     1     -32.408   5.335   1.166  1.00 20.00    -0.195 NA
ENDROOT
BRANCH   2   4
HETATM    4  N7  UNL     1     -33.685   7.032   3.858  1.00 20.00     0.099 N 
HETATM    5  C2  UNL     1     -33.682   8.167   4.781  1.00 20.00     0.311 C 
BRANCH   4   6
HETATM    6  C4  UNL     1     -35.037   6.495   3.716  1.00 20.00     0.304 C 
BRANCH   6   7
HETATM    7  C5  UNL     1     -35.193   5.180   4.449  1.00 20.00     0.252 C 
HETATM    8  F8  UNL     1     -34.186   4.344   4.078  1.00 20.00    -0.254 F 
ENDBRANCH   6   7
ENDBRANCH   4   6
ENDBRANCH   2   4
TORSDOF 3
ENDMDL
MODEL 7
REMARK VINA RESULT:      -1.1      2.532      4.209
REMARK  3 active torsions:
REMARK  status: ('A' for Active; 'I' for Inactive)
REMARK    1  A    between atoms: C3_3  and  N7_7 
REMARK    2  A    between atoms: C4_4  and  C5_5 
REMARK    3  A    between atoms: C4_4  and  N7_7 
ROOT
HETATM    1  C1  UNL     1     -33.858   3.986   4.111  1.00 20.00     0.089 C 
HETATM    2  C3  UNL     1     -34.281   5.221   3.454  1.00 20.00     0.395 C 
HETATM    3  N6  UNL     1     -33.526   3.005   4.634  1.00 20.00    -0.195 NA
ENDROOT
BRANCH   2   4
HETATM    4  N7  UNL     1     -33.136   5.921   2.874  1.00 20.00     0.099 N 
HETATM    5  C2  UNL     1     -33.018   5.616   1.449  1.00 20.00     0.311 C 
BRANCH   4   6
HETATM    6  C4  UNL     1     -33.261   7.364   3.078  1.00 20.00     0.304 C 
BRANCH   6   7
HETATM    7  C5  UNL     1     -34.249   7.686   4.179  1.00 20.00     0.252 C 
HETATM    8  F8  UNL     1     -33.576   8.213   5.237  1.00 20.00    -0.254 F 
ENDBRANCH   6   7
ENDBRANCH   4   6
ENDBRANCH   2   4
TORSDOF 3
ENDMDL
MODEL 8
REMARK VINA RESULT:      -1.0      2.597      4.234
REMARK  3 active torsions:
REMARK  status: ('A' for Active; 'I' for Inactive)
REMARK    1  A    between atoms: C3_3  and  N7_7 
REMARK    2  A    between atoms: C4_4  and  C5_5 
REMARK    3  A    between atoms: C4_4  and  N7_7 
ROOT
HETATM    1  C1  UNL     1     -33.762   6.557   2.951  1.00 20.00     0.089 C 
HETATM    2  C3  UNL     1     -32.797   6.869   1.898  1.00 20.00     0.395 C 
HETATM    3  N6  UNL     1     -34.528   6.306   3.786  1.00 20.00    -0.195 NA
ENDROOT
BRANCH   2   4
HETATM    4  N7  UNL     1     -32.416   8.280   1.943  1.00 20.00     0.099 N 
HETATM    5  C2  UNL     1     -31.513   8.531   3.065  1.00 20.00     0.311 C 
BRANCH   4   6
HETATM    6  C4  UNL     1     -31.788   8.681   0.684  1.00 20.00     0.304 C 
BRANCH   6   7
HETATM    7  C5  UNL     1     -32.576   9.774  -0.006  1.00 20.00     0.252 C 
HETATM    8  F8  UNL     1     -32.361  10.950   0.640  1.00 20.00    -0.254 F 
ENDBRANCH   6   7
ENDBRANCH   4   6
ENDBRANCH   2   4
TORSDOF 3
ENDMDL
MODEL 9
REMARK VINA RESULT:      -1.0      1.144      1.415
REMARK  3 active torsions:
REMARK  status: ('A' for Active; 'I' for Inactive)
REMARK    1  A    between atoms: C3_3  and  N7_7 
REMARK    2  A    between atoms: C4_4  and  C5_5 
REMARK    3  A    between atoms: C4_4  and  N7_7 
ROOT
HETATM    1  C1  UNL     1     -32.114   7.664   1.508  1.00 20.00     0.089 C 
HETATM    2  C3  UNL     1     -32.198   6.240   1.829  1.00 20.00     0.395 C 
HETATM    3  N6  UNL     1     -32.044   8.794   1.252  1.00 20.00    -0.195 NA
ENDROOT
BRANCH   2   4
HETATM    4  N7  UNL     1     -33.492   5.916   2.427  1.00 20.00     0.099 N 
HETATM    5  C2  UNL     1     -33.416   4.652   3.158  1.00 20.00     0.311 C 
BRANCH   4   6
HETATM    6  C4  UNL     1     -33.929   6.993   3.315  1.00 20.00     0.304 C 
BRANCH   6   7
HETATM    7  C5  UNL     1     -35.072   6.550   4.205  1.00 20.00     0.252 C 
HETATM    8  F8  UNL     1     -36.209   6.480   3.463  1.00 20.00    -0.254 F 
ENDBRANCH   6   7
ENDBRANCH   4   6
ENDBRANCH   2   4
TORSDOF 3
ENDMDL
