MODEL 1
REMARK VINA RESULT:       1.6      0.000      0.000
REMARK  2 active torsions:
REMARK  status: ('A' for Active; 'I' for Inactive)
REMARK    1  A    between atoms: C3_3  and  C7_7 
REMARK    2  A    between atoms: C3_3  and  C8_8 
ROOT
HETATM    1  C1  UNL     1     -33.640   7.871   4.106  1.00 20.00     0.286 C 
HETATM    2  C2  UNL     1     -34.146   6.482   3.728  1.00 20.00     0.074 C 
HETATM    3  C3  UNL     1     -32.563   7.705   1.993  1.00 20.00     0.205 C 
HETATM    4  C4  UNL     1     -35.614   6.280   4.061  1.00 20.00     0.023 C 
HETATM    5  N9  UNL     1     -32.372   8.080   3.403  1.00 20.00     0.104 N 
HETATM    6  S10 UNL     1     -33.845   6.399   1.942  1.00 20.00    -0.122 SA
HETATM    7  H27 UNL     1     -32.073   9.050   3.487  1.00 20.00     0.318 HD
ENDROOT
BRANCH   3   8
HETATM    8  C7  UNL     1     -33.025   8.901   1.153  1.00 20.00     0.048 C 
HETATM    9  C5  UNL     1     -31.930   9.410   0.277  1.00 20.00     0.009 C 
ENDBRANCH   3   8
BRANCH   3  10
HETATM   10  C8  UNL     1     -31.246   7.147   1.453  1.00 20.00     0.048 C 
HETATM   11  C6  UNL     1     -31.354   5.692   1.136  1.00 20.00     0.009 C 
ENDBRANCH   3  10
TORSDOF 2
ENDMDL
MODEL 2
REMARK VINA RESULT:       2.1      1.154      3.745
REMARK  2 active torsions:
REMARK  status: ('A' for Active; 'I' for Inactive)
REMARK    1  A    between atoms: C3_3  and  C7_7 
REMARK    2  A    between atoms: C3_3  and  C8_8 
ROOT
HETATM    1  C1  UNL     1     -31.472   8.786   1.805  1.00 20.00     0.286 C 
HETATM    2  C2  UNL     1     -32.637   9.142   0.885  1.00 20.00     0.074 C 
HETATM    3  C3  UNL     1     -32.722   6.783   2.086  1.00 20.00     0.205 C 
HETATM    4  C4  UNL     1     -32.187   9.804  -0.405  1.00 20.00     0.023 C 
HETATM    5  N9  UNL     1     -31.975   7.832   2.796  1.00 20.00     0.104 N 
HETATM    6  S10 UNL     1     -33.431   7.541   0.577  1.00 20.00    -0.122 SA
HETATM    7  H27 UNL     1     -31.204   7.435   3.332  1.00 20.00     0.318 HD
ENDROOT
BRANCH   3   8
HETATM    8  C7  UNL     1     -31.809   5.619   1.686  1.00 20.00     0.048 C 
HETATM    9  C5  UNL     1     -32.404   4.811   0.581  1.00 20.00     0.009 C 
ENDBRANCH   3   8
BRANCH   3  10
HETATM   10  C8  UNL     1     -33.853   6.292   2.988  1.00 20.00     0.048 C 
HETATM   11  C6  UNL     1     -34.232   7.318   4.004  1.00 20.00     0.009 C 
ENDBRANCH   3  10
TORSDOF 2
ENDMDL
MODEL 3
REMARK VINA RESULT:       2.1      1.446      3.923
REMARK  2 active torsions:
REMARK  status: ('A' for Active; 'I' for Inactive)
REMARK    1  A    between atoms: C3_3  and  C7_7 
REMARK    2  A    between atoms: C3_3  and  C8_8 
ROOT
HETATM    1  C1  UNL     1     -31.272   8.551   0.582  1.00 20.00     0.286 C 
HETATM    2  C2  UNL     1     -32.237   9.728   0.708  1.00 20.00     0.074 C 
HETATM    3  C3  UNL     1     -32.718   7.605   2.217  1.00 20.00     0.205 C 
HETATM    4  C4  UNL     1     -32.597  10.340  -0.635  1.00 20.00     0.023 C 
HETATM    5  N9  UNL     1     -31.309   7.821   1.851  1.00 20.00     0.104 N 
HETATM    6  S10 UNL     1     -33.683   8.999   1.524  1.00 20.00    -0.122 SA
HETATM    7  H27 UNL     1     -30.812   6.936   1.767  1.00 20.00     0.318 HD
ENDROOT
BRANCH   3   8
HETATM    8  C7  UNL     1     -33.250   6.287   1.643  1.00 20.00     0.048 C 
HETATM    9  C5  UNL     1     -32.150   5.304   1.421  1.00 20.00     0.009 C 
ENDBRANCH   3   8
BRANCH   3  10
HETATM   10  C8  UNL     1     -32.835   7.613   3.740  1.00 20.00     0.048 C 
HETATM   11  C6  UNL     1     -34.242   7.393   4.186  1.00 20.00     0.009 C 
ENDBRANCH   3  10
TORSDOF 2
ENDMDL
MODEL 4
REMARK VINA RESULT:       2.3      1.932      3.954
REMARK  2 active torsions:
REMARK  status: ('A' for Active; 'I' for Inactive)
REMARK    1  A    between atoms: C3_3  and  C7_7 
REMARK    2  A    between atoms: C3_3  and  C8_8 
ROOT
HETATM    1  C1  UNL     1     -32.970   6.528   0.900  1.00 20.00     0.286 C 
HETATM    2  C2  UNL     1     -32.070   7.478   1.687  1.00 20.00     0.074 C 
HETATM    3  C3  UNL     1     -33.422   5.668   3.070  1.00 20.00     0.205 C 
HETATM    4  C4  UNL     1     -32.161   8.913   1.200  1.00 20.00     0.023 C 
HETATM    5  N9  UNL     1     -33.097   5.298   1.684  1.00 20.00     0.104 N 
HETATM    6  S10 UNL     1     -32.671   7.307   3.390  1.00 20.00    -0.122 SA
HETATM    7  H27 UNL     1     -33.816   4.695   1.287  1.00 20.00     0.318 HD
ENDROOT
BRANCH   3   8
HETATM    8  C7  UNL     1     -34.937   5.755   3.286  1.00 20.00     0.048 C 
HETATM    9  C5  UNL     1     -35.312   6.985   4.042  1.00 20.00     0.009 C 
ENDBRANCH   3   8
BRANCH   3  10
HETATM   10  C8  UNL     1     -32.804   4.633   4.010  1.00 20.00     0.048 C 
HETATM   11  C6  UNL     1     -33.780   3.560   4.364  1.00 20.00     0.009 C 
ENDBRANCH   3  10
TORSDOF 2
ENDMDL
MODEL 5
REMARK VINA RESULT:       2.3      1.375      3.806
REMARK  2 active torsions:
REMARK  status: ('A' for Active; 'I' for Inactive)
REMARK    1  A    between atoms: C3_3  and  C7_7 
REMARK    2  A    between atoms: C3_3  and  C8_8 
ROOT
HETATM    1  C1  UNL     1     -32.149   7.243   1.390  1.00 20.00     0.286 C 
HETATM    2  C2  UNL     1     -32.555   5.772   1.343  1.00 20.00     0.074 C 
HETATM    3  C3  UNL     1     -33.492   7.220   3.353  1.00 20.00     0.205 C 
HETATM    4  C4  UNL     1     -31.401   4.855   0.974  1.00 20.00     0.023 C 
HETATM    5  N9  UNL     1     -33.199   7.961   2.117  1.00 20.00     0.104 N 
HETATM    6  S10 UNL     1     -33.157   5.450   3.023  1.00 20.00    -0.122 SA
HETATM    7  H27 UNL     1     -32.903   8.914   2.321  1.00 20.00     0.318 HD
ENDROOT
BRANCH   3   8
HETATM    8  C7  UNL     1     -32.608   7.694   4.512  1.00 20.00     0.048 C 
HETATM    9  C5  UNL     1     -33.391   8.476   5.512  1.00 20.00     0.009 C 
ENDBRANCH   3   8
BRANCH   3  10
HETATM   10  C8  UNL     1     -34.970   7.403   3.695  1.00 20.00     0.048 C 
HETATM   11  C6  UNL     1     -35.625   6.102   4.021  1.00 20.00     0.009 C 
ENDBRANCH   3  10
TORSDOF 2
ENDMDL
MODEL 6
REMARK VINA RESULT:       2.3      1.590      2.564
REMARK  2 active torsions:
REMARK  status: ('A' for Active; 'I' for Inactive)
REMARK    1  A    between atoms: C3_3  and  C7_7 
REMARK    2  A    between atoms: C3_3  and  C8_8 
ROOT
HETATM    1  C1  UNL     1     -33.013   5.817   2.571  1.00 20.00     0.286 C 
HETATM    2  C2  UNL     1     -34.339   6.543   2.790  1.00 20.00     0.074 C 
HETATM    3  C3  UNL     1     -32.328   7.966   1.816  1.00 20.00     0.205 C 
HETATM    4  C4  UNL     1     -35.004   6.169   4.103  1.00 20.00     0.023 C 
HETATM    5  N9  UNL     1     -32.298   6.527   1.508  1.00 20.00     0.104 N 
HETATM    6  S10 UNL     1     -33.868   8.294   2.751  1.00 20.00    -0.122 SA
HETATM    7  H27 UNL     1     -31.341   6.187   1.434  1.00 20.00     0.318 HD
ENDROOT
BRANCH   3   8
HETATM    8  C7  UNL     1     -31.122   8.381   2.666  1.00 20.00     0.048 C 
HETATM    9  C5  UNL     1     -31.546   8.934   3.984  1.00 20.00     0.009 C 
ENDBRANCH   3   8
BRANCH   3  10
HETATM   10  C8  UNL     1     -32.354   8.746   0.503  1.00 20.00     0.048 C 
HETATM   11  C6  UNL     1     -32.636  10.195   0.728  1.00 20.00     0.009 C 
ENDBRANCH   3  10
TORSDOF 2
ENDMDL
MODEL 7
REMARK VINA RESULT:       2.5      1.446      2.822
REMARK  2 active torsions:
REMARK  status: ('A' for Active; 'I' for Inactive)
REMARK    1  A    between atoms: C3_3  and  C7_7 
REMARK    2  A    between atoms: C3_3  and  C8_8 
ROOT
HETATM    1  C1  UNL     1     -34.071   6.727   3.444  1.00 20.00     0.286 C 
HETATM    2  C2  UNL     1     -33.616   8.080   3.986  1.00 20.00     0.074 C 
HETATM    3  C3  UNL     1     -32.543   7.267   1.705  1.00 20.00     0.205 C 
HETATM    4  C4  UNL     1     -33.376   8.064   5.485  1.00 20.00     0.023 C 
HETATM    5  N9  UNL     1     -33.892   6.756   1.991  1.00 20.00     0.104 N 
HETATM    6  S10 UNL     1     -32.088   8.406   3.065  1.00 20.00    -0.122 SA
HETATM    7  H27 UNL     1     -34.024   5.826   1.597  1.00 20.00     0.318 HD
ENDROOT
BRANCH   3   8
HETATM    8  C7  UNL     1     -31.518   6.130   1.633  1.00 20.00     0.048 C 
HETATM    9  C5  UNL     1     -32.058   4.952   0.894  1.00 20.00     0.009 C 
ENDBRANCH   3   8
BRANCH   3  10
HETATM   10  C8  UNL     1     -32.582   8.039   0.386  1.00 20.00     0.048 C 
HETATM   11  C6  UNL     1     -32.322   9.495   0.593  1.00 20.00     0.009 C 
ENDBRANCH   3  10
TORSDOF 2
ENDMDL
MODEL 8
REMARK VINA RESULT:       2.5      1.406      4.235
REMARK  2 active torsions:
REMARK  status: ('A' for Active; 'I' for Inactive)
REMARK    1  A    between atoms: C3_3  and  C7_7 
REMARK    2  A    between atoms: C3_3  and  C8_8 
ROOT
HETATM    1  C1  UNL     1     -32.682   8.013   3.615  1.00 20.00     0.286 C 
HETATM    2  C2  UNL     1     -32.836   7.801   2.111  1.00 20.00     0.074 C 
HETATM    3  C3  UNL     1     -34.112   6.114   3.706  1.00 20.00     0.205 C 
HETATM    4  C4  UNL     1     -31.528   7.966   1.358  1.00 20.00     0.023 C 
HETATM    5  N9  UNL     1     -33.876   7.458   4.258  1.00 20.00     0.104 N 
HETATM    6  S10 UNL     1     -33.471   6.107   1.990  1.00 20.00    -0.122 SA
HETATM    7  H27 UNL     1     -33.754   7.423   5.268  1.00 20.00     0.318 HD
ENDROOT
BRANCH   3   8
HETATM    8  C7  UNL     1     -33.386   5.039   4.522  1.00 20.00     0.048 C 
HETATM    9  C5  UNL     1     -33.859   3.670   4.166  1.00 20.00     0.009 C 
ENDBRANCH   3   8
BRANCH   3  10
HETATM   10  C8  UNL     1     -35.617   5.850   3.688  1.00 20.00     0.048 C 
HETATM   11  C6  UNL     1     -36.355   6.918   2.950  1.00 20.00     0.009 C 
ENDBRANCH   3  10
TORSDOF 2
ENDMDL
MODEL 9
REMARK VINA RESULT:       2.6      1.871      2.599
REMARK  2 active torsions:
REMARK  status: ('A' for Active; 'I' for Inactive)
REMARK    1  A    between atoms: C3_3  and  C7_7 
REMARK    2  A    between atoms: C3_3  and  C8_8 
ROOT
HETATM    1  C1  UNL     1     -34.460   5.891   3.642  1.00 20.00     0.286 C 
HETATM    2  C2  UNL     1     -33.323   4.916   3.935  1.00 20.00     0.074 C 
HETATM    3  C3  UNL     1     -32.966   6.625   1.944  1.00 20.00     0.205 C 
HETATM    4  C4  UNL     1     -33.815   3.507   4.219  1.00 20.00     0.023 C 
HETATM    5  N9  UNL     1     -33.868   7.076   3.015  1.00 20.00     0.104 N 
HETATM    6  S10 UNL     1     -32.315   4.984   2.429  1.00 20.00    -0.122 SA
HETATM    7  H27 UNL     1     -34.596   7.687   2.650  1.00 20.00     0.318 HD
ENDROOT
BRANCH   3   8
HETATM    8  C7  UNL     1     -33.703   6.502   0.606  1.00 20.00     0.048 C 
HETATM    9  C5  UNL     1     -33.686   5.099   0.099  1.00 20.00     0.009 C 
ENDBRANCH   3   8
BRANCH   3  10
HETATM   10  C8  UNL     1     -31.809   7.618   1.830  1.00 20.00     0.048 C 
HETATM   11  C6  UNL     1     -32.182   8.805   1.005  1.00 20.00     0.009 C 
ENDBRANCH   3  10
TORSDOF 2
ENDMDL
