MODEL 1
REMARK VINA RESULT:      -0.7      0.000      0.000
REMARK  4 active torsions:
REMARK  status: ('A' for Active; 'I' for Inactive)
REMARK    1  A    between atoms: C5_5  and  C6_6 
REMARK    2  A    between atoms: C5_5  and  C8_8 
REMARK    3  A    between atoms: C6_6  and  C7_7 
REMARK    4  A    between atoms: C6_6  and  N9_9 
ROOT
HETATM    1  C6  UNL     1     -32.223   6.782   2.012  1.00 20.00     0.285 C 
ENDROOT
BRANCH   1   2
HETATM    2  C5  UNL     1     -33.733   7.030   2.224  1.00 20.00     0.049 C 
BRANCH   2   3
HETATM    3  C8  UNL     1     -34.372   6.573   3.570  1.00 20.00    -0.049 C 
HETATM    4  C1  UNL     1     -33.891   5.167   3.964  1.00 20.00     0.014 C 
HETATM    5  C2  UNL     1     -33.918   7.564   4.664  1.00 20.00     0.014 C 
HETATM    6  C3  UNL     1     -35.908   6.586   3.528  1.00 20.00     0.014 C 
ENDBRANCH   2   3
ENDBRANCH   1   2
BRANCH   1   7
HETATM    7  C7  UNL     1     -31.997   5.738   0.919  1.00 20.00     0.386 C 
HETATM    8  F10 UNL     1     -31.140   4.778   1.349  1.00 20.00    -0.212 F 
HETATM    9  F11 UNL     1     -33.167   5.116   0.629  1.00 20.00    -0.212 F 
ENDBRANCH   1   7
BRANCH   1  10
HETATM   10  N9  UNL     1     -31.525   8.009   1.634  1.00 20.00     0.089 N 
HETATM   11  C4  UNL     1     -32.415   8.913   0.921  1.00 20.00     0.307 C 
HETATM   12  H28 UNL     1     -30.736   7.769   1.036  1.00 20.00     0.316 HD
ENDBRANCH   1  10
TORSDOF 4
ENDMDL
MODEL 2
REMARK VINA RESULT:      -0.6      2.617      4.247
REMARK  4 active torsions:
REMARK  status: ('A' for Active; 'I' for Inactive)
REMARK    1  A    between atoms: C5_5  and  C6_6 
REMARK    2  A    between atoms: C5_5  and  C8_8 
REMARK    3  A    between atoms: C6_6  and  C7_7 
REMARK    4  A    between atoms: C6_6  and  N9_9 
ROOT
HETATM    1  C6  UNL     1     -33.603   6.143   3.354  1.00 20.00     0.285 C 
ENDROOT
BRANCH   1   2
HETATM    2  C5  UNL     1     -33.528   7.005   2.074  1.00 20.00     0.049 C 
BRANCH   2   3
HETATM    3  C8  UNL     1     -32.280   7.914   1.869  1.00 20.00    -0.049 C 
HETATM    4  C1  UNL     1     -31.808   8.517   3.203  1.00 20.00     0.014 C 
HETATM    5  C2  UNL     1     -31.144   7.030   1.309  1.00 20.00     0.014 C 
HETATM    6  C3  UNL     1     -32.535   9.049   0.865  1.00 20.00     0.014 C 
ENDBRANCH   2   3
ENDBRANCH   1   2
BRANCH   1   7
HETATM    7  C7  UNL     1     -34.806   6.547   4.206  1.00 20.00     0.386 C 
HETATM    8  F10 UNL     1     -34.647   7.805   4.687  1.00 20.00    -0.212 F 
HETATM    9  F11 UNL     1     -35.927   6.561   3.441  1.00 20.00    -0.212 F 
ENDBRANCH   1   7
BRANCH   1  10
HETATM   10  N9  UNL     1     -33.713   4.720   3.040  1.00 20.00     0.089 N 
HETATM   11  C4  UNL     1     -33.894   3.936   4.253  1.00 20.00     0.307 C 
HETATM   12  H28 UNL     1     -32.863   4.420   2.567  1.00 20.00     0.316 HD
ENDBRANCH   1  10
TORSDOF 4
ENDMDL
MODEL 3
REMARK VINA RESULT:      -0.5      2.615      4.269
REMARK  4 active torsions:
REMARK  status: ('A' for Active; 'I' for Inactive)
REMARK    1  A    between atoms: C5_5  and  C6_6 
REMARK    2  A    between atoms: C5_5  and  C8_8 
REMARK    3  A    between atoms: C6_6  and  C7_7 
REMARK    4  A    between atoms: C6_6  and  N9_9 
ROOT
HETATM    1  C6  UNL     1     -33.608   6.163   3.356  1.00 20.00     0.285 C 
ENDROOT
BRANCH   1   2
HETATM    2  C5  UNL     1     -33.544   7.038   2.084  1.00 20.00     0.049 C 
BRANCH   2   3
HETATM    3  C8  UNL     1     -32.269   7.901   1.847  1.00 20.00    -0.049 C 
HETATM    4  C1  UNL     1     -32.554   9.059   0.875  1.00 20.00     0.014 C 
HETATM    5  C2  UNL     1     -31.851   8.503   3.206  1.00 20.00     0.014 C 
HETATM    6  C3  UNL     1     -31.088   7.076   1.313  1.00 20.00     0.014 C 
ENDBRANCH   2   3
ENDBRANCH   1   2
BRANCH   1   7
HETATM    7  C7  UNL     1     -34.826   6.532   4.204  1.00 20.00     0.386 C 
HETATM    8  F10 UNL     1     -34.687   7.779   4.717  1.00 20.00    -0.212 F 
HETATM    9  F11 UNL     1     -35.937   6.552   3.425  1.00 20.00    -0.212 F 
ENDBRANCH   1   7
BRANCH   1  10
HETATM   10  N9  UNL     1     -33.684   4.741   3.029  1.00 20.00     0.089 N 
HETATM   11  C4  UNL     1     -33.901   3.946   4.228  1.00 20.00     0.307 C 
HETATM   12  H28 UNL     1     -32.811   4.457   2.587  1.00 20.00     0.316 HD
ENDBRANCH   1  10
TORSDOF 4
ENDMDL
MODEL 4
REMARK VINA RESULT:      -0.5      2.626      4.225
REMARK  4 active torsions:
REMARK  status: ('A' for Active; 'I' for Inactive)
REMARK    1  A    between atoms: C5_5  and  C6_6 
REMARK    2  A    between atoms: C5_5  and  C8_8 
REMARK    3  A    between atoms: C6_6  and  C7_7 
REMARK    4  A    between atoms: C6_6  and  N9_9 
ROOT
HETATM    1  C6  UNL     1     -33.604   6.127   3.359  1.00 20.00     0.285 C 
ENDROOT
BRANCH   1   2
HETATM    2  C5  UNL     1     -33.491   6.964   2.066  1.00 20.00     0.049 C 
BRANCH   2   3
HETATM    3  C8  UNL     1     -32.250   7.891   1.896  1.00 20.00    -0.049 C 
HETATM    4  C1  UNL     1     -31.066   7.127   1.280  1.00 20.00     0.014 C 
HETATM    5  C2  UNL     1     -32.646   9.029   0.930  1.00 20.00     0.014 C 
HETATM    6  C3  UNL     1     -31.804   8.529   3.220  1.00 20.00     0.014 C 
ENDBRANCH   2   3
ENDBRANCH   1   2
BRANCH   1   7
HETATM    7  C7  UNL     1     -34.802   6.582   4.194  1.00 20.00     0.386 C 
HETATM    8  F10 UNL     1     -34.616   7.849   4.640  1.00 20.00    -0.212 F 
HETATM    9  F11 UNL     1     -35.918   6.600   3.422  1.00 20.00    -0.212 F 
ENDBRANCH   1   7
BRANCH   1  10
HETATM   10  N9  UNL     1     -33.756   4.703   3.067  1.00 20.00     0.089 N 
HETATM   11  C4  UNL     1     -33.918   3.938   4.295  1.00 20.00     0.307 C 
HETATM   12  H28 UNL     1     -32.929   4.377   2.571  1.00 20.00     0.316 HD
ENDBRANCH   1  10
TORSDOF 4
ENDMDL
MODEL 5
REMARK VINA RESULT:      -0.2      2.471      3.980
REMARK  4 active torsions:
REMARK  status: ('A' for Active; 'I' for Inactive)
REMARK    1  A    between atoms: C5_5  and  C6_6 
REMARK    2  A    between atoms: C5_5  and  C8_8 
REMARK    3  A    between atoms: C6_6  and  C7_7 
REMARK    4  A    between atoms: C6_6  and  N9_9 
ROOT
HETATM    1  C6  UNL     1     -34.337   5.775   3.405  1.00 20.00     0.285 C 
ENDROOT
BRANCH   1   2
HETATM    2  C5  UNL     1     -32.868   5.999   2.983  1.00 20.00     0.049 C 
BRANCH   2   3
HETATM    3  C8  UNL     1     -32.547   6.109   1.463  1.00 20.00    -0.049 C 
HETATM    4  C1  UNL     1     -33.824   5.991   0.615  1.00 20.00     0.014 C 
HETATM    5  C2  UNL     1     -31.928   7.502   1.214  1.00 20.00     0.014 C 
HETATM    6  C3  UNL     1     -31.534   5.052   0.996  1.00 20.00     0.014 C 
ENDBRANCH   2   3
ENDBRANCH   1   2
BRANCH   1   7
HETATM    7  C7  UNL     1     -34.432   4.678   4.466  1.00 20.00     0.386 C 
HETATM    8  F10 UNL     1     -35.710   4.544   4.898  1.00 20.00    -0.212 F 
HETATM    9  F11 UNL     1     -34.074   3.485   3.926  1.00 20.00    -0.212 F 
ENDBRANCH   1   7
BRANCH   1  10
HETATM   10  N9  UNL     1     -34.935   6.994   3.944  1.00 20.00     0.089 N 
HETATM   11  C4  UNL     1     -33.906   7.920   4.394  1.00 20.00     0.307 C 
HETATM   12  H28 UNL     1     -35.537   6.749   4.727  1.00 20.00     0.316 HD
ENDBRANCH   1  10
TORSDOF 4
ENDMDL
MODEL 6
REMARK VINA RESULT:      -0.2      2.478      3.980
REMARK  4 active torsions:
REMARK  status: ('A' for Active; 'I' for Inactive)
REMARK    1  A    between atoms: C5_5  and  C6_6 
REMARK    2  A    between atoms: C5_5  and  C8_8 
REMARK    3  A    between atoms: C6_6  and  C7_7 
REMARK    4  A    between atoms: C6_6  and  N9_9 
ROOT
HETATM    1  C6  UNL     1     -34.340   5.757   3.402  1.00 20.00     0.285 C 
ENDROOT
BRANCH   1   2
HETATM    2  C5  UNL     1     -32.871   5.975   2.976  1.00 20.00     0.049 C 
BRANCH   2   3
HETATM    3  C8  UNL     1     -32.567   6.197   1.465  1.00 20.00    -0.049 C 
HETATM    4  C1  UNL     1     -31.923   7.572   1.223  1.00 20.00     0.014 C 
HETATM    5  C2  UNL     1     -31.563   5.109   1.024  1.00 20.00     0.014 C 
HETATM    6  C3  UNL     1     -33.820   6.067   0.585  1.00 20.00     0.014 C 
ENDBRANCH   2   3
ENDBRANCH   1   2
BRANCH   1   7
HETATM    7  C7  UNL     1     -34.436   4.674   4.476  1.00 20.00     0.386 C 
HETATM    8  F10 UNL     1     -35.715   4.545   4.907  1.00 20.00    -0.212 F 
HETATM    9  F11 UNL     1     -34.077   3.475   3.952  1.00 20.00    -0.212 F 
ENDBRANCH   1   7
BRANCH   1  10
HETATM   10  N9  UNL     1     -34.936   6.985   3.925  1.00 20.00     0.089 N 
HETATM   11  C4  UNL     1     -33.907   7.897   4.400  1.00 20.00     0.307 C 
HETATM   12  H28 UNL     1     -35.560   6.747   4.694  1.00 20.00     0.316 HD
ENDBRANCH   1  10
TORSDOF 4
ENDMDL
MODEL 7
REMARK VINA RESULT:      -0.2      2.013      2.495
REMARK  4 active torsions:
REMARK  status: ('A' for Active; 'I' for Inactive)
REMARK    1  A    between atoms: C5_5  and  C6_6 
REMARK    2  A    between atoms: C5_5  and  C8_8 
REMARK    3  A    between atoms: C6_6  and  C7_7 
REMARK    4  A    between atoms: C6_6  and  N9_9 
ROOT
HETATM    1  C6  UNL     1     -33.138   6.694   1.658  1.00 20.00     0.285 C 
ENDROOT
BRANCH   1   2
HETATM    2  C5  UNL     1     -33.358   6.081   3.060  1.00 20.00     0.049 C 
BRANCH   2   3
HETATM    3  C8  UNL     1     -34.643   6.481   3.845  1.00 20.00    -0.049 C 
HETATM    4  C1  UNL     1     -35.197   5.292   4.647  1.00 20.00     0.014 C 
HETATM    5  C2  UNL     1     -34.255   7.597   4.840  1.00 20.00     0.014 C 
HETATM    6  C3  UNL     1     -35.748   7.029   2.928  1.00 20.00     0.014 C 
ENDBRANCH   2   3
ENDBRANCH   1   2
BRANCH   1   7
HETATM    7  C7  UNL     1     -31.969   7.679   1.678  1.00 20.00     0.386 C 
HETATM    8  F10 UNL     1     -32.204   8.711   0.831  1.00 20.00    -0.212 F 
HETATM    9  F11 UNL     1     -31.841   8.214   2.919  1.00 20.00    -0.212 F 
ENDBRANCH   1   7
BRANCH   1  10
HETATM   10  N9  UNL     1     -32.861   5.665   0.658  1.00 20.00     0.089 N 
HETATM   11  C4  UNL     1     -31.677   4.899   1.019  1.00 20.00     0.307 C 
HETATM   12  H28 UNL     1     -32.712   6.112  -0.244  1.00 20.00     0.316 HD
ENDBRANCH   1  10
TORSDOF 4
ENDMDL
MODEL 8
REMARK VINA RESULT:      -0.2      2.010      2.795
REMARK  4 active torsions:
REMARK  status: ('A' for Active; 'I' for Inactive)
REMARK    1  A    between atoms: C5_5  and  C6_6 
REMARK    2  A    between atoms: C5_5  and  C8_8 
REMARK    3  A    between atoms: C6_6  and  C7_7 
REMARK    4  A    between atoms: C6_6  and  N9_9 
ROOT
HETATM    1  C6  UNL     1     -33.118   6.651   1.624  1.00 20.00     0.285 C 
ENDROOT
BRANCH   1   2
HETATM    2  C5  UNL     1     -33.355   6.048   3.027  1.00 20.00     0.049 C 
BRANCH   2   3
HETATM    3  C8  UNL     1     -34.594   6.533   3.837  1.00 20.00    -0.049 C 
HETATM    4  C1  UNL     1     -35.699   7.055   2.903  1.00 20.00     0.014 C 
HETATM    5  C2  UNL     1     -35.151   5.319   4.613  1.00 20.00     0.014 C 
HETATM    6  C3  UNL     1     -34.241   7.625   4.859  1.00 20.00     0.014 C 
ENDBRANCH   2   3
ENDBRANCH   1   2
BRANCH   1   7
HETATM    7  C7  UNL     1     -31.968   7.657   1.657  1.00 20.00     0.386 C 
HETATM    8  F10 UNL     1     -32.240   8.716   0.855  1.00 20.00    -0.212 F 
HETATM    9  F11 UNL     1     -31.822   8.146   2.914  1.00 20.00    -0.212 F 
ENDBRANCH   1   7
BRANCH   1  10
HETATM   10  N9  UNL     1     -32.804   5.617   0.640  1.00 20.00     0.089 N 
HETATM   11  C4  UNL     1     -31.645   4.842   1.056  1.00 20.00     0.307 C 
HETATM   12  H28 UNL     1     -32.610   6.061  -0.256  1.00 20.00     0.316 HD
ENDBRANCH   1  10
TORSDOF 4
ENDMDL
MODEL 9
REMARK VINA RESULT:      -0.1      2.857      4.375
REMARK  4 active torsions:
REMARK  status: ('A' for Active; 'I' for Inactive)
REMARK    1  A    between atoms: C5_5  and  C6_6 
REMARK    2  A    between atoms: C5_5  and  C8_8 
REMARK    3  A    between atoms: C6_6  and  C7_7 
REMARK    4  A    between atoms: C6_6  and  N9_9 
ROOT
HETATM    1  C6  UNL     1     -33.990   5.429   3.878  1.00 20.00     0.285 C 
ENDROOT
BRANCH   1   2
HETATM    2  C5  UNL     1     -33.965   5.294   2.339  1.00 20.00     0.049 C 
BRANCH   2   3
HETATM    3  C8  UNL     1     -32.836   6.027   1.554  1.00 20.00    -0.049 C 
HETATM    4  C1  UNL     1     -31.622   5.107   1.337  1.00 20.00     0.014 C 
HETATM    5  C2  UNL     1     -33.403   6.413   0.171  1.00 20.00     0.014 C 
HETATM    6  C3  UNL     1     -32.372   7.315   2.251  1.00 20.00     0.014 C 
ENDBRANCH   2   3
ENDBRANCH   1   2
BRANCH   1   7
HETATM    7  C7  UNL     1     -35.024   6.469   4.311  1.00 20.00     0.386 C 
HETATM    8  F10 UNL     1     -34.451   7.693   4.417  1.00 20.00    -0.212 F 
HETATM    9  F11 UNL     1     -35.994   6.572   3.367  1.00 20.00    -0.212 F 
ENDBRANCH   1   7
BRANCH   1  10
HETATM   10  N9  UNL     1     -34.310   4.158   4.525  1.00 20.00     0.089 N 
HETATM   11  C4  UNL     1     -33.185   3.239   4.442  1.00 20.00     0.307 C 
HETATM   12  H28 UNL     1     -35.119   3.747   4.063  1.00 20.00     0.316 HD
ENDBRANCH   1  10
TORSDOF 4
ENDMDL
