MODEL 1
REMARK VINA RESULT:       1.6      0.000      0.000
REMARK  1 active torsions:
REMARK  status: ('A' for Active; 'I' for Inactive)
REMARK    1  A    between atoms: C3_3  and  C8_8 
ROOT
HETATM    1  C1  UNL     1     -35.299   4.815   4.185  1.00 20.00     0.111 C 
HETATM    2  C2  UNL     1     -33.844   4.574   4.575  1.00 20.00     0.227 C 
HETATM    3  C3  UNL     1     -33.523   6.567   3.308  1.00 20.00     0.205 C 
HETATM    4  C4  UNL     1     -33.531   3.084   4.671  1.00 20.00     0.043 C 
HETATM    5  C5  UNL     1     -32.852   7.567   4.255  1.00 20.00     0.062 C 
HETATM    6  N9  UNL     1     -32.996   5.210   3.550  1.00 20.00     0.108 N 
HETATM    7  S10 UNL     1     -35.322   6.533   3.633  1.00 20.00    -0.126 SA
HETATM    8  H27 UNL     1     -32.026   5.240   3.856  1.00 20.00     0.318 HD
ENDROOT
BRANCH   3   9
HETATM    9  C8  UNL     1     -33.278   6.970   1.851  1.00 20.00     0.026 C 
HETATM   10  C6  UNL     1     -32.190   8.037   1.769  1.00 20.00     0.013 C 
HETATM   11  C7  UNL     1     -32.902   5.751   1.014  1.00 20.00     0.013 C 
ENDBRANCH   3   9
TORSDOF 1
ENDMDL
MODEL 2
REMARK VINA RESULT:       2.0      2.243      3.076
REMARK  1 active torsions:
REMARK  status: ('A' for Active; 'I' for Inactive)
REMARK    1  A    between atoms: C3_3  and  C8_8 
ROOT
HETATM    1  C1  UNL     1     -33.444   8.028   4.326  1.00 20.00     0.111 C 
HETATM    2  C2  UNL     1     -33.844   6.790   3.530  1.00 20.00     0.227 C 
HETATM    3  C3  UNL     1     -32.441   7.802   1.890  1.00 20.00     0.205 C 
HETATM    4  C4  UNL     1     -35.264   6.346   3.865  1.00 20.00     0.043 C 
HETATM    5  C5  UNL     1     -31.358   6.768   1.565  1.00 20.00     0.062 C 
HETATM    6  N9  UNL     1     -33.737   7.127   2.098  1.00 20.00     0.108 N 
HETATM    7  S10 UNL     1     -32.009   8.671   3.439  1.00 20.00    -0.126 SA
HETATM    8  H27 UNL     1     -33.812   6.287   1.527  1.00 20.00     0.318 HD
ENDROOT
BRANCH   3   9
HETATM    9  C8  UNL     1     -32.560   8.820   0.753  1.00 20.00     0.026 C 
HETATM   10  C6  UNL     1     -32.853  10.210   1.311  1.00 20.00     0.013 C 
HETATM   11  C7  UNL     1     -31.287   8.835  -0.088  1.00 20.00     0.013 C 
ENDBRANCH   3   9
TORSDOF 1
ENDMDL
MODEL 3
REMARK VINA RESULT:       2.0      1.454      3.825
REMARK  1 active torsions:
REMARK  status: ('A' for Active; 'I' for Inactive)
REMARK    1  A    between atoms: C3_3  and  C8_8 
ROOT
HETATM    1  C1  UNL     1     -32.256   8.329   3.415  1.00 20.00     0.111 C 
HETATM    2  C2  UNL     1     -32.750   7.745   2.095  1.00 20.00     0.227 C 
HETATM    3  C3  UNL     1     -34.207   6.550   3.555  1.00 20.00     0.205 C 
HETATM    4  C4  UNL     1     -31.619   7.628   1.078  1.00 20.00     0.043 C 
HETATM    5  C5  UNL     1     -35.631   6.888   3.101  1.00 20.00     0.062 C 
HETATM    6  N9  UNL     1     -33.321   6.416   2.382  1.00 20.00     0.108 N 
HETATM    7  S10 UNL     1     -33.559   7.909   4.592  1.00 20.00    -0.126 SA
HETATM    8  H27 UNL     1     -33.830   6.063   1.573  1.00 20.00     0.318 HD
ENDROOT
BRANCH   3   9
HETATM    9  C8  UNL     1     -34.203   5.249   4.362  1.00 20.00     0.026 C 
HETATM   10  C6  UNL     1     -35.614   4.911   4.836  1.00 20.00     0.013 C 
HETATM   11  C7  UNL     1     -33.624   4.106   3.534  1.00 20.00     0.013 C 
ENDBRANCH   3   9
TORSDOF 1
ENDMDL
MODEL 4
REMARK VINA RESULT:       2.1      2.609      4.837
REMARK  1 active torsions:
REMARK  status: ('A' for Active; 'I' for Inactive)
REMARK    1  A    between atoms: C3_3  and  C8_8 
ROOT
HETATM    1  C1  UNL     1     -31.618   8.338   0.138  1.00 20.00     0.111 C 
HETATM    2  C2  UNL     1     -32.184   9.591   0.798  1.00 20.00     0.227 C 
HETATM    3  C3  UNL     1     -32.734   8.033   2.515  1.00 20.00     0.205 C 
HETATM    4  C4  UNL     1     -32.737  10.566  -0.237  1.00 20.00     0.043 C 
HETATM    5  C5  UNL     1     -32.057   8.550   3.789  1.00 20.00     0.062 C 
HETATM    6  N9  UNL     1     -33.251   9.165   1.722  1.00 20.00     0.108 N 
HETATM    7  S10 UNL     1     -31.508   7.147   1.489  1.00 20.00    -0.126 SA
HETATM    8  H27 UNL     1     -33.534   9.938   2.322  1.00 20.00     0.318 HD
ENDROOT
BRANCH   3   9
HETATM    9  C8  UNL     1     -33.879   7.081   2.873  1.00 20.00     0.026 C 
HETATM   10  C6  UNL     1     -33.449   5.631   2.671  1.00 20.00     0.013 C 
HETATM   11  C7  UNL     1     -34.337   7.312   4.310  1.00 20.00     0.013 C 
ENDBRANCH   3   9
TORSDOF 1
ENDMDL
MODEL 5
REMARK VINA RESULT:       2.1      1.506      2.343
REMARK  1 active torsions:
REMARK  status: ('A' for Active; 'I' for Inactive)
REMARK    1  A    between atoms: C3_3  and  C8_8 
ROOT
HETATM    1  C1  UNL     1     -32.995   4.314   2.590  1.00 20.00     0.111 C 
HETATM    2  C2  UNL     1     -33.883   4.198   3.825  1.00 20.00     0.227 C 
HETATM    3  C3  UNL     1     -34.264   6.504   3.355  1.00 20.00     0.205 C 
HETATM    4  C4  UNL     1     -33.318   3.199   4.828  1.00 20.00     0.043 C 
HETATM    5  C5  UNL     1     -35.778   6.655   3.175  1.00 20.00     0.062 C 
HETATM    6  N9  UNL     1     -33.977   5.538   4.434  1.00 20.00     0.108 N 
HETATM    7  S10 UNL     1     -33.528   5.854   1.813  1.00 20.00    -0.126 SA
HETATM    8  H27 UNL     1     -34.702   5.556   5.148  1.00 20.00     0.318 HD
ENDROOT
BRANCH   3   9
HETATM    9  C8  UNL     1     -33.632   7.859   3.687  1.00 20.00     0.026 C 
HETATM   10  C6  UNL     1     -33.272   7.932   5.168  1.00 20.00     0.013 C 
HETATM   11  C7  UNL     1     -32.399   8.100   2.820  1.00 20.00     0.013 C 
ENDBRANCH   3   9
TORSDOF 1
ENDMDL
MODEL 6
REMARK VINA RESULT:       2.4      1.796      3.911
REMARK  1 active torsions:
REMARK  status: ('A' for Active; 'I' for Inactive)
REMARK    1  A    between atoms: C3_3  and  C8_8 
ROOT
HETATM    1  C1  UNL     1     -32.362   6.591   1.528  1.00 20.00     0.111 C 
HETATM    2  C2  UNL     1     -32.447   8.057   1.942  1.00 20.00     0.227 C 
HETATM    3  C3  UNL     1     -33.736   7.133   3.721  1.00 20.00     0.205 C 
HETATM    4  C4  UNL     1     -32.463   8.980   0.729  1.00 20.00     0.043 C 
HETATM    5  C5  UNL     1     -33.038   7.561   5.016  1.00 20.00     0.062 C 
HETATM    6  N9  UNL     1     -33.680   8.227   2.732  1.00 20.00     0.108 N 
HETATM    7  S10 UNL     1     -32.868   5.691   3.009  1.00 20.00    -0.126 SA
HETATM    8  H27 UNL     1     -33.691   9.138   3.187  1.00 20.00     0.318 HD
ENDROOT
BRANCH   3   9
HETATM    9  C8  UNL     1     -35.194   6.759   4.004  1.00 20.00     0.026 C 
HETATM   10  C6  UNL     1     -36.056   7.000   2.767  1.00 20.00     0.013 C 
HETATM   11  C7  UNL     1     -35.295   5.305   4.456  1.00 20.00     0.013 C 
ENDBRANCH   3   9
TORSDOF 1
ENDMDL
MODEL 7
REMARK VINA RESULT:       2.7      2.370      3.160
REMARK  1 active torsions:
REMARK  status: ('A' for Active; 'I' for Inactive)
REMARK    1  A    between atoms: C3_3  and  C8_8 
ROOT
HETATM    1  C1  UNL     1     -33.444   5.872   2.297  1.00 20.00     0.111 C 
HETATM    2  C2  UNL     1     -32.039   5.796   1.708  1.00 20.00     0.227 C 
HETATM    3  C3  UNL     1     -32.273   8.168   1.706  1.00 20.00     0.205 C 
HETATM    4  C4  UNL     1     -31.862   4.552   0.844  1.00 20.00     0.043 C 
HETATM    5  C5  UNL     1     -31.107   8.709   2.540  1.00 20.00     0.062 C 
HETATM    6  N9  UNL     1     -31.826   7.013   0.903  1.00 20.00     0.108 N 
HETATM    7  S10 UNL     1     -33.604   7.593   2.819  1.00 20.00    -0.126 SA
HETATM    8  H27 UNL     1     -30.846   7.102   0.641  1.00 20.00     0.318 HD
ENDROOT
BRANCH   3   9
HETATM    9  C8  UNL     1     -32.819   9.263   0.786  1.00 20.00     0.026 C 
HETATM   10  C6  UNL     1     -32.645  10.636   1.429  1.00 20.00     0.013 C 
HETATM   11  C7  UNL     1     -32.127   9.215  -0.574  1.00 20.00     0.013 C 
ENDBRANCH   3   9
TORSDOF 1
ENDMDL
MODEL 8
REMARK VINA RESULT:       2.8      1.818      2.752
REMARK  1 active torsions:
REMARK  status: ('A' for Active; 'I' for Inactive)
REMARK    1  A    between atoms: C3_3  and  C8_8 
ROOT
HETATM    1  C1  UNL     1     -33.263   4.782   3.464  1.00 20.00     0.111 C 
HETATM    2  C2  UNL     1     -34.452   5.704   3.213  1.00 20.00     0.227 C 
HETATM    3  C3  UNL     1     -32.904   6.749   1.733  1.00 20.00     0.205 C 
HETATM    4  C4  UNL     1     -35.300   5.877   4.469  1.00 20.00     0.043 C 
HETATM    5  C5  UNL     1     -33.559   6.725   0.348  1.00 20.00     0.062 C 
HETATM    6  N9  UNL     1     -33.922   7.007   2.770  1.00 20.00     0.108 N 
HETATM    7  S10 UNL     1     -32.153   5.118   2.081  1.00 20.00    -0.126 SA
HETATM    8  H27 UNL     1     -34.672   7.596   2.413  1.00 20.00     0.318 HD
ENDROOT
BRANCH   3   9
HETATM    9  C8  UNL     1     -31.819   7.828   1.787  1.00 20.00     0.026 C 
HETATM   10  C6  UNL     1     -32.058   8.879   0.706  1.00 20.00     0.013 C 
HETATM   11  C7  UNL     1     -31.776   8.476   3.168  1.00 20.00     0.013 C 
ENDBRANCH   3   9
TORSDOF 1
ENDMDL
MODEL 9
REMARK VINA RESULT:       2.8      2.764      4.725
REMARK  1 active torsions:
REMARK  status: ('A' for Active; 'I' for Inactive)
REMARK    1  A    between atoms: C3_3  and  C8_8 
ROOT
HETATM    1  C1  UNL     1     -31.328   8.581   0.186  1.00 20.00     0.111 C 
HETATM    2  C2  UNL     1     -32.302   9.586   0.793  1.00 20.00     0.227 C 
HETATM    3  C3  UNL     1     -32.399   7.944   2.518  1.00 20.00     0.205 C 
HETATM    4  C4  UNL     1     -33.091  10.321  -0.285  1.00 20.00     0.043 C 
HETATM    5  C5  UNL     1     -31.990   8.661   3.809  1.00 20.00     0.062 C 
HETATM    6  N9  UNL     1     -33.217   8.842   1.679  1.00 20.00     0.108 N 
HETATM    7  S10 UNL     1     -30.903   7.499   1.567  1.00 20.00    -0.126 SA
HETATM    8  H27 UNL     1     -33.764   9.484   2.249  1.00 20.00     0.318 HD
ENDROOT
BRANCH   3   9
HETATM    9  C8  UNL     1     -33.189   6.674   2.846  1.00 20.00     0.026 C 
HETATM   10  C6  UNL     1     -34.561   7.029   3.412  1.00 20.00     0.013 C 
HETATM   11  C7  UNL     1     -33.329   5.796   1.605  1.00 20.00     0.013 C 
ENDBRANCH   3   9
TORSDOF 1
ENDMDL
