MODEL 1
REMARK VINA RESULT:       2.3      0.000      0.000
REMARK  1 active torsions:
REMARK  status: ('A' for Active; 'I' for Inactive)
REMARK    1  A    between atoms: C5_5  and  C6_6 
ROOT
HETATM    1  C3  UNL     1     -34.225   4.596   3.981  1.00 20.00     0.282 C 
HETATM    2  C4  UNL     1     -35.540   5.326   4.194  1.00 20.00     0.106 C 
HETATM    3  C6  UNL     1     -33.454   6.795   3.504  1.00 20.00     0.208 C 
HETATM    4  C8  UNL     1     -32.898   7.975   4.302  1.00 20.00     0.062 C 
HETATM    5  N9  UNL     1     -33.144   5.551   4.224  1.00 20.00     0.104 N 
HETATM    6  S10 UNL     1     -35.276   6.930   3.407  1.00 20.00    -0.126 SA
HETATM    7  H25 UNL     1     -33.117   5.745   5.226  1.00 20.00     0.318 HD
ENDROOT
BRANCH   3   8
HETATM    8  C5  UNL     1     -32.870   6.781   2.087  1.00 20.00     0.001 A 
HETATM    9  C1  UNL     1     -32.363   5.465   1.543  1.00 20.00     0.013 A 
HETATM   10  C2  UNL     1     -33.640   6.052   1.011  1.00 20.00     0.013 A 
HETATM   11  C7  UNL     1     -32.134   8.034   1.702  1.00 20.00     0.019 C 
ENDBRANCH   3   8
TORSDOF 1
ENDMDL
MODEL 2
REMARK VINA RESULT:       2.3      1.465      2.411
REMARK  1 active torsions:
REMARK  status: ('A' for Active; 'I' for Inactive)
REMARK    1  A    between atoms: C5_5  and  C6_6 
ROOT
HETATM    1  C3  UNL     1     -35.336   6.280   4.005  1.00 20.00     0.282 C 
HETATM    2  C4  UNL     1     -34.759   4.921   4.363  1.00 20.00     0.106 C 
HETATM    3  C6  UNL     1     -33.574   6.245   2.407  1.00 20.00     0.208 C 
HETATM    4  C8  UNL     1     -33.377   5.731   0.981  1.00 20.00     0.062 C 
HETATM    5  N9  UNL     1     -34.999   6.549   2.606  1.00 20.00     0.104 N 
HETATM    6  S10 UNL     1     -33.124   4.930   3.597  1.00 20.00    -0.126 SA
HETATM    7  H25 UNL     1     -35.556   5.922   2.024  1.00 20.00     0.318 HD
ENDROOT
BRANCH   3   8
HETATM    8  C5  UNL     1     -32.700   7.478   2.660  1.00 20.00     0.001 A 
HETATM    9  C1  UNL     1     -31.384   7.577   1.922  1.00 20.00     0.013 A 
HETATM   10  C2  UNL     1     -32.528   8.469   1.532  1.00 20.00     0.013 A 
HETATM   11  C7  UNL     1     -32.763   8.012   4.064  1.00 20.00     0.019 C 
ENDBRANCH   3   8
TORSDOF 1
ENDMDL
MODEL 3
REMARK VINA RESULT:       2.4      0.431      1.520
REMARK  1 active torsions:
REMARK  status: ('A' for Active; 'I' for Inactive)
REMARK    1  A    between atoms: C5_5  and  C6_6 
ROOT
HETATM    1  C3  UNL     1     -34.221   4.753   3.892  1.00 20.00     0.282 C 
HETATM    2  C4  UNL     1     -35.535   5.482   4.111  1.00 20.00     0.106 C 
HETATM    3  C6  UNL     1     -33.426   6.966   3.537  1.00 20.00     0.208 C 
HETATM    4  C8  UNL     1     -32.880   8.103   4.401  1.00 20.00     0.062 C 
HETATM    5  N9  UNL     1     -33.139   5.688   4.203  1.00 20.00     0.104 N 
HETATM    6  S10 UNL     1     -35.245   7.119   3.406  1.00 20.00    -0.126 SA
HETATM    7  H25 UNL     1     -33.134   5.834   5.214  1.00 20.00     0.318 HD
ENDROOT
BRANCH   3   8
HETATM    8  C5  UNL     1     -32.811   7.014   2.133  1.00 20.00     0.001 A 
HETATM    9  C1  UNL     1     -32.858   8.326   1.384  1.00 20.00     0.013 A 
HETATM   10  C2  UNL     1     -31.554   7.829   1.938  1.00 20.00     0.013 A 
HETATM   11  C7  UNL     1     -32.959   5.745   1.342  1.00 20.00     0.019 C 
ENDBRANCH   3   8
TORSDOF 1
ENDMDL
MODEL 4
REMARK VINA RESULT:       2.5      2.018      3.484
REMARK  1 active torsions:
REMARK  status: ('A' for Active; 'I' for Inactive)
REMARK    1  A    between atoms: C5_5  and  C6_6 
ROOT
HETATM    1  C3  UNL     1     -33.717   5.065   0.266  1.00 20.00     0.282 C 
HETATM    2  C4  UNL     1     -32.279   4.577   0.332  1.00 20.00     0.106 C 
HETATM    3  C6  UNL     1     -32.984   6.461   2.047  1.00 20.00     0.208 C 
HETATM    4  C8  UNL     1     -32.317   7.830   2.184  1.00 20.00     0.062 C 
HETATM    5  N9  UNL     1     -33.746   6.431   0.790  1.00 20.00     0.104 N 
HETATM    6  S10 UNL     1     -31.697   5.164   1.938  1.00 20.00    -0.126 SA
HETATM    7  H25 UNL     1     -33.286   7.036   0.109  1.00 20.00     0.318 HD
ENDROOT
BRANCH   3   8
HETATM    8  C5  UNL     1     -33.887   6.179   3.254  1.00 20.00     0.001 A 
HETATM    9  C1  UNL     1     -34.128   7.303   4.235  1.00 20.00     0.013 A 
HETATM   10  C2  UNL     1     -35.229   6.869   3.310  1.00 20.00     0.013 A 
HETATM   11  C7  UNL     1     -33.789   4.780   3.794  1.00 20.00     0.019 C 
ENDBRANCH   3   8
TORSDOF 1
ENDMDL
MODEL 5
REMARK VINA RESULT:       2.8      1.690      3.705
REMARK  1 active torsions:
REMARK  status: ('A' for Active; 'I' for Inactive)
REMARK    1  A    between atoms: C5_5  and  C6_6 
ROOT
HETATM    1  C3  UNL     1     -31.709   8.514   2.174  1.00 20.00     0.282 C 
HETATM    2  C4  UNL     1     -32.319   8.755   0.804  1.00 20.00     0.106 C 
HETATM    3  C6  UNL     1     -32.743   6.389   1.903  1.00 20.00     0.208 C 
HETATM    4  C8  UNL     1     -32.371   5.043   1.281  1.00 20.00     0.062 C 
HETATM    5  N9  UNL     1     -31.510   7.072   2.323  1.00 20.00     0.104 N 
HETATM    6  S10 UNL     1     -33.548   7.442   0.641  1.00 20.00    -0.126 SA
HETATM    7  H25 UNL     1     -30.749   6.795   1.701  1.00 20.00     0.318 HD
ENDROOT
BRANCH   3   8
HETATM    8  C5  UNL     1     -33.701   6.190   3.083  1.00 20.00     0.001 A 
HETATM    9  C1  UNL     1     -33.869   7.332   4.059  1.00 20.00     0.013 A 
HETATM   10  C2  UNL     1     -34.978   6.996   3.103  1.00 20.00     0.013 A 
HETATM   11  C7  UNL     1     -33.743   4.788   3.624  1.00 20.00     0.019 C 
ENDBRANCH   3   8
TORSDOF 1
ENDMDL
MODEL 6
REMARK VINA RESULT:       2.9      1.943      2.842
REMARK  1 active torsions:
REMARK  status: ('A' for Active; 'I' for Inactive)
REMARK    1  A    between atoms: C5_5  and  C6_6 
ROOT
HETATM    1  C3  UNL     1     -32.944   5.976   1.442  1.00 20.00     0.282 C 
HETATM    2  C4  UNL     1     -33.771   6.149   2.704  1.00 20.00     0.106 C 
HETATM    3  C6  UNL     1     -32.088   8.095   2.101  1.00 20.00     0.208 C 
HETATM    4  C8  UNL     1     -30.966   8.608   3.005  1.00 20.00     0.062 C 
HETATM    5  N9  UNL     1     -31.720   6.762   1.604  1.00 20.00     0.104 N 
HETATM    6  S10 UNL     1     -33.622   7.909   3.081  1.00 20.00    -0.126 SA
HETATM    7  H25 UNL     1     -31.139   6.295   2.302  1.00 20.00     0.318 HD
ENDROOT
BRANCH   3   8
HETATM    8  C5  UNL     1     -32.338   9.072   0.947  1.00 20.00     0.001 A 
HETATM    9  C1  UNL     1     -31.339   9.100  -0.187  1.00 20.00     0.013 A 
HETATM   10  C2  UNL     1     -32.698   8.497  -0.402  1.00 20.00     0.013 A 
HETATM   11  C7  UNL     1     -32.979  10.370   1.355  1.00 20.00     0.019 C 
ENDBRANCH   3   8
TORSDOF 1
ENDMDL
MODEL 7
REMARK VINA RESULT:       3.0      1.436      2.670
REMARK  1 active torsions:
REMARK  status: ('A' for Active; 'I' for Inactive)
REMARK    1  A    between atoms: C5_5  and  C6_6 
ROOT
HETATM    1  C3  UNL     1     -35.399   5.611   4.317  1.00 20.00     0.282 C 
HETATM    2  C4  UNL     1     -34.552   4.363   4.497  1.00 20.00     0.106 C 
HETATM    3  C6  UNL     1     -33.688   6.156   2.757  1.00 20.00     0.208 C 
HETATM    4  C8  UNL     1     -33.408   5.891   1.278  1.00 20.00     0.062 C 
HETATM    5  N9  UNL     1     -35.142   6.131   2.974  1.00 20.00     0.104 N 
HETATM    6  S10 UNL     1     -32.963   4.810   3.764  1.00 20.00    -0.126 SA
HETATM    7  H25 UNL     1     -35.567   5.489   2.304  1.00 20.00     0.318 HD
ENDROOT
BRANCH   3   8
HETATM    8  C5  UNL     1     -33.082   7.495   3.189  1.00 20.00     0.001 A 
HETATM    9  C1  UNL     1     -33.974   8.475   3.916  1.00 20.00     0.013 A 
HETATM   10  C2  UNL     1     -32.896   7.746   4.667  1.00 20.00     0.013 A 
HETATM   11  C7  UNL     1     -32.050   8.047   2.245  1.00 20.00     0.019 C 
ENDBRANCH   3   8
TORSDOF 1
ENDMDL
MODEL 8
REMARK VINA RESULT:       3.2      1.668      3.673
REMARK  1 active torsions:
REMARK  status: ('A' for Active; 'I' for Inactive)
REMARK    1  A    between atoms: C5_5  and  C6_6 
ROOT
HETATM    1  C3  UNL     1     -31.302   8.684   2.222  1.00 20.00     0.282 C 
HETATM    2  C4  UNL     1     -31.967   9.088   0.917  1.00 20.00     0.106 C 
HETATM    3  C6  UNL     1     -32.901   6.927   2.117  1.00 20.00     0.208 C 
HETATM    4  C8  UNL     1     -32.981   5.532   1.496  1.00 20.00     0.062 C 
HETATM    5  N9  UNL     1     -31.491   7.243   2.387  1.00 20.00     0.104 N 
HETATM    6  S10 UNL     1     -33.519   8.164   0.919  1.00 20.00    -0.126 SA
HETATM    7  H25 UNL     1     -30.906   6.769   1.697  1.00 20.00     0.318 HD
ENDROOT
BRANCH   3   8
HETATM    8  C5  UNL     1     -33.743   6.995   3.396  1.00 20.00     0.001 A 
HETATM    9  C1  UNL     1     -35.231   6.751   3.279  1.00 20.00     0.013 A 
HETATM   10  C2  UNL     1     -34.350   5.712   3.914  1.00 20.00     0.013 A 
HETATM   11  C7  UNL     1     -33.273   8.009   4.401  1.00 20.00     0.019 C 
ENDBRANCH   3   8
TORSDOF 1
ENDMDL
MODEL 9
REMARK VINA RESULT:       3.2      1.898      3.243
REMARK  1 active torsions:
REMARK  status: ('A' for Active; 'I' for Inactive)
REMARK    1  A    between atoms: C5_5  and  C6_6 
ROOT
HETATM    1  C3  UNL     1     -33.851   5.376   0.504  1.00 20.00     0.282 C 
HETATM    2  C4  UNL     1     -32.475   4.734   0.562  1.00 20.00     0.106 C 
HETATM    3  C6  UNL     1     -32.855   6.887   2.047  1.00 20.00     0.208 C 
HETATM    4  C8  UNL     1     -32.032   8.173   1.969  1.00 20.00     0.062 C 
HETATM    5  N9  UNL     1     -33.694   6.790   0.844  1.00 20.00     0.104 N 
HETATM    6  S10 UNL     1     -31.730   5.444   2.046  1.00 20.00    -0.126 SA
HETATM    7  H25 UNL     1     -33.214   7.247   0.067  1.00 20.00     0.318 HD
ENDROOT
BRANCH   3   8
HETATM    8  C5  UNL     1     -33.704   6.868   3.323  1.00 20.00     0.001 A 
HETATM    9  C1  UNL     1     -35.169   6.520   3.193  1.00 20.00     0.013 A 
HETATM   10  C2  UNL     1     -34.219   5.534   3.811  1.00 20.00     0.013 A 
HETATM   11  C7  UNL     1     -33.310   7.891   4.352  1.00 20.00     0.019 C 
ENDBRANCH   3   8
TORSDOF 1
ENDMDL
