MODEL 1
REMARK VINA RESULT:      -1.3      0.000      0.000
REMARK  1 active torsions:
REMARK  status: ('A' for Active; 'I' for Inactive)
REMARK    1  A    between atoms: C7_7  and  N8_8 
ROOT
HETATM    1  C1  UNL     1     -31.716   6.728   1.117  1.00 20.00     0.048 C 
HETATM    2  C2  UNL     1     -32.792   5.726   1.519  1.00 20.00     0.274 C 
HETATM    3  C3  UNL     1     -33.281   7.644   2.734  1.00 20.00     0.288 C 
HETATM    4  C4  UNL     1     -32.059   7.994   1.895  1.00 20.00     0.087 C 
HETATM    5  N8  UNL     1     -33.178   6.187   2.853  1.00 20.00     0.093 N 
HETATM    6 BR9  UNL     1     -32.441   9.478   0.705  1.00 20.00    -0.089 Br
ENDROOT
BRANCH   5   7
HETATM    7  C7  UNL     1     -34.417   5.579   3.314  1.00 20.00     0.215 C 
HETATM    8  C5  UNL     1     -35.186   6.588   4.154  1.00 20.00     0.042 C 
HETATM    9  C6  UNL     1     -34.083   4.323   4.107  1.00 20.00     0.042 C 
ENDBRANCH   5   7
TORSDOF 1
ENDMDL
MODEL 2
REMARK VINA RESULT:      -0.8      0.574      1.288
REMARK  1 active torsions:
REMARK  status: ('A' for Active; 'I' for Inactive)
REMARK    1  A    between atoms: C7_7  and  N8_8 
ROOT
HETATM    1  C1  UNL     1     -32.074   6.625   1.207  1.00 20.00     0.048 C 
HETATM    2  C2  UNL     1     -33.181   5.872   1.935  1.00 20.00     0.274 C 
HETATM    3  C3  UNL     1     -33.092   7.947   2.973  1.00 20.00     0.288 C 
HETATM    4  C4  UNL     1     -32.041   7.996   1.873  1.00 20.00     0.087 C 
HETATM    5  N8  UNL     1     -33.193   6.512   3.251  1.00 20.00     0.093 N 
HETATM    6 BR9  UNL     1     -32.434   9.412   0.606  1.00 20.00    -0.089 Br
ENDROOT
BRANCH   5   7
HETATM    7  C7  UNL     1     -34.384   6.178   4.019  1.00 20.00     0.215 C 
HETATM    8  C5  UNL     1     -34.491   4.665   4.139  1.00 20.00     0.042 C 
HETATM    9  C6  UNL     1     -35.599   6.776   3.326  1.00 20.00     0.042 C 
ENDBRANCH   5   7
TORSDOF 1
ENDMDL
MODEL 3
REMARK VINA RESULT:       0.1      2.033      2.487
REMARK  1 active torsions:
REMARK  status: ('A' for Active; 'I' for Inactive)
REMARK    1  A    between atoms: C7_7  and  N8_8 
ROOT
HETATM    1  C1  UNL     1     -31.711   7.455   1.506  1.00 20.00     0.048 C 
HETATM    2  C2  UNL     1     -32.345   7.968   2.794  1.00 20.00     0.274 C 
HETATM    3  C3  UNL     1     -33.559   6.065   2.251  1.00 20.00     0.288 C 
HETATM    4  C4  UNL     1     -32.493   6.190   1.171  1.00 20.00     0.087 C 
HETATM    5  N8  UNL     1     -33.710   7.449   2.709  1.00 20.00     0.093 N 
HETATM    6 BR9  UNL     1     -31.343   4.627   1.153  1.00 20.00    -0.089 Br
ENDROOT
BRANCH   5   7
HETATM    7  C7  UNL     1     -34.418   7.539   3.978  1.00 20.00     0.215 C 
HETATM    8  C5  UNL     1     -33.430   7.914   5.074  1.00 20.00     0.042 C 
HETATM    9  C6  UNL     1     -35.093   6.204   4.260  1.00 20.00     0.042 C 
ENDBRANCH   5   7
TORSDOF 1
ENDMDL
MODEL 4
REMARK VINA RESULT:       0.9      2.494      3.856
REMARK  1 active torsions:
REMARK  status: ('A' for Active; 'I' for Inactive)
REMARK    1  A    between atoms: C7_7  and  N8_8 
ROOT
HETATM    1  C1  UNL     1     -33.015   4.753   1.514  1.00 20.00     0.048 C 
HETATM    2  C2  UNL     1     -31.982   5.846   1.271  1.00 20.00     0.274 C 
HETATM    3  C3  UNL     1     -33.388   6.709   2.905  1.00 20.00     0.288 C 
HETATM    4  C4  UNL     1     -33.917   5.312   2.608  1.00 20.00     0.087 C 
HETATM    5  N8  UNL     1     -32.702   7.060   1.658  1.00 20.00     0.093 N 
HETATM    6 BR9  UNL     1     -33.874   4.206   4.201  1.00 20.00    -0.089 Br
ENDROOT
BRANCH   5   7
HETATM    7  C7  UNL     1     -31.816   8.204   1.816  1.00 20.00     0.215 C 
HETATM    8  C5  UNL     1     -31.867   8.679   3.260  1.00 20.00     0.042 C 
HETATM    9  C6  UNL     1     -32.247   9.296   0.848  1.00 20.00     0.042 C 
ENDBRANCH   5   7
TORSDOF 1
ENDMDL
MODEL 5
REMARK VINA RESULT:       1.2      2.734      3.798
REMARK  1 active torsions:
REMARK  status: ('A' for Active; 'I' for Inactive)
REMARK    1  A    between atoms: C7_7  and  N8_8 
ROOT
HETATM    1  C1  UNL     1     -33.279   4.383   2.220  1.00 20.00     0.048 C 
HETATM    2  C2  UNL     1     -32.865   5.845   2.102  1.00 20.00     0.274 C 
HETATM    3  C3  UNL     1     -34.084   5.729   4.075  1.00 20.00     0.288 C 
HETATM    4  C4  UNL     1     -34.054   4.307   3.531  1.00 20.00     0.087 C 
HETATM    5  N8  UNL     1     -33.905   6.536   2.865  1.00 20.00     0.093 N 
HETATM    6 BR9  UNL     1     -33.201   3.103   4.791  1.00 20.00    -0.089 Br
ENDROOT
BRANCH   5   7
HETATM    7  C7  UNL     1     -33.549   7.915   3.166  1.00 20.00     0.215 C 
HETATM    8  C5  UNL     1     -32.221   8.243   2.499  1.00 20.00     0.042 C 
HETATM    9  C6  UNL     1     -33.479   8.087   4.676  1.00 20.00     0.042 C 
ENDBRANCH   5   7
TORSDOF 1
ENDMDL
MODEL 6
REMARK VINA RESULT:       1.2      1.155      1.293
REMARK  1 active torsions:
REMARK  status: ('A' for Active; 'I' for Inactive)
REMARK    1  A    between atoms: C7_7  and  N8_8 
ROOT
HETATM    1  C1  UNL     1     -31.377   8.086   1.208  1.00 20.00     0.048 C 
HETATM    2  C2  UNL     1     -32.201   6.914   1.728  1.00 20.00     0.274 C 
HETATM    3  C3  UNL     1     -33.548   8.777   2.048  1.00 20.00     0.288 C 
HETATM    4  C4  UNL     1     -32.278   9.301   1.394  1.00 20.00     0.087 C 
HETATM    5  N8  UNL     1     -33.086   7.551   2.704  1.00 20.00     0.093 N 
HETATM    6 BR9  UNL     1     -32.676  10.157  -0.301  1.00 20.00    -0.089 Br
ENDROOT
BRANCH   5   7
HETATM    7  C7  UNL     1     -34.186   6.686   3.103  1.00 20.00     0.215 C 
HETATM    8  C5  UNL     1     -34.663   7.093   4.489  1.00 20.00     0.042 C 
HETATM    9  C6  UNL     1     -33.711   5.240   3.072  1.00 20.00     0.042 C 
ENDBRANCH   5   7
TORSDOF 1
ENDMDL
MODEL 7
REMARK VINA RESULT:       1.5      2.455      4.379
REMARK  1 active torsions:
REMARK  status: ('A' for Active; 'I' for Inactive)
REMARK    1  A    between atoms: C7_7  and  N8_8 
ROOT
HETATM    1  C1  UNL     1     -32.875   7.852   4.054  1.00 20.00     0.048 C 
HETATM    2  C2  UNL     1     -32.563   8.840   2.937  1.00 20.00     0.274 C 
HETATM    3  C3  UNL     1     -33.310   6.929   1.849  1.00 20.00     0.288 C 
HETATM    4  C4  UNL     1     -33.393   6.611   3.335  1.00 20.00     0.087 C 
HETATM    5  N8  UNL     1     -32.271   7.962   1.803  1.00 20.00     0.093 N 
HETATM    6 BR9  UNL     1     -35.217   6.198   3.852  1.00 20.00    -0.089 Br
ENDROOT
BRANCH   5   7
HETATM    7  C7  UNL     1     -32.255   8.678   0.536  1.00 20.00     0.215 C 
HETATM    8  C5  UNL     1     -30.857   8.606  -0.060  1.00 20.00     0.042 C 
HETATM    9  C6  UNL     1     -32.692  10.116   0.779  1.00 20.00     0.042 C 
ENDBRANCH   5   7
TORSDOF 1
ENDMDL
MODEL 8
REMARK VINA RESULT:       1.6      1.968      3.560
REMARK  1 active torsions:
REMARK  status: ('A' for Active; 'I' for Inactive)
REMARK    1  A    between atoms: C7_7  and  N8_8 
ROOT
HETATM    1  C1  UNL     1     -34.585   6.166   4.087  1.00 20.00     0.048 C 
HETATM    2  C2  UNL     1     -33.714   5.526   3.013  1.00 20.00     0.274 C 
HETATM    3  C3  UNL     1     -33.238   7.796   2.891  1.00 20.00     0.288 C 
HETATM    4  C4  UNL     1     -34.246   7.651   4.022  1.00 20.00     0.087 C 
HETATM    5  N8  UNL     1     -33.520   6.621   2.062  1.00 20.00     0.093 N 
HETATM    6 BR9  UNL     1     -33.500   8.285   5.698  1.00 20.00    -0.089 Br
ENDROOT
BRANCH   5   7
HETATM    7  C7  UNL     1     -32.456   6.346   1.108  1.00 20.00     0.215 C 
HETATM    8  C5  UNL     1     -31.876   4.968   1.392  1.00 20.00     0.042 C 
HETATM    9  C6  UNL     1     -31.400   7.436   1.222  1.00 20.00     0.042 C 
ENDBRANCH   5   7
TORSDOF 1
ENDMDL
