MODEL 1
REMARK VINA RESULT:      -1.6      0.000      0.000
REMARK  3 active torsions:
REMARK  status: ('A' for Active; 'I' for Inactive)
REMARK    1  A    between atoms: C4_4  and  C5_5 
REMARK    2  A    between atoms: C6_6  and  C7_7 
REMARK    3  A    between atoms: C6_6  and  N8_8 
ROOT
HETATM    1  C1  UNL     1     -31.948   6.617   1.275  1.00 20.00     0.035 C 
HETATM    2  C2  UNL     1     -33.129   6.217   2.135  1.00 20.00     0.235 C 
HETATM    3  C3  UNL     1     -32.149   8.309   2.953  1.00 20.00     0.240 C 
HETATM    4  C4  UNL     1     -31.849   8.125   1.468  1.00 20.00     0.027 C 
HETATM    5  N8  UNL     1     -33.022   7.126   3.339  1.00 20.00    -0.068 N 
HETATM    6  H24 UNL     1     -32.510   6.601   4.064  1.00 20.00     0.280 HD
ENDROOT
BRANCH   5   7
HETATM    7  C6  UNL     1     -34.343   7.503   3.928  1.00 20.00     0.266 C 
BRANCH   7   8
HETATM    8  C7  UNL     1     -35.204   6.266   4.040  1.00 20.00     0.249 C 
HETATM    9  F9  UNL     1     -36.357   6.461   3.346  1.00 20.00    -0.254 F 
ENDBRANCH   7   8
ENDBRANCH   5   7
BRANCH   4  10
HETATM   10  C5  UNL     1     -32.833   8.892   0.585  1.00 20.00     0.121 C 
HETATM   11 CL10 UNL     1     -32.305  10.575   0.388  1.00 20.00    -0.130 Cl
ENDBRANCH   4  10
TORSDOF 3
ENDMDL
MODEL 2
REMARK VINA RESULT:      -0.2      2.948      3.894
REMARK  3 active torsions:
REMARK  status: ('A' for Active; 'I' for Inactive)
REMARK    1  A    between atoms: C4_4  and  C5_5 
REMARK    2  A    between atoms: C6_6  and  C7_7 
REMARK    3  A    between atoms: C6_6  and  N8_8 
ROOT
HETATM    1  C1  UNL     1     -35.406   6.281   3.980  1.00 20.00     0.035 C 
HETATM    2  C2  UNL     1     -34.812   5.022   4.578  1.00 20.00     0.235 C 
HETATM    3  C3  UNL     1     -33.737   5.539   2.436  1.00 20.00     0.240 C 
HETATM    4  C4  UNL     1     -34.306   6.807   3.067  1.00 20.00     0.027 C 
HETATM    5  N8  UNL     1     -34.005   4.433   3.443  1.00 20.00    -0.068 N 
HETATM    6  H24 UNL     1     -34.611   3.742   2.974  1.00 20.00     0.280 HD
ENDROOT
BRANCH   5   7
HETATM    7  C6  UNL     1     -32.781   3.700   3.892  1.00 20.00     0.266 C 
BRANCH   7   8
HETATM    8  C7  UNL     1     -33.141   2.802   5.053  1.00 20.00     0.249 C 
HETATM    9  F9  UNL     1     -32.332   3.089   6.107  1.00 20.00    -0.254 F 
ENDBRANCH   7   8
ENDBRANCH   5   7
BRANCH   4  10
HETATM   10  C5  UNL     1     -33.241   7.595   3.830  1.00 20.00     0.121 C 
HETATM   11 CL10 UNL     1     -31.993   8.188   2.716  1.00 20.00    -0.130 Cl
ENDBRANCH   4  10
TORSDOF 3
ENDMDL
MODEL 3
REMARK VINA RESULT:       0.2      2.280      2.813
REMARK  3 active torsions:
REMARK  status: ('A' for Active; 'I' for Inactive)
REMARK    1  A    between atoms: C4_4  and  C5_5 
REMARK    2  A    between atoms: C6_6  and  C7_7 
REMARK    3  A    between atoms: C6_6  and  N8_8 
ROOT
HETATM    1  C1  UNL     1     -31.757   7.853   1.580  1.00 20.00     0.035 C 
HETATM    2  C2  UNL     1     -32.232   8.071   3.002  1.00 20.00     0.235 C 
HETATM    3  C3  UNL     1     -33.835   6.684   1.770  1.00 20.00     0.240 C 
HETATM    4  C4  UNL     1     -32.442   6.559   1.159  1.00 20.00     0.027 C 
HETATM    5  N8  UNL     1     -33.666   7.589   2.979  1.00 20.00    -0.068 N 
HETATM    6  H24 UNL     1     -34.256   8.419   2.816  1.00 20.00     0.280 HD
ENDROOT
BRANCH   5   7
HETATM    7  C6  UNL     1     -34.117   6.983   4.269  1.00 20.00     0.266 C 
BRANCH   7   8
HETATM    8  C7  UNL     1     -35.382   6.192   4.028  1.00 20.00     0.249 C 
HETATM    9  F9  UNL     1     -35.177   4.900   4.396  1.00 20.00    -0.254 F 
ENDBRANCH   7   8
ENDBRANCH   5   7
BRANCH   4  10
HETATM   10  C5  UNL     1     -31.704   5.318   1.663  1.00 20.00     0.121 C 
HETATM   11 CL10 UNL     1     -31.356   4.217   0.317  1.00 20.00    -0.130 Cl
ENDBRANCH   4  10
TORSDOF 3
ENDMDL
MODEL 4
REMARK VINA RESULT:       0.3      3.171      4.338
REMARK  3 active torsions:
REMARK  status: ('A' for Active; 'I' for Inactive)
REMARK    1  A    between atoms: C4_4  and  C5_5 
REMARK    2  A    between atoms: C6_6  and  C7_7 
REMARK    3  A    between atoms: C6_6  and  N8_8 
ROOT
HETATM    1  C1  UNL     1     -32.539   7.827   3.911  1.00 20.00     0.035 C 
HETATM    2  C2  UNL     1     -32.300   8.808   2.782  1.00 20.00     0.235 C 
HETATM    3  C3  UNL     1     -32.470   6.525   1.906  1.00 20.00     0.240 C 
HETATM    4  C4  UNL     1     -33.218   6.644   3.231  1.00 20.00     0.027 C 
HETATM    5  N8  UNL     1     -31.958   7.923   1.604  1.00 20.00    -0.068 N 
HETATM    6  H24 UNL     1     -30.929   7.864   1.566  1.00 20.00     0.280 HD
ENDROOT
BRANCH   5   7
HETATM    7  C6  UNL     1     -32.408   8.473   0.288  1.00 20.00     0.266 C 
BRANCH   7   8
HETATM    8  C7  UNL     1     -32.461   9.980   0.374  1.00 20.00     0.249 C 
HETATM    9  F9  UNL     1     -33.220  10.459  -0.647  1.00 20.00    -0.254 F 
ENDBRANCH   7   8
ENDBRANCH   5   7
BRANCH   4  10
HETATM   10  C5  UNL     1     -34.715   6.870   3.025  1.00 20.00     0.121 C 
HETATM   11 CL10 UNL     1     -35.648   5.971   4.238  1.00 20.00    -0.130 Cl
ENDBRANCH   4  10
TORSDOF 3
ENDMDL
MODEL 5
REMARK VINA RESULT:       0.5      3.132      4.001
REMARK  3 active torsions:
REMARK  status: ('A' for Active; 'I' for Inactive)
REMARK    1  A    between atoms: C4_4  and  C5_5 
REMARK    2  A    between atoms: C6_6  and  C7_7 
REMARK    3  A    between atoms: C6_6  and  N8_8 
ROOT
HETATM    1  C1  UNL     1     -33.402   5.962   2.919  1.00 20.00     0.035 C 
HETATM    2  C2  UNL     1     -33.640   7.457   2.975  1.00 20.00     0.235 C 
HETATM    3  C3  UNL     1     -31.764   6.948   1.481  1.00 20.00     0.240 C 
HETATM    4  C4  UNL     1     -32.707   5.752   1.579  1.00 20.00     0.027 C 
HETATM    5  N8  UNL     1     -32.411   8.042   2.315  1.00 20.00    -0.068 N 
HETATM    6  H24 UNL     1     -31.749   8.272   3.071  1.00 20.00     0.280 HD
ENDROOT
BRANCH   5   7
HETATM    7  C6  UNL     1     -32.675   9.310   1.568  1.00 20.00     0.266 C 
BRANCH   7   8
HETATM    8  C7  UNL     1     -32.091   9.196   0.179  1.00 20.00     0.249 C 
HETATM    9  F9  UNL     1     -32.896   9.851  -0.699  1.00 20.00    -0.254 F 
ENDBRANCH   7   8
ENDBRANCH   5   7
BRANCH   4  10
HETATM   10  C5  UNL     1     -33.693   5.703   0.412  1.00 20.00     0.121 C 
HETATM   11 CL10 UNL     1     -33.622   4.122  -0.391  1.00 20.00    -0.130 Cl
ENDBRANCH   4  10
TORSDOF 3
ENDMDL
MODEL 6
REMARK VINA RESULT:       0.6      2.652      3.184
REMARK  3 active torsions:
REMARK  status: ('A' for Active; 'I' for Inactive)
REMARK    1  A    between atoms: C4_4  and  C5_5 
REMARK    2  A    between atoms: C6_6  and  C7_7 
REMARK    3  A    between atoms: C6_6  and  N8_8 
ROOT
HETATM    1  C1  UNL     1     -32.468   7.885   2.386  1.00 20.00     0.035 C 
HETATM    2  C2  UNL     1     -33.077   7.468   3.709  1.00 20.00     0.235 C 
HETATM    3  C3  UNL     1     -34.053   6.169   1.873  1.00 20.00     0.240 C 
HETATM    4  C4  UNL     1     -32.661   6.665   1.493  1.00 20.00     0.027 C 
HETATM    5  N8  UNL     1     -34.268   6.627   3.306  1.00 20.00    -0.068 N 
HETATM    6  H24 UNL     1     -35.087   7.254   3.300  1.00 20.00     0.280 HD
ENDROOT
BRANCH   5   7
HETATM    7  C6  UNL     1     -34.576   5.522   4.265  1.00 20.00     0.266 C 
BRANCH   7   8
HETATM    8  C7  UNL     1     -34.014   4.228   3.725  1.00 20.00     0.249 C 
HETATM    9  F9  UNL     1     -33.704   3.408   4.764  1.00 20.00    -0.254 F 
ENDBRANCH   7   8
ENDBRANCH   5   7
BRANCH   4  10
HETATM   10  C5  UNL     1     -31.590   5.599   1.723  1.00 20.00     0.121 C 
HETATM   11 CL10 UNL     1     -31.598   4.418   0.398  1.00 20.00    -0.130 Cl
ENDBRANCH   4  10
TORSDOF 3
ENDMDL
MODEL 7
REMARK VINA RESULT:       0.7      3.115      4.170
REMARK  3 active torsions:
REMARK  status: ('A' for Active; 'I' for Inactive)
REMARK    1  A    between atoms: C4_4  and  C5_5 
REMARK    2  A    between atoms: C6_6  and  C7_7 
REMARK    3  A    between atoms: C6_6  and  N8_8 
ROOT
HETATM    1  C1  UNL     1     -31.867   5.865   1.834  1.00 20.00     0.035 C 
HETATM    2  C2  UNL     1     -31.287   7.259   1.704  1.00 20.00     0.235 C 
HETATM    3  C3  UNL     1     -33.673   7.272   1.142  1.00 20.00     0.240 C 
HETATM    4  C4  UNL     1     -33.352   6.108   2.074  1.00 20.00     0.027 C 
HETATM    5  N8  UNL     1     -32.367   8.031   0.977  1.00 20.00    -0.068 N 
HETATM    6  H24 UNL     1     -32.128   8.003  -0.025  1.00 20.00     0.280 HD
ENDROOT
BRANCH   5   7
HETATM    7  C6  UNL     1     -32.439   9.473   1.366  1.00 20.00     0.266 C 
BRANCH   7   8
HETATM    8  C7  UNL     1     -32.444  10.321   0.115  1.00 20.00     0.249 C 
HETATM    9  F9  UNL     1     -32.999   9.612  -0.903  1.00 20.00    -0.254 F 
ENDBRANCH   7   8
ENDBRANCH   5   7
BRANCH   4  10
HETATM   10  C5  UNL     1     -33.660   6.441   3.534  1.00 20.00     0.121 C 
HETATM   11 CL10 UNL     1     -35.399   6.283   3.851  1.00 20.00    -0.130 Cl
ENDBRANCH   4  10
TORSDOF 3
ENDMDL
MODEL 8
REMARK VINA RESULT:       0.8      2.461      3.675
REMARK  3 active torsions:
REMARK  status: ('A' for Active; 'I' for Inactive)
REMARK    1  A    between atoms: C4_4  and  C5_5 
REMARK    2  A    between atoms: C6_6  and  C7_7 
REMARK    3  A    between atoms: C6_6  and  N8_8 
ROOT
HETATM    1  C1  UNL     1     -34.908   6.177   4.082  1.00 20.00     0.035 C 
HETATM    2  C2  UNL     1     -33.888   5.268   3.428  1.00 20.00     0.235 C 
HETATM    3  C3  UNL     1     -33.782   7.514   2.450  1.00 20.00     0.240 C 
HETATM    4  C4  UNL     1     -34.344   7.576   3.867  1.00 20.00     0.027 C 
HETATM    5  N8  UNL     1     -33.432   6.053   2.217  1.00 20.00    -0.068 N 
HETATM    6  H24 UNL     1     -34.004   5.732   1.422  1.00 20.00     0.280 HD
ENDROOT
BRANCH   5   7
HETATM    7  C6  UNL     1     -32.003   5.814   1.849  1.00 20.00     0.266 C 
BRANCH   7   8
HETATM    8  C7  UNL     1     -31.946   4.844   0.692  1.00 20.00     0.249 C 
HETATM    9  F9  UNL     1     -33.196   4.686   0.181  1.00 20.00    -0.254 F 
ENDBRANCH   7   8
ENDBRANCH   5   7
BRANCH   4  10
HETATM   10  C5  UNL     1     -33.271   7.936   4.894  1.00 20.00     0.121 C 
HETATM   11 CL10 UNL     1     -31.898   8.732   4.100  1.00 20.00    -0.130 Cl
ENDBRANCH   4  10
TORSDOF 3
ENDMDL
MODEL 9
REMARK VINA RESULT:       0.9      2.496      3.834
REMARK  3 active torsions:
REMARK  status: ('A' for Active; 'I' for Inactive)
REMARK    1  A    between atoms: C4_4  and  C5_5 
REMARK    2  A    between atoms: C6_6  and  C7_7 
REMARK    3  A    between atoms: C6_6  and  N8_8 
ROOT
HETATM    1  C1  UNL     1     -34.869   6.000   4.029  1.00 20.00     0.035 C 
HETATM    2  C2  UNL     1     -33.781   5.403   3.161  1.00 20.00     0.235 C 
HETATM    3  C3  UNL     1     -33.989   7.808   2.735  1.00 20.00     0.240 C 
HETATM    4  C4  UNL     1     -34.486   7.470   4.138  1.00 20.00     0.027 C 
HETATM    5  N8  UNL     1     -33.480   6.496   2.160  1.00 20.00    -0.068 N 
HETATM    6  H24 UNL     1     -34.048   6.297   1.322  1.00 20.00     0.280 HD
ENDROOT
BRANCH   5   7
HETATM    7  C6  UNL     1     -32.052   6.531   1.718  1.00 20.00     0.266 C 
BRANCH   7   8
HETATM    8  C7  UNL     1     -31.573   7.964   1.707  1.00 20.00     0.249 C 
HETATM    9  F9  UNL     1     -31.930   8.544   0.530  1.00 20.00    -0.254 F 
ENDBRANCH   7   8
ENDBRANCH   5   7
BRANCH   4  10
HETATM   10  C5  UNL     1     -33.414   7.716   5.200  1.00 20.00     0.121 C 
HETATM   11 CL10 UNL     1     -32.166   8.813   4.576  1.00 20.00    -0.130 Cl
ENDBRANCH   4  10
TORSDOF 3
ENDMDL
