MODEL 1
REMARK VINA RESULT:      -1.3      0.000      0.000
REMARK  2 active torsions:
REMARK  status: ('A' for Active; 'I' for Inactive)
REMARK    1  A    between atoms: C5_5  and  C6_6 
REMARK    2  A    between atoms: C5_5  and  N7_7 
ROOT
HETATM    1  C1  UNL     1     -33.076   5.808   1.929  1.00 20.00     0.052 C 
HETATM    2  C2  UNL     1     -31.677   6.310   1.577  1.00 20.00     0.274 C 
HETATM    3  C3  UNL     1     -32.702   8.044   2.741  1.00 20.00     0.292 C 
HETATM    4  C4  UNL     1     -33.801   7.023   2.494  1.00 20.00     0.112 C 
HETATM    5  N7  UNL     1     -31.700   7.776   1.698  1.00 20.00     0.092 N 
HETATM    6 CL9  UNL     1     -34.706   6.649   3.972  1.00 20.00    -0.123 Cl
ENDROOT
BRANCH   5   7
HETATM    7  C5  UNL     1     -32.054   8.409   0.427  1.00 20.00     0.303 C 
BRANCH   7   8
HETATM    8  C6  UNL     1     -32.424   9.865   0.616  1.00 20.00     0.252 C 
HETATM    9  F8  UNL     1     -33.114  10.292  -0.476  1.00 20.00    -0.254 F 
ENDBRANCH   7   8
ENDBRANCH   5   7
TORSDOF 2
ENDMDL
MODEL 2
REMARK VINA RESULT:      -0.2      2.993      3.879
REMARK  2 active torsions:
REMARK  status: ('A' for Active; 'I' for Inactive)
REMARK    1  A    between atoms: C5_5  and  C6_6 
REMARK    2  A    between atoms: C5_5  and  N7_7 
ROOT
HETATM    1  C1  UNL     1     -32.283   7.538   1.460  1.00 20.00     0.052 C 
HETATM    2  C2  UNL     1     -32.287   8.050   2.899  1.00 20.00     0.274 C 
HETATM    3  C3  UNL     1     -32.925   5.816   3.016  1.00 20.00     0.292 C 
HETATM    4  C4  UNL     1     -32.907   6.150   1.533  1.00 20.00     0.112 C 
HETATM    5  N7  UNL     1     -33.098   7.112   3.690  1.00 20.00     0.092 N 
HETATM    6 CL9  UNL     1     -32.007   4.948   0.591  1.00 20.00    -0.123 Cl
ENDROOT
BRANCH   5   7
HETATM    7  C5  UNL     1     -34.503   7.524   3.727  1.00 20.00     0.303 C 
BRANCH   7   8
HETATM    8  C6  UNL     1     -35.416   6.354   4.025  1.00 20.00     0.252 C 
HETATM    9  F8  UNL     1     -36.533   6.459   3.256  1.00 20.00    -0.254 F 
ENDBRANCH   7   8
ENDBRANCH   5   7
TORSDOF 2
ENDMDL
MODEL 3
REMARK VINA RESULT:      -0.2      2.217      2.989
REMARK  2 active torsions:
REMARK  status: ('A' for Active; 'I' for Inactive)
REMARK    1  A    between atoms: C5_5  and  C6_6 
REMARK    2  A    between atoms: C5_5  and  N7_7 
ROOT
HETATM    1  C1  UNL     1     -34.879   5.562   4.492  1.00 20.00     0.052 C 
HETATM    2  C2  UNL     1     -35.143   6.579   3.383  1.00 20.00     0.274 C 
HETATM    3  C3  UNL     1     -33.380   5.260   2.632  1.00 20.00     0.292 C 
HETATM    4  C4  UNL     1     -33.594   4.854   4.082  1.00 20.00     0.112 C 
HETATM    5  N7  UNL     1     -33.941   6.617   2.536  1.00 20.00     0.092 N 
HETATM    6 CL9  UNL     1     -33.696   3.094   4.272  1.00 20.00    -0.123 Cl
ENDROOT
BRANCH   5   7
HETATM    7  C5  UNL     1     -32.994   7.632   3.000  1.00 20.00     0.303 C 
BRANCH   7   8
HETATM    8  C6  UNL     1     -31.963   7.955   1.939  1.00 20.00     0.252 C 
HETATM    9  F8  UNL     1     -32.345   9.083   1.281  1.00 20.00    -0.254 F 
ENDBRANCH   7   8
ENDBRANCH   5   7
TORSDOF 2
ENDMDL
MODEL 4
REMARK VINA RESULT:      -0.1      3.721      4.634
REMARK  2 active torsions:
REMARK  status: ('A' for Active; 'I' for Inactive)
REMARK    1  A    between atoms: C5_5  and  C6_6 
REMARK    2  A    between atoms: C5_5  and  N7_7 
ROOT
HETATM    1  C1  UNL     1     -32.063   6.329   1.263  1.00 20.00     0.052 C 
HETATM    2  C2  UNL     1     -33.228   5.377   1.529  1.00 20.00     0.274 C 
HETATM    3  C3  UNL     1     -33.709   7.321   2.713  1.00 20.00     0.292 C 
HETATM    4  C4  UNL     1     -32.285   7.501   2.210  1.00 20.00     0.112 C 
HETATM    5  N7  UNL     1     -33.919   5.865   2.733  1.00 20.00     0.092 N 
HETATM    6 CL9  UNL     1     -32.052   9.070   1.418  1.00 20.00    -0.123 Cl
ENDROOT
BRANCH   5   7
HETATM    7  C5  UNL     1     -33.373   5.252   3.944  1.00 20.00     0.303 C 
BRANCH   7   8
HETATM    8  C6  UNL     1     -33.950   3.871   4.175  1.00 20.00     0.252 C 
HETATM    9  F8  UNL     1     -33.053   3.130   4.881  1.00 20.00    -0.254 F 
ENDBRANCH   7   8
ENDBRANCH   5   7
TORSDOF 2
ENDMDL
MODEL 5
REMARK VINA RESULT:      -0.1      2.905      3.691
REMARK  2 active torsions:
REMARK  status: ('A' for Active; 'I' for Inactive)
REMARK    1  A    between atoms: C5_5  and  C6_6 
REMARK    2  A    between atoms: C5_5  and  N7_7 
ROOT
HETATM    1  C1  UNL     1     -31.246   7.116   1.577  1.00 20.00     0.052 C 
HETATM    2  C2  UNL     1     -31.928   5.749   1.560  1.00 20.00     0.274 C 
HETATM    3  C3  UNL     1     -33.642   7.318   1.449  1.00 20.00     0.292 C 
HETATM    4  C4  UNL     1     -32.380   8.122   1.722  1.00 20.00     0.112 C 
HETATM    5  N7  UNL     1     -33.335   5.963   1.933  1.00 20.00     0.092 N 
HETATM    6 CL9  UNL     1     -32.216   9.498   0.617  1.00 20.00    -0.123 Cl
ENDROOT
BRANCH   5   7
HETATM    7  C5  UNL     1     -33.527   5.843   3.379  1.00 20.00     0.303 C 
BRANCH   7   8
HETATM    8  C6  UNL     1     -34.797   6.532   3.829  1.00 20.00     0.252 C 
HETATM    9  F8  UNL     1     -34.469   7.644   4.542  1.00 20.00    -0.254 F 
ENDBRANCH   7   8
ENDBRANCH   5   7
TORSDOF 2
ENDMDL
MODEL 6
REMARK VINA RESULT:       0.4      3.417      4.096
REMARK  2 active torsions:
REMARK  status: ('A' for Active; 'I' for Inactive)
REMARK    1  A    between atoms: C5_5  and  C6_6 
REMARK    2  A    between atoms: C5_5  and  N7_7 
ROOT
HETATM    1  C1  UNL     1     -34.941   4.928   4.775  1.00 20.00     0.052 C 
HETATM    2  C2  UNL     1     -35.322   5.981   3.735  1.00 20.00     0.274 C 
HETATM    3  C3  UNL     1     -33.455   4.888   2.880  1.00 20.00     0.292 C 
HETATM    4  C4  UNL     1     -33.602   4.375   4.304  1.00 20.00     0.112 C 
HETATM    5  N7  UNL     1     -34.146   6.187   2.876  1.00 20.00     0.092 N 
HETATM    6 CL9  UNL     1     -33.529   2.606   4.385  1.00 20.00    -0.123 Cl
ENDROOT
BRANCH   5   7
HETATM    7  C5  UNL     1     -33.293   7.260   3.391  1.00 20.00     0.303 C 
BRANCH   7   8
HETATM    8  C6  UNL     1     -33.965   8.008   4.522  1.00 20.00     0.252 C 
HETATM    9  F8  UNL     1     -33.032   8.317   5.463  1.00 20.00    -0.254 F 
ENDBRANCH   7   8
ENDBRANCH   5   7
TORSDOF 2
ENDMDL
MODEL 7
REMARK VINA RESULT:       0.5      2.505      3.272
REMARK  2 active torsions:
REMARK  status: ('A' for Active; 'I' for Inactive)
REMARK    1  A    between atoms: C5_5  and  C6_6 
REMARK    2  A    between atoms: C5_5  and  N7_7 
ROOT
HETATM    1  C1  UNL     1     -33.098   7.561   3.732  1.00 20.00     0.052 C 
HETATM    2  C2  UNL     1     -32.456   7.973   2.408  1.00 20.00     0.274 C 
HETATM    3  C3  UNL     1     -33.931   6.251   1.892  1.00 20.00     0.292 C 
HETATM    4  C4  UNL     1     -33.890   6.300   3.411  1.00 20.00     0.112 C 
HETATM    5  N7  UNL     1     -32.666   6.867   1.462  1.00 20.00     0.092 N 
HETATM    6 CL9  UNL     1     -35.515   6.318   4.120  1.00 20.00    -0.123 Cl
ENDROOT
BRANCH   5   7
HETATM    7  C5  UNL     1     -31.555   5.915   1.501  1.00 20.00     0.303 C 
BRANCH   7   8
HETATM    8  C6  UNL     1     -31.955   4.572   0.928  1.00 20.00     0.252 C 
HETATM    9  F8  UNL     1     -31.111   4.258  -0.092  1.00 20.00    -0.254 F 
ENDBRANCH   7   8
ENDBRANCH   5   7
TORSDOF 2
ENDMDL
MODEL 8
REMARK VINA RESULT:       0.6      3.810      4.813
REMARK  2 active torsions:
REMARK  status: ('A' for Active; 'I' for Inactive)
REMARK    1  A    between atoms: C5_5  and  C6_6 
REMARK    2  A    between atoms: C5_5  and  N7_7 
ROOT
HETATM    1  C1  UNL     1     -32.775   7.200   2.343  1.00 20.00     0.052 C 
HETATM    2  C2  UNL     1     -33.112   5.841   1.730  1.00 20.00     0.274 C 
HETATM    3  C3  UNL     1     -34.513   6.076   3.573  1.00 20.00     0.292 C 
HETATM    4  C4  UNL     1     -33.540   7.241   3.659  1.00 20.00     0.112 C 
HETATM    5  N7  UNL     1     -33.817   5.064   2.762  1.00 20.00     0.092 N 
HETATM    6 CL9  UNL     1     -34.371   8.785   3.916  1.00 20.00    -0.123 Cl
ENDROOT
BRANCH   5   7
HETATM    7  C5  UNL     1     -32.882   4.273   3.563  1.00 20.00     0.303 C 
BRANCH   7   8
HETATM    8  C6  UNL     1     -33.611   3.293   4.459  1.00 20.00     0.252 C 
HETATM    9  F8  UNL     1     -32.771   2.893   5.452  1.00 20.00    -0.254 F 
ENDBRANCH   7   8
ENDBRANCH   5   7
TORSDOF 2
ENDMDL
MODEL 9
REMARK VINA RESULT:       0.7      3.440      4.421
REMARK  2 active torsions:
REMARK  status: ('A' for Active; 'I' for Inactive)
REMARK    1  A    between atoms: C5_5  and  C6_6 
REMARK    2  A    between atoms: C5_5  and  N7_7 
ROOT
HETATM    1  C1  UNL     1     -32.471   8.712   2.941  1.00 20.00     0.052 C 
HETATM    2  C2  UNL     1     -32.771   7.641   3.989  1.00 20.00     0.274 C 
HETATM    3  C3  UNL     1     -32.760   6.541   1.940  1.00 20.00     0.292 C 
HETATM    4  C4  UNL     1     -32.681   8.021   1.600  1.00 20.00     0.112 C 
HETATM    5  N7  UNL     1     -33.362   6.495   3.281  1.00 20.00     0.092 N 
HETATM    6 CL9  UNL     1     -31.384   8.370   0.444  1.00 20.00    -0.123 Cl
ENDROOT
BRANCH   5   7
HETATM    7  C5  UNL     1     -34.821   6.599   3.227  1.00 20.00     0.303 C 
BRANCH   7   8
HETATM    8  C6  UNL     1     -35.476   5.775   4.315  1.00 20.00     0.252 C 
HETATM    9  F8  UNL     1     -34.876   4.555   4.367  1.00 20.00    -0.254 F 
ENDBRANCH   7   8
ENDBRANCH   5   7
TORSDOF 2
ENDMDL
