MODEL 1
REMARK VINA RESULT:      -0.9      0.000      0.000
REMARK  2 active torsions:
REMARK  status: ('A' for Active; 'I' for Inactive)
REMARK    1  A    between atoms: C3_3  and  C8_8 
REMARK    2  A    between atoms: C3_3  and  C9_9 
ROOT
HETATM    1  C1  UNL     1     -33.096   3.098   4.429  1.00 20.00     0.012 C 
HETATM    2  C2  UNL     1     -34.014   3.858   4.570  1.00 20.00    -0.110 C 
HETATM    3  C9  UNL     1     -35.141   4.781   4.747  1.00 20.00     0.172 C 
ENDROOT
BRANCH   3   4
HETATM    4  C3  UNL     1     -35.060   5.980   3.823  1.00 20.00     0.151 C 
HETATM    5  O10 UNL     1     -36.052   6.593   3.429  1.00 20.00    -0.296 OA
BRANCH   4   6
HETATM    6  C8  UNL     1     -33.687   6.393   3.401  1.00 20.00     0.117 C 
HETATM    7  C6  UNL     1     -33.531   7.907   3.515  1.00 20.00     0.023 C 
HETATM    8  C4  UNL     1     -32.147   8.393   3.094  1.00 20.00     0.002 C 
HETATM    9  C5  UNL     1     -31.810   8.044   1.646  1.00 20.00     0.010 C 
HETATM   10  C7  UNL     1     -31.825   6.546   1.374  1.00 20.00     0.075 C 
HETATM   11  S11 UNL     1     -33.457   5.816   1.693  1.00 20.00    -0.157 SA
ENDBRANCH   4   6
ENDBRANCH   3   4
TORSDOF 2
ENDMDL
MODEL 2
REMARK VINA RESULT:      -0.9      2.018      4.868
REMARK  2 active torsions:
REMARK  status: ('A' for Active; 'I' for Inactive)
REMARK    1  A    between atoms: C3_3  and  C8_8 
REMARK    2  A    between atoms: C3_3  and  C9_9 
ROOT
HETATM    1  C1  UNL     1     -32.644  10.641   0.044  1.00 20.00     0.012 C 
HETATM    2  C2  UNL     1     -32.336   9.536   0.398  1.00 20.00    -0.110 C 
HETATM    3  C9  UNL     1     -31.960   8.183   0.824  1.00 20.00     0.172 C 
ENDROOT
BRANCH   3   4
HETATM    4  C3  UNL     1     -32.279   7.923   2.283  1.00 20.00     0.151 C 
HETATM    5  O10 UNL     1     -31.693   8.482   3.209  1.00 20.00    -0.296 OA
BRANCH   4   6
HETATM    6  C8  UNL     1     -33.365   6.932   2.550  1.00 20.00     0.117 C 
HETATM    7  C6  UNL     1     -34.167   7.344   3.782  1.00 20.00     0.023 C 
HETATM    8  C4  UNL     1     -35.292   6.367   4.111  1.00 20.00     0.002 C 
HETATM    9  C5  UNL     1     -34.788   4.953   4.392  1.00 20.00     0.010 C 
HETATM   10  C7  UNL     1     -34.036   4.342   3.216  1.00 20.00     0.075 C 
HETATM   11  S11 UNL     1     -32.567   5.314   2.773  1.00 20.00    -0.157 SA
ENDBRANCH   4   6
ENDBRANCH   3   4
TORSDOF 2
ENDMDL
MODEL 3
REMARK VINA RESULT:      -0.5      1.985      4.768
REMARK  2 active torsions:
REMARK  status: ('A' for Active; 'I' for Inactive)
REMARK    1  A    between atoms: C3_3  and  C8_8 
REMARK    2  A    between atoms: C3_3  and  C9_9 
ROOT
HETATM    1  C1  UNL     1     -32.352   9.908  -0.079  1.00 20.00     0.012 C 
HETATM    2  C2  UNL     1     -32.332   9.228   0.909  1.00 20.00    -0.110 C 
HETATM    3  C9  UNL     1     -32.305   8.403   2.122  1.00 20.00     0.172 C 
ENDROOT
BRANCH   3   4
HETATM    4  C3  UNL     1     -32.318   6.918   1.815  1.00 20.00     0.151 C 
HETATM    5  O10 UNL     1     -31.456   6.366   1.133  1.00 20.00    -0.296 OA
BRANCH   4   6
HETATM    6  C8  UNL     1     -33.453   6.138   2.394  1.00 20.00     0.117 C 
HETATM    7  C6  UNL     1     -34.251   7.004   3.365  1.00 20.00     0.023 C 
HETATM    8  C4  UNL     1     -35.426   6.260   3.995  1.00 20.00     0.002 C 
HETATM    9  C5  UNL     1     -34.993   5.030   4.788  1.00 20.00     0.010 C 
HETATM   10  C7  UNL     1     -34.256   4.001   3.940  1.00 20.00     0.075 C 
HETATM   11  S11 UNL     1     -32.737   4.684   3.216  1.00 20.00    -0.157 SA
ENDBRANCH   4   6
ENDBRANCH   3   4
TORSDOF 2
ENDMDL
MODEL 4
REMARK VINA RESULT:      -0.5      1.311      1.927
REMARK  2 active torsions:
REMARK  status: ('A' for Active; 'I' for Inactive)
REMARK    1  A    between atoms: C3_3  and  C8_8 
REMARK    2  A    between atoms: C3_3  and  C9_9 
ROOT
HETATM    1  C1  UNL     1     -32.736   2.955   5.868  1.00 20.00     0.012 C 
HETATM    2  C2  UNL     1     -33.279   3.329   4.865  1.00 20.00    -0.110 C 
HETATM    3  C9  UNL     1     -33.939   3.779   3.635  1.00 20.00     0.172 C 
ENDROOT
BRANCH   3   4
HETATM    4  C3  UNL     1     -34.529   5.169   3.767  1.00 20.00     0.151 C 
HETATM    5  O10 UNL     1     -35.420   5.447   4.567  1.00 20.00    -0.296 OA
BRANCH   4   6
HETATM    6  C8  UNL     1     -33.963   6.212   2.857  1.00 20.00     0.117 C 
HETATM    7  C6  UNL     1     -32.818   5.630   2.032  1.00 20.00     0.023 C 
HETATM    8  C4  UNL     1     -32.194   6.649   1.083  1.00 20.00     0.002 C 
HETATM    9  C5  UNL     1     -31.613   7.859   1.810  1.00 20.00     0.010 C 
HETATM   10  C7  UNL     1     -32.652   8.625   2.618  1.00 20.00     0.075 C 
HETATM   11  S11 UNL     1     -33.408   7.589   3.905  1.00 20.00    -0.157 SA
ENDBRANCH   4   6
ENDBRANCH   3   4
TORSDOF 2
ENDMDL
MODEL 5
REMARK VINA RESULT:       0.2      1.976      4.936
REMARK  2 active torsions:
REMARK  status: ('A' for Active; 'I' for Inactive)
REMARK    1  A    between atoms: C3_3  and  C8_8 
REMARK    2  A    between atoms: C3_3  and  C9_9 
ROOT
HETATM    1  C1  UNL     1     -32.565   9.834  -0.156  1.00 20.00     0.012 C 
HETATM    2  C2  UNL     1     -32.199   9.129   0.744  1.00 20.00    -0.110 C 
HETATM    3  C9  UNL     1     -31.747   8.272   1.846  1.00 20.00     0.172 C 
ENDROOT
BRANCH   3   4
HETATM    4  C3  UNL     1     -32.304   6.866   1.756  1.00 20.00     0.151 C 
HETATM    5  O10 UNL     1     -32.217   6.172   0.743  1.00 20.00    -0.296 OA
BRANCH   4   6
HETATM    6  C8  UNL     1     -32.982   6.348   2.983  1.00 20.00     0.117 C 
HETATM    7  C6  UNL     1     -33.360   4.880   2.800  1.00 20.00     0.023 C 
HETATM    8  C4  UNL     1     -34.061   4.292   4.022  1.00 20.00     0.002 C 
HETATM    9  C5  UNL     1     -35.358   5.019   4.369  1.00 20.00     0.010 C 
HETATM   10  C7  UNL     1     -35.150   6.495   4.679  1.00 20.00     0.075 C 
HETATM   11  S11 UNL     1     -34.442   7.392   3.267  1.00 20.00    -0.157 SA
ENDBRANCH   4   6
ENDBRANCH   3   4
TORSDOF 2
ENDMDL
MODEL 6
REMARK VINA RESULT:       0.2      1.402      1.880
REMARK  2 active torsions:
REMARK  status: ('A' for Active; 'I' for Inactive)
REMARK    1  A    between atoms: C3_3  and  C8_8 
REMARK    2  A    between atoms: C3_3  and  C9_9 
ROOT
HETATM    1  C1  UNL     1     -33.424   3.269   4.757  1.00 20.00     0.012 C 
HETATM    2  C2  UNL     1     -34.201   4.141   4.484  1.00 20.00    -0.110 C 
HETATM    3  C9  UNL     1     -35.158   5.202   4.148  1.00 20.00     0.172 C 
ENDROOT
BRANCH   3   4
HETATM    4  C3  UNL     1     -34.503   6.566   4.054  1.00 20.00     0.151 C 
HETATM    5  O10 UNL     1     -34.512   7.380   4.975  1.00 20.00    -0.296 OA
BRANCH   4   6
HETATM    6  C8  UNL     1     -33.830   6.883   2.757  1.00 20.00     0.117 C 
HETATM    7  C6  UNL     1     -33.056   5.669   2.251  1.00 20.00     0.023 C 
HETATM    8  C4  UNL     1     -32.341   5.930   0.928  1.00 20.00     0.002 C 
HETATM    9  C5  UNL     1     -31.326   7.067   1.017  1.00 20.00     0.010 C 
HETATM   10  C7  UNL     1     -31.951   8.396   1.422  1.00 20.00     0.075 C 
HETATM   11  S11 UNL     1     -32.738   8.304   3.057  1.00 20.00    -0.157 SA
ENDBRANCH   4   6
ENDBRANCH   3   4
TORSDOF 2
ENDMDL
MODEL 7
REMARK VINA RESULT:       1.4      1.809      2.366
REMARK  2 active torsions:
REMARK  status: ('A' for Active; 'I' for Inactive)
REMARK    1  A    between atoms: C3_3  and  C8_8 
REMARK    2  A    between atoms: C3_3  and  C9_9 
ROOT
HETATM    1  C1  UNL     1     -34.210   4.262   4.443  1.00 20.00     0.012 C 
HETATM    2  C2  UNL     1     -34.271   5.298   3.840  1.00 20.00    -0.110 C 
HETATM    3  C9  UNL     1     -34.349   6.561   3.097  1.00 20.00     0.172 C 
ENDROOT
BRANCH   3   4
HETATM    4  C3  UNL     1     -33.430   7.625   3.661  1.00 20.00     0.151 C 
HETATM    5  O10 UNL     1     -33.329   7.856   4.865  1.00 20.00    -0.296 OA
BRANCH   4   6
HETATM    6  C8  UNL     1     -32.633   8.401   2.663  1.00 20.00     0.117 C 
HETATM    7  C6  UNL     1     -33.484   9.512   2.054  1.00 20.00     0.023 C 
HETATM    8  C4  UNL     1     -32.727  10.341   1.021  1.00 20.00     0.002 C 
HETATM    9  C5  UNL     1     -32.222   9.508  -0.154  1.00 20.00     0.010 C 
HETATM   10  C7  UNL     1     -31.269   8.396   0.267  1.00 20.00     0.075 C 
HETATM   11  S11 UNL     1     -32.060   7.221   1.405  1.00 20.00    -0.157 SA
ENDBRANCH   4   6
ENDBRANCH   3   4
TORSDOF 2
ENDMDL
MODEL 8
REMARK VINA RESULT:       1.7      2.153      2.981
REMARK  2 active torsions:
REMARK  status: ('A' for Active; 'I' for Inactive)
REMARK    1  A    between atoms: C3_3  and  C8_8 
REMARK    2  A    between atoms: C3_3  and  C9_9 
ROOT
HETATM    1  C1  UNL     1     -35.511   5.386   4.428  1.00 20.00     0.012 C 
HETATM    2  C2  UNL     1     -34.810   6.306   4.110  1.00 20.00    -0.110 C 
HETATM    3  C9  UNL     1     -33.958   7.437   3.725  1.00 20.00     0.172 C 
ENDROOT
BRANCH   3   4
HETATM    4  C3  UNL     1     -33.038   7.104   2.567  1.00 20.00     0.151 C 
HETATM    5  O10 UNL     1     -32.846   5.955   2.170  1.00 20.00    -0.296 OA
BRANCH   4   6
HETATM    6  C8  UNL     1     -32.358   8.263   1.914  1.00 20.00     0.117 C 
HETATM    7  C6  UNL     1     -33.364   9.375   1.628  1.00 20.00     0.023 C 
HETATM    8  C4  UNL     1     -32.731  10.590   0.956  1.00 20.00     0.002 C 
HETATM    9  C5  UNL     1     -32.083  10.256  -0.385  1.00 20.00     0.010 C 
HETATM   10  C7  UNL     1     -30.974   9.218  -0.271  1.00 20.00     0.075 C 
HETATM   11  S11 UNL     1     -31.587   7.641   0.390  1.00 20.00    -0.157 SA
ENDBRANCH   4   6
ENDBRANCH   3   4
TORSDOF 2
ENDMDL
