MODEL 1
REMARK VINA RESULT:       0.6      0.000      0.000
REMARK  2 active torsions:
REMARK  status: ('A' for Active; 'I' for Inactive)
REMARK    1  A    between atoms: C1_1  and  C5_5 
REMARK    2  A    between atoms: C1_1  and  C11_11 
ROOT
HETATM    1  C2  UNL     1     -31.738   5.756   1.519  1.00 20.00     0.013 C 
HETATM    2  C3  UNL     1     -31.195   7.058   0.937  1.00 20.00     0.009 C 
HETATM    3  C4  UNL     1     -33.491   7.475   1.453  1.00 20.00     0.021 C 
HETATM    4  C5  UNL     1     -33.242   5.982   1.702  1.00 20.00     0.056 C 
HETATM    5  C6  UNL     1     -32.108   8.149   1.509  1.00 20.00    -0.047 C 
HETATM    6  C7  UNL     1     -32.066   9.418   0.654  1.00 20.00     0.015 C 
HETATM    7  C8  UNL     1     -31.719   8.505   2.953  1.00 20.00     0.015 C 
ENDROOT
BRANCH   4   8
HETATM    8  C1  UNL     1     -33.693   5.566   3.071  1.00 20.00     0.134 C 
HETATM    9  O12 UNL     1     -33.227   4.562   3.609  1.00 20.00    -0.297 OA
BRANCH   8  10
HETATM   10  C11 UNL     1     -34.768   6.423   3.732  1.00 20.00     0.047 C 
HETATM   11  C9  UNL     1     -35.706   5.543   4.549  1.00 20.00     0.017 C 
HETATM   12  C10 UNL     1     -34.143   7.508   4.605  1.00 20.00     0.017 C 
ENDBRANCH   8  10
ENDBRANCH   4   8
TORSDOF 2
ENDMDL
MODEL 2
REMARK VINA RESULT:       1.0      1.613      4.415
REMARK  2 active torsions:
REMARK  status: ('A' for Active; 'I' for Inactive)
REMARK    1  A    between atoms: C1_1  and  C5_5 
REMARK    2  A    between atoms: C1_1  and  C11_11 
ROOT
HETATM    1  C2  UNL     1     -32.545   8.293   4.056  1.00 20.00     0.013 C 
HETATM    2  C3  UNL     1     -33.530   7.400   4.805  1.00 20.00     0.009 C 
HETATM    3  C4  UNL     1     -34.389   7.610   2.585  1.00 20.00     0.021 C 
HETATM    4  C5  UNL     1     -33.180   8.548   2.686  1.00 20.00     0.056 C 
HETATM    5  C6  UNL     1     -34.215   6.574   3.710  1.00 20.00    -0.047 C 
HETATM    6  C7  UNL     1     -35.563   6.025   4.182  1.00 20.00     0.015 C 
HETATM    7  C8  UNL     1     -33.329   5.401   3.256  1.00 20.00     0.015 C 
ENDROOT
BRANCH   4   8
HETATM    8  C1  UNL     1     -32.198   8.309   1.577  1.00 20.00     0.134 C 
HETATM    9  O12 UNL     1     -31.577   7.250   1.503  1.00 20.00    -0.297 OA
BRANCH   8  10
HETATM   10  C11 UNL     1     -31.992   9.449   0.583  1.00 20.00     0.047 C 
HETATM   11  C9  UNL     1     -32.377   8.991  -0.818  1.00 20.00     0.017 C 
HETATM   12  C10 UNL     1     -32.792  10.683   0.991  1.00 20.00     0.017 C 
ENDBRANCH   8  10
ENDBRANCH   4   8
TORSDOF 2
ENDMDL
MODEL 3
REMARK VINA RESULT:       1.2      1.504      1.997
REMARK  2 active torsions:
REMARK  status: ('A' for Active; 'I' for Inactive)
REMARK    1  A    between atoms: C1_1  and  C5_5 
REMARK    2  A    between atoms: C1_1  and  C11_11 
ROOT
HETATM    1  C2  UNL     1     -31.121   7.934   2.015  1.00 20.00     0.013 C 
HETATM    2  C3  UNL     1     -31.025   8.924   0.858  1.00 20.00     0.009 C 
HETATM    3  C4  UNL     1     -33.180   7.906   0.676  1.00 20.00     0.021 C 
HETATM    4  C5  UNL     1     -32.436   7.177   1.802  1.00 20.00     0.056 C 
HETATM    5  C6  UNL     1     -32.481   9.269   0.521  1.00 20.00    -0.047 C 
HETATM    6  C7  UNL     1     -32.613   9.809  -0.906  1.00 20.00     0.015 C 
HETATM    7  C8  UNL     1     -33.053  10.305   1.503  1.00 20.00     0.015 C 
ENDROOT
BRANCH   4   8
HETATM    8  C1  UNL     1     -33.247   7.129   3.063  1.00 20.00     0.134 C 
HETATM    9  O12 UNL     1     -33.038   7.927   3.977  1.00 20.00    -0.297 OA
BRANCH   8  10
HETATM   10  C11 UNL     1     -34.305   6.033   3.160  1.00 20.00     0.047 C 
HETATM   11  C9  UNL     1     -33.658   4.724   3.594  1.00 20.00     0.017 C 
HETATM   12  C10 UNL     1     -35.420   6.434   4.121  1.00 20.00     0.017 C 
ENDBRANCH   8  10
ENDBRANCH   4   8
TORSDOF 2
ENDMDL
MODEL 4
REMARK VINA RESULT:       1.4      1.119      1.511
REMARK  2 active torsions:
REMARK  status: ('A' for Active; 'I' for Inactive)
REMARK    1  A    between atoms: C1_1  and  C5_5 
REMARK    2  A    between atoms: C1_1  and  C11_11 
ROOT
HETATM    1  C2  UNL     1     -32.024   5.831   1.850  1.00 20.00     0.013 C 
HETATM    2  C3  UNL     1     -31.310   6.943   1.088  1.00 20.00     0.009 C 
HETATM    3  C4  UNL     1     -33.502   7.771   1.558  1.00 20.00     0.021 C 
HETATM    4  C5  UNL     1     -33.471   6.306   2.011  1.00 20.00     0.056 C 
HETATM    5  C6  UNL     1     -32.033   8.228   1.508  1.00 20.00    -0.047 C 
HETATM    6  C7  UNL     1     -31.826   9.348   0.484  1.00 20.00     0.015 C 
HETATM    7  C8  UNL     1     -31.553   8.716   2.886  1.00 20.00     0.015 C 
ENDROOT
BRANCH   4   8
HETATM    8  C1  UNL     1     -33.940   6.154   3.428  1.00 20.00     0.134 C 
HETATM    9  O12 UNL     1     -33.791   7.065   4.242  1.00 20.00    -0.297 OA
BRANCH   8  10
HETATM   10  C11 UNL     1     -34.571   4.816   3.805  1.00 20.00     0.047 C 
HETATM   11  C9  UNL     1     -33.491   3.844   4.263  1.00 20.00     0.017 C 
HETATM   12  C10 UNL     1     -35.633   4.998   4.886  1.00 20.00     0.017 C 
ENDBRANCH   8  10
ENDBRANCH   4   8
TORSDOF 2
ENDMDL
MODEL 5
REMARK VINA RESULT:       2.1      1.662      4.317
REMARK  2 active torsions:
REMARK  status: ('A' for Active; 'I' for Inactive)
REMARK    1  A    between atoms: C1_1  and  C5_5 
REMARK    2  A    between atoms: C1_1  and  C11_11 
ROOT
HETATM    1  C2  UNL     1     -33.248   6.262   0.789  1.00 20.00     0.013 C 
HETATM    2  C3  UNL     1     -33.995   5.179   1.560  1.00 20.00     0.009 C 
HETATM    3  C4  UNL     1     -32.335   6.026   3.056  1.00 20.00     0.021 C 
HETATM    4  C5  UNL     1     -32.091   6.691   1.696  1.00 20.00     0.056 C 
HETATM    5  C6  UNL     1     -33.798   5.547   3.036  1.00 20.00    -0.047 C 
HETATM    6  C7  UNL     1     -34.005   4.336   3.948  1.00 20.00     0.015 C 
HETATM    7  C8  UNL     1     -34.758   6.669   3.466  1.00 20.00     0.015 C 
ENDROOT
BRANCH   4   8
HETATM    8  C1  UNL     1     -32.015   8.184   1.814  1.00 20.00     0.134 C 
HETATM    9  O12 UNL     1     -31.741   8.718   2.888  1.00 20.00    -0.297 OA
BRANCH   8  10
HETATM   10  C11 UNL     1     -32.325   8.991   0.556  1.00 20.00     0.047 C 
HETATM   11  C9  UNL     1     -32.747  10.405   0.936  1.00 20.00     0.017 C 
HETATM   12  C10 UNL     1     -31.124   9.018  -0.386  1.00 20.00     0.017 C 
ENDBRANCH   8  10
ENDBRANCH   4   8
TORSDOF 2
ENDMDL
MODEL 6
REMARK VINA RESULT:       2.3      1.863      4.506
REMARK  2 active torsions:
REMARK  status: ('A' for Active; 'I' for Inactive)
REMARK    1  A    between atoms: C1_1  and  C5_5 
REMARK    2  A    between atoms: C1_1  and  C11_11 
ROOT
HETATM    1  C2  UNL     1     -35.062   6.029   4.170  1.00 20.00     0.013 C 
HETATM    2  C3  UNL     1     -35.068   4.568   4.609  1.00 20.00     0.009 C 
HETATM    3  C4  UNL     1     -33.342   4.754   2.966  1.00 20.00     0.021 C 
HETATM    4  C5  UNL     1     -34.064   6.107   3.011  1.00 20.00     0.056 C 
HETATM    5  C6  UNL     1     -33.650   4.067   4.308  1.00 20.00    -0.047 C 
HETATM    6  C7  UNL     1     -33.610   2.541   4.181  1.00 20.00     0.015 C 
HETATM    7  C8  UNL     1     -32.658   4.504   5.399  1.00 20.00     0.015 C 
ENDROOT
BRANCH   4   8
HETATM    8  C1  UNL     1     -33.102   7.242   3.195  1.00 20.00     0.134 C 
HETATM    9  O12 UNL     1     -33.151   7.953   4.199  1.00 20.00    -0.297 OA
BRANCH   8  10
HETATM   10  C11 UNL     1     -32.097   7.484   2.072  1.00 20.00     0.047 C 
HETATM   11  C9  UNL     1     -32.087   6.294   1.120  1.00 20.00     0.017 C 
HETATM   12  C10 UNL     1     -32.413   8.776   1.324  1.00 20.00     0.017 C 
ENDBRANCH   8  10
ENDBRANCH   4   8
TORSDOF 2
ENDMDL
MODEL 7
REMARK VINA RESULT:       2.4      1.597      2.741
REMARK  2 active torsions:
REMARK  status: ('A' for Active; 'I' for Inactive)
REMARK    1  A    between atoms: C1_1  and  C5_5 
REMARK    2  A    between atoms: C1_1  and  C11_11 
ROOT
HETATM    1  C2  UNL     1     -32.358   7.972   2.208  1.00 20.00     0.013 C 
HETATM    2  C3  UNL     1     -31.777   7.131   1.075  1.00 20.00     0.009 C 
HETATM    3  C4  UNL     1     -32.623   5.576   2.681  1.00 20.00     0.021 C 
HETATM    4  C5  UNL     1     -32.757   6.974   3.299  1.00 20.00     0.056 C 
HETATM    5  C6  UNL     1     -32.525   5.795   1.161  1.00 20.00    -0.047 C 
HETATM    6  C7  UNL     1     -31.741   4.669   0.481  1.00 20.00     0.015 C 
HETATM    7  C8  UNL     1     -33.919   5.891   0.519  1.00 20.00     0.015 C 
ENDROOT
BRANCH   4   8
HETATM    8  C1  UNL     1     -34.151   7.232   3.791  1.00 20.00     0.134 C 
HETATM    9  O12 UNL     1     -34.415   8.250   4.430  1.00 20.00    -0.297 OA
BRANCH   8  10
HETATM   10  C11 UNL     1     -35.197   6.163   3.487  1.00 20.00     0.047 C 
HETATM   11  C9  UNL     1     -35.403   5.276   4.709  1.00 20.00     0.017 C 
HETATM   12  C10 UNL     1     -36.514   6.796   3.047  1.00 20.00     0.017 C 
ENDBRANCH   8  10
ENDBRANCH   4   8
TORSDOF 2
ENDMDL
MODEL 8
REMARK VINA RESULT:       2.4      1.889      4.499
REMARK  2 active torsions:
REMARK  status: ('A' for Active; 'I' for Inactive)
REMARK    1  A    between atoms: C1_1  and  C5_5 
REMARK    2  A    between atoms: C1_1  and  C11_11 
ROOT
HETATM    1  C2  UNL     1     -32.710   6.341   1.446  1.00 20.00     0.013 C 
HETATM    2  C3  UNL     1     -33.501   5.400   2.350  1.00 20.00     0.009 C 
HETATM    3  C4  UNL     1     -33.185   7.408   3.607  1.00 20.00     0.021 C 
HETATM    4  C5  UNL     1     -32.379   7.561   2.311  1.00 20.00     0.056 C 
HETATM    5  C6  UNL     1     -34.242   6.326   3.321  1.00 20.00    -0.047 C 
HETATM    6  C7  UNL     1     -34.651   5.588   4.599  1.00 20.00     0.015 C 
HETATM    7  C8  UNL     1     -35.497   6.932   2.670  1.00 20.00     0.015 C 
ENDROOT
BRANCH   4   8
HETATM    8  C1  UNL     1     -32.710   8.839   1.600  1.00 20.00     0.134 C 
HETATM    9  O12 UNL     1     -33.324   9.738   2.173  1.00 20.00    -0.297 OA
BRANCH   8  10
HETATM   10  C11 UNL     1     -32.280   8.946   0.139  1.00 20.00     0.047 C 
HETATM   11  C9  UNL     1     -32.783  10.255  -0.456  1.00 20.00     0.017 C 
HETATM   12  C10 UNL     1     -30.763   8.836   0.006  1.00 20.00     0.017 C 
ENDBRANCH   8  10
ENDBRANCH   4   8
TORSDOF 2
ENDMDL
MODEL 9
REMARK VINA RESULT:       2.5      2.165      3.192
REMARK  2 active torsions:
REMARK  status: ('A' for Active; 'I' for Inactive)
REMARK    1  A    between atoms: C1_1  and  C5_5 
REMARK    2  A    between atoms: C1_1  and  C11_11 
ROOT
HETATM    1  C2  UNL     1     -32.946   5.521   2.778  1.00 20.00     0.013 C 
HETATM    2  C3  UNL     1     -32.959   7.035   2.584  1.00 20.00     0.009 C 
HETATM    3  C4  UNL     1     -35.062   6.481   3.576  1.00 20.00     0.021 C 
HETATM    4  C5  UNL     1     -34.350   5.156   3.268  1.00 20.00     0.056 C 
HETATM    5  C6  UNL     1     -33.957   7.551   3.628  1.00 20.00    -0.047 C 
HETATM    6  C7  UNL     1     -34.496   8.934   3.252  1.00 20.00     0.015 C 
HETATM    7  C8  UNL     1     -33.318   7.626   5.025  1.00 20.00     0.015 C 
ENDROOT
BRANCH   4   8
HETATM    8  C1  UNL     1     -34.293   4.265   4.473  1.00 20.00     0.134 C 
HETATM    9  O12 UNL     1     -35.199   4.271   5.305  1.00 20.00    -0.297 OA
BRANCH   8  10
HETATM   10  C11 UNL     1     -33.052   3.389   4.623  1.00 20.00     0.047 C 
HETATM   11  C9  UNL     1     -32.470   3.548   6.021  1.00 20.00     0.017 C 
HETATM   12  C10 UNL     1     -33.377   1.926   4.332  1.00 20.00     0.017 C 
ENDBRANCH   8  10
ENDBRANCH   4   8
TORSDOF 2
ENDMDL
