MODEL 1
REMARK VINA RESULT:      -1.0      0.000      0.000
REMARK  4 active torsions:
REMARK  status: ('A' for Active; 'I' for Inactive)
REMARK    1  A    between atoms: C5_5  and  C6_6 
REMARK    2  A    between atoms: C6_6  and  C9_9 
REMARK    3  A    between atoms: C7_7  and  C8_8 
REMARK    4  A    between atoms: C7_7  and  N10_10 
ROOT
HETATM    1  C1  UNL     1     -35.300   6.472   3.852  1.00 20.00     0.028 C 
HETATM    2  C2  UNL     1     -34.129   7.153   3.151  1.00 20.00     0.008 C 
HETATM    3  C3  UNL     1     -34.852   5.252   4.641  1.00 20.00     0.235 C 
HETATM    4  C4  UNL     1     -32.915   4.942   3.077  1.00 20.00     0.239 C 
HETATM    5  C5  UNL     1     -33.356   6.164   2.270  1.00 20.00     0.012 C 
HETATM    6  N10 UNL     1     -34.122   4.301   3.723  1.00 20.00    -0.069 N 
HETATM    7  H30 UNL     1     -34.774   4.046   2.968  1.00 20.00     0.280 HD
ENDROOT
BRANCH   6   8
HETATM    8  C7  UNL     1     -33.762   3.020   4.424  1.00 20.00     0.266 C 
BRANCH   8   9
HETATM    9  C8  UNL     1     -32.336   3.112   4.918  1.00 20.00     0.249 C 
HETATM   10  F11 UNL     1     -32.332   3.088   6.277  1.00 20.00    -0.254 F 
ENDBRANCH   8   9
ENDBRANCH   6   8
BRANCH   5  11
HETATM   11  C6  UNL     1     -32.148   6.844   1.631  1.00 20.00     0.021 C 
BRANCH  11  12
HETATM   12  C9  UNL     1     -32.036   8.322   1.978  1.00 20.00     0.115 C 
HETATM   13 CL12 UNL     1     -32.346   9.366   0.571  1.00 20.00    -0.130 Cl
ENDBRANCH  11  12
ENDBRANCH   5  11
TORSDOF 4
ENDMDL
MODEL 2
REMARK VINA RESULT:      -0.8      2.220      3.232
REMARK  4 active torsions:
REMARK  status: ('A' for Active; 'I' for Inactive)
REMARK    1  A    between atoms: C5_5  and  C6_6 
REMARK    2  A    between atoms: C6_6  and  C9_9 
REMARK    3  A    between atoms: C7_7  and  C8_8 
REMARK    4  A    between atoms: C7_7  and  N10_10 
ROOT
HETATM    1  C1  UNL     1     -32.350   5.339   1.678  1.00 20.00     0.028 C 
HETATM    2  C2  UNL     1     -31.930   6.530   0.822  1.00 20.00     0.008 C 
HETATM    3  C3  UNL     1     -33.587   5.649   2.506  1.00 20.00     0.235 C 
HETATM    4  C4  UNL     1     -32.987   8.085   2.506  1.00 20.00     0.239 C 
HETATM    5  C5  UNL     1     -31.736   7.788   1.677  1.00 20.00     0.012 C 
HETATM    6  N10 UNL     1     -33.333   6.878   3.346  1.00 20.00    -0.069 N 
HETATM    7  H30 UNL     1     -32.518   6.677   3.943  1.00 20.00     0.280 HD
ENDROOT
BRANCH   6   8
HETATM    8  C7  UNL     1     -34.481   7.161   4.277  1.00 20.00     0.266 C 
BRANCH   8   9
HETATM    9  C8  UNL     1     -35.626   6.232   3.945  1.00 20.00     0.249 C 
HETATM   10  F11 UNL     1     -35.586   5.158   4.777  1.00 20.00    -0.254 F 
ENDBRANCH   8   9
ENDBRANCH   6   8
BRANCH   5  11
HETATM   11  C6  UNL     1     -31.383   8.985   0.797  1.00 20.00     0.021 C 
BRANCH  11  12
HETATM   12  C9  UNL     1     -32.477  10.042   0.752  1.00 20.00     0.115 C 
HETATM   13 CL12 UNL     1     -33.057  10.336  -0.904  1.00 20.00    -0.130 Cl
ENDBRANCH  11  12
ENDBRANCH   5  11
TORSDOF 4
ENDMDL
MODEL 3
REMARK VINA RESULT:      -0.7      1.184      1.330
REMARK  4 active torsions:
REMARK  status: ('A' for Active; 'I' for Inactive)
REMARK    1  A    between atoms: C5_5  and  C6_6 
REMARK    2  A    between atoms: C6_6  and  C9_9 
REMARK    3  A    between atoms: C7_7  and  C8_8 
REMARK    4  A    between atoms: C7_7  and  N10_10 
ROOT
HETATM    1  C1  UNL     1     -34.717   7.376   3.970  1.00 20.00     0.028 C 
HETATM    2  C2  UNL     1     -33.504   8.101   3.397  1.00 20.00     0.008 C 
HETATM    3  C3  UNL     1     -34.419   5.911   4.249  1.00 20.00     0.235 C 
HETATM    4  C4  UNL     1     -32.675   5.915   2.445  1.00 20.00     0.239 C 
HETATM    5  C5  UNL     1     -32.968   7.387   2.149  1.00 20.00     0.012 C 
HETATM    6  N10 UNL     1     -33.921   5.252   2.985  1.00 20.00    -0.069 N 
HETATM    7  H30 UNL     1     -34.658   5.360   2.274  1.00 20.00     0.280 HD
ENDROOT
BRANCH   6   8
HETATM    8  C7  UNL     1     -33.725   3.772   3.171  1.00 20.00     0.266 C 
BRANCH   8   9
HETATM    9  C8  UNL     1     -33.587   3.475   4.647  1.00 20.00     0.249 C 
HETATM   10  F11 UNL     1     -33.093   2.218   4.805  1.00 20.00    -0.254 F 
ENDBRANCH   8   9
ENDBRANCH   6   8
BRANCH   5  11
HETATM   11  C6  UNL     1     -31.714   8.085   1.629  1.00 20.00     0.021 C 
BRANCH  11  12
HETATM   12  C9  UNL     1     -31.938   8.827   0.319  1.00 20.00     0.115 C 
HETATM   13 CL12 UNL     1     -32.685  10.421   0.571  1.00 20.00    -0.130 Cl
ENDBRANCH  11  12
ENDBRANCH   5  11
TORSDOF 4
ENDMDL
MODEL 4
REMARK VINA RESULT:      -0.7      3.974      5.441
REMARK  4 active torsions:
REMARK  status: ('A' for Active; 'I' for Inactive)
REMARK    1  A    between atoms: C5_5  and  C6_6 
REMARK    2  A    between atoms: C6_6  and  C9_9 
REMARK    3  A    between atoms: C7_7  and  C8_8 
REMARK    4  A    between atoms: C7_7  and  N10_10 
ROOT
HETATM    1  C1  UNL     1     -33.828   8.214   3.998  1.00 20.00     0.028 C 
HETATM    2  C2  UNL     1     -34.327   6.775   3.899  1.00 20.00     0.008 C 
HETATM    3  C3  UNL     1     -33.381   8.749   2.647  1.00 20.00     0.235 C 
HETATM    4  C4  UNL     1     -32.834   6.419   1.895  1.00 20.00     0.239 C 
HETATM    5  C5  UNL     1     -33.275   5.866   3.251  1.00 20.00     0.012 C 
HETATM    6  N10 UNL     1     -32.330   7.833   2.068  1.00 20.00    -0.069 N 
HETATM    7  H30 UNL     1     -31.550   7.800   2.739  1.00 20.00     0.280 HD
ENDROOT
BRANCH   6   8
HETATM    8  C7  UNL     1     -31.763   8.381   0.786  1.00 20.00     0.266 C 
BRANCH   8   9
HETATM    9  C8  UNL     1     -32.399   9.722   0.498  1.00 20.00     0.249 C 
HETATM   10  F11 UNL     1     -32.966   9.691  -0.737  1.00 20.00    -0.254 F 
ENDBRANCH   8   9
ENDBRANCH   6   8
BRANCH   5  11
HETATM   11  C6  UNL     1     -33.816   4.446   3.096  1.00 20.00     0.021 C 
BRANCH  11  12
HETATM   12  C9  UNL     1     -34.142   3.778   4.424  1.00 20.00     0.115 C 
HETATM   13 CL12 UNL     1     -32.818   2.738   4.995  1.00 20.00    -0.130 Cl
ENDBRANCH  11  12
ENDBRANCH   5  11
TORSDOF 4
ENDMDL
MODEL 5
REMARK VINA RESULT:      -0.6      3.961      5.681
REMARK  4 active torsions:
REMARK  status: ('A' for Active; 'I' for Inactive)
REMARK    1  A    between atoms: C5_5  and  C6_6 
REMARK    2  A    between atoms: C6_6  and  C9_9 
REMARK    3  A    between atoms: C7_7  and  C8_8 
REMARK    4  A    between atoms: C7_7  and  N10_10 
ROOT
HETATM    1  C1  UNL     1     -32.416   5.596   1.185  1.00 20.00     0.028 C 
HETATM    2  C2  UNL     1     -33.130   5.475   2.527  1.00 20.00     0.008 C 
HETATM    3  C3  UNL     1     -31.597   6.875   1.097  1.00 20.00     0.235 C 
HETATM    4  C4  UNL     1     -33.150   7.991   2.721  1.00 20.00     0.239 C 
HETATM    5  C5  UNL     1     -33.987   6.714   2.816  1.00 20.00     0.012 C 
HETATM    6  N10 UNL     1     -32.491   8.062   1.363  1.00 20.00    -0.069 N 
HETATM    7  H30 UNL     1     -33.242   8.043   0.657  1.00 20.00     0.280 HD
ENDROOT
BRANCH   6   8
HETATM    8  C7  UNL     1     -31.760   9.362   1.168  1.00 20.00     0.266 C 
BRANCH   8   9
HETATM    9  C8  UNL     1     -32.593  10.271   0.293  1.00 20.00     0.249 C 
HETATM   10  F11 UNL     1     -33.000   9.582  -0.806  1.00 20.00    -0.254 F 
ENDBRANCH   8   9
ENDBRANCH   6   8
BRANCH   5  11
HETATM   11  C6  UNL     1     -34.640   6.606   4.192  1.00 20.00     0.021 C 
BRANCH  11  12
HETATM   12  C9  UNL     1     -35.329   5.270   4.429  1.00 20.00     0.115 C 
HETATM   13 CL12 UNL     1     -34.164   3.934   4.578  1.00 20.00    -0.130 Cl
ENDBRANCH  11  12
ENDBRANCH   5  11
TORSDOF 4
ENDMDL
MODEL 6
REMARK VINA RESULT:       0.4      1.653      2.276
REMARK  4 active torsions:
REMARK  status: ('A' for Active; 'I' for Inactive)
REMARK    1  A    between atoms: C5_5  and  C6_6 
REMARK    2  A    between atoms: C6_6  and  C9_9 
REMARK    3  A    between atoms: C7_7  and  C8_8 
REMARK    4  A    between atoms: C7_7  and  N10_10 
ROOT
HETATM    1  C1  UNL     1     -33.005   8.666   4.661  1.00 20.00     0.028 C 
HETATM    2  C2  UNL     1     -32.022   8.567   3.499  1.00 20.00     0.008 C 
HETATM    3  C3  UNL     1     -33.651   7.324   4.967  1.00 20.00     0.235 C 
HETATM    4  C4  UNL     1     -33.336   6.618   2.580  1.00 20.00     0.239 C 
HETATM    5  C5  UNL     1     -32.688   7.965   2.255  1.00 20.00     0.012 C 
HETATM    6  N10 UNL     1     -34.313   6.790   3.720  1.00 20.00    -0.069 N 
HETATM    7  H30 UNL     1     -35.010   7.487   3.422  1.00 20.00     0.280 HD
ENDROOT
BRANCH   6   8
HETATM    8  C7  UNL     1     -35.074   5.521   3.995  1.00 20.00     0.266 C 
BRANCH   8   9
HETATM    9  C8  UNL     1     -34.158   4.339   3.769  1.00 20.00     0.249 C 
HETATM   10  F11 UNL     1     -34.062   3.623   4.921  1.00 20.00    -0.254 F 
ENDBRANCH   8   9
ENDBRANCH   6   8
BRANCH   5  11
HETATM   11  C6  UNL     1     -31.674   7.810   1.124  1.00 20.00     0.021 C 
BRANCH  11  12
HETATM   12  C9  UNL     1     -31.754   8.921   0.087  1.00 20.00     0.115 C 
HETATM   13 CL12 UNL     1     -32.755  10.283   0.640  1.00 20.00    -0.130 Cl
ENDBRANCH  11  12
ENDBRANCH   5  11
TORSDOF 4
ENDMDL
MODEL 7
REMARK VINA RESULT:       0.5      3.310      4.518
REMARK  4 active torsions:
REMARK  status: ('A' for Active; 'I' for Inactive)
REMARK    1  A    between atoms: C5_5  and  C6_6 
REMARK    2  A    between atoms: C6_6  and  C9_9 
REMARK    3  A    between atoms: C7_7  and  C8_8 
REMARK    4  A    between atoms: C7_7  and  N10_10 
ROOT
HETATM    1  C1  UNL     1     -32.238   8.422   3.150  1.00 20.00     0.028 C 
HETATM    2  C2  UNL     1     -33.636   8.052   3.634  1.00 20.00     0.008 C 
HETATM    3  C3  UNL     1     -31.957   7.867   1.763  1.00 20.00     0.235 C 
HETATM    4  C4  UNL     1     -33.573   5.993   2.177  1.00 20.00     0.239 C 
HETATM    5  C5  UNL     1     -33.862   6.537   3.578  1.00 20.00     0.012 C 
HETATM    6  N10 UNL     1     -32.168   6.372   1.769  1.00 20.00    -0.069 N 
HETATM    7  H30 UNL     1     -31.528   5.976   2.472  1.00 20.00     0.280 HD
ENDROOT
BRANCH   6   8
HETATM    8  C7  UNL     1     -31.787   5.752   0.453  1.00 20.00     0.266 C 
BRANCH   8   9
HETATM    9  C8  UNL     1     -31.508   4.280   0.662  1.00 20.00     0.249 C 
HETATM   10  F11 UNL     1     -30.964   3.763  -0.471  1.00 20.00    -0.254 F 
ENDBRANCH   8   9
ENDBRANCH   6   8
BRANCH   5  11
HETATM   11  C6  UNL     1     -35.288   6.190   4.000  1.00 20.00     0.021 C 
BRANCH  11  12
HETATM   12  C9  UNL     1     -35.397   4.845   4.704  1.00 20.00     0.115 C 
HETATM   13 CL12 UNL     1     -33.975   3.818   4.411  1.00 20.00    -0.130 Cl
ENDBRANCH  11  12
ENDBRANCH   5  11
TORSDOF 4
ENDMDL
MODEL 8
REMARK VINA RESULT:       0.8      3.765      5.403
REMARK  4 active torsions:
REMARK  status: ('A' for Active; 'I' for Inactive)
REMARK    1  A    between atoms: C5_5  and  C6_6 
REMARK    2  A    between atoms: C6_6  and  C9_9 
REMARK    3  A    between atoms: C7_7  and  C8_8 
REMARK    4  A    between atoms: C7_7  and  N10_10 
ROOT
HETATM    1  C1  UNL     1     -32.349   5.362   1.171  1.00 20.00     0.028 C 
HETATM    2  C2  UNL     1     -33.098   5.359   2.500  1.00 20.00     0.008 C 
HETATM    3  C3  UNL     1     -31.488   6.605   1.013  1.00 20.00     0.235 C 
HETATM    4  C4  UNL     1     -33.040   7.882   2.514  1.00 20.00     0.239 C 
HETATM    5  C5  UNL     1     -33.920   6.641   2.678  1.00 20.00     0.012 C 
HETATM    6  N10 UNL     1     -32.349   7.835   1.171  1.00 20.00    -0.069 N 
HETATM    7  H30 UNL     1     -33.083   7.789   0.450  1.00 20.00     0.280 HD
ENDROOT
BRANCH   6   8
HETATM    8  C7  UNL     1     -31.571   9.095   0.903  1.00 20.00     0.266 C 
BRANCH   8   9
HETATM    9  C8  UNL     1     -32.490  10.118   0.275  1.00 20.00     0.249 C 
HETATM   10  F11 UNL     1     -33.043   9.591  -0.849  1.00 20.00    -0.254 F 
ENDBRANCH   8   9
ENDBRANCH   6   8
BRANCH   5  11
HETATM   11  C6  UNL     1     -34.607   6.653   4.042  1.00 20.00     0.021 C 
BRANCH  11  12
HETATM   12  C9  UNL     1     -34.464   7.978   4.777  1.00 20.00     0.115 C 
HETATM   13 CL12 UNL     1     -32.858   8.162   5.518  1.00 20.00    -0.130 Cl
ENDBRANCH  11  12
ENDBRANCH   5  11
TORSDOF 4
ENDMDL
MODEL 9
REMARK VINA RESULT:       0.9      2.859      3.813
REMARK  4 active torsions:
REMARK  status: ('A' for Active; 'I' for Inactive)
REMARK    1  A    between atoms: C5_5  and  C6_6 
REMARK    2  A    between atoms: C6_6  and  C9_9 
REMARK    3  A    between atoms: C7_7  and  C8_8 
REMARK    4  A    between atoms: C7_7  and  N10_10 
ROOT
HETATM    1  C1  UNL     1     -31.940   8.207   1.854  1.00 20.00     0.028 C 
HETATM    2  C2  UNL     1     -31.627   6.880   1.171  1.00 20.00     0.008 C 
HETATM    3  C3  UNL     1     -32.590   8.001   3.214  1.00 20.00     0.235 C 
HETATM    4  C4  UNL     1     -33.520   5.802   2.445  1.00 20.00     0.239 C 
HETATM    5  C5  UNL     1     -32.877   5.997   1.071  1.00 20.00     0.012 C 
HETATM    6  N10 UNL     1     -33.827   7.150   3.055  1.00 20.00    -0.069 N 
HETATM    7  H30 UNL     1     -34.455   7.644   2.405  1.00 20.00     0.280 HD
ENDROOT
BRANCH   6   8
HETATM    8  C7  UNL     1     -34.578   7.015   4.351  1.00 20.00     0.266 C 
BRANCH   8   9
HETATM    9  C8  UNL     1     -35.675   5.989   4.181  1.00 20.00     0.249 C 
HETATM   10  F11 UNL     1     -35.358   4.874   4.890  1.00 20.00    -0.254 F 
ENDBRANCH   8   9
ENDBRANCH   6   8
BRANCH   5  11
HETATM   11  C6  UNL     1     -32.532   4.647   0.447  1.00 20.00     0.021 C 
BRANCH  11  12
HETATM   12  C9  UNL     1     -31.052   4.305   0.532  1.00 20.00     0.115 C 
HETATM   13 CL12 UNL     1     -30.539   3.218  -0.780  1.00 20.00    -0.130 Cl
ENDBRANCH  11  12
ENDBRANCH   5  11
TORSDOF 4
ENDMDL
