MODEL 1
REMARK VINA RESULT:      -0.8      0.000      0.000
REMARK  0 active torsions:
REMARK  status: ('A' for Active; 'I' for Inactive)
ROOT
HETATM    1  C1  UNL     1     -34.059   4.408   4.110  1.00 20.00     0.088 C 
HETATM    2  C2  UNL     1     -33.492   6.404   2.887  1.00 20.00    -0.069 C 
HETATM    3  C3  UNL     1     -34.212   5.790   3.833  1.00 20.00     0.096 C 
HETATM    4  C4  UNL     1     -32.461   5.726   2.029  1.00 20.00     0.036 C 
HETATM    5  C5  UNL     1     -33.583   7.868   2.558  1.00 20.00     0.043 C 
HETATM    6  C6  UNL     1     -32.082   6.804   1.015  1.00 20.00     0.013 C 
HETATM    7  C7  UNL     1     -32.299   8.139   1.753  1.00 20.00    -0.044 C 
HETATM    8  C8  UNL     1     -31.113   8.457   2.683  1.00 20.00     0.015 C 
HETATM    9  C9  UNL     1     -32.486   9.296   0.769  1.00 20.00     0.015 C 
HETATM   10  N10 UNL     1     -33.938   3.277   4.341  1.00 20.00    -0.192 NA
ENDROOT
TORSDOF 0
ENDMDL
MODEL 2
REMARK VINA RESULT:       0.7      2.740      4.534
REMARK  0 active torsions:
REMARK  status: ('A' for Active; 'I' for Inactive)
ROOT
HETATM    1  C1  UNL     1     -32.202   9.321   0.789  1.00 20.00     0.088 C 
HETATM    2  C2  UNL     1     -32.865   7.587   2.324  1.00 20.00    -0.069 C 
HETATM    3  C3  UNL     1     -32.334   8.794   2.099  1.00 20.00     0.096 C 
HETATM    4  C4  UNL     1     -33.374   6.669   1.249  1.00 20.00     0.036 C 
HETATM    5  C5  UNL     1     -33.059   6.978   3.685  1.00 20.00     0.043 C 
HETATM    6  C6  UNL     1     -33.691   5.381   2.008  1.00 20.00     0.013 C 
HETATM    7  C7  UNL     1     -34.061   5.837   3.432  1.00 20.00    -0.044 C 
HETATM    8  C8  UNL     1     -35.513   6.346   3.491  1.00 20.00     0.015 C 
HETATM    9  C9  UNL     1     -33.888   4.703   4.444  1.00 20.00     0.015 C 
HETATM   10  N10 UNL     1     -32.092   9.756  -0.281  1.00 20.00    -0.192 NA
ENDROOT
TORSDOF 0
ENDMDL
MODEL 3
REMARK VINA RESULT:       1.9      1.172      1.955
REMARK  0 active torsions:
REMARK  status: ('A' for Active; 'I' for Inactive)
ROOT
HETATM    1  C1  UNL     1     -34.674   5.203   3.759  1.00 20.00     0.088 C 
HETATM    2  C2  UNL     1     -33.114   6.515   2.475  1.00 20.00    -0.069 C 
HETATM    3  C3  UNL     1     -33.838   5.400   2.630  1.00 20.00     0.096 C 
HETATM    4  C4  UNL     1     -33.097   7.660   3.447  1.00 20.00     0.036 C 
HETATM    5  C5  UNL     1     -32.229   6.802   1.293  1.00 20.00     0.043 C 
HETATM    6  C6  UNL     1     -31.994   8.566   2.904  1.00 20.00     0.013 C 
HETATM    7  C7  UNL     1     -31.987   8.319   1.384  1.00 20.00    -0.044 C 
HETATM    8  C8  UNL     1     -33.112   9.107   0.689  1.00 20.00     0.015 C 
HETATM    9  C9  UNL     1     -30.645   8.712   0.761  1.00 20.00     0.015 C 
HETATM   10  N10 UNL     1     -35.358   5.036   4.681  1.00 20.00    -0.192 NA
ENDROOT
TORSDOF 0
ENDMDL
