MODEL 1
REMARK VINA RESULT:      -0.7      0.000      0.000
REMARK  3 active torsions:
REMARK  status: ('A' for Active; 'I' for Inactive)
REMARK    1  A    between atoms: C5_5  and  C8_8 
REMARK    2  A    between atoms: C6_6  and  C9_9 
REMARK    3  A    between atoms: C8_8  and  C10_10 
ROOT
HETATM    1  C1  UNL     1     -34.986   5.251   4.278  1.00 20.00     0.131 C 
HETATM    2  C2  UNL     1     -35.368   6.635   3.803  1.00 20.00     0.079 C 
HETATM    3  C3  UNL     1     -34.126   7.450   3.470  1.00 20.00     0.012 C 
HETATM    4  C4  UNL     1     -32.809   5.342   3.058  1.00 20.00     0.017 C 
HETATM    5  C5  UNL     1     -34.033   4.476   3.376  1.00 20.00     0.058 C 
HETATM    6  C6  UNL     1     -33.209   6.711   2.487  1.00 20.00    -0.014 C 
HETATM    7  O11 UNL     1     -35.495   4.764   5.287  1.00 20.00    -0.298 OA
ENDROOT
BRANCH   5   8
HETATM    8  C8  UNL     1     -33.608   3.153   4.007  1.00 20.00     0.043 C 
BRANCH   8   9
HETATM    9  C10 UNL     1     -32.315   3.298   4.785  1.00 20.00     0.223 C 
HETATM   10  F12 UNL     1     -32.524   2.927   6.077  1.00 20.00    -0.255 F 
ENDBRANCH   8   9
ENDBRANCH   5   8
BRANCH   6  11
HETATM   11  C9  UNL     1     -31.970   7.548   2.177  1.00 20.00     0.000 C 
HETATM   12  C7  UNL     1     -32.249   8.584   1.138  1.00 20.00     0.005 C 
ENDBRANCH   6  11
TORSDOF 3
ENDMDL
MODEL 2
REMARK VINA RESULT:      -0.2      3.203      4.433
REMARK  3 active torsions:
REMARK  status: ('A' for Active; 'I' for Inactive)
REMARK    1  A    between atoms: C5_5  and  C8_8 
REMARK    2  A    between atoms: C6_6  and  C9_9 
REMARK    3  A    between atoms: C8_8  and  C10_10 
ROOT
HETATM    1  C1  UNL     1     -31.991   7.681   1.786  1.00 20.00     0.131 C 
HETATM    2  C2  UNL     1     -32.340   8.444   3.044  1.00 20.00     0.079 C 
HETATM    3  C3  UNL     1     -33.743   8.089   3.514  1.00 20.00     0.012 C 
HETATM    4  C4  UNL     1     -33.617   5.867   2.334  1.00 20.00     0.017 C 
HETATM    5  C5  UNL     1     -32.198   6.172   1.842  1.00 20.00     0.058 C 
HETATM    6  C6  UNL     1     -33.926   6.574   3.663  1.00 20.00    -0.014 C 
HETATM    7  O11 UNL     1     -31.486   8.250   0.819  1.00 20.00    -0.298 OA
ENDROOT
BRANCH   5   8
HETATM    8  C8  UNL     1     -31.944   5.516   0.488  1.00 20.00     0.043 C 
BRANCH   8   9
HETATM    9  C10 UNL     1     -31.216   4.195   0.638  1.00 20.00     0.223 C 
HETATM   10  F12 UNL     1     -30.951   3.684  -0.594  1.00 20.00    -0.255 F 
ENDBRANCH   8   9
ENDBRANCH   5   8
BRANCH   6  11
HETATM   11  C9  UNL     1     -35.344   6.247   4.129  1.00 20.00     0.000 C 
HETATM   12  C7  UNL     1     -35.429   4.877   4.716  1.00 20.00     0.005 C 
ENDBRANCH   6  11
TORSDOF 3
ENDMDL
MODEL 3
REMARK VINA RESULT:      -0.1      3.567      5.067
REMARK  3 active torsions:
REMARK  status: ('A' for Active; 'I' for Inactive)
REMARK    1  A    between atoms: C5_5  and  C8_8 
REMARK    2  A    between atoms: C6_6  and  C9_9 
REMARK    3  A    between atoms: C8_8  and  C10_10 
ROOT
HETATM    1  C1  UNL     1     -32.545   5.953   1.444  1.00 20.00     0.131 C 
HETATM    2  C2  UNL     1     -33.553   5.123   2.208  1.00 20.00     0.079 C 
HETATM    3  C3  UNL     1     -33.758   5.686   3.607  1.00 20.00     0.012 C 
HETATM    4  C4  UNL     1     -33.019   7.969   2.840  1.00 20.00     0.017 C 
HETATM    5  C5  UNL     1     -32.804   7.455   1.412  1.00 20.00     0.058 C 
HETATM    6  C6  UNL     1     -34.114   7.177   3.574  1.00 20.00    -0.014 C 
HETATM    7  O11 UNL     1     -31.630   5.419   0.818  1.00 20.00    -0.298 OA
ENDROOT
BRANCH   5   8
HETATM    8  C8  UNL     1     -31.665   8.211   0.733  1.00 20.00     0.043 C 
BRANCH   8   9
HETATM    9  C10 UNL     1     -32.069   9.630   0.387  1.00 20.00     0.223 C 
HETATM   10  F12 UNL     1     -32.876   9.614  -0.706  1.00 20.00    -0.255 F 
ENDBRANCH   8   9
ENDBRANCH   5   8
BRANCH   6  11
HETATM   11  C9  UNL     1     -34.307   7.715   4.991  1.00 20.00     0.000 C 
HETATM   12  C7  UNL     1     -33.097   8.445   5.473  1.00 20.00     0.005 C 
ENDBRANCH   6  11
TORSDOF 3
ENDMDL
MODEL 4
REMARK VINA RESULT:      -0.1      2.455      3.534
REMARK  3 active torsions:
REMARK  status: ('A' for Active; 'I' for Inactive)
REMARK    1  A    between atoms: C5_5  and  C8_8 
REMARK    2  A    between atoms: C6_6  and  C9_9 
REMARK    3  A    between atoms: C8_8  and  C10_10 
ROOT
HETATM    1  C1  UNL     1     -33.091   5.843   2.770  1.00 20.00     0.131 C 
HETATM    2  C2  UNL     1     -31.971   5.615   1.779  1.00 20.00     0.079 C 
HETATM    3  C3  UNL     1     -31.963   6.708   0.720  1.00 20.00     0.012 C 
HETATM    4  C4  UNL     1     -33.132   8.293   2.292  1.00 20.00     0.017 C 
HETATM    5  C5  UNL     1     -33.157   7.231   3.396  1.00 20.00     0.058 C 
HETATM    6  C6  UNL     1     -31.934   8.108   1.347  1.00 20.00    -0.014 C 
HETATM    7  O11 UNL     1     -33.837   4.923   3.105  1.00 20.00    -0.298 OA
ENDROOT
BRANCH   5   8
HETATM    8  C8  UNL     1     -34.393   7.396   4.275  1.00 20.00     0.043 C 
BRANCH   8   9
HETATM    9  C10 UNL     1     -35.372   6.256   4.078  1.00 20.00     0.223 C 
HETATM   10  F12 UNL     1     -36.372   6.659   3.249  1.00 20.00    -0.255 F 
ENDBRANCH   8   9
ENDBRANCH   5   8
BRANCH   6  11
HETATM   11  C9  UNL     1     -31.934   9.183   0.262  1.00 20.00     0.000 C 
HETATM   12  C7  UNL     1     -32.738  10.374   0.666  1.00 20.00     0.005 C 
ENDBRANCH   6  11
TORSDOF 3
ENDMDL
MODEL 5
REMARK VINA RESULT:      -0.0      1.695      2.416
REMARK  3 active torsions:
REMARK  status: ('A' for Active; 'I' for Inactive)
REMARK    1  A    between atoms: C5_5  and  C8_8 
REMARK    2  A    between atoms: C6_6  and  C9_9 
REMARK    3  A    between atoms: C8_8  and  C10_10 
ROOT
HETATM    1  C1  UNL     1     -33.919   7.374   3.823  1.00 20.00     0.131 C 
HETATM    2  C2  UNL     1     -33.337   8.339   2.814  1.00 20.00     0.079 C 
HETATM    3  C3  UNL     1     -32.191   7.691   2.052  1.00 20.00     0.012 C 
HETATM    4  C4  UNL     1     -33.128   5.398   2.516  1.00 20.00     0.017 C 
HETATM    5  C5  UNL     1     -34.308   6.001   3.287  1.00 20.00     0.058 C 
HETATM    6  C6  UNL     1     -32.607   6.352   1.429  1.00 20.00    -0.014 C 
HETATM    7  O11 UNL     1     -34.140   7.726   4.982  1.00 20.00    -0.298 OA
ENDROOT
BRANCH   5   8
HETATM    8  C8  UNL     1     -34.757   5.064   4.404  1.00 20.00     0.043 C 
BRANCH   8   9
HETATM    9  C10 UNL     1     -34.079   3.713   4.303  1.00 20.00     0.223 C 
HETATM   10  F12 UNL     1     -33.394   3.466   5.451  1.00 20.00    -0.255 F 
ENDBRANCH   8   9
ENDBRANCH   5   8
BRANCH   6  11
HETATM   11  C9  UNL     1     -31.436   5.722   0.677  1.00 20.00     0.000 C 
HETATM   12  C7  UNL     1     -31.717   4.301   0.311  1.00 20.00     0.005 C 
ENDBRANCH   6  11
TORSDOF 3
ENDMDL
MODEL 6
REMARK VINA RESULT:       0.0      3.641      5.570
REMARK  3 active torsions:
REMARK  status: ('A' for Active; 'I' for Inactive)
REMARK    1  A    between atoms: C5_5  and  C8_8 
REMARK    2  A    between atoms: C6_6  and  C9_9 
REMARK    3  A    between atoms: C8_8  and  C10_10 
ROOT
HETATM    1  C1  UNL     1     -31.960   7.077   1.396  1.00 20.00     0.131 C 
HETATM    2  C2  UNL     1     -32.515   5.674   1.499  1.00 20.00     0.079 C 
HETATM    3  C3  UNL     1     -33.273   5.493   2.807  1.00 20.00     0.012 C 
HETATM    4  C4  UNL     1     -33.702   7.972   2.945  1.00 20.00     0.017 C 
HETATM    5  C5  UNL     1     -32.956   8.208   1.628  1.00 20.00     0.058 C 
HETATM    6  C6  UNL     1     -34.343   6.576   2.998  1.00 20.00    -0.014 C 
HETATM    7  O11 UNL     1     -30.794   7.273   1.055  1.00 20.00    -0.298 OA
ENDROOT
BRANCH   5   8
HETATM    8  C8  UNL     1     -32.271   9.572   1.632  1.00 20.00     0.043 C 
BRANCH   8   9
HETATM    9  C10 UNL     1     -32.640  10.382   0.405  1.00 20.00     0.223 C 
HETATM   10  F12 UNL     1     -32.642   9.572  -0.686  1.00 20.00    -0.255 F 
ENDBRANCH   8   9
ENDBRANCH   5   8
BRANCH   6  11
HETATM   11  C9  UNL     1     -35.081   6.373   4.320  1.00 20.00     0.000 C 
HETATM   12  C7  UNL     1     -35.258   4.924   4.636  1.00 20.00     0.005 C 
ENDBRANCH   6  11
TORSDOF 3
ENDMDL
MODEL 7
REMARK VINA RESULT:       0.1      2.062      3.178
REMARK  3 active torsions:
REMARK  status: ('A' for Active; 'I' for Inactive)
REMARK    1  A    between atoms: C5_5  and  C8_8 
REMARK    2  A    between atoms: C6_6  and  C9_9 
REMARK    3  A    between atoms: C8_8  and  C10_10 
ROOT
HETATM    1  C1  UNL     1     -33.171   7.830   3.672  1.00 20.00     0.131 C 
HETATM    2  C2  UNL     1     -32.290   8.305   2.539  1.00 20.00     0.079 C 
HETATM    3  C3  UNL     1     -31.709   7.121   1.779  1.00 20.00     0.012 C 
HETATM    4  C4  UNL     1     -33.618   5.657   2.526  1.00 20.00     0.017 C 
HETATM    5  C5  UNL     1     -34.250   6.819   3.300  1.00 20.00     0.058 C 
HETATM    6  C6  UNL     1     -32.802   6.149   1.319  1.00 20.00    -0.014 C 
HETATM    7  O11 UNL     1     -33.067   8.310   4.800  1.00 20.00    -0.298 OA
ENDROOT
BRANCH   5   8
HETATM    8  C8  UNL     1     -34.993   6.306   4.530  1.00 20.00     0.043 C 
BRANCH   8   9
HETATM    9  C10 UNL     1     -35.344   4.837   4.396  1.00 20.00     0.223 C 
HETATM   10  F12 UNL     1     -34.317   4.084   4.871  1.00 20.00    -0.255 F 
ENDBRANCH   8   9
ENDBRANCH   5   8
BRANCH   6  11
HETATM   11  C9  UNL     1     -32.190   4.969   0.567  1.00 20.00     0.000 C 
HETATM   12  C7  UNL     1     -33.226   4.196  -0.182  1.00 20.00     0.005 C 
ENDBRANCH   6  11
TORSDOF 3
ENDMDL
MODEL 8
REMARK VINA RESULT:       0.1      2.474      4.478
REMARK  3 active torsions:
REMARK  status: ('A' for Active; 'I' for Inactive)
REMARK    1  A    between atoms: C5_5  and  C8_8 
REMARK    2  A    between atoms: C6_6  and  C9_9 
REMARK    3  A    between atoms: C8_8  and  C10_10 
ROOT
HETATM    1  C1  UNL     1     -32.907   6.893   2.217  1.00 20.00     0.131 C 
HETATM    2  C2  UNL     1     -32.609   5.564   1.560  1.00 20.00     0.079 C 
HETATM    3  C3  UNL     1     -32.619   4.443   2.590  1.00 20.00     0.012 C 
HETATM    4  C4  UNL     1     -34.129   5.788   4.094  1.00 20.00     0.017 C 
HETATM    5  C5  UNL     1     -34.158   6.943   3.086  1.00 20.00     0.058 C 
HETATM    6  C6  UNL     1     -33.920   4.431   3.403  1.00 20.00    -0.014 C 
HETATM    7  O11 UNL     1     -32.220   7.886   1.979  1.00 20.00    -0.298 OA
ENDROOT
BRANCH   5   8
HETATM    8  C8  UNL     1     -34.295   8.282   3.805  1.00 20.00     0.043 C 
BRANCH   8   9
HETATM    9  C10 UNL     1     -33.701   8.228   5.198  1.00 20.00     0.223 C 
HETATM   10  F12 UNL     1     -32.356   8.414   5.121  1.00 20.00    -0.255 F 
ENDBRANCH   8   9
ENDBRANCH   5   8
BRANCH   6  11
HETATM   11  C9  UNL     1     -33.899   3.302   4.431  1.00 20.00     0.000 C 
HETATM   12  C7  UNL     1     -32.517   3.038   4.933  1.00 20.00     0.005 C 
ENDBRANCH   6  11
TORSDOF 3
ENDMDL
MODEL 9
REMARK VINA RESULT:       0.2      2.586      3.009
REMARK  3 active torsions:
REMARK  status: ('A' for Active; 'I' for Inactive)
REMARK    1  A    between atoms: C5_5  and  C8_8 
REMARK    2  A    between atoms: C6_6  and  C9_9 
REMARK    3  A    between atoms: C8_8  and  C10_10 
ROOT
HETATM    1  C1  UNL     1     -33.677   5.628   3.044  1.00 20.00     0.131 C 
HETATM    2  C2  UNL     1     -34.204   6.913   3.642  1.00 20.00     0.079 C 
HETATM    3  C3  UNL     1     -33.257   8.068   3.346  1.00 20.00     0.012 C 
HETATM    4  C4  UNL     1     -32.363   6.867   1.319  1.00 20.00     0.017 C 
HETATM    5  C5  UNL     1     -33.303   5.682   1.567  1.00 20.00     0.058 C 
HETATM    6  C6  UNL     1     -32.953   8.185   1.847  1.00 20.00    -0.014 C 
HETATM    7  O11 UNL     1     -33.647   4.588   3.703  1.00 20.00    -0.298 OA
ENDROOT
BRANCH   5   8
HETATM    8  C8  UNL     1     -32.663   4.379   1.098  1.00 20.00     0.043 C 
BRANCH   8   9
HETATM    9  C10 UNL     1     -31.248   4.602   0.601  1.00 20.00     0.223 C 
HETATM   10  F12 UNL     1     -30.997   3.760  -0.436  1.00 20.00    -0.255 F 
ENDBRANCH   8   9
ENDBRANCH   5   8
BRANCH   6  11
HETATM   11  C9  UNL     1     -31.996   9.346   1.582  1.00 20.00     0.000 C 
HETATM   12  C7  UNL     1     -32.404  10.132   0.380  1.00 20.00     0.005 C 
ENDBRANCH   6  11
TORSDOF 3
ENDMDL
