MODEL 1
REMARK VINA RESULT:       0.3      0.000      0.000
REMARK  2 active torsions:
REMARK  status: ('A' for Active; 'I' for Inactive)
REMARK    1  A    between atoms: C4_4  and  C10_10 
REMARK    2  A    between atoms: C10_10  and  C11_11 
ROOT
HETATM    1  C1  UNL     1     -31.254   7.733   1.083  1.00 20.00     0.007 C 
HETATM    2  C2  UNL     1     -31.045   9.019   0.290  1.00 20.00     0.009 C 
HETATM    3  C3  UNL     1     -33.227   9.012   1.418  1.00 20.00     0.015 C 
HETATM    4  C4  UNL     1     -32.231   8.139   2.179  1.00 20.00     0.005 C 
HETATM    5  C5  UNL     1     -32.360   9.824   0.429  1.00 20.00    -0.047 C 
HETATM    6  C6  UNL     1     -33.070   9.964  -0.923  1.00 20.00     0.015 C 
HETATM    7  C7  UNL     1     -32.071  11.225   0.989  1.00 20.00     0.015 C 
ENDROOT
BRANCH   4   8
HETATM    8  C10 UNL     1     -32.881   6.952   2.869  1.00 20.00     0.089 C 
HETATM    9 CL12 UNL     1     -33.196   5.670   1.654  1.00 20.00    -0.124 Cl
BRANCH   8  10
HETATM   10  C11 UNL     1     -34.154   7.331   3.667  1.00 20.00    -0.004 C 
HETATM   11  C8  UNL     1     -35.098   6.155   3.935  1.00 20.00     0.011 C 
HETATM   12  C9  UNL     1     -33.815   8.033   4.987  1.00 20.00     0.011 C 
ENDBRANCH   8  10
ENDBRANCH   4   8
TORSDOF 2
ENDMDL
MODEL 2
REMARK VINA RESULT:       1.5      1.712      4.664
REMARK  2 active torsions:
REMARK  status: ('A' for Active; 'I' for Inactive)
REMARK    1  A    between atoms: C4_4  and  C10_10 
REMARK    2  A    between atoms: C10_10  and  C11_11 
ROOT
HETATM    1  C1  UNL     1     -32.764   6.024   1.342  1.00 20.00     0.007 C 
HETATM    2  C2  UNL     1     -33.909   5.238   1.975  1.00 20.00     0.009 C 
HETATM    3  C3  UNL     1     -33.293   7.177   3.350  1.00 20.00     0.015 C 
HETATM    4  C4  UNL     1     -32.953   7.435   1.883  1.00 20.00     0.005 C 
HETATM    5  C5  UNL     1     -34.205   5.930   3.328  1.00 20.00    -0.047 C 
HETATM    6  C6  UNL     1     -33.883   5.004   4.506  1.00 20.00     0.015 C 
HETATM    7  C7  UNL     1     -35.683   6.341   3.404  1.00 20.00     0.015 C 
ENDROOT
BRANCH   4   8
HETATM    8  C10 UNL     1     -31.727   8.314   1.698  1.00 20.00     0.089 C 
HETATM    9 CL12 UNL     1     -31.195   8.919   3.302  1.00 20.00    -0.124 Cl
BRANCH   8  10
HETATM   10  C11 UNL     1     -31.945   9.461   0.680  1.00 20.00    -0.004 C 
HETATM   11  C8  UNL     1     -32.475   8.998  -0.680  1.00 20.00     0.011 C 
HETATM   12  C9  UNL     1     -32.855  10.561   1.242  1.00 20.00     0.011 C 
ENDBRANCH   8  10
ENDBRANCH   4   8
TORSDOF 2
ENDMDL
MODEL 3
REMARK VINA RESULT:       1.5      1.810      2.723
REMARK  2 active torsions:
REMARK  status: ('A' for Active; 'I' for Inactive)
REMARK    1  A    between atoms: C4_4  and  C10_10 
REMARK    2  A    between atoms: C10_10  and  C11_11 
ROOT
HETATM    1  C1  UNL     1     -32.681   5.797   1.400  1.00 20.00     0.007 C 
HETATM    2  C2  UNL     1     -31.655   6.857   1.009  1.00 20.00     0.009 C 
HETATM    3  C3  UNL     1     -33.259   7.732   2.650  1.00 20.00     0.015 C 
HETATM    4  C4  UNL     1     -33.120   6.218   2.797  1.00 20.00     0.005 C 
HETATM    5  C5  UNL     1     -32.074   8.149   1.751  1.00 20.00    -0.047 C 
HETATM    6  C6  UNL     1     -32.503   9.241   0.763  1.00 20.00     0.015 C 
HETATM    7  C7  UNL     1     -30.909   8.675   2.603  1.00 20.00     0.015 C 
ENDROOT
BRANCH   4   8
HETATM    8  C10 UNL     1     -34.402   5.540   3.249  1.00 20.00     0.089 C 
HETATM    9 CL12 UNL     1     -35.682   6.782   3.444  1.00 20.00    -0.124 Cl
BRANCH   8  10
HETATM   10  C11 UNL     1     -34.221   4.677   4.523  1.00 20.00    -0.004 C 
HETATM   11  C8  UNL     1     -35.501   4.499   5.346  1.00 20.00     0.011 C 
HETATM   12  C9  UNL     1     -33.616   3.305   4.204  1.00 20.00     0.011 C 
ENDBRANCH   8  10
ENDBRANCH   4   8
TORSDOF 2
ENDMDL
MODEL 4
REMARK VINA RESULT:       1.6      1.195      1.663
REMARK  2 active torsions:
REMARK  status: ('A' for Active; 'I' for Inactive)
REMARK    1  A    between atoms: C4_4  and  C10_10 
REMARK    2  A    between atoms: C10_10  and  C11_11 
ROOT
HETATM    1  C1  UNL     1     -31.799   8.271   2.792  1.00 20.00     0.007 C 
HETATM    2  C2  UNL     1     -31.641   9.527   1.941  1.00 20.00     0.009 C 
HETATM    3  C3  UNL     1     -32.502   7.652   0.610  1.00 20.00     0.015 C 
HETATM    4  C4  UNL     1     -32.892   7.486   2.078  1.00 20.00     0.005 C 
HETATM    5  C5  UNL     1     -32.013   9.113   0.497  1.00 20.00    -0.047 C 
HETATM    6  C6  UNL     1     -30.801   9.207  -0.437  1.00 20.00     0.015 C 
HETATM    7  C7  UNL     1     -33.132  10.016  -0.045  1.00 20.00     0.015 C 
ENDROOT
BRANCH   4   8
HETATM    8  C10 UNL     1     -32.967   6.033   2.517  1.00 20.00     0.089 C 
HETATM    9 CL12 UNL     1     -32.639   4.978   1.103  1.00 20.00    -0.124 Cl
BRANCH   8  10
HETATM   10  C11 UNL     1     -34.300   5.676   3.221  1.00 20.00    -0.004 C 
HETATM   11  C8  UNL     1     -34.230   4.417   4.092  1.00 20.00     0.011 C 
HETATM   12  C9  UNL     1     -34.843   6.847   4.049  1.00 20.00     0.011 C 
ENDBRANCH   8  10
ENDBRANCH   4   8
TORSDOF 2
ENDMDL
MODEL 5
REMARK VINA RESULT:       2.3      2.518      5.773
REMARK  2 active torsions:
REMARK  status: ('A' for Active; 'I' for Inactive)
REMARK    1  A    between atoms: C4_4  and  C10_10 
REMARK    2  A    between atoms: C10_10  and  C11_11 
ROOT
HETATM    1  C1  UNL     1     -34.928   5.025   3.985  1.00 20.00     0.007 C 
HETATM    2  C2  UNL     1     -34.700   3.984   5.078  1.00 20.00     0.009 C 
HETATM    3  C3  UNL     1     -32.763   4.137   3.575  1.00 20.00     0.015 C 
HETATM    4  C4  UNL     1     -33.520   5.464   3.606  1.00 20.00     0.005 C 
HETATM    5  C5  UNL     1     -33.328   3.336   4.769  1.00 20.00    -0.047 C 
HETATM    6  C6  UNL     1     -33.485   1.856   4.402  1.00 20.00     0.015 C 
HETATM    7  C7  UNL     1     -32.399   3.454   5.987  1.00 20.00     0.015 C 
ENDROOT
BRANCH   4   8
HETATM    8  C10 UNL     1     -33.463   6.216   2.287  1.00 20.00     0.089 C 
HETATM    9 CL12 UNL     1     -32.345   5.361   1.174  1.00 20.00    -0.124 Cl
BRANCH   8  10
HETATM   10  C11 UNL     1     -33.099   7.713   2.451  1.00 20.00    -0.004 C 
HETATM   11  C8  UNL     1     -33.054   8.190   3.906  1.00 20.00     0.011 C 
HETATM   12  C9  UNL     1     -31.780   8.062   1.750  1.00 20.00     0.011 C 
ENDBRANCH   8  10
ENDBRANCH   4   8
TORSDOF 2
ENDMDL
MODEL 6
REMARK VINA RESULT:       2.5      1.114      1.530
REMARK  2 active torsions:
REMARK  status: ('A' for Active; 'I' for Inactive)
REMARK    1  A    between atoms: C4_4  and  C10_10 
REMARK    2  A    between atoms: C10_10  and  C11_11 
ROOT
HETATM    1  C1  UNL     1     -33.504   6.972   0.738  1.00 20.00     0.007 C 
HETATM    2  C2  UNL     1     -32.925   7.940  -0.290  1.00 20.00     0.009 C 
HETATM    3  C3  UNL     1     -32.129   8.464   1.973  1.00 20.00     0.015 C 
HETATM    4  C4  UNL     1     -32.474   6.980   1.861  1.00 20.00     0.005 C 
HETATM    5  C5  UNL     1     -32.097   8.971   0.514  1.00 20.00    -0.047 C 
HETATM    6  C6  UNL     1     -32.711  10.373   0.415  1.00 20.00     0.015 C 
HETATM    7  C7  UNL     1     -30.653   9.019  -0.009  1.00 20.00     0.015 C 
ENDROOT
BRANCH   4   8
HETATM    8  C10 UNL     1     -32.999   6.387   3.157  1.00 20.00     0.089 C 
HETATM    9 CL12 UNL     1     -33.361   4.649   2.901  1.00 20.00    -0.124 Cl
BRANCH   8  10
HETATM   10  C11 UNL     1     -34.210   7.161   3.736  1.00 20.00    -0.004 C 
HETATM   11  C8  UNL     1     -35.410   6.276   4.085  1.00 20.00     0.011 C 
HETATM   12  C9  UNL     1     -33.820   8.007   4.955  1.00 20.00     0.011 C 
ENDBRANCH   8  10
ENDBRANCH   4   8
TORSDOF 2
ENDMDL
MODEL 7
REMARK VINA RESULT:       2.5      1.549      4.764
REMARK  2 active torsions:
REMARK  status: ('A' for Active; 'I' for Inactive)
REMARK    1  A    between atoms: C4_4  and  C10_10 
REMARK    2  A    between atoms: C10_10  and  C11_11 
ROOT
HETATM    1  C1  UNL     1     -33.185   8.222   3.767  1.00 20.00     0.007 C 
HETATM    2  C2  UNL     1     -34.186   7.382   4.555  1.00 20.00     0.009 C 
HETATM    3  C3  UNL     1     -33.880   6.503   2.282  1.00 20.00     0.015 C 
HETATM    4  C4  UNL     1     -32.626   7.247   2.739  1.00 20.00     0.005 C 
HETATM    5  C5  UNL     1     -34.712   6.310   3.570  1.00 20.00    -0.047 C 
HETATM    6  C6  UNL     1     -36.205   6.507   3.283  1.00 20.00     0.015 C 
HETATM    7  C7  UNL     1     -34.494   4.904   4.147  1.00 20.00     0.015 C 
ENDROOT
BRANCH   4   8
HETATM    8  C10 UNL     1     -31.890   7.935   1.602  1.00 20.00     0.089 C 
HETATM    9 CL12 UNL     1     -30.356   8.622   2.228  1.00 20.00    -0.124 Cl
BRANCH   8  10
HETATM   10  C11 UNL     1     -32.752   8.993   0.868  1.00 20.00    -0.004 C 
HETATM   11  C8  UNL     1     -32.552  10.424   1.376  1.00 20.00     0.011 C 
HETATM   12  C9  UNL     1     -32.544   8.949  -0.651  1.00 20.00     0.011 C 
ENDBRANCH   8  10
ENDBRANCH   4   8
TORSDOF 2
ENDMDL
MODEL 8
REMARK VINA RESULT:       2.5      2.204      3.098
REMARK  2 active torsions:
REMARK  status: ('A' for Active; 'I' for Inactive)
REMARK    1  A    between atoms: C4_4  and  C10_10 
REMARK    2  A    between atoms: C10_10  and  C11_11 
ROOT
HETATM    1  C1  UNL     1     -32.924   5.491   1.463  1.00 20.00     0.007 C 
HETATM    2  C2  UNL     1     -31.997   6.624   1.032  1.00 20.00     0.009 C 
HETATM    3  C3  UNL     1     -33.319   7.255   3.003  1.00 20.00     0.015 C 
HETATM    4  C4  UNL     1     -33.131   5.739   2.951  1.00 20.00     0.005 C 
HETATM    5  C5  UNL     1     -32.309   7.811   1.975  1.00 20.00    -0.047 C 
HETATM    6  C6  UNL     1     -32.916   8.988   1.203  1.00 20.00     0.015 C 
HETATM    7  C7  UNL     1     -31.027   8.282   2.679  1.00 20.00     0.015 C 
ENDROOT
BRANCH   4   8
HETATM    8  C10 UNL     1     -34.308   4.970   3.527  1.00 20.00     0.089 C 
HETATM    9 CL12 UNL     1     -35.437   6.126   4.306  1.00 20.00    -0.124 Cl
BRANCH   8  10
HETATM   10  C11 UNL     1     -33.882   3.828   4.484  1.00 20.00    -0.004 C 
HETATM   11  C8  UNL     1     -33.381   2.568   3.772  1.00 20.00     0.011 C 
HETATM   12  C9  UNL     1     -32.836   4.296   5.504  1.00 20.00     0.011 C 
ENDBRANCH   8  10
ENDBRANCH   4   8
TORSDOF 2
ENDMDL
MODEL 9
REMARK VINA RESULT:       2.5      1.462      1.918
REMARK  2 active torsions:
REMARK  status: ('A' for Active; 'I' for Inactive)
REMARK    1  A    between atoms: C4_4  and  C10_10 
REMARK    2  A    between atoms: C10_10  and  C11_11 
ROOT
HETATM    1  C1  UNL     1     -31.653   7.710   1.583  1.00 20.00     0.007 C 
HETATM    2  C2  UNL     1     -31.154   8.882   0.743  1.00 20.00     0.009 C 
HETATM    3  C3  UNL     1     -33.516   9.165   1.352  1.00 20.00     0.015 C 
HETATM    4  C4  UNL     1     -32.796   8.308   2.393  1.00 20.00     0.005 C 
HETATM    5  C5  UNL     1     -32.382   9.795   0.512  1.00 20.00    -0.047 C 
HETATM    6  C6  UNL     1     -32.769   9.838  -0.971  1.00 20.00     0.015 C 
HETATM    7  C7  UNL     1     -32.083  11.223   0.993  1.00 20.00     0.015 C 
ENDROOT
BRANCH   4   8
HETATM    8  C10 UNL     1     -33.693   7.257   3.025  1.00 20.00     0.089 C 
HETATM    9 CL12 UNL     1     -33.940   7.663   4.755  1.00 20.00    -0.124 Cl
BRANCH   8  10
HETATM   10  C11 UNL     1     -33.172   5.811   2.829  1.00 20.00    -0.004 C 
HETATM   11  C8  UNL     1     -33.919   4.759   3.656  1.00 20.00     0.011 C 
HETATM   12  C9  UNL     1     -33.166   5.399   1.352  1.00 20.00     0.011 C 
ENDBRANCH   8  10
ENDBRANCH   4   8
TORSDOF 2
ENDMDL
