MODEL 1
REMARK VINA RESULT:      -1.1      0.000      0.000
REMARK  3 active torsions:
REMARK  status: ('A' for Active; 'I' for Inactive)
REMARK    1  A    between atoms: C2_2  and  C8_8 
REMARK    2  A    between atoms: C6_6  and  N9_9 
REMARK    3  A    between atoms: C8_8  and  N9_9 
ROOT
HETATM    1  N9  UNL     1     -32.293   6.948   1.853  1.00 20.00     0.094 N 
HETATM    2  H25 UNL     1     -32.253   6.773   0.848  1.00 20.00     0.316 HD
ENDROOT
BRANCH   1   3
HETATM    3  C6  UNL     1     -33.565   6.484   2.377  1.00 20.00     0.246 C 
HETATM    4  C3  UNL     1     -34.108   7.331   3.509  1.00 20.00     0.064 C 
HETATM    5  C4  UNL     1     -35.101   6.381   4.145  1.00 20.00     0.170 C 
HETATM    6  O10 UNL     1     -34.570   5.057   3.975  1.00 20.00    -0.389 OA
HETATM    7  C5  UNL     1     -33.486   5.118   3.033  1.00 20.00     0.203 C 
ENDBRANCH   1   3
BRANCH   1   8
HETATM    8  C8  UNL     1     -32.114   8.376   2.092  1.00 20.00     0.303 C 
BRANCH   8   9
HETATM    9  C2  UNL     1     -32.009   9.102   0.781  1.00 20.00    -0.066 C 
HETATM   10  C1  UNL     1     -31.214   8.657  -0.204  1.00 20.00     0.015 C 
HETATM   11  C7  UNL     1     -32.804  10.368   0.635  1.00 20.00     0.044 C 
ENDBRANCH   8   9
ENDBRANCH   1   8
TORSDOF 3
ENDMDL
MODEL 2
REMARK VINA RESULT:      -1.1      0.949      1.319
REMARK  3 active torsions:
REMARK  status: ('A' for Active; 'I' for Inactive)
REMARK    1  A    between atoms: C2_2  and  C8_8 
REMARK    2  A    between atoms: C6_6  and  N9_9 
REMARK    3  A    between atoms: C8_8  and  N9_9 
ROOT
HETATM    1  N9  UNL     1     -32.313   8.218   2.616  1.00 20.00     0.094 N 
HETATM    2  H25 UNL     1     -31.567   7.846   3.205  1.00 20.00     0.316 HD
ENDROOT
BRANCH   1   3
HETATM    3  C6  UNL     1     -33.498   7.388   2.751  1.00 20.00     0.246 C 
HETATM    4  C3  UNL     1     -34.201   7.537   4.084  1.00 20.00     0.064 C 
HETATM    5  C4  UNL     1     -35.029   6.269   4.129  1.00 20.00     0.170 C 
HETATM    6  O10 UNL     1     -34.275   5.261   3.438  1.00 20.00    -0.389 OA
HETATM    7  C5  UNL     1     -33.199   5.900   2.732  1.00 20.00     0.203 C 
ENDBRANCH   1   3
BRANCH   1   8
HETATM    8  C8  UNL     1     -31.851   8.253   1.233  1.00 20.00     0.303 C 
BRANCH   8   9
HETATM    9  C2  UNL     1     -32.361   9.494   0.558  1.00 20.00    -0.066 C 
HETATM   10  C1  UNL     1     -32.702  10.585   1.261  1.00 20.00     0.015 C 
HETATM   11  C7  UNL     1     -32.509   9.449  -0.937  1.00 20.00     0.044 C 
ENDBRANCH   8   9
ENDBRANCH   1   8
TORSDOF 3
ENDMDL
MODEL 3
REMARK VINA RESULT:      -0.9      0.920      1.361
REMARK  3 active torsions:
REMARK  status: ('A' for Active; 'I' for Inactive)
REMARK    1  A    between atoms: C2_2  and  C8_8 
REMARK    2  A    between atoms: C6_6  and  N9_9 
REMARK    3  A    between atoms: C8_8  and  N9_9 
ROOT
HETATM    1  N9  UNL     1     -32.507   5.986   2.269  1.00 20.00     0.094 N 
HETATM    2  H25 UNL     1     -32.026   5.123   2.008  1.00 20.00     0.316 HD
ENDROOT
BRANCH   1   3
HETATM    3  C6  UNL     1     -33.841   5.672   2.750  1.00 20.00     0.246 C 
HETATM    4  C3  UNL     1     -34.440   6.743   3.636  1.00 20.00     0.064 C 
HETATM    5  C4  UNL     1     -35.529   5.968   4.349  1.00 20.00     0.170 C 
HETATM    6  O10 UNL     1     -35.048   4.622   4.493  1.00 20.00    -0.389 OA
HETATM    7  C5  UNL     1     -33.884   4.462   3.665  1.00 20.00     0.203 C 
ENDBRANCH   1   3
BRANCH   1   8
HETATM    8  C8  UNL     1     -32.559   6.868   1.108  1.00 20.00     0.303 C 
BRANCH   8   9
HETATM    9  C2  UNL     1     -32.047   8.230   1.481  1.00 20.00    -0.066 C 
HETATM   10  C1  UNL     1     -31.368   8.436   2.619  1.00 20.00     0.015 C 
HETATM   11  C7  UNL     1     -32.365   9.360   0.543  1.00 20.00     0.044 C 
ENDBRANCH   8   9
ENDBRANCH   1   8
TORSDOF 3
ENDMDL
MODEL 4
REMARK VINA RESULT:      -0.7      1.177      1.804
REMARK  3 active torsions:
REMARK  status: ('A' for Active; 'I' for Inactive)
REMARK    1  A    between atoms: C2_2  and  C8_8 
REMARK    2  A    between atoms: C6_6  and  N9_9 
REMARK    3  A    between atoms: C8_8  and  N9_9 
ROOT
HETATM    1  N9  UNL     1     -33.977   7.618   2.967  1.00 20.00     0.094 N 
HETATM    2  H25 UNL     1     -34.665   8.309   3.272  1.00 20.00     0.316 HD
ENDROOT
BRANCH   1   3
HETATM    3  C6  UNL     1     -34.017   6.468   3.853  1.00 20.00     0.246 C 
HETATM    4  C3  UNL     1     -33.491   5.194   3.228  1.00 20.00     0.064 C 
HETATM    5  C4  UNL     1     -34.094   4.142   4.136  1.00 20.00     0.170 C 
HETATM    6  O10 UNL     1     -35.359   4.659   4.579  1.00 20.00    -0.389 OA
HETATM    7  C5  UNL     1     -35.425   6.054   4.242  1.00 20.00     0.203 C 
ENDBRANCH   1   3
BRANCH   1   8
HETATM    8  C8  UNL     1     -32.655   8.235   2.965  1.00 20.00     0.303 C 
BRANCH   8   9
HETATM    9  C2  UNL     1     -32.097   8.236   1.570  1.00 20.00    -0.066 C 
HETATM   10  C1  UNL     1     -31.372   7.207   1.105  1.00 20.00     0.015 C 
HETATM   11  C7  UNL     1     -32.351   9.457   0.732  1.00 20.00     0.044 C 
ENDBRANCH   8   9
ENDBRANCH   1   8
TORSDOF 3
ENDMDL
MODEL 5
REMARK VINA RESULT:      -0.7      2.377      4.613
REMARK  3 active torsions:
REMARK  status: ('A' for Active; 'I' for Inactive)
REMARK    1  A    between atoms: C2_2  and  C8_8 
REMARK    2  A    between atoms: C6_6  and  N9_9 
REMARK    3  A    between atoms: C8_8  and  N9_9 
ROOT
HETATM    1  N9  UNL     1     -32.023   7.990   2.372  1.00 20.00     0.094 N 
HETATM    2  H25 UNL     1     -32.012   8.528   3.240  1.00 20.00     0.316 HD
ENDROOT
BRANCH   1   3
HETATM    3  C6  UNL     1     -31.896   8.891   1.240  1.00 20.00     0.246 C 
HETATM    4  C3  UNL     1     -32.667  10.185   1.397  1.00 20.00     0.064 C 
HETATM    5  C4  UNL     1     -32.760  10.655  -0.039  1.00 20.00     0.170 C 
HETATM    6  O10 UNL     1     -32.829   9.475  -0.855  1.00 20.00    -0.389 OA
HETATM    7  C5  UNL     1     -32.491   8.339  -0.042  1.00 20.00     0.203 C 
ENDBRANCH   1   3
BRANCH   1   8
HETATM    8  C8  UNL     1     -33.266   7.229   2.303  1.00 20.00     0.303 C 
BRANCH   8   9
HETATM    9  C2  UNL     1     -33.960   7.268   3.635  1.00 20.00    -0.066 C 
HETATM   10  C1  UNL     1     -33.540   8.076   4.621  1.00 20.00     0.015 C 
HETATM   11  C7  UNL     1     -35.120   6.333   3.829  1.00 20.00     0.044 C 
ENDBRANCH   8   9
ENDBRANCH   1   8
TORSDOF 3
ENDMDL
MODEL 6
REMARK VINA RESULT:      -0.6      2.367      4.573
REMARK  3 active torsions:
REMARK  status: ('A' for Active; 'I' for Inactive)
REMARK    1  A    between atoms: C2_2  and  C8_8 
REMARK    2  A    between atoms: C6_6  and  N9_9 
REMARK    3  A    between atoms: C8_8  and  N9_9 
ROOT
HETATM    1  N9  UNL     1     -32.038   8.028   2.417  1.00 20.00     0.094 N 
HETATM    2  H25 UNL     1     -32.117   8.604   3.257  1.00 20.00     0.316 HD
ENDROOT
BRANCH   1   3
HETATM    3  C6  UNL     1     -31.902   8.884   1.252  1.00 20.00     0.246 C 
HETATM    4  C3  UNL     1     -32.649  10.196   1.365  1.00 20.00     0.064 C 
HETATM    5  C4  UNL     1     -32.744  10.615  -0.087  1.00 20.00     0.170 C 
HETATM    6  O10 UNL     1     -32.840   9.407  -0.858  1.00 20.00    -0.389 OA
HETATM    7  C5  UNL     1     -32.516   8.295  -0.006  1.00 20.00     0.203 C 
ENDBRANCH   1   3
BRANCH   1   8
HETATM    8  C8  UNL     1     -33.219   7.179   2.313  1.00 20.00     0.303 C 
BRANCH   8   9
HETATM    9  C2  UNL     1     -33.966   7.185   3.616  1.00 20.00    -0.066 C 
HETATM   10  C1  UNL     1     -35.046   6.412   3.809  1.00 20.00     0.015 C 
HETATM   11  C7  UNL     1     -33.475   8.125   4.681  1.00 20.00     0.044 C 
ENDBRANCH   8   9
ENDBRANCH   1   8
TORSDOF 3
ENDMDL
MODEL 7
REMARK VINA RESULT:      -0.6      2.397      4.853
REMARK  3 active torsions:
REMARK  status: ('A' for Active; 'I' for Inactive)
REMARK    1  A    between atoms: C2_2  and  C8_8 
REMARK    2  A    between atoms: C6_6  and  N9_9 
REMARK    3  A    between atoms: C8_8  and  N9_9 
ROOT
HETATM    1  N9  UNL     1     -32.253   7.778   2.286  1.00 20.00     0.094 N 
HETATM    2  H25 UNL     1     -32.187   8.351   3.130  1.00 20.00     0.316 HD
ENDROOT
BRANCH   1   3
HETATM    3  C6  UNL     1     -32.628   8.613   1.160  1.00 20.00     0.246 C 
HETATM    4  C3  UNL     1     -31.534   8.776   0.126  1.00 20.00     0.064 C 
HETATM    5  C4  UNL     1     -31.997  10.017  -0.608  1.00 20.00     0.170 C 
HETATM    6  O10 UNL     1     -32.670  10.839   0.358  1.00 20.00    -0.389 OA
HETATM    7  C5  UNL     1     -32.900  10.057   1.542  1.00 20.00     0.203 C 
ENDBRANCH   1   3
BRANCH   1   8
HETATM    8  C8  UNL     1     -33.232   6.720   2.508  1.00 20.00     0.303 C 
BRANCH   8   9
HETATM    9  C2  UNL     1     -34.069   7.047   3.713  1.00 20.00    -0.066 C 
HETATM   10  C1  UNL     1     -33.713   8.015   4.571  1.00 20.00     0.015 C 
HETATM   11  C7  UNL     1     -35.299   6.215   3.937  1.00 20.00     0.044 C 
ENDBRANCH   8   9
ENDBRANCH   1   8
TORSDOF 3
ENDMDL
MODEL 8
REMARK VINA RESULT:      -0.5      2.390      4.813
REMARK  3 active torsions:
REMARK  status: ('A' for Active; 'I' for Inactive)
REMARK    1  A    between atoms: C2_2  and  C8_8 
REMARK    2  A    between atoms: C6_6  and  N9_9 
REMARK    3  A    between atoms: C8_8  and  N9_9 
ROOT
HETATM    1  N9  UNL     1     -32.300   7.736   2.324  1.00 20.00     0.094 N 
HETATM    2  H25 UNL     1     -32.292   8.307   3.171  1.00 20.00     0.316 HD
ENDROOT
BRANCH   1   3
HETATM    3  C6  UNL     1     -32.641   8.565   1.182  1.00 20.00     0.246 C 
HETATM    4  C3  UNL     1     -31.518   8.720   0.179  1.00 20.00     0.064 C 
HETATM    5  C4  UNL     1     -31.957   9.958  -0.575  1.00 20.00     0.170 C 
HETATM    6  O10 UNL     1     -32.654  10.787   0.367  1.00 20.00    -0.389 OA
HETATM    7  C5  UNL     1     -32.920  10.012   1.548  1.00 20.00     0.203 C 
ENDBRANCH   1   3
BRANCH   1   8
HETATM    8  C8  UNL     1     -33.261   6.652   2.494  1.00 20.00     0.303 C 
BRANCH   8   9
HETATM    9  C2  UNL     1     -34.125   6.922   3.692  1.00 20.00    -0.066 C 
HETATM   10  C1  UNL     1     -35.262   6.241   3.905  1.00 20.00     0.015 C 
HETATM   11  C7  UNL     1     -33.682   8.015   4.622  1.00 20.00     0.044 C 
ENDBRANCH   8   9
ENDBRANCH   1   8
TORSDOF 3
ENDMDL
MODEL 9
REMARK VINA RESULT:      -0.5      2.431      4.533
REMARK  3 active torsions:
REMARK  status: ('A' for Active; 'I' for Inactive)
REMARK    1  A    between atoms: C2_2  and  C8_8 
REMARK    2  A    between atoms: C6_6  and  N9_9 
REMARK    3  A    between atoms: C8_8  and  N9_9 
ROOT
HETATM    1  N9  UNL     1     -31.656   7.851   1.667  1.00 20.00     0.094 N 
HETATM    2  H25 UNL     1     -30.735   7.831   2.109  1.00 20.00     0.316 HD
ENDROOT
BRANCH   1   3
HETATM    3  C6  UNL     1     -31.757   9.017   0.808  1.00 20.00     0.246 C 
HETATM    4  C3  UNL     1     -32.636  10.116   1.367  1.00 20.00     0.064 C 
HETATM    5  C4  UNL     1     -32.945  10.918   0.120  1.00 20.00     0.170 C 
HETATM    6  O10 UNL     1     -32.985   9.983  -0.970  1.00 20.00    -0.389 OA
HETATM    7  C5  UNL     1     -32.437   8.733  -0.520  1.00 20.00     0.203 C 
ENDBRANCH   1   3
BRANCH   1   8
HETATM    8  C8  UNL     1     -32.679   7.871   2.706  1.00 20.00     0.303 C 
BRANCH   8   9
HETATM    9  C2  UNL     1     -33.445   6.579   2.691  1.00 20.00    -0.066 C 
HETATM   10  C1  UNL     1     -33.174   5.614   1.799  1.00 20.00     0.015 C 
HETATM   11  C7  UNL     1     -34.555   6.430   3.692  1.00 20.00     0.044 C 
ENDBRANCH   8   9
ENDBRANCH   1   8
TORSDOF 3
ENDMDL
