MODEL 1
REMARK VINA RESULT:      -0.9      0.000      0.000
REMARK  0 active torsions:
REMARK  status: ('A' for Active; 'I' for Inactive)
ROOT
HETATM    1  C1  UNL     1     -33.252   5.813   1.953  1.00 20.00     0.016 C 
HETATM    2  C2  UNL     1     -32.074   6.591   1.371  1.00 20.00     0.010 C 
HETATM    3  C3  UNL     1     -33.392   7.984   2.907  1.00 20.00     0.024 C 
HETATM    4  C4  UNL     1     -33.518   6.514   3.269  1.00 20.00     0.058 C 
HETATM    5  C5  UNL     1     -32.199   8.032   1.925  1.00 20.00    -0.047 C 
HETATM    6  C6  UNL     1     -32.466   9.038   0.799  1.00 20.00     0.015 C 
HETATM    7  C7  UNL     1     -30.911   8.433   2.660  1.00 20.00     0.015 C 
HETATM    8 BR8  UNL     1     -35.275   6.095   3.954  1.00 20.00    -0.091 Br
ENDROOT
TORSDOF 0
ENDMDL
MODEL 2
REMARK VINA RESULT:      -0.0      2.250      3.765
REMARK  0 active torsions:
REMARK  status: ('A' for Active; 'I' for Inactive)
ROOT
HETATM    1  C1  UNL     1     -32.948   8.280   3.598  1.00 20.00     0.016 C 
HETATM    2  C2  UNL     1     -33.795   7.371   4.485  1.00 20.00     0.010 C 
HETATM    3  C3  UNL     1     -33.698   6.529   2.179  1.00 20.00     0.024 C 
HETATM    4  C4  UNL     1     -32.462   7.350   2.506  1.00 20.00     0.058 C 
HETATM    5  C5  UNL     1     -34.354   6.266   3.554  1.00 20.00    -0.047 C 
HETATM    6  C6  UNL     1     -35.881   6.350   3.449  1.00 20.00     0.015 C 
HETATM    7  C7  UNL     1     -33.963   4.877   4.082  1.00 20.00     0.015 C 
HETATM    8 BR8  UNL     1     -31.829   8.331   0.967  1.00 20.00    -0.091 Br
ENDROOT
TORSDOF 0
ENDMDL
MODEL 3
REMARK VINA RESULT:       0.2      1.021      2.023
REMARK  0 active torsions:
REMARK  status: ('A' for Active; 'I' for Inactive)
ROOT
HETATM    1  C1  UNL     1     -33.050   7.816   4.316  1.00 20.00     0.016 C 
HETATM    2  C2  UNL     1     -32.092   8.568   3.396  1.00 20.00     0.010 C 
HETATM    3  C3  UNL     1     -33.437   6.938   2.144  1.00 20.00     0.024 C 
HETATM    4  C4  UNL     1     -34.174   7.402   3.388  1.00 20.00     0.058 C 
HETATM    5  C5  UNL     1     -32.279   7.950   1.988  1.00 20.00    -0.047 C 
HETATM    6  C6  UNL     1     -31.002   7.243   1.519  1.00 20.00     0.015 C 
HETATM    7  C7  UNL     1     -32.650   9.043   0.973  1.00 20.00     0.015 C 
HETATM    8 BR8  UNL     1     -35.242   5.987   4.155  1.00 20.00    -0.091 Br
ENDROOT
TORSDOF 0
ENDMDL
MODEL 4
REMARK VINA RESULT:       0.2      2.315      3.313
REMARK  0 active torsions:
REMARK  status: ('A' for Active; 'I' for Inactive)
ROOT
HETATM    1  C1  UNL     1     -35.201   4.913   4.491  1.00 20.00     0.016 C 
HETATM    2  C2  UNL     1     -35.331   6.295   3.857  1.00 20.00     0.010 C 
HETATM    3  C3  UNL     1     -33.026   5.458   3.709  1.00 20.00     0.024 C 
HETATM    4  C4  UNL     1     -34.015   4.306   3.770  1.00 20.00     0.058 C 
HETATM    5  C5  UNL     1     -33.902   6.696   3.411  1.00 20.00    -0.047 C 
HETATM    6  C6  UNL     1     -33.400   7.915   4.194  1.00 20.00     0.015 C 
HETATM    7  C7  UNL     1     -33.885   7.022   1.910  1.00 20.00     0.015 C 
HETATM    8 BR8  UNL     1     -33.293   2.797   4.736  1.00 20.00    -0.091 Br
ENDROOT
TORSDOF 0
ENDMDL
MODEL 5
REMARK VINA RESULT:       0.3      1.377      2.824
REMARK  0 active torsions:
REMARK  status: ('A' for Active; 'I' for Inactive)
ROOT
HETATM    1  C1  UNL     1     -32.226   8.086   2.455  1.00 20.00     0.016 C 
HETATM    2  C2  UNL     1     -31.983   7.287   1.176  1.00 20.00     0.010 C 
HETATM    3  C3  UNL     1     -33.340   6.014   2.781  1.00 20.00     0.024 C 
HETATM    4  C4  UNL     1     -33.520   7.508   2.989  1.00 20.00     0.058 C 
HETATM    5  C5  UNL     1     -32.640   5.903   1.407  1.00 20.00    -0.047 C 
HETATM    6  C6  UNL     1     -31.588   4.787   1.424  1.00 20.00     0.015 C 
HETATM    7  C7  UNL     1     -33.665   5.609   0.300  1.00 20.00     0.015 C 
HETATM    8 BR8  UNL     1     -33.777   7.943   4.853  1.00 20.00    -0.091 Br
ENDROOT
TORSDOF 0
ENDMDL
MODEL 6
REMARK VINA RESULT:       0.8      2.543      3.221
REMARK  0 active torsions:
REMARK  status: ('A' for Active; 'I' for Inactive)
ROOT
HETATM    1  C1  UNL     1     -33.162   4.867   2.555  1.00 20.00     0.016 C 
HETATM    2  C2  UNL     1     -33.597   6.326   2.440  1.00 20.00     0.010 C 
HETATM    3  C3  UNL     1     -34.582   5.254   4.419  1.00 20.00     0.024 C 
HETATM    4  C4  UNL     1     -33.273   4.584   4.039  1.00 20.00     0.058 C 
HETATM    5  C5  UNL     1     -34.586   6.570   3.607  1.00 20.00    -0.047 C 
HETATM    6  C6  UNL     1     -35.994   6.879   3.085  1.00 20.00     0.015 C 
HETATM    7  C7  UNL     1     -34.104   7.741   4.477  1.00 20.00     0.015 C 
HETATM    8 BR8  UNL     1     -33.310   2.687   4.400  1.00 20.00    -0.091 Br
ENDROOT
TORSDOF 0
ENDMDL
MODEL 7
REMARK VINA RESULT:       0.9      2.175      3.178
REMARK  0 active torsions:
REMARK  status: ('A' for Active; 'I' for Inactive)
ROOT
HETATM    1  C1  UNL     1     -33.868   5.295   3.131  1.00 20.00     0.016 C 
HETATM    2  C2  UNL     1     -34.596   6.314   4.004  1.00 20.00     0.010 C 
HETATM    3  C3  UNL     1     -32.774   7.364   2.734  1.00 20.00     0.024 C 
HETATM    4  C4  UNL     1     -33.298   6.137   2.009  1.00 20.00     0.058 C 
HETATM    5  C5  UNL     1     -33.843   7.654   3.813  1.00 20.00    -0.047 C 
HETATM    6  C6  UNL     1     -33.183   8.110   5.120  1.00 20.00     0.015 C 
HETATM    7  C7  UNL     1     -34.811   8.746   3.333  1.00 20.00     0.015 C 
HETATM    8 BR8  UNL     1     -31.890   5.208   1.068  1.00 20.00    -0.091 Br
ENDROOT
TORSDOF 0
ENDMDL
MODEL 8
REMARK VINA RESULT:       1.1      2.176      3.630
REMARK  0 active torsions:
REMARK  status: ('A' for Active; 'I' for Inactive)
ROOT
HETATM    1  C1  UNL     1     -32.645   6.300   1.529  1.00 20.00     0.016 C 
HETATM    2  C2  UNL     1     -33.855   5.482   1.973  1.00 20.00     0.010 C 
HETATM    3  C3  UNL     1     -33.326   7.246   3.598  1.00 20.00     0.024 C 
HETATM    4  C4  UNL     1     -32.859   7.638   2.207  1.00 20.00     0.058 C 
HETATM    5  C5  UNL     1     -34.262   6.039   3.360  1.00 20.00    -0.047 C 
HETATM    6  C6  UNL     1     -34.075   4.984   4.457  1.00 20.00     0.015 C 
HETATM    7  C7  UNL     1     -35.730   6.490   3.342  1.00 20.00     0.015 C 
HETATM    8 BR8  UNL     1     -31.229   8.673   2.266  1.00 20.00    -0.091 Br
ENDROOT
TORSDOF 0
ENDMDL
MODEL 9
REMARK VINA RESULT:       1.2      2.416      3.444
REMARK  0 active torsions:
REMARK  status: ('A' for Active; 'I' for Inactive)
ROOT
HETATM    1  C1  UNL     1     -31.942   7.418   1.690  1.00 20.00     0.016 C 
HETATM    2  C2  UNL     1     -32.566   6.592   2.812  1.00 20.00     0.010 C 
HETATM    3  C3  UNL     1     -33.624   8.803   2.635  1.00 20.00     0.024 C 
HETATM    4  C4  UNL     1     -33.052   8.370   1.296  1.00 20.00     0.058 C 
HETATM    5  C5  UNL     1     -33.613   7.513   3.488  1.00 20.00    -0.047 C 
HETATM    6  C6  UNL     1     -33.222   7.827   4.937  1.00 20.00     0.015 C 
HETATM    7  C7  UNL     1     -34.996   6.845   3.474  1.00 20.00     0.015 C 
HETATM    8 BR8  UNL     1     -32.375   9.873   0.289  1.00 20.00    -0.091 Br
ENDROOT
TORSDOF 0
ENDMDL
