MODEL 1
REMARK VINA RESULT:       0.9      0.000      0.000
REMARK  1 active torsions:
REMARK  status: ('A' for Active; 'I' for Inactive)
REMARK    1  A    between atoms: C4_4  and  S8_8 
ROOT
HETATM    1  C1  UNL     1     -32.373   7.910   3.782  1.00 20.00     0.015 C 
HETATM    2  C2  UNL     1     -33.844   7.827   4.165  1.00 20.00     0.010 C 
HETATM    3  C3  UNL     1     -33.413   6.410   2.201  1.00 20.00     0.023 C 
HETATM    4  C4  UNL     1     -32.341   7.500   2.314  1.00 20.00     0.045 C 
HETATM    5  C5  UNL     1     -34.383   6.604   3.396  1.00 20.00    -0.047 C 
HETATM    6  C6  UNL     1     -34.370   5.359   4.298  1.00 20.00     0.015 C 
HETATM    7  C7  UNL     1     -35.817   6.851   2.915  1.00 20.00     0.015 C 
ENDROOT
BRANCH   4   8
HETATM    8  S8  UNL     1     -32.698   8.910   1.206  1.00 20.00    -0.177 SA
HETATM    9  H22 UNL     1     -31.519   9.517   1.386  1.00 20.00     0.102 HD
ENDBRANCH   4   8
TORSDOF 1
ENDMDL
MODEL 2
REMARK VINA RESULT:       1.0      1.991      3.378
REMARK  1 active torsions:
REMARK  status: ('A' for Active; 'I' for Inactive)
REMARK    1  A    between atoms: C4_4  and  S8_8 
ROOT
HETATM    1  C1  UNL     1     -34.125   7.465   3.870  1.00 20.00     0.015 C 
HETATM    2  C2  UNL     1     -32.704   7.933   3.589  1.00 20.00     0.010 C 
HETATM    3  C3  UNL     1     -33.508   6.544   1.725  1.00 20.00     0.023 C 
HETATM    4  C4  UNL     1     -34.292   6.223   3.002  1.00 20.00     0.045 C 
HETATM    5  C5  UNL     1     -32.487   7.653   2.088  1.00 20.00    -0.047 C 
HETATM    6  C6  UNL     1     -32.765   8.922   1.264  1.00 20.00     0.015 C 
HETATM    7  C7  UNL     1     -31.049   7.196   1.821  1.00 20.00     0.015 C 
ENDROOT
BRANCH   4   8
HETATM    8  S8  UNL     1     -33.647   4.724   3.827  1.00 20.00    -0.177 SA
HETATM    9  H22 UNL     1     -34.120   3.862   2.918  1.00 20.00     0.102 HD
ENDBRANCH   4   8
TORSDOF 1
ENDMDL
MODEL 3
REMARK VINA RESULT:       1.0      1.258      2.023
REMARK  1 active torsions:
REMARK  status: ('A' for Active; 'I' for Inactive)
REMARK    1  A    between atoms: C4_4  and  S8_8 
ROOT
HETATM    1  C1  UNL     1     -33.005   5.778   1.863  1.00 20.00     0.015 C 
HETATM    2  C2  UNL     1     -33.133   5.765   3.380  1.00 20.00     0.010 C 
HETATM    3  C3  UNL     1     -34.030   7.874   2.486  1.00 20.00     0.023 C 
HETATM    4  C4  UNL     1     -33.037   7.257   1.495  1.00 20.00     0.045 C 
HETATM    5  C5  UNL     1     -34.109   6.915   3.702  1.00 20.00    -0.047 C 
HETATM    6  C6  UNL     1     -35.540   6.372   3.859  1.00 20.00     0.015 C 
HETATM    7  C7  UNL     1     -33.705   7.625   4.999  1.00 20.00     0.015 C 
ENDROOT
BRANCH   4   8
HETATM    8  S8  UNL     1     -31.386   8.029   1.632  1.00 20.00    -0.177 SA
HETATM    9  H22 UNL     1     -31.155   7.621   2.886  1.00 20.00     0.102 HD
ENDBRANCH   4   8
TORSDOF 1
ENDMDL
MODEL 4
REMARK VINA RESULT:       1.1      1.679      2.029
REMARK  1 active torsions:
REMARK  status: ('A' for Active; 'I' for Inactive)
REMARK    1  A    between atoms: C4_4  and  S8_8 
ROOT
HETATM    1  C1  UNL     1     -32.262   7.507   1.835  1.00 20.00     0.015 C 
HETATM    2  C2  UNL     1     -33.592   8.024   2.365  1.00 20.00     0.010 C 
HETATM    3  C3  UNL     1     -33.160   5.769   3.250  1.00 20.00     0.023 C 
HETATM    4  C4  UNL     1     -32.369   5.992   1.956  1.00 20.00     0.045 C 
HETATM    5  C5  UNL     1     -33.945   7.077   3.531  1.00 20.00    -0.047 C 
HETATM    6  C6  UNL     1     -33.497   7.689   4.868  1.00 20.00     0.015 C 
HETATM    7  C7  UNL     1     -35.455   6.820   3.586  1.00 20.00     0.015 C 
ENDROOT
BRANCH   4   8
HETATM    8  S8  UNL     1     -33.219   5.253   0.515  1.00 20.00    -0.177 SA
HETATM    9  H22 UNL     1     -34.333   5.987   0.631  1.00 20.00     0.102 HD
ENDBRANCH   4   8
TORSDOF 1
ENDMDL
MODEL 5
REMARK VINA RESULT:       1.3      1.896      3.403
REMARK  1 active torsions:
REMARK  status: ('A' for Active; 'I' for Inactive)
REMARK    1  A    between atoms: C4_4  and  S8_8 
ROOT
HETATM    1  C1  UNL     1     -33.114   5.575   2.496  1.00 20.00     0.015 C 
HETATM    2  C2  UNL     1     -32.900   6.458   1.274  1.00 20.00     0.010 C 
HETATM    3  C3  UNL     1     -32.858   7.832   3.314  1.00 20.00     0.023 C 
HETATM    4  C4  UNL     1     -33.627   6.530   3.567  1.00 20.00     0.045 C 
HETATM    5  C5  UNL     1     -32.375   7.792   1.841  1.00 20.00    -0.047 C 
HETATM    6  C6  UNL     1     -30.838   7.827   1.786  1.00 20.00     0.015 C 
HETATM    7  C7  UNL     1     -32.926   8.978   1.042  1.00 20.00     0.015 C 
ENDROOT
BRANCH   4   8
HETATM    8  S8  UNL     1     -35.434   6.784   3.445  1.00 20.00    -0.177 SA
HETATM    9  H22 UNL     1     -35.654   6.784   4.766  1.00 20.00     0.102 HD
ENDBRANCH   4   8
TORSDOF 1
ENDMDL
MODEL 6
REMARK VINA RESULT:       1.7      2.225      3.811
REMARK  1 active torsions:
REMARK  status: ('A' for Active; 'I' for Inactive)
REMARK    1  A    between atoms: C4_4  and  S8_8 
ROOT
HETATM    1  C1  UNL     1     -32.798   6.352   1.558  1.00 20.00     0.015 C 
HETATM    2  C2  UNL     1     -33.092   7.460   0.555  1.00 20.00     0.010 C 
HETATM    3  C3  UNL     1     -31.896   8.386   2.496  1.00 20.00     0.023 C 
HETATM    4  C4  UNL     1     -32.604   7.083   2.881  1.00 20.00     0.045 C 
HETATM    5  C5  UNL     1     -32.195   8.635   0.994  1.00 20.00    -0.047 C 
HETATM    6  C6  UNL     1     -30.887   8.638   0.186  1.00 20.00     0.015 C 
HETATM    7  C7  UNL     1     -32.910   9.975   0.783  1.00 20.00     0.015 C 
ENDROOT
BRANCH   4   8
HETATM    8  S8  UNL     1     -34.196   7.406   3.721  1.00 20.00    -0.177 SA
HETATM    9  H22 UNL     1     -34.963   6.946   2.725  1.00 20.00     0.102 HD
ENDBRANCH   4   8
TORSDOF 1
ENDMDL
MODEL 7
REMARK VINA RESULT:       2.0      1.731      2.676
REMARK  1 active torsions:
REMARK  status: ('A' for Active; 'I' for Inactive)
REMARK    1  A    between atoms: C4_4  and  S8_8 
ROOT
HETATM    1  C1  UNL     1     -30.951   8.608   0.862  1.00 20.00     0.015 C 
HETATM    2  C2  UNL     1     -31.397   8.039   2.202  1.00 20.00     0.010 C 
HETATM    3  C3  UNL     1     -33.244   7.905   0.583  1.00 20.00     0.023 C 
HETATM    4  C4  UNL     1     -32.250   8.994   0.165  1.00 20.00     0.045 C 
HETATM    5  C5  UNL     1     -32.699   7.274   1.891  1.00 20.00    -0.047 C 
HETATM    6  C6  UNL     1     -32.402   5.780   1.676  1.00 20.00     0.015 C 
HETATM    7  C7  UNL     1     -33.704   7.418   3.040  1.00 20.00     0.015 C 
ENDROOT
BRANCH   4   8
HETATM    8  S8  UNL     1     -32.825  10.655   0.667  1.00 20.00    -0.177 SA
HETATM    9  H22 UNL     1     -31.984  10.775   1.702  1.00 20.00     0.102 HD
ENDBRANCH   4   8
TORSDOF 1
ENDMDL
MODEL 8
REMARK VINA RESULT:       2.2      1.858      3.038
REMARK  1 active torsions:
REMARK  status: ('A' for Active; 'I' for Inactive)
REMARK    1  A    between atoms: C4_4  and  S8_8 
ROOT
HETATM    1  C1  UNL     1     -33.013   8.314   2.073  1.00 20.00     0.015 C 
HETATM    2  C2  UNL     1     -31.986   7.263   1.677  1.00 20.00     0.010 C 
HETATM    3  C3  UNL     1     -33.899   6.184   2.784  1.00 20.00     0.023 C 
HETATM    4  C4  UNL     1     -33.812   7.658   3.193  1.00 20.00     0.045 C 
HETATM    5  C5  UNL     1     -32.733   5.919   1.798  1.00 20.00    -0.047 C 
HETATM    6  C6  UNL     1     -33.283   5.490   0.427  1.00 20.00     0.015 C 
HETATM    7  C7  UNL     1     -31.799   4.822   2.320  1.00 20.00     0.015 C 
ENDROOT
BRANCH   4   8
HETATM    8  S8  UNL     1     -32.996   7.857   4.818  1.00 20.00    -0.177 SA
HETATM    9  H22 UNL     1     -33.635   6.839   5.409  1.00 20.00     0.102 HD
ENDBRANCH   4   8
TORSDOF 1
ENDMDL
MODEL 9
REMARK VINA RESULT:       2.2      2.336      3.911
REMARK  1 active torsions:
REMARK  status: ('A' for Active; 'I' for Inactive)
REMARK    1  A    between atoms: C4_4  and  S8_8 
ROOT
HETATM    1  C1  UNL     1     -32.637   7.633   2.872  1.00 20.00     0.015 C 
HETATM    2  C2  UNL     1     -31.550   8.487   2.235  1.00 20.00     0.010 C 
HETATM    3  C3  UNL     1     -33.099   7.679   0.503  1.00 20.00     0.023 C 
HETATM    4  C4  UNL     1     -33.152   6.764   1.731  1.00 20.00     0.045 C 
HETATM    5  C5  UNL     1     -32.076   8.801   0.819  1.00 20.00    -0.047 C 
HETATM    6  C6  UNL     1     -32.770  10.173   0.801  1.00 20.00     0.015 C 
HETATM    7  C7  UNL     1     -30.929   8.813  -0.198  1.00 20.00     0.015 C 
ENDROOT
BRANCH   4   8
HETATM    8  S8  UNL     1     -32.127   5.268   1.498  1.00 20.00    -0.177 SA
HETATM    9  H22 UNL     1     -30.952   5.908   1.536  1.00 20.00     0.102 HD
ENDBRANCH   4   8
TORSDOF 1
ENDMDL
