MODEL 1
REMARK VINA RESULT:      -0.5      0.000      0.000
REMARK  0 active torsions:
REMARK  status: ('A' for Active; 'I' for Inactive)
ROOT
HETATM    1  C1  UNL     1     -32.317   8.727   1.087  1.00 20.00     0.064 C 
HETATM    2  C2  UNL     1     -32.282   8.108   3.499  1.00 20.00     0.020 C 
HETATM    3  C3  UNL     1     -33.592   7.731   4.189  1.00 20.00     0.010 C 
HETATM    4  C4  UNL     1     -33.771   6.913   1.961  1.00 20.00     0.027 C 
HETATM    5  C5  UNL     1     -32.410   7.620   2.049  1.00 20.00     0.093 C 
HETATM    6  C6  UNL     1     -34.117   6.521   3.406  1.00 20.00    -0.046 C 
HETATM    7  C7  UNL     1     -33.398   5.227   3.822  1.00 20.00     0.015 C 
HETATM    8  C8  UNL     1     -35.625   6.342   3.596  1.00 20.00     0.015 C 
HETATM    9  N9  UNL     1     -32.243   9.600   0.327  1.00 20.00    -0.197 NA
ENDROOT
TORSDOF 0
ENDMDL
MODEL 2
REMARK VINA RESULT:      -0.3      2.338      3.915
REMARK  0 active torsions:
REMARK  status: ('A' for Active; 'I' for Inactive)
ROOT
HETATM    1  C1  UNL     1     -34.608   6.332   3.750  1.00 20.00     0.064 C 
HETATM    2  C2  UNL     1     -32.889   5.826   2.021  1.00 20.00     0.020 C 
HETATM    3  C3  UNL     1     -32.660   6.822   0.886  1.00 20.00     0.010 C 
HETATM    4  C4  UNL     1     -33.179   8.130   2.805  1.00 20.00     0.027 C 
HETATM    5  C5  UNL     1     -33.267   6.663   3.252  1.00 20.00     0.093 C 
HETATM    6  C6  UNL     1     -32.249   8.126   1.582  1.00 20.00    -0.046 C 
HETATM    7  C7  UNL     1     -30.771   8.098   2.002  1.00 20.00     0.015 C 
HETATM    8  C8  UNL     1     -32.494   9.342   0.684  1.00 20.00     0.015 C 
HETATM    9  N9  UNL     1     -35.668   6.072   4.145  1.00 20.00    -0.197 NA
ENDROOT
TORSDOF 0
ENDMDL
MODEL 3
REMARK VINA RESULT:      -0.3      2.462      3.908
REMARK  0 active torsions:
REMARK  status: ('A' for Active; 'I' for Inactive)
ROOT
HETATM    1  C1  UNL     1     -34.703   5.599   3.909  1.00 20.00     0.064 C 
HETATM    2  C2  UNL     1     -33.788   7.907   4.107  1.00 20.00     0.020 C 
HETATM    3  C3  UNL     1     -32.367   8.187   3.624  1.00 20.00     0.010 C 
HETATM    4  C4  UNL     1     -33.250   6.554   2.135  1.00 20.00     0.027 C 
HETATM    5  C5  UNL     1     -34.348   6.821   3.177  1.00 20.00     0.093 C 
HETATM    6  C6  UNL     1     -32.376   7.817   2.135  1.00 20.00    -0.046 C 
HETATM    7  C7  UNL     1     -33.004   8.932   1.282  1.00 20.00     0.015 C 
HETATM    8  C8  UNL     1     -30.964   7.526   1.621  1.00 20.00     0.015 C 
HETATM    9  N9  UNL     1     -34.984   4.632   4.487  1.00 20.00    -0.197 NA
ENDROOT
TORSDOF 0
ENDMDL
MODEL 4
REMARK VINA RESULT:       0.2      2.948      4.307
REMARK  0 active torsions:
REMARK  status: ('A' for Active; 'I' for Inactive)
ROOT
HETATM    1  C1  UNL     1     -33.481   3.688   4.304  1.00 20.00     0.064 C 
HETATM    2  C2  UNL     1     -34.679   5.804   3.766  1.00 20.00     0.020 C 
HETATM    3  C3  UNL     1     -33.868   7.041   3.383  1.00 20.00     0.010 C 
HETATM    4  C4  UNL     1     -32.682   5.182   2.488  1.00 20.00     0.027 C 
HETATM    5  C5  UNL     1     -33.895   4.598   3.228  1.00 20.00     0.093 C 
HETATM    6  C6  UNL     1     -33.078   6.624   2.136  1.00 20.00    -0.046 C 
HETATM    7  C7  UNL     1     -33.953   6.671   0.873  1.00 20.00     0.015 C 
HETATM    8  C8  UNL     1     -31.848   7.512   1.930  1.00 20.00     0.015 C 
HETATM    9  N9  UNL     1     -33.154   2.968   5.154  1.00 20.00    -0.197 NA
ENDROOT
TORSDOF 0
ENDMDL
MODEL 5
REMARK VINA RESULT:       0.9      2.370      3.413
REMARK  0 active torsions:
REMARK  status: ('A' for Active; 'I' for Inactive)
ROOT
HETATM    1  C1  UNL     1     -33.713   7.816   4.285  1.00 20.00     0.064 C 
HETATM    2  C2  UNL     1     -32.816   8.173   1.989  1.00 20.00     0.020 C 
HETATM    3  C3  UNL     1     -31.824   7.164   1.413  1.00 20.00     0.010 C 
HETATM    4  C4  UNL     1     -33.336   5.901   2.749  1.00 20.00     0.027 C 
HETATM    5  C5  UNL     1     -33.768   7.369   2.887  1.00 20.00     0.093 C 
HETATM    6  C6  UNL     1     -32.576   5.826   1.416  1.00 20.00    -0.046 C 
HETATM    7  C7  UNL     1     -33.542   5.721   0.226  1.00 20.00     0.015 C 
HETATM    8  C8  UNL     1     -31.608   4.640   1.385  1.00 20.00     0.015 C 
HETATM    9  N9  UNL     1     -33.671   8.169   5.390  1.00 20.00    -0.197 NA
ENDROOT
TORSDOF 0
ENDMDL
MODEL 6
REMARK VINA RESULT:       0.9      1.587      2.187
REMARK  0 active torsions:
REMARK  status: ('A' for Active; 'I' for Inactive)
ROOT
HETATM    1  C1  UNL     1     -32.300   9.469   1.026  1.00 20.00     0.064 C 
HETATM    2  C2  UNL     1     -32.755   7.768   2.787  1.00 20.00     0.020 C 
HETATM    3  C3  UNL     1     -33.518   6.498   2.415  1.00 20.00     0.010 C 
HETATM    4  C4  UNL     1     -32.192   7.041   0.515  1.00 20.00     0.027 C 
HETATM    5  C5  UNL     1     -31.930   8.147   1.549  1.00 20.00     0.093 C 
HETATM    6  C6  UNL     1     -32.664   5.828   1.331  1.00 20.00    -0.046 C 
HETATM    7  C7  UNL     1     -31.476   5.067   1.941  1.00 20.00     0.015 C 
HETATM    8  C8  UNL     1     -33.495   4.865   0.480  1.00 20.00     0.015 C 
HETATM    9  N9  UNL     1     -32.591  10.514   0.613  1.00 20.00    -0.197 NA
ENDROOT
TORSDOF 0
ENDMDL
MODEL 7
REMARK VINA RESULT:       1.0      1.146      1.619
REMARK  0 active torsions:
REMARK  status: ('A' for Active; 'I' for Inactive)
ROOT
HETATM    1  C1  UNL     1     -32.320   9.867   0.372  1.00 20.00     0.064 C 
HETATM    2  C2  UNL     1     -31.187   8.333   1.974  1.00 20.00     0.020 C 
HETATM    3  C3  UNL     1     -31.998   7.709   3.107  1.00 20.00     0.010 C 
HETATM    4  C4  UNL     1     -33.478   7.852   1.248  1.00 20.00     0.027 C 
HETATM    5  C5  UNL     1     -32.149   8.468   0.785  1.00 20.00     0.093 C 
HETATM    6  C6  UNL     1     -33.107   6.913   2.407  1.00 20.00    -0.046 C 
HETATM    7  C7  UNL     1     -32.587   5.563   1.888  1.00 20.00     0.015 C 
HETATM    8  C8  UNL     1     -34.297   6.670   3.339  1.00 20.00     0.015 C 
HETATM    9  N9  UNL     1     -32.456  10.972   0.045  1.00 20.00    -0.197 NA
ENDROOT
TORSDOF 0
ENDMDL
MODEL 8
REMARK VINA RESULT:       1.5      3.383      4.373
REMARK  0 active torsions:
REMARK  status: ('A' for Active; 'I' for Inactive)
ROOT
HETATM    1  C1  UNL     1     -33.481   3.087   4.407  1.00 20.00     0.064 C 
HETATM    2  C2  UNL     1     -32.848   5.062   3.027  1.00 20.00     0.020 C 
HETATM    3  C3  UNL     1     -33.949   5.900   2.380  1.00 20.00     0.010 C 
HETATM    4  C4  UNL     1     -34.828   5.173   4.469  1.00 20.00     0.027 C 
HETATM    5  C5  UNL     1     -33.426   4.554   4.356  1.00 20.00     0.093 C 
HETATM    6  C6  UNL     1     -34.801   6.405   3.551  1.00 20.00    -0.046 C 
HETATM    7  C7  UNL     1     -34.144   7.607   4.248  1.00 20.00     0.015 C 
HETATM    8  C8  UNL     1     -36.208   6.797   3.093  1.00 20.00     0.015 C 
HETATM    9  N9  UNL     1     -33.524   1.928   4.448  1.00 20.00    -0.197 NA
ENDROOT
TORSDOF 0
ENDMDL
MODEL 9
REMARK VINA RESULT:       1.6      2.112      2.588
REMARK  0 active torsions:
REMARK  status: ('A' for Active; 'I' for Inactive)
ROOT
HETATM    1  C1  UNL     1     -31.902   5.128   1.038  1.00 20.00     0.064 C 
HETATM    2  C2  UNL     1     -32.418   7.476   1.686  1.00 20.00     0.020 C 
HETATM    3  C3  UNL     1     -33.804   7.809   2.235  1.00 20.00     0.010 C 
HETATM    4  C4  UNL     1     -33.294   5.626   3.033  1.00 20.00     0.027 C 
HETATM    5  C5  UNL     1     -32.102   6.051   2.162  1.00 20.00     0.093 C 
HETATM    6  C6  UNL     1     -33.951   6.938   3.489  1.00 20.00    -0.046 C 
HETATM    7  C7  UNL     1     -33.209   7.548   4.689  1.00 20.00     0.015 C 
HETATM    8  C8  UNL     1     -35.422   6.733   3.859  1.00 20.00     0.015 C 
HETATM    9  N9  UNL     1     -31.744   4.397   0.150  1.00 20.00    -0.197 NA
ENDROOT
TORSDOF 0
ENDMDL
