MODEL 1
REMARK VINA RESULT:      -1.5      0.000      0.000
REMARK  2 active torsions:
REMARK  status: ('A' for Active; 'I' for Inactive)
REMARK    1  A    between atoms: C6_6  and  C7_7 
REMARK    2  A    between atoms: C6_6  and  N9_9 
ROOT
HETATM    1  C1  UNL     1     -32.369   8.899   1.201  1.00 20.00     0.095 C 
HETATM    2  C2  UNL     1     -32.338   5.382   1.145  1.00 20.00     0.033 C 
HETATM    3  C3  UNL     1     -31.432   6.605   1.117  1.00 20.00     0.053 C 
HETATM    4  C4  UNL     1     -33.184   5.594   2.382  1.00 20.00     0.274 C 
HETATM    5  C5  UNL     1     -32.153   7.663   1.964  1.00 20.00     0.328 C 
HETATM    6  N8  UNL     1     -32.541   9.876   0.598  1.00 20.00    -0.195 NA
HETATM    7  N9  UNL     1     -33.431   7.035   2.335  1.00 20.00     0.108 N 
ENDROOT
BRANCH   7   8
HETATM    8  C6  UNL     1     -33.974   7.538   3.589  1.00 20.00     0.305 C 
BRANCH   8   9
HETATM    9  C7  UNL     1     -34.931   6.548   4.218  1.00 20.00     0.252 C 
HETATM   10  F10 UNL     1     -36.077   6.515   3.485  1.00 20.00    -0.254 F 
ENDBRANCH   8   9
ENDBRANCH   7   8
TORSDOF 2
ENDMDL
MODEL 2
REMARK VINA RESULT:      -0.9      2.175      3.732
REMARK  2 active torsions:
REMARK  status: ('A' for Active; 'I' for Inactive)
REMARK    1  A    between atoms: C6_6  and  C7_7 
REMARK    2  A    between atoms: C6_6  and  N9_9 
ROOT
HETATM    1  C1  UNL     1     -32.995   5.373   1.391  1.00 20.00     0.095 C 
HETATM    2  C2  UNL     1     -35.028   6.497   4.032  1.00 20.00     0.033 C 
HETATM    3  C3  UNL     1     -34.178   5.322   3.570  1.00 20.00     0.053 C 
HETATM    4  C4  UNL     1     -34.086   7.678   3.936  1.00 20.00     0.274 C 
HETATM    5  C5  UNL     1     -33.043   5.944   2.743  1.00 20.00     0.328 C 
HETATM    6  N8  UNL     1     -32.958   4.921   0.322  1.00 20.00    -0.195 NA
HETATM    7  N9  UNL     1     -33.356   7.380   2.703  1.00 20.00     0.108 N 
ENDROOT
BRANCH   7   8
HETATM    8  C6  UNL     1     -32.175   8.220   2.552  1.00 20.00     0.305 C 
BRANCH   8   9
HETATM    9  C7  UNL     1     -31.976   8.645   1.112  1.00 20.00     0.252 C 
HETATM   10  F10 UNL     1     -32.588   9.844   0.917  1.00 20.00    -0.254 F 
ENDBRANCH   8   9
ENDBRANCH   7   8
TORSDOF 2
ENDMDL
MODEL 3
REMARK VINA RESULT:      -0.8      1.952      2.896
REMARK  2 active torsions:
REMARK  status: ('A' for Active; 'I' for Inactive)
REMARK    1  A    between atoms: C6_6  and  C7_7 
REMARK    2  A    between atoms: C6_6  and  N9_9 
ROOT
HETATM    1  C1  UNL     1     -32.740   5.796   1.522  1.00 20.00     0.095 C 
HETATM    2  C2  UNL     1     -32.148   8.515   3.672  1.00 20.00     0.033 C 
HETATM    3  C3  UNL     1     -32.222   8.123   2.203  1.00 20.00     0.053 C 
HETATM    4  C4  UNL     1     -33.477   8.053   4.231  1.00 20.00     0.274 C 
HETATM    5  C5  UNL     1     -33.283   7.015   2.133  1.00 20.00     0.328 C 
HETATM    6  N8  UNL     1     -32.310   4.831   1.039  1.00 20.00    -0.195 NA
HETATM    7  N9  UNL     1     -33.671   6.783   3.532  1.00 20.00     0.108 N 
ENDROOT
BRANCH   7   8
HETATM    8  C6  UNL     1     -35.033   6.284   3.674  1.00 20.00     0.305 C 
BRANCH   8   9
HETATM    9  C7  UNL     1     -35.071   4.984   4.450  1.00 20.00     0.252 C 
HETATM   10  F10 UNL     1     -34.011   4.217   4.079  1.00 20.00    -0.254 F 
ENDBRANCH   8   9
ENDBRANCH   7   8
TORSDOF 2
ENDMDL
MODEL 4
REMARK VINA RESULT:      -0.6      2.082      3.513
REMARK  2 active torsions:
REMARK  status: ('A' for Active; 'I' for Inactive)
REMARK    1  A    between atoms: C6_6  and  C7_7 
REMARK    2  A    between atoms: C6_6  and  N9_9 
ROOT
HETATM    1  C1  UNL     1     -33.825   4.535   3.559  1.00 20.00     0.095 C 
HETATM    2  C2  UNL     1     -31.903   6.597   1.456  1.00 20.00     0.033 C 
HETATM    3  C3  UNL     1     -32.860   5.414   1.450  1.00 20.00     0.053 C 
HETATM    4  C4  UNL     1     -32.663   7.668   2.210  1.00 20.00     0.274 C 
HETATM    5  C5  UNL     1     -33.821   5.666   2.621  1.00 20.00     0.328 C 
HETATM    6  N8  UNL     1     -33.828   3.642   4.300  1.00 20.00    -0.195 NA
HETATM    7  N9  UNL     1     -33.314   6.888   3.263  1.00 20.00     0.108 N 
ENDROOT
BRANCH   7   8
HETATM    8  C6  UNL     1     -34.352   7.650   3.944  1.00 20.00     0.305 C 
BRANCH   8   9
HETATM    9  C7  UNL     1     -33.835   8.272   5.225  1.00 20.00     0.252 C 
HETATM   10  F10 UNL     1     -32.475   8.264   5.202  1.00 20.00    -0.254 F 
ENDBRANCH   8   9
ENDBRANCH   7   8
TORSDOF 2
ENDMDL
MODEL 5
REMARK VINA RESULT:      -0.6      2.282      3.653
REMARK  2 active torsions:
REMARK  status: ('A' for Active; 'I' for Inactive)
REMARK    1  A    between atoms: C6_6  and  C7_7 
REMARK    2  A    between atoms: C6_6  and  N9_9 
ROOT
HETATM    1  C1  UNL     1     -33.861   7.492   3.726  1.00 20.00     0.095 C 
HETATM    2  C2  UNL     1     -31.834   5.676   1.498  1.00 20.00     0.033 C 
HETATM    3  C3  UNL     1     -33.238   5.744   2.082  1.00 20.00     0.053 C 
HETATM    4  C4  UNL     1     -31.611   7.067   0.944  1.00 20.00     0.274 C 
HETATM    5  C5  UNL     1     -33.504   7.236   2.325  1.00 20.00     0.328 C 
HETATM    6  N8  UNL     1     -34.143   7.695   4.833  1.00 20.00    -0.195 NA
HETATM    7  N9  UNL     1     -32.242   7.902   1.966  1.00 20.00     0.108 N 
ENDROOT
BRANCH   7   8
HETATM    8  C6  UNL     1     -32.427   9.274   1.512  1.00 20.00     0.305 C 
BRANCH   8   9
HETATM    9  C7  UNL     1     -32.162   9.410   0.028  1.00 20.00     0.252 C 
HETATM   10  F10 UNL     1     -33.156  10.151  -0.533  1.00 20.00    -0.254 F 
ENDBRANCH   8   9
ENDBRANCH   7   8
TORSDOF 2
ENDMDL
MODEL 6
REMARK VINA RESULT:      -0.5      1.600      3.195
REMARK  2 active torsions:
REMARK  status: ('A' for Active; 'I' for Inactive)
REMARK    1  A    between atoms: C6_6  and  C7_7 
REMARK    2  A    between atoms: C6_6  and  N9_9 
ROOT
HETATM    1  C1  UNL     1     -33.478   4.410   3.467  1.00 20.00     0.095 C 
HETATM    2  C2  UNL     1     -31.782   6.801   1.525  1.00 20.00     0.033 C 
HETATM    3  C3  UNL     1     -32.596   5.519   1.432  1.00 20.00     0.053 C 
HETATM    4  C4  UNL     1     -32.670   7.730   2.326  1.00 20.00     0.274 C 
HETATM    5  C5  UNL     1     -33.594   5.588   2.598  1.00 20.00     0.328 C 
HETATM    6  N8  UNL     1     -33.387   3.479   4.155  1.00 20.00    -0.195 NA
HETATM    7  N9  UNL     1     -33.239   6.819   3.319  1.00 20.00     0.108 N 
ENDROOT
BRANCH   7   8
HETATM    8  C6  UNL     1     -34.365   7.415   4.025  1.00 20.00     0.305 C 
BRANCH   8   9
HETATM    9  C7  UNL     1     -35.641   6.632   3.798  1.00 20.00     0.252 C 
HETATM   10  F10 UNL     1     -35.781   5.717   4.794  1.00 20.00    -0.254 F 
ENDBRANCH   8   9
ENDBRANCH   7   8
TORSDOF 2
ENDMDL
MODEL 7
REMARK VINA RESULT:      -0.4      2.401      3.700
REMARK  2 active torsions:
REMARK  status: ('A' for Active; 'I' for Inactive)
REMARK    1  A    between atoms: C6_6  and  C7_7 
REMARK    2  A    between atoms: C6_6  and  N9_9 
ROOT
HETATM    1  C1  UNL     1     -34.115   7.549   4.353  1.00 20.00     0.095 C 
HETATM    2  C2  UNL     1     -34.053   4.043   4.084  1.00 20.00     0.033 C 
HETATM    3  C3  UNL     1     -34.970   5.222   4.376  1.00 20.00     0.053 C 
HETATM    4  C4  UNL     1     -33.433   4.396   2.749  1.00 20.00     0.274 C 
HETATM    5  C5  UNL     1     -34.427   6.378   3.524  1.00 20.00     0.328 C 
HETATM    6  N8  UNL     1     -33.868   8.475   5.008  1.00 20.00    -0.195 NA
HETATM    7  N9  UNL     1     -33.216   5.836   2.890  1.00 20.00     0.108 N 
ENDROOT
BRANCH   7   8
HETATM    8  C6  UNL     1     -32.903   6.468   1.615  1.00 20.00     0.305 C 
BRANCH   8   9
HETATM    9  C7  UNL     1     -31.877   7.570   1.777  1.00 20.00     0.252 C 
HETATM   10  F10 UNL     1     -32.244   8.632   1.010  1.00 20.00    -0.254 F 
ENDBRANCH   8   9
ENDBRANCH   7   8
TORSDOF 2
ENDMDL
MODEL 8
REMARK VINA RESULT:      -0.2      1.614      2.644
REMARK  2 active torsions:
REMARK  status: ('A' for Active; 'I' for Inactive)
REMARK    1  A    between atoms: C6_6  and  C7_7 
REMARK    2  A    between atoms: C6_6  and  N9_9 
ROOT
HETATM    1  C1  UNL     1     -32.120   5.470   1.118  1.00 20.00     0.095 C 
HETATM    2  C2  UNL     1     -32.169   8.417   3.038  1.00 20.00     0.033 C 
HETATM    3  C3  UNL     1     -32.208   7.900   1.607  1.00 20.00     0.053 C 
HETATM    4  C4  UNL     1     -33.297   7.670   3.718  1.00 20.00     0.274 C 
HETATM    5  C5  UNL     1     -32.938   6.551   1.684  1.00 20.00     0.328 C 
HETATM    6  N8  UNL     1     -31.473   4.616   0.671  1.00 20.00    -0.195 NA
HETATM    7  N9  UNL     1     -33.180   6.340   3.119  1.00 20.00     0.108 N 
ENDROOT
BRANCH   7   8
HETATM    8  C6  UNL     1     -34.350   5.515   3.388  1.00 20.00     0.305 C 
BRANCH   8   9
HETATM    9  C7  UNL     1     -35.413   6.287   4.143  1.00 20.00     0.252 C 
HETATM   10  F10 UNL     1     -36.431   6.584   3.291  1.00 20.00    -0.254 F 
ENDBRANCH   8   9
ENDBRANCH   7   8
TORSDOF 2
ENDMDL
MODEL 9
REMARK VINA RESULT:      -0.0      2.478      4.024
REMARK  2 active torsions:
REMARK  status: ('A' for Active; 'I' for Inactive)
REMARK    1  A    between atoms: C6_6  and  C7_7 
REMARK    2  A    between atoms: C6_6  and  N9_9 
ROOT
HETATM    1  C1  UNL     1     -34.554   6.429   3.661  1.00 20.00     0.095 C 
HETATM    2  C2  UNL     1     -32.223   8.635   2.223  1.00 20.00     0.033 C 
HETATM    3  C3  UNL     1     -32.671   8.038   3.550  1.00 20.00     0.053 C 
HETATM    4  C4  UNL     1     -31.972   7.422   1.353  1.00 20.00     0.274 C 
HETATM    5  C5  UNL     1     -33.171   6.627   3.210  1.00 20.00     0.328 C 
HETATM    6  N8  UNL     1     -35.648   6.273   4.017  1.00 20.00    -0.195 NA
HETATM    7  N9  UNL     1     -33.070   6.538   1.745  1.00 20.00     0.108 N 
ENDROOT
BRANCH   7   8
HETATM    8  C6  UNL     1     -32.874   5.177   1.265  1.00 20.00     0.305 C 
BRANCH   8   9
HETATM    9  C7  UNL     1     -31.413   4.889   0.991  1.00 20.00     0.252 C 
HETATM   10  F10 UNL     1     -31.317   4.124  -0.130  1.00 20.00    -0.254 F 
ENDBRANCH   8   9
ENDBRANCH   7   8
TORSDOF 2
ENDMDL
