MODEL 1
REMARK VINA RESULT:      -1.3      0.000      0.000
REMARK  0 active torsions:
REMARK  status: ('A' for Active; 'I' for Inactive)
ROOT
HETATM    1  C1  UNL     1     -33.351   5.815   2.025  1.00 20.00     0.021 C 
HETATM    2  C2  UNL     1     -32.128   6.552   1.482  1.00 20.00     0.010 C 
HETATM    3  C3  UNL     1     -33.491   8.013   2.913  1.00 20.00     0.029 C 
HETATM    4  C4  UNL     1     -33.658   6.554   3.316  1.00 20.00     0.083 C 
HETATM    5  C5  UNL     1     -32.248   8.010   1.993  1.00 20.00    -0.046 C 
HETATM    6  C6  UNL     1     -32.434   8.991   0.830  1.00 20.00     0.015 C 
HETATM    7  C7  UNL     1     -30.990   8.402   2.783  1.00 20.00     0.015 C 
HETATM    8 CL8  UNL     1     -35.285   6.205   3.919  1.00 20.00    -0.125 Cl
ENDROOT
TORSDOF 0
ENDMDL
MODEL 2
REMARK VINA RESULT:      -0.5      1.318      2.742
REMARK  0 active torsions:
REMARK  status: ('A' for Active; 'I' for Inactive)
ROOT
HETATM    1  C1  UNL     1     -32.323   8.118   2.661  1.00 20.00     0.021 C 
HETATM    2  C2  UNL     1     -32.034   7.400   1.344  1.00 20.00     0.010 C 
HETATM    3  C3  UNL     1     -33.412   6.014   2.834  1.00 20.00     0.029 C 
HETATM    4  C4  UNL     1     -33.631   7.495   3.118  1.00 20.00     0.083 C 
HETATM    5  C5  UNL     1     -32.676   5.995   1.474  1.00 20.00    -0.046 C 
HETATM    6  C6  UNL     1     -31.611   4.894   1.452  1.00 20.00     0.015 C 
HETATM    7  C7  UNL     1     -33.669   5.756   0.326  1.00 20.00     0.015 C 
HETATM    8 CL8  UNL     1     -33.963   7.810   4.827  1.00 20.00    -0.125 Cl
ENDROOT
TORSDOF 0
ENDMDL
MODEL 3
REMARK VINA RESULT:      -0.4      2.160      3.664
REMARK  0 active torsions:
REMARK  status: ('A' for Active; 'I' for Inactive)
ROOT
HETATM    1  C1  UNL     1     -32.839   8.318   3.555  1.00 20.00     0.021 C 
HETATM    2  C2  UNL     1     -33.647   7.388   4.457  1.00 20.00     0.010 C 
HETATM    3  C3  UNL     1     -33.682   6.621   2.122  1.00 20.00     0.029 C 
HETATM    4  C4  UNL     1     -32.413   7.411   2.412  1.00 20.00     0.083 C 
HETATM    5  C5  UNL     1     -34.265   6.318   3.522  1.00 20.00    -0.046 C 
HETATM    6  C6  UNL     1     -35.795   6.415   3.503  1.00 20.00     0.015 C 
HETATM    7  C7  UNL     1     -33.859   4.909   3.983  1.00 20.00     0.015 C 
HETATM    8 CL8  UNL     1     -31.853   8.325   1.004  1.00 20.00    -0.125 Cl
ENDROOT
TORSDOF 0
ENDMDL
MODEL 4
REMARK VINA RESULT:      -0.2      1.008      2.003
REMARK  0 active torsions:
REMARK  status: ('A' for Active; 'I' for Inactive)
ROOT
HETATM    1  C1  UNL     1     -33.117   7.778   4.377  1.00 20.00     0.021 C 
HETATM    2  C2  UNL     1     -32.139   8.508   3.460  1.00 20.00     0.010 C 
HETATM    3  C3  UNL     1     -33.516   6.905   2.204  1.00 20.00     0.029 C 
HETATM    4  C4  UNL     1     -34.253   7.396   3.443  1.00 20.00     0.083 C 
HETATM    5  C5  UNL     1     -32.336   7.893   2.051  1.00 20.00    -0.046 C 
HETATM    6  C6  UNL     1     -31.074   7.160   1.584  1.00 20.00     0.015 C 
HETATM    7  C7  UNL     1     -32.683   8.993   1.034  1.00 20.00     0.015 C 
HETATM    8 CL8  UNL     1     -35.304   6.153   4.137  1.00 20.00    -0.125 Cl
ENDROOT
TORSDOF 0
ENDMDL
MODEL 5
REMARK VINA RESULT:      -0.2      2.271      3.298
REMARK  0 active torsions:
REMARK  status: ('A' for Active; 'I' for Inactive)
ROOT
HETATM    1  C1  UNL     1     -35.185   4.882   4.568  1.00 20.00     0.021 C 
HETATM    2  C2  UNL     1     -35.313   6.216   3.835  1.00 20.00     0.010 C 
HETATM    3  C3  UNL     1     -33.017   5.348   3.718  1.00 20.00     0.029 C 
HETATM    4  C4  UNL     1     -34.017   4.210   3.866  1.00 20.00     0.083 C 
HETATM    5  C5  UNL     1     -33.887   6.569   3.340  1.00 20.00    -0.046 C 
HETATM    6  C6  UNL     1     -33.363   7.838   4.020  1.00 20.00     0.015 C 
HETATM    7  C7  UNL     1     -33.890   6.780   1.818  1.00 20.00     0.015 C 
HETATM    8 CL8  UNL     1     -33.363   2.856   4.799  1.00 20.00    -0.125 Cl
ENDROOT
TORSDOF 0
ENDMDL
MODEL 6
REMARK VINA RESULT:       0.1      2.075      3.557
REMARK  0 active torsions:
REMARK  status: ('A' for Active; 'I' for Inactive)
ROOT
HETATM    1  C1  UNL     1     -32.506   6.530   1.754  1.00 20.00     0.021 C 
HETATM    2  C2  UNL     1     -33.761   5.692   1.996  1.00 20.00     0.010 C 
HETATM    3  C3  UNL     1     -33.323   7.211   3.878  1.00 20.00     0.029 C 
HETATM    4  C4  UNL     1     -32.755   7.778   2.583  1.00 20.00     0.083 C 
HETATM    5  C5  UNL     1     -34.261   6.074   3.413  1.00 20.00    -0.046 C 
HETATM    6  C6  UNL     1     -34.179   4.879   4.370  1.00 20.00     0.015 C 
HETATM    7  C7  UNL     1     -35.715   6.565   3.349  1.00 20.00     0.015 C 
HETATM    8 CL8  UNL     1     -31.277   8.713   2.850  1.00 20.00    -0.125 Cl
ENDROOT
TORSDOF 0
ENDMDL
MODEL 7
REMARK VINA RESULT:       0.1      2.558      3.249
REMARK  0 active torsions:
REMARK  status: ('A' for Active; 'I' for Inactive)
ROOT
HETATM    1  C1  UNL     1     -33.215   4.746   2.626  1.00 20.00     0.021 C 
HETATM    2  C2  UNL     1     -33.584   6.225   2.531  1.00 20.00     0.010 C 
HETATM    3  C3  UNL     1     -34.700   5.146   4.436  1.00 20.00     0.029 C 
HETATM    4  C4  UNL     1     -33.395   4.437   4.103  1.00 20.00     0.083 C 
HETATM    5  C5  UNL     1     -34.612   6.482   3.662  1.00 20.00    -0.046 C 
HETATM    6  C6  UNL     1     -35.981   6.866   3.089  1.00 20.00     0.015 C 
HETATM    7  C7  UNL     1     -34.120   7.609   4.583  1.00 20.00     0.015 C 
HETATM    8 CL8  UNL     1     -33.475   2.697   4.419  1.00 20.00    -0.125 Cl
ENDROOT
TORSDOF 0
ENDMDL
MODEL 8
REMARK VINA RESULT:       0.3      2.112      3.116
REMARK  0 active torsions:
REMARK  status: ('A' for Active; 'I' for Inactive)
ROOT
HETATM    1  C1  UNL     1     -33.818   5.297   3.079  1.00 20.00     0.021 C 
HETATM    2  C2  UNL     1     -34.587   6.296   3.941  1.00 20.00     0.010 C 
HETATM    3  C3  UNL     1     -32.723   7.381   2.763  1.00 20.00     0.029 C 
HETATM    4  C4  UNL     1     -33.219   6.168   1.988  1.00 20.00     0.083 C 
HETATM    5  C5  UNL     1     -33.837   7.645   3.803  1.00 20.00    -0.046 C 
HETATM    6  C6  UNL     1     -33.234   8.084   5.142  1.00 20.00     0.015 C 
HETATM    7  C7  UNL     1     -34.795   8.738   3.302  1.00 20.00     0.015 C 
HETATM    8 CL8  UNL     1     -31.915   5.349   1.116  1.00 20.00    -0.125 Cl
ENDROOT
TORSDOF 0
ENDMDL
MODEL 9
REMARK VINA RESULT:       0.9      2.425      3.558
REMARK  0 active torsions:
REMARK  status: ('A' for Active; 'I' for Inactive)
ROOT
HETATM    1  C1  UNL     1     -31.753   9.052   1.929  1.00 20.00     0.021 C 
HETATM    2  C2  UNL     1     -31.681   7.714   2.664  1.00 20.00     0.010 C 
HETATM    3  C3  UNL     1     -33.219   7.602   0.749  1.00 20.00     0.029 C 
HETATM    4  C4  UNL     1     -32.142   8.653   0.516  1.00 20.00     0.083 C 
HETATM    5  C5  UNL     1     -32.691   6.781   1.949  1.00 20.00    -0.046 C 
HETATM    6  C6  UNL     1     -33.840   6.389   2.883  1.00 20.00     0.015 C 
HETATM    7  C7  UNL     1     -31.985   5.506   1.461  1.00 20.00     0.015 C 
HETATM    8 CL8  UNL     1     -32.735  10.026  -0.430  1.00 20.00    -0.125 Cl
ENDROOT
TORSDOF 0
ENDMDL
