MODEL 1
REMARK VINA RESULT:      -0.2      0.000      0.000
REMARK  1 active torsions:
REMARK  status: ('A' for Active; 'I' for Inactive)
REMARK    1  A    between atoms: C3_3  and  C8_8 
ROOT
HETATM    1  C1  UNL     1     -32.950   3.021   4.505  1.00 20.00     0.021 C 
HETATM    2  C2  UNL     1     -33.774   3.891   4.421  1.00 20.00    -0.037 C 
HETATM    3  C3  UNL     1     -34.766   4.935   4.323  1.00 20.00     0.235 C 
HETATM    4  O10 UNL     1     -35.808   4.847   4.961  1.00 20.00    -0.280 OA
ENDROOT
BRANCH   3   5
HETATM    5  C8  UNL     1     -34.433   6.086   3.418  1.00 20.00     0.129 C 
HETATM    6  C6  UNL     1     -33.571   5.587   2.251  1.00 20.00     0.047 C 
HETATM    7  C4  UNL     1     -32.866   6.734   1.532  1.00 20.00     0.006 C 
HETATM    8  C5  UNL     1     -32.138   7.619   2.536  1.00 20.00     0.026 C 
HETATM    9  C7  UNL     1     -33.077   8.057   3.651  1.00 20.00     0.169 C 
HETATM   10  O11 UNL     1     -33.683   6.936   4.291  1.00 20.00    -0.372 OA
HETATM   11  C9  UNL     1     -35.736   6.745   2.968  1.00 20.00     0.055 C 
ENDBRANCH   3   5
TORSDOF 1
ENDMDL
MODEL 2
REMARK VINA RESULT:       0.8      2.550      3.964
REMARK  1 active torsions:
REMARK  status: ('A' for Active; 'I' for Inactive)
REMARK    1  A    between atoms: C3_3  and  C8_8 
ROOT
HETATM    1  C1  UNL     1     -34.754   6.832   4.110  1.00 20.00     0.021 C 
HETATM    2  C2  UNL     1     -33.934   6.807   3.233  1.00 20.00    -0.037 C 
HETATM    3  C3  UNL     1     -32.950   6.775   2.178  1.00 20.00     0.235 C 
HETATM    4  O10 UNL     1     -32.692   5.717   1.617  1.00 20.00    -0.280 OA
ENDROOT
BRANCH   3   5
HETATM    5  C8  UNL     1     -32.295   8.084   1.838  1.00 20.00     0.129 C 
HETATM    6  C6  UNL     1     -33.365   9.178   1.735  1.00 20.00     0.047 C 
HETATM    7  C4  UNL     1     -32.845  10.415   1.008  1.00 20.00     0.006 C 
HETATM    8  C5  UNL     1     -32.200  10.019  -0.315  1.00 20.00     0.026 C 
HETATM    9  C7  UNL     1     -31.159   8.929  -0.104  1.00 20.00     0.169 C 
HETATM   10  O11 UNL     1     -31.718   7.798   0.561  1.00 20.00    -0.372 OA
HETATM   11  C9  UNL     1     -31.226   8.381   2.888  1.00 20.00     0.055 C 
ENDBRANCH   3   5
TORSDOF 1
ENDMDL
MODEL 3
REMARK VINA RESULT:       0.9      1.892      4.464
REMARK  1 active torsions:
REMARK  status: ('A' for Active; 'I' for Inactive)
REMARK    1  A    between atoms: C3_3  and  C8_8 
ROOT
HETATM    1  C1  UNL     1     -32.529   9.783   0.333  1.00 20.00     0.021 C 
HETATM    2  C2  UNL     1     -32.314   8.796   0.983  1.00 20.00    -0.037 C 
HETATM    3  C3  UNL     1     -32.053   7.612   1.765  1.00 20.00     0.235 C 
HETATM    4  O10 UNL     1     -30.914   7.375   2.150  1.00 20.00    -0.280 OA
ENDROOT
BRANCH   3   5
HETATM    5  C8  UNL     1     -33.235   6.732   2.056  1.00 20.00     0.129 C 
HETATM    6  C6  UNL     1     -34.117   7.396   3.121  1.00 20.00     0.047 C 
HETATM    7  C4  UNL     1     -35.090   6.406   3.754  1.00 20.00     0.006 C 
HETATM    8  C5  UNL     1     -34.347   5.160   4.220  1.00 20.00     0.026 C 
HETATM    9  C7  UNL     1     -33.502   4.581   3.094  1.00 20.00     0.169 C 
HETATM   10  O11 UNL     1     -32.604   5.553   2.565  1.00 20.00    -0.372 OA
HETATM   11  C9  UNL     1     -33.973   6.458   0.746  1.00 20.00     0.055 C 
ENDBRANCH   3   5
TORSDOF 1
ENDMDL
MODEL 4
REMARK VINA RESULT:       1.5      2.526      5.085
REMARK  1 active torsions:
REMARK  status: ('A' for Active; 'I' for Inactive)
REMARK    1  A    between atoms: C3_3  and  C8_8 
ROOT
HETATM    1  C1  UNL     1     -33.229  10.954   0.443  1.00 20.00     0.021 C 
HETATM    2  C2  UNL     1     -32.603   9.936   0.552  1.00 20.00    -0.037 C 
HETATM    3  C3  UNL     1     -31.849   8.712   0.681  1.00 20.00     0.235 C 
HETATM    4  O10 UNL     1     -31.055   8.390  -0.194  1.00 20.00    -0.280 OA
ENDROOT
BRANCH   3   5
HETATM    5  C8  UNL     1     -32.103   7.902   1.920  1.00 20.00     0.129 C 
HETATM    6  C6  UNL     1     -32.347   6.438   1.534  1.00 20.00     0.047 C 
HETATM    7  C4  UNL     1     -33.002   5.651   2.665  1.00 20.00     0.006 C 
HETATM    8  C5  UNL     1     -34.228   6.393   3.183  1.00 20.00     0.026 C 
HETATM    9  C7  UNL     1     -33.881   7.832   3.536  1.00 20.00     0.169 C 
HETATM   10  O11 UNL     1     -33.293   8.511   2.429  1.00 20.00    -0.372 OA
HETATM   11  C9  UNL     1     -30.922   8.086   2.873  1.00 20.00     0.055 C 
ENDBRANCH   3   5
TORSDOF 1
ENDMDL
MODEL 5
REMARK VINA RESULT:       1.6      1.575      4.128
REMARK  1 active torsions:
REMARK  status: ('A' for Active; 'I' for Inactive)
REMARK    1  A    between atoms: C3_3  and  C8_8 
ROOT
HETATM    1  C1  UNL     1     -31.603   8.606   0.374  1.00 20.00     0.021 C 
HETATM    2  C2  UNL     1     -31.985   8.216   1.444  1.00 20.00    -0.037 C 
HETATM    3  C3  UNL     1     -32.444   7.748   2.730  1.00 20.00     0.235 C 
HETATM    4  O10 UNL     1     -31.973   8.226   3.754  1.00 20.00    -0.280 OA
ENDROOT
BRANCH   3   5
HETATM    5  C8  UNL     1     -33.499   6.678   2.712  1.00 20.00     0.129 C 
HETATM    6  C6  UNL     1     -34.683   7.112   3.584  1.00 20.00     0.047 C 
HETATM    7  C4  UNL     1     -35.589   5.937   3.940  1.00 20.00     0.006 C 
HETATM    8  C5  UNL     1     -34.764   4.786   4.502  1.00 20.00     0.026 C 
HETATM    9  C7  UNL     1     -33.617   4.435   3.566  1.00 20.00     0.169 C 
HETATM   10  O11 UNL     1     -32.802   5.572   3.294  1.00 20.00    -0.372 OA
HETATM   11  C9  UNL     1     -33.887   6.401   1.260  1.00 20.00     0.055 C 
ENDBRANCH   3   5
TORSDOF 1
ENDMDL
MODEL 6
REMARK VINA RESULT:       1.8      1.631      4.037
REMARK  1 active torsions:
REMARK  status: ('A' for Active; 'I' for Inactive)
REMARK    1  A    between atoms: C3_3  and  C8_8 
ROOT
HETATM    1  C1  UNL     1     -31.955   8.921   1.107  1.00 20.00     0.021 C 
HETATM    2  C2  UNL     1     -32.344   7.820   1.389  1.00 20.00    -0.037 C 
HETATM    3  C3  UNL     1     -32.811   6.497   1.726  1.00 20.00     0.235 C 
HETATM    4  O10 UNL     1     -32.706   5.589   0.912  1.00 20.00    -0.280 OA
ENDROOT
BRANCH   3   5
HETATM    5  C8  UNL     1     -33.407   6.331   3.095  1.00 20.00     0.129 C 
HETATM    6  C6  UNL     1     -33.286   4.865   3.531  1.00 20.00     0.047 C 
HETATM    7  C4  UNL     1     -34.211   4.540   4.700  1.00 20.00     0.006 C 
HETATM    8  C5  UNL     1     -35.630   5.006   4.397  1.00 20.00     0.026 C 
HETATM    9  C7  UNL     1     -35.640   6.468   3.973  1.00 20.00     0.169 C 
HETATM   10  O11 UNL     1     -34.772   6.694   2.865  1.00 20.00    -0.372 OA
HETATM   11  C9  UNL     1     -32.716   7.304   4.049  1.00 20.00     0.055 C 
ENDBRANCH   3   5
TORSDOF 1
ENDMDL
MODEL 7
REMARK VINA RESULT:       1.9      1.407      2.183
REMARK  1 active torsions:
REMARK  status: ('A' for Active; 'I' for Inactive)
REMARK    1  A    between atoms: C3_3  and  C8_8 
ROOT
HETATM    1  C1  UNL     1     -33.860   3.843   4.301  1.00 20.00     0.021 C 
HETATM    2  C2  UNL     1     -34.220   4.953   4.016  1.00 20.00    -0.037 C 
HETATM    3  C3  UNL     1     -34.653   6.286   3.675  1.00 20.00     0.235 C 
HETATM    4  O10 UNL     1     -35.849   6.551   3.655  1.00 20.00    -0.280 OA
ENDROOT
BRANCH   3   5
HETATM    5  C8  UNL     1     -33.570   7.279   3.362  1.00 20.00     0.129 C 
HETATM    6  C6  UNL     1     -34.173   8.476   2.615  1.00 20.00     0.047 C 
HETATM    7  C4  UNL     1     -33.103   9.310   1.917  1.00 20.00     0.006 C 
HETATM    8  C5  UNL     1     -32.201   8.416   1.076  1.00 20.00     0.026 C 
HETATM    9  C7  UNL     1     -31.657   7.262   1.906  1.00 20.00     0.169 C 
HETATM   10  O11 UNL     1     -32.711   6.515   2.511  1.00 20.00    -0.372 OA
HETATM   11  C9  UNL     1     -32.874   7.668   4.665  1.00 20.00     0.055 C 
ENDBRANCH   3   5
TORSDOF 1
ENDMDL
MODEL 8
REMARK VINA RESULT:       2.0      2.210      3.371
REMARK  1 active torsions:
REMARK  status: ('A' for Active; 'I' for Inactive)
REMARK    1  A    between atoms: C3_3  and  C8_8 
ROOT
HETATM    1  C1  UNL     1     -35.357   6.133   4.039  1.00 20.00     0.021 C 
HETATM    2  C2  UNL     1     -34.381   6.807   3.852  1.00 20.00    -0.037 C 
HETATM    3  C3  UNL     1     -33.208   7.617   3.628  1.00 20.00     0.235 C 
HETATM    4  O10 UNL     1     -32.665   8.176   4.573  1.00 20.00    -0.280 OA
ENDROOT
BRANCH   3   5
HETATM    5  C8  UNL     1     -32.725   7.713   2.209  1.00 20.00     0.129 C 
HETATM    6  C6  UNL     1     -31.259   8.163   2.196  1.00 20.00     0.047 C 
HETATM    7  C4  UNL     1     -30.830   8.669   0.822  1.00 20.00     0.006 C 
HETATM    8  C5  UNL     1     -31.825   9.702   0.306  1.00 20.00     0.026 C 
HETATM    9  C7  UNL     1     -33.246   9.161   0.362  1.00 20.00     0.169 C 
HETATM   10  O11 UNL     1     -33.585   8.726   1.677  1.00 20.00    -0.372 OA
HETATM   11  C9  UNL     1     -32.950   6.365   1.525  1.00 20.00     0.055 C 
ENDBRANCH   3   5
TORSDOF 1
ENDMDL
MODEL 9
REMARK VINA RESULT:       2.1      2.637      3.949
REMARK  1 active torsions:
REMARK  status: ('A' for Active; 'I' for Inactive)
REMARK    1  A    between atoms: C3_3  and  C8_8 
ROOT
HETATM    1  C1  UNL     1     -32.294   4.856   0.620  1.00 20.00     0.021 C 
HETATM    2  C2  UNL     1     -32.561   5.775   1.345  1.00 20.00    -0.037 C 
HETATM    3  C3  UNL     1     -32.882   6.878   2.218  1.00 20.00     0.235 C 
HETATM    4  O10 UNL     1     -33.639   6.705   3.165  1.00 20.00    -0.280 OA
ENDROOT
BRANCH   3   5
HETATM    5  C8  UNL     1     -32.242   8.197   1.888  1.00 20.00     0.129 C 
HETATM    6  C6  UNL     1     -33.326   9.272   1.747  1.00 20.00     0.047 C 
HETATM    7  C4  UNL     1     -32.809  10.513   1.027  1.00 20.00     0.006 C 
HETATM    8  C5  UNL     1     -32.120  10.120  -0.274  1.00 20.00     0.026 C 
HETATM    9  C7  UNL     1     -31.066   9.050  -0.027  1.00 20.00     0.169 C 
HETATM   10  O11 UNL     1     -31.624   7.914   0.629  1.00 20.00    -0.372 OA
HETATM   11  C9  UNL     1     -31.208   8.519   2.966  1.00 20.00     0.055 C 
ENDBRANCH   3   5
TORSDOF 1
ENDMDL
