MODEL 1
REMARK VINA RESULT:       0.4      0.000      0.000
REMARK  0 active torsions:
REMARK  status: ('A' for Active; 'I' for Inactive)
ROOT
HETATM    1  C1  UNL     1     -32.220   8.909   0.707  1.00 20.00     0.064 C 
HETATM    2  C2  UNL     1     -32.821   6.657   1.563  1.00 20.00     0.020 C 
HETATM    3  C3  UNL     1     -33.347   6.327   2.956  1.00 20.00     0.010 C 
HETATM    4  C4  UNL     1     -32.239   8.437   3.154  1.00 20.00     0.027 C 
HETATM    5  C5  UNL     1     -31.943   7.903   1.741  1.00 20.00     0.093 C 
HETATM    6  C6  UNL     1     -33.493   7.690   3.643  1.00 20.00    -0.046 C 
HETATM    7  C7  UNL     1     -34.778   8.409   3.199  1.00 20.00     0.015 C 
HETATM    8  C8  UNL     1     -33.505   7.549   5.167  1.00 20.00     0.015 C 
HETATM    9  N9  UNL     1     -32.439   9.704  -0.111  1.00 20.00    -0.197 NA
ENDROOT
TORSDOF 0
ENDMDL
MODEL 2
REMARK VINA RESULT:       0.4      1.100      1.222
REMARK  0 active torsions:
REMARK  status: ('A' for Active; 'I' for Inactive)
ROOT
HETATM    1  C1  UNL     1     -32.379   8.624   1.344  1.00 20.00     0.064 C 
HETATM    2  C2  UNL     1     -32.627   6.161   1.541  1.00 20.00     0.020 C 
HETATM    3  C3  UNL     1     -33.504   5.414   2.541  1.00 20.00     0.010 C 
HETATM    4  C4  UNL     1     -33.136   7.583   3.479  1.00 20.00     0.027 C 
HETATM    5  C5  UNL     1     -32.230   7.468   2.240  1.00 20.00     0.093 C 
HETATM    6  C6  UNL     1     -34.238   6.522   3.309  1.00 20.00    -0.046 C 
HETATM    7  C7  UNL     1     -35.424   7.076   2.502  1.00 20.00     0.015 C 
HETATM    8  C8  UNL     1     -34.749   6.019   4.661  1.00 20.00     0.015 C 
HETATM    9  N9  UNL     1     -32.496   9.537   0.637  1.00 20.00    -0.197 NA
ENDROOT
TORSDOF 0
ENDMDL
MODEL 3
REMARK VINA RESULT:       0.7      2.494      3.992
REMARK  0 active torsions:
REMARK  status: ('A' for Active; 'I' for Inactive)
ROOT
HETATM    1  C1  UNL     1     -34.787   6.511   3.692  1.00 20.00     0.064 C 
HETATM    2  C2  UNL     1     -32.971   7.712   2.498  1.00 20.00     0.020 C 
HETATM    3  C3  UNL     1     -32.018   7.120   1.464  1.00 20.00     0.010 C 
HETATM    4  C4  UNL     1     -32.854   5.268   2.726  1.00 20.00     0.027 C 
HETATM    5  C5  UNL     1     -33.341   6.548   3.427  1.00 20.00     0.093 C 
HETATM    6  C6  UNL     1     -32.499   5.674   1.284  1.00 20.00    -0.046 C 
HETATM    7  C7  UNL     1     -33.730   5.600   0.366  1.00 20.00     0.015 C 
HETATM    8  C8  UNL     1     -31.394   4.786   0.706  1.00 20.00     0.015 C 
HETATM    9  N9  UNL     1     -35.928   6.481   3.902  1.00 20.00    -0.197 NA
ENDROOT
TORSDOF 0
ENDMDL
MODEL 4
REMARK VINA RESULT:       0.9      3.025      4.038
REMARK  0 active torsions:
REMARK  status: ('A' for Active; 'I' for Inactive)
ROOT
HETATM    1  C1  UNL     1     -33.722   4.061   4.095  1.00 20.00     0.064 C 
HETATM    2  C2  UNL     1     -32.938   5.674   2.378  1.00 20.00     0.020 C 
HETATM    3  C3  UNL     1     -33.196   7.176   2.358  1.00 20.00     0.010 C 
HETATM    4  C4  UNL     1     -34.896   6.233   3.752  1.00 20.00     0.027 C 
HETATM    5  C5  UNL     1     -34.143   5.059   3.101  1.00 20.00     0.093 C 
HETATM    6  C6  UNL     1     -33.958   7.451   3.662  1.00 20.00    -0.046 C 
HETATM    7  C7  UNL     1     -33.006   7.510   4.868  1.00 20.00     0.015 C 
HETATM    8  C8  UNL     1     -34.744   8.762   3.584  1.00 20.00     0.015 C 
HETATM    9  N9  UNL     1     -33.391   3.272   4.880  1.00 20.00    -0.197 NA
ENDROOT
TORSDOF 0
ENDMDL
MODEL 5
REMARK VINA RESULT:       1.2      2.624      3.709
REMARK  0 active torsions:
REMARK  status: ('A' for Active; 'I' for Inactive)
ROOT
HETATM    1  C1  UNL     1     -33.853   5.319   3.110  1.00 20.00     0.064 C 
HETATM    2  C2  UNL     1     -31.793   5.638   1.762  1.00 20.00     0.020 C 
HETATM    3  C3  UNL     1     -31.277   6.954   1.190  1.00 20.00     0.010 C 
HETATM    4  C4  UNL     1     -33.613   7.279   1.590  1.00 20.00     0.027 C 
HETATM    5  C5  UNL     1     -33.319   5.787   1.824  1.00 20.00     0.093 C 
HETATM    6  C6  UNL     1     -32.263   8.010   1.709  1.00 20.00    -0.046 C 
HETATM    7  C7  UNL     1     -31.963   8.390   3.169  1.00 20.00     0.015 C 
HETATM    8  C8  UNL     1     -32.230   9.275   0.849  1.00 20.00     0.015 C 
HETATM    9  N9  UNL     1     -34.277   4.949   4.126  1.00 20.00    -0.197 NA
ENDROOT
TORSDOF 0
ENDMDL
MODEL 6
REMARK VINA RESULT:       1.6      2.188      3.005
REMARK  0 active torsions:
REMARK  status: ('A' for Active; 'I' for Inactive)
ROOT
HETATM    1  C1  UNL     1     -31.988   5.536   1.050  1.00 20.00     0.064 C 
HETATM    2  C2  UNL     1     -32.331   7.348   2.713  1.00 20.00     0.020 C 
HETATM    3  C3  UNL     1     -33.488   7.468   3.698  1.00 20.00     0.010 C 
HETATM    4  C4  UNL     1     -34.259   6.032   1.948  1.00 20.00     0.027 C 
HETATM    5  C5  UNL     1     -32.899   6.597   1.502  1.00 20.00     0.093 C 
HETATM    6  C6  UNL     1     -34.312   6.192   3.478  1.00 20.00    -0.046 C 
HETATM    7  C7  UNL     1     -33.679   4.984   4.187  1.00 20.00     0.015 C 
HETATM    8  C8  UNL     1     -35.750   6.363   3.976  1.00 20.00     0.015 C 
HETATM    9  N9  UNL     1     -31.268   4.698   0.692  1.00 20.00    -0.197 NA
ENDROOT
TORSDOF 0
ENDMDL
MODEL 7
REMARK VINA RESULT:       1.6      1.607      2.510
REMARK  0 active torsions:
REMARK  status: ('A' for Active; 'I' for Inactive)
ROOT
HETATM    1  C1  UNL     1     -32.001   7.891   1.824  1.00 20.00     0.064 C 
HETATM    2  C2  UNL     1     -32.762   8.150   4.174  1.00 20.00     0.020 C 
HETATM    3  C3  UNL     1     -33.904   7.395   4.846  1.00 20.00     0.010 C 
HETATM    4  C4  UNL     1     -34.316   7.255   2.494  1.00 20.00     0.027 C 
HETATM    5  C5  UNL     1     -33.141   8.229   2.689  1.00 20.00     0.093 C 
HETATM    6  C6  UNL     1     -34.392   6.408   3.778  1.00 20.00    -0.046 C 
HETATM    7  C7  UNL     1     -33.475   5.177   3.687  1.00 20.00     0.015 C 
HETATM    8  C8  UNL     1     -35.823   5.942   4.060  1.00 20.00     0.015 C 
HETATM    9  N9  UNL     1     -31.102   7.624   1.140  1.00 20.00    -0.197 NA
ENDROOT
TORSDOF 0
ENDMDL
MODEL 8
REMARK VINA RESULT:       1.9      2.052      3.829
REMARK  0 active torsions:
REMARK  status: ('A' for Active; 'I' for Inactive)
ROOT
HETATM    1  C1  UNL     1     -33.480   7.391   3.147  1.00 20.00     0.064 C 
HETATM    2  C2  UNL     1     -31.279   8.035   2.195  1.00 20.00     0.020 C 
HETATM    3  C3  UNL     1     -31.042   8.888   0.954  1.00 20.00     0.010 C 
HETATM    4  C4  UNL     1     -33.263   8.028   0.747  1.00 20.00     0.027 C 
HETATM    5  C5  UNL     1     -32.620   7.328   1.957  1.00 20.00     0.093 C 
HETATM    6  C6  UNL     1     -32.447   9.310   0.505  1.00 20.00    -0.046 C 
HETATM    7  C7  UNL     1     -32.981  10.478   1.350  1.00 20.00     0.015 C 
HETATM    8  C8  UNL     1     -32.463   9.717  -0.971  1.00 20.00     0.015 C 
HETATM    9  N9  UNL     1     -34.160   7.440   4.087  1.00 20.00    -0.197 NA
ENDROOT
TORSDOF 0
ENDMDL
MODEL 9
REMARK VINA RESULT:       2.1      2.201      3.638
REMARK  0 active torsions:
REMARK  status: ('A' for Active; 'I' for Inactive)
ROOT
HETATM    1  C1  UNL     1     -34.567   6.678   3.505  1.00 20.00     0.064 C 
HETATM    2  C2  UNL     1     -32.539   8.021   4.003  1.00 20.00     0.020 C 
HETATM    3  C3  UNL     1     -31.570   8.613   2.986  1.00 20.00     0.010 C 
HETATM    4  C4  UNL     1     -32.702   6.832   1.859  1.00 20.00     0.027 C 
HETATM    5  C5  UNL     1     -33.109   6.759   3.342  1.00 20.00     0.093 C 
HETATM    6  C6  UNL     1     -32.184   8.263   1.624  1.00 20.00    -0.046 C 
HETATM    7  C7  UNL     1     -33.334   9.218   1.262  1.00 20.00     0.015 C 
HETATM    8  C8  UNL     1     -31.134   8.305   0.511  1.00 20.00     0.015 C 
HETATM    9  N9  UNL     1     -35.719   6.612   3.634  1.00 20.00    -0.197 NA
ENDROOT
TORSDOF 0
ENDMDL
