MODEL 1
REMARK VINA RESULT:      -1.5      0.000      0.000
REMARK  4 active torsions:
REMARK  status: ('A' for Active; 'I' for Inactive)
REMARK    1  A    between atoms: C3_3  and  C5_5 
REMARK    2  A    between atoms: C3_3  and  N7_7 
REMARK    3  A    between atoms: C4_4  and  C6_6 
REMARK    4  A    between atoms: C4_4  and  N7_7 
ROOT
HETATM    1  C2  UNL     1     -32.203   6.098   1.455  1.00 20.00     0.310 C 
HETATM    2  N7  UNL     1     -32.067   7.500   1.851  1.00 20.00     0.087 N 
ENDROOT
BRANCH   2   3
HETATM    3  C3  UNL     1     -31.730   8.327   0.693  1.00 20.00     0.303 C 
BRANCH   3   4
HETATM    4  C5  UNL     1     -32.536   9.608   0.673  1.00 20.00     0.252 C 
HETATM    5  F8  UNL     1     -32.947   9.853  -0.601  1.00 20.00    -0.254 F 
ENDBRANCH   3   4
ENDBRANCH   2   3
BRANCH   2   6
HETATM    6  C4  UNL     1     -33.300   7.976   2.478  1.00 20.00     0.291 C 
BRANCH   6   7
HETATM    7  C6  UNL     1     -33.586   7.257   3.797  1.00 20.00     0.106 C 
HETATM    8  C1  UNL     1     -33.461   8.164   5.016  1.00 20.00     0.028 C 
HETATM    9 CL9  UNL     1     -35.211   6.504   3.772  1.00 20.00    -0.124 Cl
ENDBRANCH   6   7
ENDBRANCH   2   6
TORSDOF 4
ENDMDL
MODEL 2
REMARK VINA RESULT:      -1.4      3.129      4.232
REMARK  4 active torsions:
REMARK  status: ('A' for Active; 'I' for Inactive)
REMARK    1  A    between atoms: C3_3  and  C5_5 
REMARK    2  A    between atoms: C3_3  and  N7_7 
REMARK    3  A    between atoms: C4_4  and  C6_6 
REMARK    4  A    between atoms: C4_4  and  N7_7 
ROOT
HETATM    1  C2  UNL     1     -32.728   5.850   1.793  1.00 20.00     0.310 C 
HETATM    2  N7  UNL     1     -33.171   7.211   2.092  1.00 20.00     0.087 N 
ENDROOT
BRANCH   2   3
HETATM    3  C3  UNL     1     -33.638   7.306   3.474  1.00 20.00     0.303 C 
BRANCH   3   4
HETATM    4  C5  UNL     1     -34.537   6.144   3.837  1.00 20.00     0.252 C 
HETATM    5  F8  UNL     1     -35.832   6.502   3.621  1.00 20.00    -0.254 F 
ENDBRANCH   3   4
ENDBRANCH   2   3
BRANCH   2   6
HETATM    6  C4  UNL     1     -32.088   8.166   1.852  1.00 20.00     0.291 C 
BRANCH   6   7
HETATM    7  C6  UNL     1     -32.282   8.935   0.544  1.00 20.00     0.106 C 
HETATM    8  C1  UNL     1     -32.675  10.392   0.757  1.00 20.00     0.028 C 
HETATM    9 CL9  UNL     1     -30.806   8.854  -0.467  1.00 20.00    -0.124 Cl
ENDBRANCH   6   7
ENDBRANCH   2   6
TORSDOF 4
ENDMDL
MODEL 3
REMARK VINA RESULT:      -1.2      3.248      4.615
REMARK  4 active torsions:
REMARK  status: ('A' for Active; 'I' for Inactive)
REMARK    1  A    between atoms: C3_3  and  C5_5 
REMARK    2  A    between atoms: C3_3  and  N7_7 
REMARK    3  A    between atoms: C4_4  and  C6_6 
REMARK    4  A    between atoms: C4_4  and  N7_7 
ROOT
HETATM    1  C2  UNL     1     -33.544   8.022   4.915  1.00 20.00     0.310 C 
HETATM    2  N7  UNL     1     -33.765   7.069   3.828  1.00 20.00     0.087 N 
ENDROOT
BRANCH   2   3
HETATM    3  C3  UNL     1     -35.097   6.473   3.934  1.00 20.00     0.303 C 
BRANCH   3   4
HETATM    4  C5  UNL     1     -35.023   5.023   4.361  1.00 20.00     0.252 C 
HETATM    5  F8  UNL     1     -33.862   4.484   3.899  1.00 20.00    -0.254 F 
ENDBRANCH   3   4
ENDBRANCH   2   3
BRANCH   2   6
HETATM    6  C4  UNL     1     -33.602   7.726   2.531  1.00 20.00     0.291 C 
BRANCH   6   7
HETATM    7  C6  UNL     1     -32.218   7.471   1.931  1.00 20.00     0.106 C 
HETATM    8  C1  UNL     1     -32.072   6.078   1.329  1.00 20.00     0.028 C 
HETATM    9 CL9  UNL     1     -31.824   8.704   0.694  1.00 20.00    -0.124 Cl
ENDBRANCH   6   7
ENDBRANCH   2   6
TORSDOF 4
ENDMDL
MODEL 4
REMARK VINA RESULT:      -1.2      1.389      1.596
REMARK  4 active torsions:
REMARK  status: ('A' for Active; 'I' for Inactive)
REMARK    1  A    between atoms: C3_3  and  C5_5 
REMARK    2  A    between atoms: C3_3  and  N7_7 
REMARK    3  A    between atoms: C4_4  and  C6_6 
REMARK    4  A    between atoms: C4_4  and  N7_7 
ROOT
HETATM    1  C2  UNL     1     -31.186   7.514   1.429  1.00 20.00     0.310 C 
HETATM    2  N7  UNL     1     -32.291   8.051   2.222  1.00 20.00     0.087 N 
ENDROOT
BRANCH   2   3
HETATM    3  C3  UNL     1     -32.902   9.192   1.541  1.00 20.00     0.303 C 
BRANCH   3   4
HETATM    4  C5  UNL     1     -32.148   9.553   0.280  1.00 20.00     0.252 C 
HETATM    5  F8  UNL     1     -33.044   9.807  -0.713  1.00 20.00    -0.254 F 
ENDBRANCH   3   4
ENDBRANCH   2   3
BRANCH   2   6
HETATM    6  C4  UNL     1     -33.291   7.012   2.475  1.00 20.00     0.291 C 
BRANCH   6   7
HETATM    7  C6  UNL     1     -34.242   7.397   3.609  1.00 20.00     0.106 C 
HETATM    8  C1  UNL     1     -35.136   6.248   4.060  1.00 20.00     0.028 C 
HETATM    9 CL9  UNL     1     -33.332   8.037   5.013  1.00 20.00    -0.124 Cl
ENDBRANCH   6   7
ENDBRANCH   2   6
TORSDOF 4
ENDMDL
MODEL 5
REMARK VINA RESULT:      -1.2      1.423      1.801
REMARK  4 active torsions:
REMARK  status: ('A' for Active; 'I' for Inactive)
REMARK    1  A    between atoms: C3_3  and  C5_5 
REMARK    2  A    between atoms: C3_3  and  N7_7 
REMARK    3  A    between atoms: C4_4  and  C6_6 
REMARK    4  A    between atoms: C4_4  and  N7_7 
ROOT
HETATM    1  C2  UNL     1     -32.205   8.225   3.500  1.00 20.00     0.310 C 
HETATM    2  N7  UNL     1     -32.896   7.825   2.275  1.00 20.00     0.087 N 
ENDROOT
BRANCH   2   3
HETATM    3  C3  UNL     1     -32.075   8.128   1.103  1.00 20.00     0.303 C 
BRANCH   3   4
HETATM    4  C5  UNL     1     -32.288   9.549   0.630  1.00 20.00     0.252 C 
HETATM    5  F8  UNL     1     -32.820   9.524  -0.623  1.00 20.00    -0.254 F 
ENDBRANCH   3   4
ENDBRANCH   2   3
BRANCH   2   6
HETATM    6  C4  UNL     1     -33.223   6.399   2.315  1.00 20.00     0.291 C 
BRANCH   6   7
HETATM    7  C6  UNL     1     -33.896   6.003   3.630  1.00 20.00     0.106 C 
HETATM    8  C1  UNL     1     -35.327   6.514   3.750  1.00 20.00     0.028 C 
HETATM    9 CL9  UNL     1     -33.873   4.226   3.847  1.00 20.00    -0.124 Cl
ENDBRANCH   6   7
ENDBRANCH   2   6
TORSDOF 4
ENDMDL
MODEL 6
REMARK VINA RESULT:      -1.1      3.900      5.220
REMARK  4 active torsions:
REMARK  status: ('A' for Active; 'I' for Inactive)
REMARK    1  A    between atoms: C3_3  and  C5_5 
REMARK    2  A    between atoms: C3_3  and  N7_7 
REMARK    3  A    between atoms: C4_4  and  C6_6 
REMARK    4  A    between atoms: C4_4  and  N7_7 
ROOT
HETATM    1  C2  UNL     1     -34.709   7.141   4.099  1.00 20.00     0.310 C 
HETATM    2  N7  UNL     1     -33.920   5.961   3.746  1.00 20.00     0.087 N 
ENDROOT
BRANCH   2   3
HETATM    3  C3  UNL     1     -34.573   4.745   4.230  1.00 20.00     0.303 C 
BRANCH   3   4
HETATM    4  C5  UNL     1     -33.658   3.545   4.126  1.00 20.00     0.252 C 
HETATM    5  F8  UNL     1     -33.227   3.208   5.372  1.00 20.00    -0.254 F 
ENDBRANCH   3   4
ENDBRANCH   2   3
BRANCH   2   6
HETATM    6  C4  UNL     1     -33.723   5.893   2.298  1.00 20.00     0.291 C 
BRANCH   6   7
HETATM    7  C6  UNL     1     -32.259   6.106   1.909  1.00 20.00     0.106 C 
HETATM    8  C1  UNL     1     -31.813   5.229   0.744  1.00 20.00     0.028 C 
HETATM    9 CL9  UNL     1     -31.948   7.826   1.519  1.00 20.00    -0.124 Cl
ENDBRANCH   6   7
ENDBRANCH   2   6
TORSDOF 4
ENDMDL
MODEL 7
REMARK VINA RESULT:      -1.0      2.312      2.906
REMARK  4 active torsions:
REMARK  status: ('A' for Active; 'I' for Inactive)
REMARK    1  A    between atoms: C3_3  and  C5_5 
REMARK    2  A    between atoms: C3_3  and  N7_7 
REMARK    3  A    between atoms: C4_4  and  C6_6 
REMARK    4  A    between atoms: C4_4  and  N7_7 
ROOT
HETATM    1  C2  UNL     1     -33.736   7.461   3.653  1.00 20.00     0.310 C 
HETATM    2  N7  UNL     1     -33.620   6.315   2.752  1.00 20.00     0.087 N 
ENDROOT
BRANCH   2   3
HETATM    3  C3  UNL     1     -32.854   6.678   1.560  1.00 20.00     0.303 C 
BRANCH   3   4
HETATM    4  C5  UNL     1     -31.958   7.870   1.818  1.00 20.00     0.252 C 
HETATM    5  F8  UNL     1     -32.263   8.853   0.928  1.00 20.00    -0.254 F 
ENDBRANCH   3   4
ENDBRANCH   2   3
BRANCH   2   6
HETATM    6  C4  UNL     1     -32.993   5.186   3.438  1.00 20.00     0.291 C 
BRANCH   6   7
HETATM    7  C6  UNL     1     -34.015   4.122   3.842  1.00 20.00     0.106 C 
HETATM    8  C1  UNL     1     -33.418   3.007   4.692  1.00 20.00     0.028 C 
HETATM    9 CL9  UNL     1     -35.396   4.864   4.709  1.00 20.00    -0.124 Cl
ENDBRANCH   6   7
ENDBRANCH   2   6
TORSDOF 4
ENDMDL
MODEL 8
REMARK VINA RESULT:      -1.0      1.699      1.773
REMARK  4 active torsions:
REMARK  status: ('A' for Active; 'I' for Inactive)
REMARK    1  A    between atoms: C3_3  and  C5_5 
REMARK    2  A    between atoms: C3_3  and  N7_7 
REMARK    3  A    between atoms: C4_4  and  C6_6 
REMARK    4  A    between atoms: C4_4  and  N7_7 
ROOT
HETATM    1  C2  UNL     1     -32.160   5.181   0.798  1.00 20.00     0.310 C 
HETATM    2  N7  UNL     1     -32.259   6.122   1.914  1.00 20.00     0.087 N 
ENDROOT
BRANCH   2   3
HETATM    3  C3  UNL     1     -31.531   7.353   1.610  1.00 20.00     0.303 C 
BRANCH   3   4
HETATM    4  C5  UNL     1     -32.463   8.542   1.521  1.00 20.00     0.252 C 
HETATM    5  F8  UNL     1     -32.150   9.269   0.414  1.00 20.00    -0.254 F 
ENDBRANCH   3   4
ENDBRANCH   2   3
BRANCH   2   6
HETATM    6  C4  UNL     1     -33.661   6.417   2.211  1.00 20.00     0.291 C 
BRANCH   6   7
HETATM    7  C6  UNL     1     -34.044   6.002   3.632  1.00 20.00     0.106 C 
HETATM    8  C1  UNL     1     -35.455   6.427   4.022  1.00 20.00     0.028 C 
HETATM    9 CL9  UNL     1     -33.870   4.233   3.846  1.00 20.00    -0.124 Cl
ENDBRANCH   6   7
ENDBRANCH   2   6
TORSDOF 4
ENDMDL
MODEL 9
REMARK VINA RESULT:      -0.9      3.643      4.766
REMARK  4 active torsions:
REMARK  status: ('A' for Active; 'I' for Inactive)
REMARK    1  A    between atoms: C3_3  and  C5_5 
REMARK    2  A    between atoms: C3_3  and  N7_7 
REMARK    3  A    between atoms: C4_4  and  C6_6 
REMARK    4  A    between atoms: C4_4  and  N7_7 
ROOT
HETATM    1  C2  UNL     1     -34.893   6.617   3.758  1.00 20.00     0.310 C 
HETATM    2  N7  UNL     1     -33.591   6.168   3.266  1.00 20.00     0.087 N 
ENDROOT
BRANCH   2   3
HETATM    3  C3  UNL     1     -33.551   4.709   3.184  1.00 20.00     0.303 C 
BRANCH   3   4
HETATM    4  C5  UNL     1     -34.088   4.067   4.444  1.00 20.00     0.252 C 
HETATM    5  F8  UNL     1     -33.217   3.107   4.858  1.00 20.00    -0.254 F 
ENDBRANCH   3   4
ENDBRANCH   2   3
BRANCH   2   6
HETATM    6  C4  UNL     1     -33.307   6.762   1.959  1.00 20.00     0.291 C 
BRANCH   6   7
HETATM    7  C6  UNL     1     -32.118   7.722   2.014  1.00 20.00     0.106 C 
HETATM    8  C1  UNL     1     -32.176   8.813   0.951  1.00 20.00     0.028 C 
HETATM    9 CL9  UNL     1     -31.980   8.472   3.635  1.00 20.00    -0.124 Cl
ENDBRANCH   6   7
ENDBRANCH   2   6
TORSDOF 4
ENDMDL
