MODEL 1
REMARK VINA RESULT:       2.3      0.000      0.000
REMARK  1 active torsions:
REMARK  status: ('A' for Active; 'I' for Inactive)
REMARK    1  A    between atoms: C5_5  and  O11_11 
ROOT
HETATM    1  C1  UNL     1     -33.648   6.826   2.936  1.00 20.00     0.098 C 
HETATM    2  C2  UNL     1     -31.637   8.268   2.699  1.00 20.00     0.054 C 
HETATM    3  C3  UNL     1     -31.865   9.564   1.926  1.00 20.00     0.013 C 
HETATM    4  C4  UNL     1     -33.094   7.883   0.752  1.00 20.00     0.062 C 
HETATM    5  C5  UNL     1     -32.554   7.226   2.039  1.00 20.00     0.148 C 
HETATM    6  C6  UNL     1     -32.195   9.108   0.499  1.00 20.00    -0.044 C 
HETATM    7  C7  UNL     1     -32.937  10.199  -0.277  1.00 20.00     0.015 C 
HETATM    8  C8  UNL     1     -30.925   8.718  -0.276  1.00 20.00     0.015 C 
HETATM    9  N10 UNL     1     -34.512   6.510   3.644  1.00 20.00    -0.194 NA
ENDROOT
BRANCH   5  10
HETATM   10  O11 UNL     1     -31.774   6.080   1.710  1.00 20.00    -0.370 OA
HETATM   11  C9  UNL     1     -32.514   5.154   0.927  1.00 20.00     0.204 C 
ENDBRANCH   5  10
TORSDOF 1
ENDMDL
MODEL 2
REMARK VINA RESULT:       2.3      1.946      3.117
REMARK  1 active torsions:
REMARK  status: ('A' for Active; 'I' for Inactive)
REMARK    1  A    between atoms: C5_5  and  O11_11 
ROOT
HETATM    1  C1  UNL     1     -33.662   4.781   3.683  1.00 20.00     0.098 C 
HETATM    2  C2  UNL     1     -33.181   5.721   1.431  1.00 20.00     0.054 C 
HETATM    3  C3  UNL     1     -31.895   6.537   1.340  1.00 20.00     0.013 C 
HETATM    4  C4  UNL     1     -32.893   7.134   3.428  1.00 20.00     0.062 C 
HETATM    5  C5  UNL     1     -33.737   5.984   2.841  1.00 20.00     0.148 C 
HETATM    6  C6  UNL     1     -32.149   7.759   2.232  1.00 20.00    -0.044 C 
HETATM    7  C7  UNL     1     -30.835   8.413   2.668  1.00 20.00     0.015 C 
HETATM    8  C8  UNL     1     -33.017   8.808   1.519  1.00 20.00     0.015 C 
HETATM    9  N10 UNL     1     -33.602   3.831   4.347  1.00 20.00    -0.194 NA
ENDROOT
BRANCH   5  10
HETATM   10  O11 UNL     1     -35.098   6.389   2.722  1.00 20.00    -0.370 OA
HETATM   11  C9  UNL     1     -35.732   6.463   3.992  1.00 20.00     0.204 C 
ENDBRANCH   5  10
TORSDOF 1
ENDMDL
MODEL 3
REMARK VINA RESULT:       2.6      2.087      4.072
REMARK  1 active torsions:
REMARK  status: ('A' for Active; 'I' for Inactive)
REMARK    1  A    between atoms: C5_5  and  O11_11 
ROOT
HETATM    1  C1  UNL     1     -32.421   8.936   0.963  1.00 20.00     0.098 C 
HETATM    2  C2  UNL     1     -32.296   6.511   1.502  1.00 20.00     0.054 C 
HETATM    3  C3  UNL     1     -33.630   5.868   1.870  1.00 20.00     0.013 C 
HETATM    4  C4  UNL     1     -33.628   8.009   2.932  1.00 20.00     0.062 C 
HETATM    5  C5  UNL     1     -32.365   7.947   2.049  1.00 20.00     0.148 C 
HETATM    6  C6  UNL     1     -34.034   6.545   3.186  1.00 20.00    -0.044 C 
HETATM    7  C7  UNL     1     -35.538   6.415   3.441  1.00 20.00     0.015 C 
HETATM    8  C8  UNL     1     -33.271   5.953   4.382  1.00 20.00     0.015 C 
HETATM    9  N10 UNL     1     -32.465   9.716   0.106  1.00 20.00    -0.194 NA
ENDROOT
BRANCH   5  10
HETATM   10  O11 UNL     1     -31.205   8.184   2.841  1.00 20.00    -0.370 OA
HETATM   11  C9  UNL     1     -31.487   9.050   3.932  1.00 20.00     0.204 C 
ENDBRANCH   5  10
TORSDOF 1
ENDMDL
MODEL 4
REMARK VINA RESULT:       2.8      1.532      2.021
REMARK  1 active torsions:
REMARK  status: ('A' for Active; 'I' for Inactive)
REMARK    1  A    between atoms: C5_5  and  O11_11 
ROOT
HETATM    1  C1  UNL     1     -35.079   6.388   3.504  1.00 20.00     0.098 C 
HETATM    2  C2  UNL     1     -32.848   7.353   4.028  1.00 20.00     0.054 C 
HETATM    3  C3  UNL     1     -32.453   8.555   3.174  1.00 20.00     0.013 C 
HETATM    4  C4  UNL     1     -33.507   7.015   1.679  1.00 20.00     0.062 C 
HETATM    5  C5  UNL     1     -33.666   6.439   3.101  1.00 20.00     0.148 C 
HETATM    6  C6  UNL     1     -32.316   7.989   1.754  1.00 20.00    -0.044 C 
HETATM    7  C7  UNL     1     -32.427   9.095   0.702  1.00 20.00     0.015 C 
HETATM    8  C8  UNL     1     -30.978   7.254   1.567  1.00 20.00     0.015 C 
HETATM    9  N10 UNL     1     -36.195   6.349   3.822  1.00 20.00    -0.194 NA
ENDROOT
BRANCH   5  10
HETATM   10  O11 UNL     1     -33.115   5.126   3.160  1.00 20.00    -0.370 OA
HETATM   11  C9  UNL     1     -33.880   4.277   4.003  1.00 20.00     0.204 C 
ENDBRANCH   5  10
TORSDOF 1
ENDMDL
MODEL 5
REMARK VINA RESULT:       2.8      2.127      3.775
REMARK  1 active torsions:
REMARK  status: ('A' for Active; 'I' for Inactive)
REMARK    1  A    between atoms: C5_5  and  O11_11 
ROOT
HETATM    1  C1  UNL     1     -32.472   9.087   1.111  1.00 20.00     0.098 C 
HETATM    2  C2  UNL     1     -31.166   7.068   1.747  1.00 20.00     0.054 C 
HETATM    3  C3  UNL     1     -31.526   5.803   0.973  1.00 20.00     0.013 C 
HETATM    4  C4  UNL     1     -33.602   6.893   1.433  1.00 20.00     0.062 C 
HETATM    5  C5  UNL     1     -32.483   7.847   1.901  1.00 20.00     0.148 C 
HETATM    6  C6  UNL     1     -32.967   5.490   1.394  1.00 20.00    -0.044 C 
HETATM    7  C7  UNL     1     -33.662   4.587   0.372  1.00 20.00     0.015 C 
HETATM    8  C8  UNL     1     -33.017   4.815   2.775  1.00 20.00     0.015 C 
HETATM    9  N10 UNL     1     -32.462  10.066   0.488  1.00 20.00    -0.194 NA
ENDROOT
BRANCH   5  10
HETATM   10  O11 UNL     1     -32.661   8.168   3.277  1.00 20.00    -0.370 OA
HETATM   11  C9  UNL     1     -33.943   7.771   3.744  1.00 20.00     0.204 C 
ENDBRANCH   5  10
TORSDOF 1
ENDMDL
MODEL 6
REMARK VINA RESULT:       2.9      2.104      4.027
REMARK  1 active torsions:
REMARK  status: ('A' for Active; 'I' for Inactive)
REMARK    1  A    between atoms: C5_5  and  O11_11 
ROOT
HETATM    1  C1  UNL     1     -32.777   4.926   0.688  1.00 20.00     0.098 C 
HETATM    2  C2  UNL     1     -32.688   4.890   3.173  1.00 20.00     0.054 C 
HETATM    3  C3  UNL     1     -34.037   5.066   3.865  1.00 20.00     0.013 C 
HETATM    4  C4  UNL     1     -34.045   6.596   2.028  1.00 20.00     0.062 C 
HETATM    5  C5  UNL     1     -32.759   5.754   1.903  1.00 20.00     0.148 C 
HETATM    6  C6  UNL     1     -34.470   6.493   3.506  1.00 20.00    -0.044 C 
HETATM    7  C7  UNL     1     -35.982   6.673   3.669  1.00 20.00     0.015 C 
HETATM    8  C8  UNL     1     -33.745   7.537   4.371  1.00 20.00     0.015 C 
HETATM    9  N10 UNL     1     -32.791   4.273  -0.271  1.00 20.00    -0.194 NA
ENDROOT
BRANCH   5  10
HETATM   10  O11 UNL     1     -31.619   6.608   1.873  1.00 20.00    -0.370 OA
HETATM   11  C9  UNL     1     -31.962   7.921   1.452  1.00 20.00     0.204 C 
ENDBRANCH   5  10
TORSDOF 1
ENDMDL
MODEL 7
REMARK VINA RESULT:       3.0      1.949      3.908
REMARK  1 active torsions:
REMARK  status: ('A' for Active; 'I' for Inactive)
REMARK    1  A    between atoms: C5_5  and  O11_11 
ROOT
HETATM    1  C1  UNL     1     -32.299   8.435   1.187  1.00 20.00     0.098 C 
HETATM    2  C2  UNL     1     -33.627   6.339   1.019  1.00 20.00     0.054 C 
HETATM    3  C3  UNL     1     -34.819   6.259   1.969  1.00 20.00     0.013 C 
HETATM    4  C4  UNL     1     -33.045   7.237   3.237  1.00 20.00     0.062 C 
HETATM    5  C5  UNL     1     -32.541   7.114   1.785  1.00 20.00     0.148 C 
HETATM    6  C6  UNL     1     -34.194   6.220   3.369  1.00 20.00    -0.044 C 
HETATM    7  C7  UNL     1     -35.202   6.645   4.441  1.00 20.00     0.015 C 
HETATM    8  C8  UNL     1     -33.663   4.818   3.711  1.00 20.00     0.015 C 
HETATM    9  N10 UNL     1     -32.109   9.478   0.715  1.00 20.00    -0.194 NA
ENDROOT
BRANCH   5  10
HETATM   10  O11 UNL     1     -31.336   6.355   1.750  1.00 20.00    -0.370 OA
HETATM   11  C9  UNL     1     -31.495   5.156   1.005  1.00 20.00     0.204 C 
ENDBRANCH   5  10
TORSDOF 1
ENDMDL
MODEL 8
REMARK VINA RESULT:       3.2      2.112      3.551
REMARK  1 active torsions:
REMARK  status: ('A' for Active; 'I' for Inactive)
REMARK    1  A    between atoms: C5_5  and  O11_11 
ROOT
HETATM    1  C1  UNL     1     -35.085   5.596   4.245  1.00 20.00     0.098 C 
HETATM    2  C2  UNL     1     -34.891   6.745   2.048  1.00 20.00     0.054 C 
HETATM    3  C3  UNL     1     -33.881   6.122   1.087  1.00 20.00     0.013 C 
HETATM    4  C4  UNL     1     -32.853   6.051   3.243  1.00 20.00     0.062 C 
HETATM    5  C5  UNL     1     -34.297   6.552   3.453  1.00 20.00     0.148 C 
HETATM    6  C6  UNL     1     -32.522   6.334   1.765  1.00 20.00    -0.044 C 
HETATM    7  C7  UNL     1     -31.473   5.358   1.227  1.00 20.00     0.015 C 
HETATM    8  C8  UNL     1     -32.013   7.772   1.572  1.00 20.00     0.015 C 
HETATM    9  N10 UNL     1     -35.708   4.843   4.870  1.00 20.00    -0.194 NA
ENDROOT
BRANCH   5  10
HETATM   10  O11 UNL     1     -34.284   7.813   4.115  1.00 20.00    -0.370 OA
HETATM   11  C9  UNL     1     -33.196   7.912   5.025  1.00 20.00     0.204 C 
ENDBRANCH   5  10
TORSDOF 1
ENDMDL
MODEL 9
REMARK VINA RESULT:       3.4      1.940      3.636
REMARK  1 active torsions:
REMARK  status: ('A' for Active; 'I' for Inactive)
REMARK    1  A    between atoms: C5_5  and  O11_11 
ROOT
HETATM    1  C1  UNL     1     -31.843   8.695   3.408  1.00 20.00     0.098 C 
HETATM    2  C2  UNL     1     -33.800   7.222   2.977  1.00 20.00     0.054 C 
HETATM    3  C3  UNL     1     -33.453   5.760   2.705  1.00 20.00     0.013 C 
HETATM    4  C4  UNL     1     -31.803   7.043   1.546  1.00 20.00     0.062 C 
HETATM    5  C5  UNL     1     -32.648   8.039   2.367  1.00 20.00     0.148 C 
HETATM    6  C6  UNL     1     -32.679   5.787   1.381  1.00 20.00    -0.044 C 
HETATM    7  C7  UNL     1     -31.828   4.527   1.208  1.00 20.00     0.015 C 
HETATM    8  C8  UNL     1     -33.626   5.920   0.177  1.00 20.00     0.015 C 
HETATM    9  N10 UNL     1     -31.207   9.212   4.229  1.00 20.00    -0.194 NA
ENDROOT
BRANCH   5  10
HETATM   10  O11 UNL     1     -33.203   9.031   1.508  1.00 20.00    -0.370 OA
HETATM   11  C9  UNL     1     -32.257   9.474   0.545  1.00 20.00     0.204 C 
ENDBRANCH   5  10
TORSDOF 1
ENDMDL
