MODEL 1
REMARK VINA RESULT:      -2.2      0.000      0.000
REMARK  5 active torsions:
REMARK  status: ('A' for Active; 'I' for Inactive)
REMARK    1  A    between atoms: C3_3  and  C4_4 
REMARK    2  A    between atoms: C3_3  and  N8_8 
REMARK    3  A    between atoms: C5_5  and  C7_7 
REMARK    4  A    between atoms: C6_6  and  C7_7 
REMARK    5  A    between atoms: C7_7  and  N8_8 
ROOT
HETATM    1  C7  UNL     1     -33.219   7.076   2.295  1.00 20.00     0.237 C 
ENDROOT
BRANCH   1   2
HETATM    2  C5  UNL     1     -32.576   5.804   1.732  1.00 20.00     0.150 C 
HETATM    3 CL10 UNL     1     -33.492   5.180   0.331  1.00 20.00    -0.128 Cl
ENDBRANCH   1   2
BRANCH   1   4
HETATM    4  C6  UNL     1     -33.778   6.862   3.726  1.00 20.00     0.011 C 
HETATM    5  C1  UNL     1     -35.221   6.350   3.751  1.00 20.00     0.012 C 
HETATM    6  C2  UNL     1     -33.666   8.139   4.566  1.00 20.00     0.012 C 
ENDBRANCH   1   4
BRANCH   1   7
HETATM    7  N8  UNL     1     -32.290   8.184   2.255  1.00 20.00     0.091 N 
HETATM    8  H25 UNL     1     -31.446   7.945   2.780  1.00 20.00     0.316 HD
BRANCH   7   9
HETATM    9  C3  UNL     1     -31.914   8.510   0.882  1.00 20.00     0.301 C 
BRANCH   9  10
HETATM   10  C4  UNL     1     -32.421   9.878   0.477  1.00 20.00     0.252 C 
HETATM   11  F9  UNL     1     -33.008   9.787  -0.746  1.00 20.00    -0.254 F 
ENDBRANCH   9  10
ENDBRANCH   7   9
ENDBRANCH   1   7
TORSDOF 5
ENDMDL
MODEL 2
REMARK VINA RESULT:      -1.7      3.797      4.866
REMARK  5 active torsions:
REMARK  status: ('A' for Active; 'I' for Inactive)
REMARK    1  A    between atoms: C3_3  and  C4_4 
REMARK    2  A    between atoms: C3_3  and  N8_8 
REMARK    3  A    between atoms: C5_5  and  C7_7 
REMARK    4  A    between atoms: C6_6  and  C7_7 
REMARK    5  A    between atoms: C7_7  and  N8_8 
ROOT
HETATM    1  C7  UNL     1     -33.299   5.862   3.099  1.00 20.00     0.237 C 
ENDROOT
BRANCH   1   2
HETATM    2  C5  UNL     1     -32.688   6.112   1.717  1.00 20.00     0.150 C 
HETATM    3 CL10 UNL     1     -31.919   7.722   1.630  1.00 20.00    -0.128 Cl
ENDBRANCH   1   2
BRANCH   1   4
HETATM    4  C6  UNL     1     -34.270   6.995   3.520  1.00 20.00     0.011 C 
HETATM    5  C1  UNL     1     -33.750   7.850   4.679  1.00 20.00     0.012 C 
HETATM    6  C2  UNL     1     -35.657   6.443   3.865  1.00 20.00     0.012 C 
ENDBRANCH   1   4
BRANCH   1   7
HETATM    7  N8  UNL     1     -33.948   4.570   3.149  1.00 20.00     0.091 N 
HETATM    8  H25 UNL     1     -33.445   3.908   2.554  1.00 20.00     0.316 HD
BRANCH   7   9
HETATM    9  C3  UNL     1     -33.980   4.045   4.512  1.00 20.00     0.301 C 
BRANCH   9  10
HETATM   10  C4  UNL     1     -33.052   2.860   4.673  1.00 20.00     0.252 C 
HETATM   11  F9  UNL     1     -32.351   3.001   5.830  1.00 20.00    -0.254 F 
ENDBRANCH   9  10
ENDBRANCH   7   9
ENDBRANCH   1   7
TORSDOF 5
ENDMDL
MODEL 3
REMARK VINA RESULT:      -1.5      3.912      5.179
REMARK  5 active torsions:
REMARK  status: ('A' for Active; 'I' for Inactive)
REMARK    1  A    between atoms: C3_3  and  C4_4 
REMARK    2  A    between atoms: C3_3  and  N8_8 
REMARK    3  A    between atoms: C5_5  and  C7_7 
REMARK    4  A    between atoms: C6_6  and  C7_7 
REMARK    5  A    between atoms: C7_7  and  N8_8 
ROOT
HETATM    1  C7  UNL     1     -33.950   6.207   2.963  1.00 20.00     0.237 C 
ENDROOT
BRANCH   1   2
HETATM    2  C5  UNL     1     -34.390   7.482   3.691  1.00 20.00     0.150 C 
HETATM    3 CL10 UNL     1     -33.335   7.827   5.090  1.00 20.00    -0.128 Cl
ENDBRANCH   1   2
BRANCH   1   4
HETATM    4  C6  UNL     1     -33.061   6.518   1.731  1.00 20.00     0.011 C 
HETATM    5  C1  UNL     1     -32.171   5.347   1.305  1.00 20.00     0.012 C 
HETATM    6  C2  UNL     1     -32.201   7.765   1.963  1.00 20.00     0.012 C 
ENDBRANCH   1   4
BRANCH   1   7
HETATM    7  N8  UNL     1     -33.286   5.298   3.873  1.00 20.00     0.091 N 
HETATM    8  H25 UNL     1     -33.045   5.789   4.736  1.00 20.00     0.316 HD
BRANCH   7   9
HETATM    9  C3  UNL     1     -34.140   4.160   4.201  1.00 20.00     0.301 C 
BRANCH   9  10
HETATM   10  C4  UNL     1     -33.324   2.919   4.493  1.00 20.00     0.252 C 
HETATM   11  F9  UNL     1     -32.570   3.136   5.603  1.00 20.00    -0.254 F 
ENDBRANCH   9  10
ENDBRANCH   7   9
ENDBRANCH   1   7
TORSDOF 5
ENDMDL
MODEL 4
REMARK VINA RESULT:      -1.4      2.291      2.718
REMARK  5 active torsions:
REMARK  status: ('A' for Active; 'I' for Inactive)
REMARK    1  A    between atoms: C3_3  and  C4_4 
REMARK    2  A    between atoms: C3_3  and  N8_8 
REMARK    3  A    between atoms: C5_5  and  C7_7 
REMARK    4  A    between atoms: C6_6  and  C7_7 
REMARK    5  A    between atoms: C7_7  and  N8_8 
ROOT
HETATM    1  C7  UNL     1     -33.287   6.655   3.270  1.00 20.00     0.237 C 
ENDROOT
BRANCH   1   2
HETATM    2  C5  UNL     1     -33.808   7.967   3.864  1.00 20.00     0.150 C 
HETATM    3 CL10 UNL     1     -33.023   8.329   5.427  1.00 20.00    -0.128 Cl
ENDBRANCH   1   2
BRANCH   1   4
HETATM    4  C6  UNL     1     -34.339   5.519   3.354  1.00 20.00     0.011 C 
HETATM    5  C1  UNL     1     -35.585   5.895   4.162  1.00 20.00     0.012 C 
HETATM    6  C2  UNL     1     -33.727   4.231   3.916  1.00 20.00     0.012 C 
ENDBRANCH   1   4
BRANCH   1   7
HETATM    7  N8  UNL     1     -32.833   6.849   1.910  1.00 20.00     0.091 N 
HETATM    8  H25 UNL     1     -33.636   7.004   1.297  1.00 20.00     0.316 HD
BRANCH   7   9
HETATM    9  C3  UNL     1     -31.936   7.997   1.810  1.00 20.00     0.301 C 
BRANCH   9  10
HETATM   10  C4  UNL     1     -32.180   8.784   0.539  1.00 20.00     0.252 C 
HETATM   11  F9  UNL     1     -32.555  10.048   0.866  1.00 20.00    -0.254 F 
ENDBRANCH   9  10
ENDBRANCH   7   9
ENDBRANCH   1   7
TORSDOF 5
ENDMDL
MODEL 5
REMARK VINA RESULT:      -1.3      3.015      4.477
REMARK  5 active torsions:
REMARK  status: ('A' for Active; 'I' for Inactive)
REMARK    1  A    between atoms: C3_3  and  C4_4 
REMARK    2  A    between atoms: C3_3  and  N8_8 
REMARK    3  A    between atoms: C5_5  and  C7_7 
REMARK    4  A    between atoms: C6_6  and  C7_7 
REMARK    5  A    between atoms: C7_7  and  N8_8 
ROOT
HETATM    1  C7  UNL     1     -33.226   7.046   2.170  1.00 20.00     0.237 C 
ENDROOT
BRANCH   1   2
HETATM    2  C5  UNL     1     -32.013   7.967   2.001  1.00 20.00     0.150 C 
HETATM    3 CL10 UNL     1     -32.305   9.198   0.740  1.00 20.00    -0.128 Cl
ENDBRANCH   1   2
BRANCH   1   4
HETATM    4  C6  UNL     1     -32.981   5.642   1.559  1.00 20.00     0.011 C 
HETATM    5  C1  UNL     1     -31.503   5.336   1.297  1.00 20.00     0.012 C 
HETATM    6  C2  UNL     1     -33.787   5.445   0.271  1.00 20.00     0.012 C 
ENDBRANCH   1   4
BRANCH   1   7
HETATM    7  N8  UNL     1     -33.612   6.952   3.561  1.00 20.00     0.091 N 
HETATM    8  H25 UNL     1     -33.430   7.842   4.030  1.00 20.00     0.316 HD
BRANCH   7   9
HETATM    9  C3  UNL     1     -35.030   6.630   3.697  1.00 20.00     0.301 C 
BRANCH   9  10
HETATM   10  C4  UNL     1     -35.236   5.340   4.463  1.00 20.00     0.252 C 
HETATM   11  F9  UNL     1     -34.246   4.468   4.135  1.00 20.00    -0.254 F 
ENDBRANCH   9  10
ENDBRANCH   7   9
ENDBRANCH   1   7
TORSDOF 5
ENDMDL
MODEL 6
REMARK VINA RESULT:      -1.2      4.082      5.371
REMARK  5 active torsions:
REMARK  status: ('A' for Active; 'I' for Inactive)
REMARK    1  A    between atoms: C3_3  and  C4_4 
REMARK    2  A    between atoms: C3_3  and  N8_8 
REMARK    3  A    between atoms: C5_5  and  C7_7 
REMARK    4  A    between atoms: C6_6  and  C7_7 
REMARK    5  A    between atoms: C7_7  and  N8_8 
ROOT
HETATM    1  C7  UNL     1     -34.052   6.212   3.113  1.00 20.00     0.237 C 
ENDROOT
BRANCH   1   2
HETATM    2  C5  UNL     1     -34.367   7.636   3.582  1.00 20.00     0.150 C 
HETATM    3 CL10 UNL     1     -33.490   8.031   5.088  1.00 20.00    -0.128 Cl
ENDBRANCH   1   2
BRANCH   1   4
HETATM    4  C6  UNL     1     -32.796   6.162   2.206  1.00 20.00     0.011 C 
HETATM    5  C1  UNL     1     -32.195   7.540   1.912  1.00 20.00     0.012 C 
HETATM    6  C2  UNL     1     -33.085   5.432   0.890  1.00 20.00     0.012 C 
ENDBRANCH   1   4
BRANCH   1   7
HETATM    7  N8  UNL     1     -33.921   5.315   4.240  1.00 20.00     0.091 N 
HETATM    8  H25 UNL     1     -34.704   5.452   4.883  1.00 20.00     0.316 HD
BRANCH   7   9
HETATM    9  C3  UNL     1     -33.907   3.920   3.809  1.00 20.00     0.301 C 
BRANCH   9  10
HETATM   10  C4  UNL     1     -33.136   3.046   4.775  1.00 20.00     0.252 C 
HETATM   11  F9  UNL     1     -33.421   1.742   4.517  1.00 20.00    -0.254 F 
ENDBRANCH   9  10
ENDBRANCH   7   9
ENDBRANCH   1   7
TORSDOF 5
ENDMDL
MODEL 7
REMARK VINA RESULT:      -1.1      3.786      5.118
REMARK  5 active torsions:
REMARK  status: ('A' for Active; 'I' for Inactive)
REMARK    1  A    between atoms: C3_3  and  C4_4 
REMARK    2  A    between atoms: C3_3  and  N8_8 
REMARK    3  A    between atoms: C5_5  and  C7_7 
REMARK    4  A    between atoms: C6_6  and  C7_7 
REMARK    5  A    between atoms: C7_7  and  N8_8 
ROOT
HETATM    1  C7  UNL     1     -33.911   6.718   2.819  1.00 20.00     0.237 C 
ENDROOT
BRANCH   1   2
HETATM    2  C5  UNL     1     -34.211   7.338   4.188  1.00 20.00     0.150 C 
HETATM    3 CL10 UNL     1     -32.802   8.240   4.814  1.00 20.00    -0.128 Cl
ENDBRANCH   1   2
BRANCH   1   4
HETATM    4  C6  UNL     1     -32.472   7.037   2.338  1.00 20.00     0.011 C 
HETATM    5  C1  UNL     1     -32.369   8.332   1.527  1.00 20.00     0.012 C 
HETATM    6  C2  UNL     1     -31.881   5.874   1.534  1.00 20.00     0.012 C 
ENDBRANCH   1   4
BRANCH   1   7
HETATM    7  N8  UNL     1     -34.154   5.292   2.836  1.00 20.00     0.091 N 
HETATM    8  H25 UNL     1     -33.458   4.817   2.258  1.00 20.00     0.316 HD
BRANCH   7   9
HETATM    9  C3  UNL     1     -34.084   4.758   4.193  1.00 20.00     0.301 C 
BRANCH   9  10
HETATM   10  C4  UNL     1     -33.574   3.333   4.204  1.00 20.00     0.252 C 
HETATM   11  F9  UNL     1     -32.902   3.112   5.365  1.00 20.00    -0.254 F 
ENDBRANCH   9  10
ENDBRANCH   7   9
ENDBRANCH   1   7
TORSDOF 5
ENDMDL
MODEL 8
REMARK VINA RESULT:      -1.0      2.052      2.721
REMARK  5 active torsions:
REMARK  status: ('A' for Active; 'I' for Inactive)
REMARK    1  A    between atoms: C3_3  and  C4_4 
REMARK    2  A    between atoms: C3_3  and  N8_8 
REMARK    3  A    between atoms: C5_5  and  C7_7 
REMARK    4  A    between atoms: C6_6  and  C7_7 
REMARK    5  A    between atoms: C7_7  and  N8_8 
ROOT
HETATM    1  C7  UNL     1     -32.559   7.225   2.563  1.00 20.00     0.237 C 
ENDROOT
BRANCH   1   2
HETATM    2  C5  UNL     1     -33.614   8.083   3.270  1.00 20.00     0.150 C 
HETATM    3 CL10 UNL     1     -33.379   8.070   5.040  1.00 20.00    -0.128 Cl
ENDBRANCH   1   2
BRANCH   1   4
HETATM    4  C6  UNL     1     -33.153   5.897   2.027  1.00 20.00     0.011 C 
HETATM    5  C1  UNL     1     -33.684   4.974   3.127  1.00 20.00     0.012 C 
HETATM    6  C2  UNL     1     -32.138   5.141   1.162  1.00 20.00     0.012 C 
ENDBRANCH   1   4
BRANCH   1   7
HETATM    7  N8  UNL     1     -31.911   7.973   1.508  1.00 20.00     0.091 N 
HETATM    8  H25 UNL     1     -31.910   7.424   0.646  1.00 20.00     0.316 HD
BRANCH   7   9
HETATM    9  C3  UNL     1     -32.595   9.239   1.257  1.00 20.00     0.301 C 
BRANCH   9  10
HETATM   10  C4  UNL     1     -32.212   9.821  -0.086  1.00 20.00     0.252 C 
HETATM   11  F9  UNL     1     -33.338  10.241  -0.723  1.00 20.00    -0.254 F 
ENDBRANCH   9  10
ENDBRANCH   7   9
ENDBRANCH   1   7
TORSDOF 5
ENDMDL
MODEL 9
REMARK VINA RESULT:      -1.0      2.799      4.162
REMARK  5 active torsions:
REMARK  status: ('A' for Active; 'I' for Inactive)
REMARK    1  A    between atoms: C3_3  and  C4_4 
REMARK    2  A    between atoms: C3_3  and  N8_8 
REMARK    3  A    between atoms: C5_5  and  C7_7 
REMARK    4  A    between atoms: C6_6  and  C7_7 
REMARK    5  A    between atoms: C7_7  and  N8_8 
ROOT
HETATM    1  C7  UNL     1     -32.880   7.292   1.857  1.00 20.00     0.237 C 
ENDROOT
BRANCH   1   2
HETATM    2  C5  UNL     1     -31.872   8.432   1.679  1.00 20.00     0.150 C 
HETATM    3 CL10 UNL     1     -32.378   9.547   0.377  1.00 20.00    -0.128 Cl
ENDBRANCH   1   2
BRANCH   1   4
HETATM    4  C6  UNL     1     -32.516   6.053   1.000  1.00 20.00     0.011 C 
HETATM    5  C1  UNL     1     -33.735   5.281   0.487  1.00 20.00     0.012 C 
HETATM    6  C2  UNL     1     -31.582   5.103   1.758  1.00 20.00     0.012 C 
ENDBRANCH   1   4
BRANCH   1   7
HETATM    7  N8  UNL     1     -33.019   6.941   3.254  1.00 20.00     0.091 N 
HETATM    8  H25 UNL     1     -32.282   7.394   3.798  1.00 20.00     0.316 HD
BRANCH   7   9
HETATM    9  C3  UNL     1     -34.316   7.359   3.779  1.00 20.00     0.301 C 
BRANCH   9  10
HETATM   10  C4  UNL     1     -35.218   6.172   4.041  1.00 20.00     0.252 C 
HETATM   11  F9  UNL     1     -34.477   5.033   3.993  1.00 20.00    -0.254 F 
ENDBRANCH   9  10
ENDBRANCH   7   9
ENDBRANCH   1   7
TORSDOF 5
ENDMDL
