MODEL 1
REMARK VINA RESULT:      -1.3      0.000      0.000
REMARK  1 active torsions:
REMARK  status: ('A' for Active; 'I' for Inactive)
REMARK    1  A    between atoms: C4_4  and  C8_8 
ROOT
HETATM    1  C1  UNL     1     -32.819   8.010   3.958  1.00 20.00     0.006 C 
HETATM    2  C2  UNL     1     -34.057   7.402   4.612  1.00 20.00     0.009 C 
HETATM    3  C3  UNL     1     -33.631   6.400   2.409  1.00 20.00     0.014 C 
HETATM    4  C4  UNL     1     -33.075   7.822   2.468  1.00 20.00     0.000 C 
HETATM    5  C5  UNL     1     -34.533   6.279   3.659  1.00 20.00    -0.047 C 
HETATM    6  C6  UNL     1     -34.373   4.899   4.307  1.00 20.00     0.015 C 
HETATM    7  C7  UNL     1     -36.007   6.488   3.284  1.00 20.00     0.015 C 
ENDROOT
BRANCH   4   8
HETATM    8  C8  UNL     1     -31.828   8.012   1.620  1.00 20.00     0.119 C 
HETATM    9 CL9  UNL     1     -32.075   9.314   0.439  1.00 20.00    -0.130 Cl
ENDBRANCH   4   8
TORSDOF 1
ENDMDL
MODEL 2
REMARK VINA RESULT:      -1.1      2.447      4.107
REMARK  1 active torsions:
REMARK  status: ('A' for Active; 'I' for Inactive)
REMARK    1  A    between atoms: C4_4  and  C8_8 
ROOT
HETATM    1  C1  UNL     1     -33.175   5.726   2.336  1.00 20.00     0.006 C 
HETATM    2  C2  UNL     1     -32.252   6.560   1.452  1.00 20.00     0.009 C 
HETATM    3  C3  UNL     1     -33.295   7.936   3.201  1.00 20.00     0.014 C 
HETATM    4  C4  UNL     1     -34.183   6.741   2.858  1.00 20.00     0.000 C 
HETATM    5  C5  UNL     1     -32.242   7.980   2.070  1.00 20.00    -0.047 C 
HETATM    6  C6  UNL     1     -30.858   8.326   2.635  1.00 20.00     0.015 C 
HETATM    7  C7  UNL     1     -32.626   9.024   1.012  1.00 20.00     0.015 C 
ENDROOT
BRANCH   4   8
HETATM    8  C8  UNL     1     -34.984   6.231   4.045  1.00 20.00     0.119 C 
HETATM    9 CL9  UNL     1     -34.591   4.532   4.372  1.00 20.00    -0.130 Cl
ENDBRANCH   4   8
TORSDOF 1
ENDMDL
MODEL 3
REMARK VINA RESULT:      -0.9      1.104      2.077
REMARK  1 active torsions:
REMARK  status: ('A' for Active; 'I' for Inactive)
REMARK    1  A    between atoms: C4_4  and  C8_8 
ROOT
HETATM    1  C1  UNL     1     -32.447   6.390   1.690  1.00 20.00     0.006 C 
HETATM    2  C2  UNL     1     -33.115   5.988   3.002  1.00 20.00     0.009 C 
HETATM    3  C3  UNL     1     -33.499   8.362   2.498  1.00 20.00     0.014 C 
HETATM    4  C4  UNL     1     -32.196   7.883   1.861  1.00 20.00     0.000 C 
HETATM    5  C5  UNL     1     -33.891   7.238   3.485  1.00 20.00    -0.047 C 
HETATM    6  C6  UNL     1     -35.405   6.995   3.451  1.00 20.00     0.015 C 
HETATM    7  C7  UNL     1     -33.474   7.605   4.916  1.00 20.00     0.015 C 
ENDROOT
BRANCH   4   8
HETATM    8  C8  UNL     1     -31.876   8.588   0.553  1.00 20.00     0.119 C 
HETATM    9 CL9  UNL     1     -32.634  10.192   0.512  1.00 20.00    -0.130 Cl
ENDBRANCH   4   8
TORSDOF 1
ENDMDL
MODEL 4
REMARK VINA RESULT:      -0.6      2.490      4.049
REMARK  1 active torsions:
REMARK  status: ('A' for Active; 'I' for Inactive)
REMARK    1  A    between atoms: C4_4  and  C8_8 
ROOT
HETATM    1  C1  UNL     1     -33.363   8.050   4.151  1.00 20.00     0.006 C 
HETATM    2  C2  UNL     1     -32.135   8.480   3.352  1.00 20.00     0.009 C 
HETATM    3  C3  UNL     1     -33.627   7.069   2.002  1.00 20.00     0.014 C 
HETATM    4  C4  UNL     1     -33.780   6.744   3.487  1.00 20.00     0.000 C 
HETATM    5  C5  UNL     1     -32.347   7.933   1.919  1.00 20.00    -0.047 C 
HETATM    6  C6  UNL     1     -32.534   9.077   0.914  1.00 20.00     0.015 C 
HETATM    7  C7  UNL     1     -31.145   7.081   1.491  1.00 20.00     0.015 C 
ENDROOT
BRANCH   4   8
HETATM    8  C8  UNL     1     -35.187   6.308   3.861  1.00 20.00     0.119 C 
HETATM    9 CL9  UNL     1     -35.159   4.696   4.603  1.00 20.00    -0.130 Cl
ENDBRANCH   4   8
TORSDOF 1
ENDMDL
MODEL 5
REMARK VINA RESULT:      -0.1      2.524      3.743
REMARK  1 active torsions:
REMARK  status: ('A' for Active; 'I' for Inactive)
REMARK    1  A    between atoms: C4_4  and  C8_8 
ROOT
HETATM    1  C1  UNL     1     -32.865   8.005   2.235  1.00 20.00     0.006 C 
HETATM    2  C2  UNL     1     -32.049   7.198   1.229  1.00 20.00     0.009 C 
HETATM    3  C3  UNL     1     -33.498   5.740   2.575  1.00 20.00     0.014 C 
HETATM    4  C4  UNL     1     -33.143   7.007   3.352  1.00 20.00     0.000 C 
HETATM    5  C5  UNL     1     -32.529   5.733   1.370  1.00 20.00    -0.047 C 
HETATM    6  C6  UNL     1     -33.252   5.264   0.101  1.00 20.00     0.015 C 
HETATM    7  C7  UNL     1     -31.336   4.805   1.639  1.00 20.00     0.015 C 
ENDROOT
BRANCH   4   8
HETATM    8  C8  UNL     1     -34.246   7.458   4.295  1.00 20.00     0.119 C 
HETATM    9 CL9  UNL     1     -35.575   6.282   4.300  1.00 20.00    -0.130 Cl
ENDBRANCH   4   8
TORSDOF 1
ENDMDL
MODEL 6
REMARK VINA RESULT:       0.0      2.624      4.060
REMARK  1 active torsions:
REMARK  status: ('A' for Active; 'I' for Inactive)
REMARK    1  A    between atoms: C4_4  and  C8_8 
ROOT
HETATM    1  C1  UNL     1     -34.187   7.180   3.807  1.00 20.00     0.006 C 
HETATM    2  C2  UNL     1     -33.272   8.330   3.392  1.00 20.00     0.009 C 
HETATM    3  C3  UNL     1     -32.874   6.331   2.018  1.00 20.00     0.014 C 
HETATM    4  C4  UNL     1     -33.410   5.937   3.393  1.00 20.00     0.000 C 
HETATM    5  C5  UNL     1     -32.485   7.821   2.160  1.00 20.00    -0.047 C 
HETATM    6  C6  UNL     1     -32.873   8.601   0.897  1.00 20.00     0.015 C 
HETATM    7  C7  UNL     1     -30.975   7.967   2.394  1.00 20.00     0.015 C 
ENDROOT
BRANCH   4   8
HETATM    8  C8  UNL     1     -34.265   4.681   3.364  1.00 20.00     0.119 C 
HETATM    9 CL9  UNL     1     -33.587   3.447   4.444  1.00 20.00    -0.130 Cl
ENDBRANCH   4   8
TORSDOF 1
ENDMDL
MODEL 7
REMARK VINA RESULT:       0.2      2.930      4.065
REMARK  1 active torsions:
REMARK  status: ('A' for Active; 'I' for Inactive)
REMARK    1  A    between atoms: C4_4  and  C8_8 
ROOT
HETATM    1  C1  UNL     1     -32.923   4.877   2.755  1.00 20.00     0.006 C 
HETATM    2  C2  UNL     1     -33.588   6.228   2.503  1.00 20.00     0.009 C 
HETATM    3  C3  UNL     1     -34.442   5.182   4.557  1.00 20.00     0.014 C 
HETATM    4  C4  UNL     1     -33.958   4.117   3.576  1.00 20.00     0.000 C 
HETATM    5  C5  UNL     1     -34.503   6.485   3.726  1.00 20.00    -0.047 C 
HETATM    6  C6  UNL     1     -34.000   7.675   4.551  1.00 20.00     0.015 C 
HETATM    7  C7  UNL     1     -35.940   6.766   3.266  1.00 20.00     0.015 C 
ENDROOT
BRANCH   4   8
HETATM    8  C8  UNL     1     -33.388   2.886   4.262  1.00 20.00     0.119 C 
HETATM    9 CL9  UNL     1     -32.665   3.327   5.821  1.00 20.00    -0.130 Cl
ENDBRANCH   4   8
TORSDOF 1
ENDMDL
MODEL 8
REMARK VINA RESULT:       0.3      0.881      2.051
REMARK  1 active torsions:
REMARK  status: ('A' for Active; 'I' for Inactive)
REMARK    1  A    between atoms: C4_4  and  C8_8 
ROOT
HETATM    1  C1  UNL     1     -33.102   6.667   1.185  1.00 20.00     0.006 C 
HETATM    2  C2  UNL     1     -33.931   5.567   1.843  1.00 20.00     0.009 C 
HETATM    3  C3  UNL     1     -33.235   7.261   3.482  1.00 20.00     0.014 C 
HETATM    4  C4  UNL     1     -32.240   7.195   2.325  1.00 20.00     0.000 C 
HETATM    5  C5  UNL     1     -34.112   5.998   3.319  1.00 20.00    -0.047 C 
HETATM    6  C6  UNL     1     -35.581   6.318   3.624  1.00 20.00     0.015 C 
HETATM    7  C7  UNL     1     -33.636   4.884   4.262  1.00 20.00     0.015 C 
ENDROOT
BRANCH   4   8
HETATM    8  C8  UNL     1     -31.596   8.536   2.014  1.00 20.00     0.119 C 
HETATM    9 CL9  UNL     1     -32.364   9.277   0.596  1.00 20.00    -0.130 Cl
ENDBRANCH   4   8
TORSDOF 1
ENDMDL
MODEL 9
REMARK VINA RESULT:       0.4      2.777      4.088
REMARK  1 active torsions:
REMARK  status: ('A' for Active; 'I' for Inactive)
REMARK    1  A    between atoms: C4_4  and  C8_8 
ROOT
HETATM    1  C1  UNL     1     -35.307   6.082   3.803  1.00 20.00     0.006 C 
HETATM    2  C2  UNL     1     -34.837   7.533   3.729  1.00 20.00     0.009 C 
HETATM    3  C3  UNL     1     -32.992   5.975   3.274  1.00 20.00     0.014 C 
HETATM    4  C4  UNL     1     -34.042   5.316   4.167  1.00 20.00     0.000 C 
HETATM    5  C5  UNL     1     -33.356   7.478   3.283  1.00 20.00    -0.047 C 
HETATM    6  C6  UNL     1     -33.178   8.084   1.885  1.00 20.00     0.015 C 
HETATM    7  C7  UNL     1     -32.471   8.243   4.277  1.00 20.00     0.015 C 
ENDROOT
BRANCH   4   8
HETATM    8  C8  UNL     1     -34.165   3.818   3.941  1.00 20.00     0.119 C 
HETATM    9 CL9  UNL     1     -33.029   2.939   4.983  1.00 20.00    -0.130 Cl
ENDBRANCH   4   8
TORSDOF 1
ENDMDL
