MODEL 1
REMARK VINA RESULT:      -0.6      0.000      0.000
REMARK  2 active torsions:
REMARK  status: ('A' for Active; 'I' for Inactive)
REMARK    1  A    between atoms: C5_5  and  C6_6 
REMARK    2  A    between atoms: C5_5  and  N7_7 
ROOT
HETATM    1  C1  UNL     1     -32.736   6.897   0.855  1.00 20.00     0.048 C 
HETATM    2  C2  UNL     1     -32.816   6.079   2.132  1.00 20.00     0.273 C 
HETATM    3  C3  UNL     1     -31.944   8.149   2.782  1.00 20.00     0.288 C 
HETATM    4  C4  UNL     1     -31.904   8.101   1.258  1.00 20.00     0.087 C 
HETATM    5  N7  UNL     1     -32.838   7.064   3.222  1.00 20.00     0.091 N 
HETATM    6 BR9  UNL     1     -32.613   9.731   0.477  1.00 20.00    -0.089 Br
ENDROOT
BRANCH   5   7
HETATM    7  C5  UNL     1     -34.193   7.558   3.473  1.00 20.00     0.303 C 
BRANCH   7   8
HETATM    8  C6  UNL     1     -35.087   6.470   4.028  1.00 20.00     0.252 C 
HETATM    9  F8  UNL     1     -36.274   6.490   3.362  1.00 20.00    -0.254 F 
ENDBRANCH   7   8
ENDBRANCH   5   7
TORSDOF 2
ENDMDL
MODEL 2
REMARK VINA RESULT:      -0.1      2.672      3.300
REMARK  2 active torsions:
REMARK  status: ('A' for Active; 'I' for Inactive)
REMARK    1  A    between atoms: C5_5  and  C6_6 
REMARK    2  A    between atoms: C5_5  and  N7_7 
ROOT
HETATM    1  C1  UNL     1     -34.027   7.562   3.851  1.00 20.00     0.048 C 
HETATM    2  C2  UNL     1     -34.890   6.329   4.055  1.00 20.00     0.273 C 
HETATM    3  C3  UNL     1     -33.735   5.946   2.058  1.00 20.00     0.288 C 
HETATM    4  C4  UNL     1     -33.530   7.413   2.424  1.00 20.00     0.087 C 
HETATM    5  N7  UNL     1     -34.248   5.271   3.264  1.00 20.00     0.091 N 
HETATM    6 BR9  UNL     1     -31.663   7.927   2.279  1.00 20.00    -0.089 Br
ENDROOT
BRANCH   5   7
HETATM    7  C5  UNL     1     -33.170   4.621   4.010  1.00 20.00     0.303 C 
BRANCH   7   8
HETATM    8  C6  UNL     1     -33.541   3.206   4.401  1.00 20.00     0.252 C 
HETATM    9  F8  UNL     1     -32.783   2.828   5.466  1.00 20.00    -0.254 F 
ENDBRANCH   7   8
ENDBRANCH   5   7
TORSDOF 2
ENDMDL
MODEL 3
REMARK VINA RESULT:       0.0      3.018      4.028
REMARK  2 active torsions:
REMARK  status: ('A' for Active; 'I' for Inactive)
REMARK    1  A    between atoms: C5_5  and  C6_6 
REMARK    2  A    between atoms: C5_5  and  N7_7 
ROOT
HETATM    1  C1  UNL     1     -32.710   8.081   3.884  1.00 20.00     0.048 C 
HETATM    2  C2  UNL     1     -31.624   8.423   2.878  1.00 20.00     0.273 C 
HETATM    3  C3  UNL     1     -32.762   6.600   1.957  1.00 20.00     0.288 C 
HETATM    4  C4  UNL     1     -33.224   6.735   3.405  1.00 20.00     0.087 C 
HETATM    5  N7  UNL     1     -32.087   7.861   1.603  1.00 20.00     0.091 N 
HETATM    6 BR9  UNL     1     -35.158   6.639   3.546  1.00 20.00    -0.089 Br
ENDROOT
BRANCH   5   7
HETATM    7  C5  UNL     1     -32.995   8.775   0.909  1.00 20.00     0.303 C 
BRANCH   7   8
HETATM    8  C6  UNL     1     -32.235   9.820   0.120  1.00 20.00     0.252 C 
HETATM    9  F8  UNL     1     -32.409  11.034   0.710  1.00 20.00    -0.254 F 
ENDBRANCH   7   8
ENDBRANCH   5   7
TORSDOF 2
ENDMDL
MODEL 4
REMARK VINA RESULT:       0.2      2.863      3.709
REMARK  2 active torsions:
REMARK  status: ('A' for Active; 'I' for Inactive)
REMARK    1  A    between atoms: C5_5  and  C6_6 
REMARK    2  A    between atoms: C5_5  and  N7_7 
ROOT
HETATM    1  C1  UNL     1     -33.707   6.539   2.877  1.00 20.00     0.048 C 
HETATM    2  C2  UNL     1     -32.960   7.756   3.394  1.00 20.00     0.273 C 
HETATM    3  C3  UNL     1     -31.709   6.996   1.570  1.00 20.00     0.288 C 
HETATM    4  C4  UNL     1     -32.727   5.910   1.903  1.00 20.00     0.087 C 
HETATM    5  N7  UNL     1     -32.148   8.222   2.262  1.00 20.00     0.091 N 
HETATM    6 BR9  UNL     1     -33.637   5.276   0.310  1.00 20.00    -0.089 Br
ENDROOT
BRANCH   5   7
HETATM    7  C5  UNL     1     -32.916   9.091   1.370  1.00 20.00     0.303 C 
BRANCH   7   8
HETATM    8  C6  UNL     1     -32.095   9.524   0.174  1.00 20.00     0.252 C 
HETATM    9  F8  UNL     1     -32.936   9.894  -0.830  1.00 20.00    -0.254 F 
ENDBRANCH   7   8
ENDBRANCH   5   7
TORSDOF 2
ENDMDL
MODEL 5
REMARK VINA RESULT:       1.0      1.963      2.577
REMARK  2 active torsions:
REMARK  status: ('A' for Active; 'I' for Inactive)
REMARK    1  A    between atoms: C5_5  and  C6_6 
REMARK    2  A    between atoms: C5_5  and  N7_7 
ROOT
HETATM    1  C1  UNL     1     -33.223   8.026   3.717  1.00 20.00     0.048 C 
HETATM    2  C2  UNL     1     -34.348   7.052   4.026  1.00 20.00     0.273 C 
HETATM    3  C3  UNL     1     -33.711   6.576   1.827  1.00 20.00     0.288 C 
HETATM    4  C4  UNL     1     -33.043   7.892   2.215  1.00 20.00     0.087 C 
HETATM    5  N7  UNL     1     -34.174   5.945   3.076  1.00 20.00     0.091 N 
HETATM    6 BR9  UNL     1     -31.162   7.904   1.736  1.00 20.00    -0.089 Br
ENDROOT
BRANCH   5   7
HETATM    7  C5  UNL     1     -33.208   4.961   3.566  1.00 20.00     0.303 C 
BRANCH   7   8
HETATM    8  C6  UNL     1     -33.892   3.839   4.317  1.00 20.00     0.252 C 
HETATM    9  F8  UNL     1     -35.113   4.268   4.738  1.00 20.00    -0.254 F 
ENDBRANCH   7   8
ENDBRANCH   5   7
TORSDOF 2
ENDMDL
MODEL 6
REMARK VINA RESULT:       1.3      3.514      4.138
REMARK  2 active torsions:
REMARK  status: ('A' for Active; 'I' for Inactive)
REMARK    1  A    between atoms: C5_5  and  C6_6 
REMARK    2  A    between atoms: C5_5  and  N7_7 
ROOT
HETATM    1  C1  UNL     1     -33.181   5.138   2.778  1.00 20.00     0.048 C 
HETATM    2  C2  UNL     1     -33.969   6.410   2.517  1.00 20.00     0.273 C 
HETATM    3  C3  UNL     1     -35.144   5.294   4.204  1.00 20.00     0.288 C 
HETATM    4  C4  UNL     1     -34.115   4.315   3.647  1.00 20.00     0.087 C 
HETATM    5  N7  UNL     1     -34.753   6.637   3.738  1.00 20.00     0.091 N 
HETATM    6 BR9  UNL     1     -33.140   3.423   5.069  1.00 20.00    -0.089 Br
ENDROOT
BRANCH   5   7
HETATM    7  C5  UNL     1     -33.974   7.347   4.754  1.00 20.00     0.303 C 
BRANCH   7   8
HETATM    8  C6  UNL     1     -32.877   8.181   4.127  1.00 20.00     0.252 C 
HETATM    9  F8  UNL     1     -32.123   8.734   5.116  1.00 20.00    -0.254 F 
ENDBRANCH   7   8
ENDBRANCH   5   7
TORSDOF 2
ENDMDL
MODEL 7
REMARK VINA RESULT:       1.5      2.071      2.442
REMARK  2 active torsions:
REMARK  status: ('A' for Active; 'I' for Inactive)
REMARK    1  A    between atoms: C5_5  and  C6_6 
REMARK    2  A    between atoms: C5_5  and  N7_7 
ROOT
HETATM    1  C1  UNL     1     -31.397   7.488   1.937  1.00 20.00     0.048 C 
HETATM    2  C2  UNL     1     -32.453   8.481   2.392  1.00 20.00     0.273 C 
HETATM    3  C3  UNL     1     -33.647   6.692   1.473  1.00 20.00     0.288 C 
HETATM    4  C4  UNL     1     -32.182   6.499   1.094  1.00 20.00     0.087 C 
HETATM    5  N7  UNL     1     -33.682   7.692   2.555  1.00 20.00     0.091 N 
HETATM    6 BR9  UNL     1     -31.595   4.679   1.428  1.00 20.00    -0.089 Br
ENDROOT
BRANCH   5   7
HETATM    7  C5  UNL     1     -33.739   7.053   3.870  1.00 20.00     0.303 C 
BRANCH   7   8
HETATM    8  C6  UNL     1     -35.033   6.290   4.060  1.00 20.00     0.252 C 
HETATM    9  F8  UNL     1     -34.753   4.962   4.165  1.00 20.00    -0.254 F 
ENDBRANCH   7   8
ENDBRANCH   5   7
TORSDOF 2
ENDMDL
MODEL 8
REMARK VINA RESULT:       1.5      2.706      3.680
REMARK  2 active torsions:
REMARK  status: ('A' for Active; 'I' for Inactive)
REMARK    1  A    between atoms: C5_5  and  C6_6 
REMARK    2  A    between atoms: C5_5  and  N7_7 
ROOT
HETATM    1  C1  UNL     1     -33.738   5.294   3.931  1.00 20.00     0.048 C 
HETATM    2  C2  UNL     1     -33.509   4.777   2.521  1.00 20.00     0.273 C 
HETATM    3  C3  UNL     1     -34.203   6.995   2.258  1.00 20.00     0.288 C 
HETATM    4  C4  UNL     1     -34.459   6.612   3.712  1.00 20.00     0.087 C 
HETATM    5  N7  UNL     1     -33.296   5.976   1.699  1.00 20.00     0.091 N 
HETATM    6 BR9  UNL     1     -33.807   7.974   4.932  1.00 20.00    -0.089 Br
ENDROOT
BRANCH   5   7
HETATM    7  C5  UNL     1     -31.902   6.420   1.746  1.00 20.00     0.303 C 
BRANCH   7   8
HETATM    8  C6  UNL     1     -31.795   7.924   1.622  1.00 20.00     0.252 C 
HETATM    9  F8  UNL     1     -31.312   8.431   2.790  1.00 20.00    -0.254 F 
ENDBRANCH   7   8
ENDBRANCH   5   7
TORSDOF 2
ENDMDL
MODEL 9
REMARK VINA RESULT:       1.7      2.841      3.231
REMARK  2 active torsions:
REMARK  status: ('A' for Active; 'I' for Inactive)
REMARK    1  A    between atoms: C5_5  and  C6_6 
REMARK    2  A    between atoms: C5_5  and  N7_7 
ROOT
HETATM    1  C1  UNL     1     -31.979   5.644   1.805  1.00 20.00     0.048 C 
HETATM    2  C2  UNL     1     -31.910   7.110   1.412  1.00 20.00     0.273 C 
HETATM    3  C3  UNL     1     -34.042   6.819   2.327  1.00 20.00     0.288 C 
HETATM    4  C4  UNL     1     -33.450   5.429   2.112  1.00 20.00     0.087 C 
HETATM    5  N7  UNL     1     -32.928   7.779   2.232  1.00 20.00     0.091 N 
HETATM    6 BR9  UNL     1     -33.678   4.309   3.681  1.00 20.00    -0.089 Br
ENDROOT
BRANCH   5   7
HETATM    7  C5  UNL     1     -32.410   8.126   3.556  1.00 20.00     0.303 C 
BRANCH   7   8
HETATM    8  C6  UNL     1     -33.492   8.051   4.612  1.00 20.00     0.252 C 
HETATM    9  F8  UNL     1     -32.964   8.418   5.812  1.00 20.00    -0.254 F 
ENDBRANCH   7   8
ENDBRANCH   5   7
TORSDOF 2
ENDMDL
