MODEL 1
REMARK VINA RESULT:       0.0      0.000      0.000
REMARK  4 active torsions:
REMARK  status: ('A' for Active; 'I' for Inactive)
REMARK    1  A    between atoms: C2_2  and  C8_8 
REMARK    2  A    between atoms: C6_6  and  C9_9 
REMARK    3  A    between atoms: C8_8  and  C9_9 
REMARK    4  A    between atoms: C9_9  and  O10_10 
ROOT
HETATM    1  C1  UNL     1     -33.789   3.418   4.466  1.00 20.00    -0.111 C 
HETATM    2  C2  UNL     1     -34.310   4.487   4.296  1.00 20.00    -0.104 C 
HETATM    3  C7  UNL     1     -33.155   2.118   4.674  1.00 20.00     0.112 C 
ENDROOT
BRANCH   2   4
HETATM    4  C8  UNL     1     -34.947   5.797   4.086  1.00 20.00     0.126 C 
BRANCH   4   5
HETATM    5  C9  UNL     1     -33.904   6.887   3.825  1.00 20.00     0.143 C 
BRANCH   5   6
HETATM    6  C6  UNL     1     -33.772   7.176   2.335  1.00 20.00     0.077 C 
HETATM    7  C4  UNL     1     -33.041   8.485   2.044  1.00 20.00     0.018 C 
HETATM    8  C3  UNL     1     -31.547   8.195   2.094  1.00 20.00     0.011 C 
HETATM    9  C5  UNL     1     -31.316   6.964   1.234  1.00 20.00     0.074 C 
HETATM   10  S11 UNL     1     -32.748   5.893   1.541  1.00 20.00    -0.162 SA
ENDBRANCH   5   6
BRANCH   5  11
HETATM   11  O10 UNL     1     -34.315   8.084   4.484  1.00 20.00    -0.394 OA
HETATM   12  H25 UNL     1     -33.515   8.479   4.861  1.00 20.00     0.210 HD
ENDBRANCH   5  11
ENDBRANCH   4   5
ENDBRANCH   2   4
TORSDOF 4
ENDMDL
MODEL 2
REMARK VINA RESULT:       0.2      1.884      4.878
REMARK  4 active torsions:
REMARK  status: ('A' for Active; 'I' for Inactive)
REMARK    1  A    between atoms: C2_2  and  C8_8 
REMARK    2  A    between atoms: C6_6  and  C9_9 
REMARK    3  A    between atoms: C8_8  and  C9_9 
REMARK    4  A    between atoms: C9_9  and  O10_10 
ROOT
HETATM    1  C1  UNL     1     -32.324   9.445   0.510  1.00 20.00    -0.111 C 
HETATM    2  C2  UNL     1     -32.276   8.748   1.487  1.00 20.00    -0.104 C 
HETATM    3  C7  UNL     1     -32.381  10.293  -0.679  1.00 20.00     0.112 C 
ENDROOT
BRANCH   2   4
HETATM    4  C8  UNL     1     -32.219   7.895   2.685  1.00 20.00     0.126 C 
BRANCH   4   5
HETATM    5  C9  UNL     1     -33.578   7.829   3.386  1.00 20.00     0.143 C 
BRANCH   5   6
HETATM    6  C6  UNL     1     -34.401   6.651   2.879  1.00 20.00     0.077 C 
HETATM    7  C4  UNL     1     -33.543   5.538   2.281  1.00 20.00     0.018 C 
HETATM    8  C3  UNL     1     -33.055   4.669   3.432  1.00 20.00     0.011 C 
HETATM    9  C5  UNL     1     -34.273   4.346   4.277  1.00 20.00     0.074 C 
HETATM   10  S11 UNL     1     -35.275   5.858   4.270  1.00 20.00    -0.162 SA
ENDBRANCH   5   6
BRANCH   5  11
HETATM   11  O10 UNL     1     -33.364   7.663   4.787  1.00 20.00    -0.394 OA
HETATM   12  H25 UNL     1     -34.056   8.176   5.233  1.00 20.00     0.210 HD
ENDBRANCH   5  11
ENDBRANCH   4   5
ENDBRANCH   2   4
TORSDOF 4
ENDMDL
MODEL 3
REMARK VINA RESULT:       0.2      2.190      5.013
REMARK  4 active torsions:
REMARK  status: ('A' for Active; 'I' for Inactive)
REMARK    1  A    between atoms: C2_2  and  C8_8 
REMARK    2  A    between atoms: C6_6  and  C9_9 
REMARK    3  A    between atoms: C8_8  and  C9_9 
REMARK    4  A    between atoms: C9_9  and  O10_10 
ROOT
HETATM    1  C1  UNL     1     -32.282   9.252   0.729  1.00 20.00    -0.111 C 
HETATM    2  C2  UNL     1     -31.984   8.141   1.078  1.00 20.00    -0.104 C 
HETATM    3  C7  UNL     1     -32.645  10.602   0.306  1.00 20.00     0.112 C 
ENDROOT
BRANCH   2   4
HETATM    4  C8  UNL     1     -31.620   6.780   1.504  1.00 20.00     0.126 C 
BRANCH   4   5
HETATM    5  C9  UNL     1     -32.857   5.974   1.908  1.00 20.00     0.143 C 
BRANCH   5   6
HETATM    6  C6  UNL     1     -33.090   6.044   3.413  1.00 20.00     0.077 C 
HETATM    7  C4  UNL     1     -34.057   7.155   3.815  1.00 20.00     0.018 C 
HETATM    8  C3  UNL     1     -35.470   6.615   3.647  1.00 20.00     0.011 C 
HETATM    9  C5  UNL     1     -35.503   5.264   4.339  1.00 20.00     0.074 C 
HETATM   10  S11 UNL     1     -33.891   4.510   3.990  1.00 20.00    -0.162 SA
ENDBRANCH   5   6
BRANCH   5  11
HETATM   11  O10 UNL     1     -33.997   6.521   1.247  1.00 20.00    -0.394 OA
HETATM   12  H25 UNL     1     -34.774   6.196   1.727  1.00 20.00     0.210 HD
ENDBRANCH   5  11
ENDBRANCH   4   5
ENDBRANCH   2   4
TORSDOF 4
ENDMDL
MODEL 4
REMARK VINA RESULT:       0.3      2.145      2.581
REMARK  4 active torsions:
REMARK  status: ('A' for Active; 'I' for Inactive)
REMARK    1  A    between atoms: C2_2  and  C8_8 
REMARK    2  A    between atoms: C6_6  and  C9_9 
REMARK    3  A    between atoms: C8_8  and  C9_9 
REMARK    4  A    between atoms: C9_9  and  O10_10 
ROOT
HETATM    1  C1  UNL     1     -33.547   4.113   4.024  1.00 20.00    -0.111 C 
HETATM    2  C2  UNL     1     -33.687   5.182   3.495  1.00 20.00    -0.104 C 
HETATM    3  C7  UNL     1     -33.377   2.813   4.669  1.00 20.00     0.112 C 
ENDROOT
BRANCH   2   4
HETATM    4  C8  UNL     1     -33.858   6.491   2.844  1.00 20.00     0.126 C 
BRANCH   4   5
HETATM    5  C9  UNL     1     -32.976   6.613   1.598  1.00 20.00     0.143 C 
BRANCH   5   6
HETATM    6  C6  UNL     1     -31.955   7.732   1.755  1.00 20.00     0.077 C 
HETATM    7  C4  UNL     1     -31.384   8.210   0.422  1.00 20.00     0.018 C 
HETATM    8  C3  UNL     1     -32.364   9.219  -0.159  1.00 20.00     0.011 C 
HETATM    9  C5  UNL     1     -32.680  10.205   0.951  1.00 20.00     0.074 C 
HETATM   10  S11 UNL     1     -32.755   9.209   2.466  1.00 20.00    -0.162 SA
ENDBRANCH   5   6
BRANCH   5  11
HETATM   11  O10 UNL     1     -32.276   5.384   1.410  1.00 20.00    -0.394 OA
HETATM   12  H25 UNL     1     -31.777   5.476   0.585  1.00 20.00     0.210 HD
ENDBRANCH   5  11
ENDBRANCH   4   5
ENDBRANCH   2   4
TORSDOF 4
ENDMDL
MODEL 5
REMARK VINA RESULT:       0.8      2.240      5.213
REMARK  4 active torsions:
REMARK  status: ('A' for Active; 'I' for Inactive)
REMARK    1  A    between atoms: C2_2  and  C8_8 
REMARK    2  A    between atoms: C6_6  and  C9_9 
REMARK    3  A    between atoms: C8_8  and  C9_9 
REMARK    4  A    between atoms: C9_9  and  O10_10 
ROOT
HETATM    1  C1  UNL     1     -32.508   9.474   0.473  1.00 20.00    -0.111 C 
HETATM    2  C2  UNL     1     -32.382   8.863   1.500  1.00 20.00    -0.104 C 
HETATM    3  C7  UNL     1     -32.660  10.218  -0.776  1.00 20.00     0.112 C 
ENDROOT
BRANCH   2   4
HETATM    4  C8  UNL     1     -32.229   8.112   2.756  1.00 20.00     0.126 C 
BRANCH   4   5
HETATM    5  C9  UNL     1     -32.285   6.602   2.512  1.00 20.00     0.143 C 
BRANCH   5   6
HETATM    6  C6  UNL     1     -33.724   6.122   2.366  1.00 20.00     0.077 C 
HETATM    7  C4  UNL     1     -33.858   4.603   2.456  1.00 20.00     0.018 C 
HETATM    8  C3  UNL     1     -33.911   4.235   3.932  1.00 20.00     0.011 C 
HETATM    9  C5  UNL     1     -34.944   5.148   4.568  1.00 20.00     0.074 C 
HETATM   10  S11 UNL     1     -34.733   6.752   3.748  1.00 20.00    -0.162 SA
ENDBRANCH   5   6
BRANCH   5  11
HETATM   11  O10 UNL     1     -31.584   6.305   1.305  1.00 20.00    -0.394 OA
HETATM   12  H25 UNL     1     -30.915   5.642   1.532  1.00 20.00     0.210 HD
ENDBRANCH   5  11
ENDBRANCH   4   5
ENDBRANCH   2   4
TORSDOF 4
ENDMDL
MODEL 6
REMARK VINA RESULT:       1.0      2.488      3.410
REMARK  4 active torsions:
REMARK  status: ('A' for Active; 'I' for Inactive)
REMARK    1  A    between atoms: C2_2  and  C8_8 
REMARK    2  A    between atoms: C6_6  and  C9_9 
REMARK    3  A    between atoms: C8_8  and  C9_9 
REMARK    4  A    between atoms: C9_9  and  O10_10 
ROOT
HETATM    1  C1  UNL     1     -34.698   6.098   4.128  1.00 20.00    -0.111 C 
HETATM    2  C2  UNL     1     -33.949   6.958   3.750  1.00 20.00    -0.104 C 
HETATM    3  C7  UNL     1     -35.610   5.053   4.588  1.00 20.00     0.112 C 
ENDROOT
BRANCH   2   4
HETATM    4  C8  UNL     1     -33.030   8.009   3.285  1.00 20.00     0.126 C 
BRANCH   4   5
HETATM    5  C9  UNL     1     -32.604   7.774   1.834  1.00 20.00     0.143 C 
BRANCH   5   6
HETATM    6  C6  UNL     1     -31.762   8.933   1.313  1.00 20.00     0.077 C 
HETATM    7  C4  UNL     1     -31.331   8.750  -0.140  1.00 20.00     0.018 C 
HETATM    8  C3  UNL     1     -32.480   9.222  -1.021  1.00 20.00     0.011 C 
HETATM    9  C5  UNL     1     -32.896  10.585  -0.496  1.00 20.00     0.074 C 
HETATM   10  S11 UNL     1     -32.750  10.466   1.308  1.00 20.00    -0.162 SA
ENDBRANCH   5   6
BRANCH   5  11
HETATM   11  O10 UNL     1     -31.821   6.582   1.773  1.00 20.00    -0.394 OA
HETATM   12  H25 UNL     1     -31.213   6.615   2.526  1.00 20.00     0.210 HD
ENDBRANCH   5  11
ENDBRANCH   4   5
ENDBRANCH   2   4
TORSDOF 4
ENDMDL
MODEL 7
REMARK VINA RESULT:       1.6      1.774      1.980
REMARK  4 active torsions:
REMARK  status: ('A' for Active; 'I' for Inactive)
REMARK    1  A    between atoms: C2_2  and  C8_8 
REMARK    2  A    between atoms: C6_6  and  C9_9 
REMARK    3  A    between atoms: C8_8  and  C9_9 
REMARK    4  A    between atoms: C9_9  and  O10_10 
ROOT
HETATM    1  C1  UNL     1     -33.619   3.161   4.461  1.00 20.00    -0.111 C 
HETATM    2  C2  UNL     1     -34.055   4.250   4.200  1.00 20.00    -0.104 C 
HETATM    3  C7  UNL     1     -33.089   1.837   4.778  1.00 20.00     0.112 C 
ENDROOT
BRANCH   2   4
HETATM    4  C8  UNL     1     -34.588   5.584   3.882  1.00 20.00     0.126 C 
BRANCH   4   5
HETATM    5  C9  UNL     1     -34.063   6.087   2.535  1.00 20.00     0.143 C 
BRANCH   5   6
HETATM    6  C6  UNL     1     -33.917   7.604   2.533  1.00 20.00     0.077 C 
HETATM    7  C4  UNL     1     -34.064   8.218   3.923  1.00 20.00     0.018 C 
HETATM    8  C3  UNL     1     -32.711   8.114   4.614  1.00 20.00     0.011 C 
HETATM    9  C5  UNL     1     -31.681   8.644   3.631  1.00 20.00     0.074 C 
HETATM   10  S11 UNL     1     -32.235   8.066   2.003  1.00 20.00    -0.162 SA
ENDBRANCH   5   6
BRANCH   5  11
HETATM   11  O10 UNL     1     -32.781   5.508   2.297  1.00 20.00    -0.394 OA
HETATM   12  H25 UNL     1     -32.241   5.706   3.077  1.00 20.00     0.210 HD
ENDBRANCH   5  11
ENDBRANCH   4   5
ENDBRANCH   2   4
TORSDOF 4
ENDMDL
MODEL 8
REMARK VINA RESULT:       1.8      2.526      3.894
REMARK  4 active torsions:
REMARK  status: ('A' for Active; 'I' for Inactive)
REMARK    1  A    between atoms: C2_2  and  C8_8 
REMARK    2  A    between atoms: C6_6  and  C9_9 
REMARK    3  A    between atoms: C8_8  and  C9_9 
REMARK    4  A    between atoms: C9_9  and  O10_10 
ROOT
HETATM    1  C1  UNL     1     -33.654   4.277  -0.108  1.00 20.00    -0.111 C 
HETATM    2  C2  UNL     1     -32.945   5.002   0.536  1.00 20.00    -0.104 C 
HETATM    3  C7  UNL     1     -34.516   3.396  -0.893  1.00 20.00     0.112 C 
ENDROOT
BRANCH   2   4
HETATM    4  C8  UNL     1     -32.077   5.889   1.328  1.00 20.00     0.126 C 
BRANCH   4   5
HETATM    5  C9  UNL     1     -32.881   7.017   1.979  1.00 20.00     0.143 C 
BRANCH   5   6
HETATM    6  C6  UNL     1     -33.073   6.765   3.470  1.00 20.00     0.077 C 
HETATM    7  C4  UNL     1     -34.279   7.503   4.048  1.00 20.00     0.018 C 
HETATM    8  C3  UNL     1     -35.511   6.653   3.771  1.00 20.00     0.011 C 
HETATM    9  C5  UNL     1     -35.173   5.241   4.216  1.00 20.00     0.074 C 
HETATM   10  S11 UNL     1     -33.434   5.001   3.760  1.00 20.00    -0.162 SA
ENDBRANCH   5   6
BRANCH   5  11
HETATM   11  O10 UNL     1     -32.168   8.242   1.816  1.00 20.00    -0.394 OA
HETATM   12  H25 UNL     1     -31.226   8.016   1.833  1.00 20.00     0.210 HD
ENDBRANCH   5  11
ENDBRANCH   4   5
ENDBRANCH   2   4
TORSDOF 4
ENDMDL
MODEL 9
REMARK VINA RESULT:       1.9      2.395      3.347
REMARK  4 active torsions:
REMARK  status: ('A' for Active; 'I' for Inactive)
REMARK    1  A    between atoms: C2_2  and  C8_8 
REMARK    2  A    between atoms: C6_6  and  C9_9 
REMARK    3  A    between atoms: C8_8  and  C9_9 
REMARK    4  A    between atoms: C9_9  and  O10_10 
ROOT
HETATM    1  C1  UNL     1     -34.283   6.179   3.374  1.00 20.00    -0.111 C 
HETATM    2  C2  UNL     1     -33.322   6.305   2.664  1.00 20.00    -0.104 C 
HETATM    3  C7  UNL     1     -35.452   6.025   4.237  1.00 20.00     0.112 C 
ENDROOT
BRANCH   2   4
HETATM    4  C8  UNL     1     -32.144   6.460   1.796  1.00 20.00     0.126 C 
BRANCH   4   5
HETATM    5  C9  UNL     1     -31.766   7.934   1.629  1.00 20.00     0.143 C 
BRANCH   5   6
HETATM    6  C6  UNL     1     -32.870   8.707   0.918  1.00 20.00     0.077 C 
HETATM    7  C4  UNL     1     -33.120  10.085   1.527  1.00 20.00     0.018 C 
HETATM    8  C3  UNL     1     -32.099  11.042   0.927  1.00 20.00     0.011 C 
HETATM    9  C5  UNL     1     -32.142  10.834  -0.576  1.00 20.00     0.074 C 
HETATM   10  S11 UNL     1     -32.380   9.050  -0.804  1.00 20.00    -0.162 SA
ENDBRANCH   5   6
BRANCH   5  11
HETATM   11  O10 UNL     1     -31.571   8.508   2.921  1.00 20.00    -0.394 OA
HETATM   12  H25 UNL     1     -32.190   8.058   3.517  1.00 20.00     0.210 HD
ENDBRANCH   5  11
ENDBRANCH   4   5
ENDBRANCH   2   4
TORSDOF 4
ENDMDL
