MODEL 1
REMARK VINA RESULT:       0.4      0.000      0.000
REMARK  1 active torsions:
REMARK  status: ('A' for Active; 'I' for Inactive)
REMARK    1  A    between atoms: C5_5  and  O9_9 
ROOT
HETATM    1  C1  UNL     1     -33.082   6.067   3.039  1.00 20.00     0.012 C 
HETATM    2  C2  UNL     1     -32.584   6.496   1.663  1.00 20.00     0.038 C 
HETATM    3  C3  UNL     1     -33.608   8.439   2.622  1.00 20.00     0.046 C 
HETATM    4  C4  UNL     1     -33.961   7.236   3.538  1.00 20.00    -0.045 C 
HETATM    5  C5  UNL     1     -32.378   8.000   1.820  1.00 20.00     0.055 C 
HETATM    6  C6  UNL     1     -33.654   7.551   5.007  1.00 20.00     0.015 C 
HETATM    7  C7  UNL     1     -35.451   6.887   3.404  1.00 20.00     0.015 C 
HETATM    8  C8  UNL     1     -32.239   8.731   0.493  1.00 20.00     0.045 C 
ENDROOT
BRANCH   5   9
HETATM    9  O9  UNL     1     -31.212   8.247   2.603  1.00 20.00    -0.390 OA
HETATM   10  H25 UNL     1     -30.971   9.174   2.452  1.00 20.00     0.210 HD
ENDBRANCH   5   9
TORSDOF 1
ENDMDL
MODEL 2
REMARK VINA RESULT:       0.5      1.605      3.448
REMARK  1 active torsions:
REMARK  status: ('A' for Active; 'I' for Inactive)
REMARK    1  A    between atoms: C5_5  and  O9_9 
ROOT
HETATM    1  C1  UNL     1     -32.274   8.045   3.479  1.00 20.00     0.012 C 
HETATM    2  C2  UNL     1     -33.620   7.818   4.161  1.00 20.00     0.038 C 
HETATM    3  C3  UNL     1     -33.834   6.880   1.966  1.00 20.00     0.046 C 
HETATM    4  C4  UNL     1     -32.502   7.677   1.995  1.00 20.00    -0.045 C 
HETATM    5  C5  UNL     1     -34.178   6.600   3.433  1.00 20.00     0.055 C 
HETATM    6  C6  UNL     1     -31.338   6.829   1.467  1.00 20.00     0.015 C 
HETATM    7  C7  UNL     1     -32.623   8.945   1.137  1.00 20.00     0.015 C 
HETATM    8  C8  UNL     1     -35.667   6.389   3.665  1.00 20.00     0.045 C 
ENDROOT
BRANCH   5   9
HETATM    9  O9  UNL     1     -33.480   5.427   3.849  1.00 20.00    -0.390 OA
HETATM   10  H25 UNL     1     -34.001   4.672   3.537  1.00 20.00     0.210 HD
ENDBRANCH   5   9
TORSDOF 1
ENDMDL
MODEL 3
REMARK VINA RESULT:       0.6      1.514      2.611
REMARK  1 active torsions:
REMARK  status: ('A' for Active; 'I' for Inactive)
REMARK    1  A    between atoms: C5_5  and  O9_9 
ROOT
HETATM    1  C1  UNL     1     -33.386   8.108   2.366  1.00 20.00     0.012 C 
HETATM    2  C2  UNL     1     -32.215   7.410   1.681  1.00 20.00     0.038 C 
HETATM    3  C3  UNL     1     -33.224   5.759   3.094  1.00 20.00     0.046 C 
HETATM    4  C4  UNL     1     -33.864   7.125   3.459  1.00 20.00    -0.045 C 
HETATM    5  C5  UNL     1     -32.630   5.942   1.694  1.00 20.00     0.055 C 
HETATM    6  C6  UNL     1     -35.395   7.034   3.468  1.00 20.00     0.015 C 
HETATM    7  C7  UNL     1     -33.385   7.583   4.844  1.00 20.00     0.015 C 
HETATM    8  C8  UNL     1     -31.480   4.988   1.405  1.00 20.00     0.045 C 
ENDROOT
BRANCH   5   9
HETATM    9  O9  UNL     1     -33.659   5.723   0.730  1.00 20.00    -0.390 OA
HETATM   10  H25 UNL     1     -33.687   6.516   0.173  1.00 20.00     0.210 HD
ENDBRANCH   5   9
TORSDOF 1
ENDMDL
MODEL 4
REMARK VINA RESULT:       0.6      1.365      2.140
REMARK  1 active torsions:
REMARK  status: ('A' for Active; 'I' for Inactive)
REMARK    1  A    between atoms: C5_5  and  O9_9 
ROOT
HETATM    1  C1  UNL     1     -33.960   7.637   4.432  1.00 20.00     0.012 C 
HETATM    2  C2  UNL     1     -32.554   7.931   3.917  1.00 20.00     0.038 C 
HETATM    3  C3  UNL     1     -33.542   6.453   2.310  1.00 20.00     0.046 C 
HETATM    4  C4  UNL     1     -34.490   6.491   3.539  1.00 20.00    -0.045 C 
HETATM    5  C5  UNL     1     -32.683   7.718   2.412  1.00 20.00     0.055 C 
HETATM    6  C6  UNL     1     -35.937   6.767   3.114  1.00 20.00     0.015 C 
HETATM    7  C7  UNL     1     -34.438   5.153   4.290  1.00 20.00     0.015 C 
HETATM    8  C8  UNL     1     -31.342   7.586   1.705  1.00 20.00     0.045 C 
ENDROOT
BRANCH   5   9
HETATM    9  O9  UNL     1     -33.401   8.805   1.831  1.00 20.00    -0.390 OA
HETATM   10  H25 UNL     1     -32.759   9.311   1.310  1.00 20.00     0.210 HD
ENDBRANCH   5   9
TORSDOF 1
ENDMDL
MODEL 5
REMARK VINA RESULT:       1.4      2.031      3.585
REMARK  1 active torsions:
REMARK  status: ('A' for Active; 'I' for Inactive)
REMARK    1  A    between atoms: C5_5  and  O9_9 
ROOT
HETATM    1  C1  UNL     1     -33.658   4.670   2.708  1.00 20.00     0.012 C 
HETATM    2  C2  UNL     1     -33.766   5.393   4.047  1.00 20.00     0.038 C 
HETATM    3  C3  UNL     1     -33.286   7.090   2.425  1.00 20.00     0.046 C 
HETATM    4  C4  UNL     1     -33.097   5.719   1.721  1.00 20.00    -0.045 C 
HETATM    5  C5  UNL     1     -34.168   6.809   3.646  1.00 20.00     0.055 C 
HETATM    6  C6  UNL     1     -33.859   5.669   0.392  1.00 20.00     0.015 C 
HETATM    7  C7  UNL     1     -31.607   5.463   1.451  1.00 20.00     0.015 C 
HETATM    8  C8  UNL     1     -33.982   7.826   4.762  1.00 20.00     0.045 C 
ENDROOT
BRANCH   5   9
HETATM    9  O9  UNL     1     -35.534   6.825   3.236  1.00 20.00    -0.390 OA
HETATM   10  H25 UNL     1     -36.040   7.181   3.982  1.00 20.00     0.210 HD
ENDBRANCH   5   9
TORSDOF 1
ENDMDL
MODEL 6
REMARK VINA RESULT:       1.5      1.524      2.466
REMARK  1 active torsions:
REMARK  status: ('A' for Active; 'I' for Inactive)
REMARK    1  A    between atoms: C5_5  and  O9_9 
ROOT
HETATM    1  C1  UNL     1     -31.294   7.986   2.127  1.00 20.00     0.012 C 
HETATM    2  C2  UNL     1     -31.082   8.822   0.868  1.00 20.00     0.038 C 
HETATM    3  C3  UNL     1     -33.374   8.128   0.812  1.00 20.00     0.046 C 
HETATM    4  C4  UNL     1     -32.685   7.333   1.952  1.00 20.00    -0.045 C 
HETATM    5  C5  UNL     1     -32.480   9.346   0.559  1.00 20.00     0.055 C 
HETATM    6  C6  UNL     1     -33.488   7.423   3.255  1.00 20.00     0.015 C 
HETATM    7  C7  UNL     1     -32.541   5.855   1.557  1.00 20.00     0.015 C 
HETATM    8  C8  UNL     1     -32.616   9.903  -0.851  1.00 20.00     0.045 C 
ENDROOT
BRANCH   5   9
HETATM    9  O9  UNL     1     -32.829  10.369   1.490  1.00 20.00    -0.390 OA
HETATM   10  H25 UNL     1     -33.512   9.994   2.067  1.00 20.00     0.210 HD
ENDBRANCH   5   9
TORSDOF 1
ENDMDL
MODEL 7
REMARK VINA RESULT:       1.6      1.707      3.428
REMARK  1 active torsions:
REMARK  status: ('A' for Active; 'I' for Inactive)
REMARK    1  A    between atoms: C5_5  and  O9_9 
ROOT
HETATM    1  C1  UNL     1     -32.406   6.485   1.473  1.00 20.00     0.012 C 
HETATM    2  C2  UNL     1     -33.122   5.610   2.499  1.00 20.00     0.038 C 
HETATM    3  C3  UNL     1     -33.376   7.864   3.272  1.00 20.00     0.046 C 
HETATM    4  C4  UNL     1     -32.350   7.893   2.107  1.00 20.00    -0.045 C 
HETATM    5  C5  UNL     1     -34.156   6.555   3.102  1.00 20.00     0.055 C 
HETATM    6  C6  UNL     1     -32.718   8.964   1.072  1.00 20.00     0.015 C 
HETATM    7  C7  UNL     1     -30.943   8.186   2.648  1.00 20.00     0.015 C 
HETATM    8  C8  UNL     1     -34.752   6.044   4.405  1.00 20.00     0.045 C 
ENDROOT
BRANCH   5   9
HETATM    9  O9  UNL     1     -35.213   6.772   2.169  1.00 20.00    -0.390 OA
HETATM   10  H25 UNL     1     -35.866   6.073   2.327  1.00 20.00     0.210 HD
ENDBRANCH   5   9
TORSDOF 1
ENDMDL
MODEL 8
REMARK VINA RESULT:       1.9      1.707      1.962
REMARK  1 active torsions:
REMARK  status: ('A' for Active; 'I' for Inactive)
REMARK    1  A    between atoms: C5_5  and  O9_9 
ROOT
HETATM    1  C1  UNL     1     -33.396   5.332   3.995  1.00 20.00     0.012 C 
HETATM    2  C2  UNL     1     -33.125   4.589   2.690  1.00 20.00     0.038 C 
HETATM    3  C3  UNL     1     -34.073   6.697   2.056  1.00 20.00     0.046 C 
HETATM    4  C4  UNL     1     -34.237   6.566   3.594  1.00 20.00    -0.045 C 
HETATM    5  C5  UNL     1     -32.959   5.716   1.675  1.00 20.00     0.055 C 
HETATM    6  C6  UNL     1     -33.728   7.821   4.314  1.00 20.00     0.015 C 
HETATM    7  C7  UNL     1     -35.715   6.351   3.954  1.00 20.00     0.015 C 
HETATM    8  C8  UNL     1     -33.048   5.244   0.232  1.00 20.00     0.045 C 
ENDROOT
BRANCH   5   9
HETATM    9  O9  UNL     1     -31.700   6.358   1.870  1.00 20.00    -0.390 OA
HETATM   10  H25 UNL     1     -31.424   6.152   2.776  1.00 20.00     0.210 HD
ENDBRANCH   5   9
TORSDOF 1
ENDMDL
MODEL 9
REMARK VINA RESULT:       2.0      1.639      3.649
REMARK  1 active torsions:
REMARK  status: ('A' for Active; 'I' for Inactive)
REMARK    1  A    between atoms: C5_5  and  O9_9 
ROOT
HETATM    1  C1  UNL     1     -31.256   8.779   2.066  1.00 20.00     0.012 C 
HETATM    2  C2  UNL     1     -32.112   7.905   2.977  1.00 20.00     0.038 C 
HETATM    3  C3  UNL     1     -33.101   7.743   0.800  1.00 20.00     0.046 C 
HETATM    4  C4  UNL     1     -32.043   8.877   0.739  1.00 20.00    -0.045 C 
HETATM    5  C5  UNL     1     -32.721   6.889   2.015  1.00 20.00     0.055 C 
HETATM    6  C6  UNL     1     -31.102   8.692  -0.459  1.00 20.00     0.015 C 
HETATM    7  C7  UNL     1     -32.735  10.243   0.621  1.00 20.00     0.015 C 
HETATM    8  C8  UNL     1     -33.901   6.132   2.605  1.00 20.00     0.045 C 
ENDROOT
BRANCH   5   9
HETATM    9  O9  UNL     1     -31.726   5.947   1.616  1.00 20.00    -0.390 OA
HETATM   10  H25 UNL     1     -31.063   6.444   1.114  1.00 20.00     0.210 HD
ENDBRANCH   5   9
TORSDOF 1
ENDMDL
