MODEL 1
REMARK VINA RESULT:      -3.3      0.000      0.000
REMARK  4 active torsions:
REMARK  status: ('A' for Active; 'I' for Inactive)
REMARK    1  A    between atoms: C1_1  and  C4_4 
REMARK    2  A    between atoms: C1_1  and  C7_7 
REMARK    3  A    between atoms: C4_4  and  C5_5 
REMARK    4  A    between atoms: C5_5  and  C6_6 
ROOT
HETATM    1  C1  UNL     1     -33.100   7.088   2.522  1.00 20.00     0.130 C 
HETATM    2  O8  UNL     1     -33.146   6.013   1.925  1.00 20.00    -0.298 OA
ENDROOT
BRANCH   1   3
HETATM    3  C4  UNL     1     -32.040   8.136   2.207  1.00 20.00     0.081 C 
BRANCH   3   4
HETATM    4  C5  UNL     1     -31.955   8.492   0.725  1.00 20.00     0.038 C 
BRANCH   4   5
HETATM    5  C6  UNL     1     -32.392   9.922   0.440  1.00 20.00     0.222 C 
HETATM    6  F9  UNL     1     -33.099   9.950  -0.722  1.00 20.00    -0.255 F 
ENDBRANCH   4   5
ENDBRANCH   3   4
ENDBRANCH   1   3
BRANCH   1   7
HETATM    7  C7  UNL     1     -34.136   7.467   3.581  1.00 20.00     0.047 C 
HETATM    8  C2  UNL     1     -35.004   6.261   3.918  1.00 20.00     0.017 C 
HETATM    9  C3  UNL     1     -33.462   8.017   4.836  1.00 20.00     0.017 C 
ENDBRANCH   1   7
TORSDOF 4
ENDMDL
MODEL 2
REMARK VINA RESULT:      -2.9      0.353      1.235
REMARK  4 active torsions:
REMARK  status: ('A' for Active; 'I' for Inactive)
REMARK    1  A    between atoms: C1_1  and  C4_4 
REMARK    2  A    between atoms: C1_1  and  C7_7 
REMARK    3  A    between atoms: C4_4  and  C5_5 
REMARK    4  A    between atoms: C5_5  and  C6_6 
ROOT
HETATM    1  C1  UNL     1     -33.018   6.904   2.495  1.00 20.00     0.130 C 
HETATM    2  O8  UNL     1     -33.072   6.013   1.648  1.00 20.00    -0.298 OA
ENDROOT
BRANCH   1   3
HETATM    3  C4  UNL     1     -32.234   8.189   2.261  1.00 20.00     0.081 C 
BRANCH   3   4
HETATM    4  C5  UNL     1     -31.997   8.498   0.784  1.00 20.00     0.038 C 
BRANCH   4   5
HETATM    5  C6  UNL     1     -32.396   9.918   0.411  1.00 20.00     0.222 C 
HETATM    6  F9  UNL     1     -33.081   9.895  -0.764  1.00 20.00    -0.255 F 
ENDBRANCH   4   5
ENDBRANCH   3   4
ENDBRANCH   1   3
BRANCH   1   7
HETATM    7  C7  UNL     1     -33.779   6.804   3.818  1.00 20.00     0.047 C 
HETATM    8  C2  UNL     1     -33.691   8.126   4.572  1.00 20.00     0.017 C 
HETATM    9  C3  UNL     1     -35.234   6.408   3.585  1.00 20.00     0.017 C 
ENDBRANCH   1   7
TORSDOF 4
ENDMDL
MODEL 3
REMARK VINA RESULT:      -2.7      1.028      1.431
REMARK  4 active torsions:
REMARK  status: ('A' for Active; 'I' for Inactive)
REMARK    1  A    between atoms: C1_1  and  C4_4 
REMARK    2  A    between atoms: C1_1  and  C7_7 
REMARK    3  A    between atoms: C4_4  and  C5_5 
REMARK    4  A    between atoms: C5_5  and  C6_6 
ROOT
HETATM    1  C1  UNL     1     -33.116   6.425   2.414  1.00 20.00     0.130 C 
HETATM    2  O8  UNL     1     -32.964   5.670   1.453  1.00 20.00    -0.298 OA
ENDROOT
BRANCH   1   3
HETATM    3  C4  UNL     1     -32.622   7.866   2.388  1.00 20.00     0.081 C 
BRANCH   3   4
HETATM    4  C5  UNL     1     -31.955   8.259   1.072  1.00 20.00     0.038 C 
BRANCH   4   5
HETATM    5  C6  UNL     1     -32.376   9.640   0.591  1.00 20.00     0.222 C 
HETATM    6  F9  UNL     1     -32.847   9.546  -0.681  1.00 20.00    -0.255 F 
ENDBRANCH   4   5
ENDBRANCH   3   4
ENDBRANCH   1   3
BRANCH   1   7
HETATM    7  C7  UNL     1     -33.859   5.984   3.676  1.00 20.00     0.047 C 
HETATM    8  C2  UNL     1     -35.225   6.656   3.739  1.00 20.00     0.017 C 
HETATM    9  C3  UNL     1     -34.000   4.465   3.727  1.00 20.00     0.017 C 
ENDBRANCH   1   7
TORSDOF 4
ENDMDL
MODEL 4
REMARK VINA RESULT:      -2.6      3.328      5.000
REMARK  4 active torsions:
REMARK  status: ('A' for Active; 'I' for Inactive)
REMARK    1  A    between atoms: C1_1  and  C4_4 
REMARK    2  A    between atoms: C1_1  and  C7_7 
REMARK    3  A    between atoms: C4_4  and  C5_5 
REMARK    4  A    between atoms: C5_5  and  C6_6 
ROOT
HETATM    1  C1  UNL     1     -33.810   7.104   3.458  1.00 20.00     0.130 C 
HETATM    2  O8  UNL     1     -33.354   7.733   4.413  1.00 20.00    -0.298 OA
ENDROOT
BRANCH   1   3
HETATM    3  C4  UNL     1     -35.069   6.255   3.584  1.00 20.00     0.081 C 
BRANCH   3   4
HETATM    4  C5  UNL     1     -34.920   5.083   4.552  1.00 20.00     0.038 C 
BRANCH   4   5
HETATM    5  C6  UNL     1     -33.985   4.004   4.028  1.00 20.00     0.222 C 
HETATM    6  F9  UNL     1     -33.592   3.212   5.061  1.00 20.00    -0.255 F 
ENDBRANCH   4   5
ENDBRANCH   3   4
ENDBRANCH   1   3
BRANCH   1   7
HETATM    7  C7  UNL     1     -33.176   7.177   2.068  1.00 20.00     0.047 C 
HETATM    8  C2  UNL     1     -32.005   8.151   2.078  1.00 20.00     0.017 C 
HETATM    9  C3  UNL     1     -32.727   5.796   1.597  1.00 20.00     0.017 C 
ENDBRANCH   1   7
TORSDOF 4
ENDMDL
MODEL 5
REMARK VINA RESULT:      -2.5      3.799      5.178
REMARK  4 active torsions:
REMARK  status: ('A' for Active; 'I' for Inactive)
REMARK    1  A    between atoms: C1_1  and  C4_4 
REMARK    2  A    between atoms: C1_1  and  C7_7 
REMARK    3  A    between atoms: C4_4  and  C5_5 
REMARK    4  A    between atoms: C5_5  and  C6_6 
ROOT
HETATM    1  C1  UNL     1     -34.499   6.300   3.694  1.00 20.00     0.130 C 
HETATM    2  O8  UNL     1     -35.692   6.252   3.992  1.00 20.00    -0.298 OA
ENDROOT
BRANCH   1   3
HETATM    3  C4  UNL     1     -33.676   5.037   3.473  1.00 20.00     0.081 C 
BRANCH   3   4
HETATM    4  C5  UNL     1     -34.079   3.878   4.383  1.00 20.00     0.038 C 
BRANCH   4   5
HETATM    5  C6  UNL     1     -32.949   2.883   4.601  1.00 20.00     0.222 C 
HETATM    6  F9  UNL     1     -32.475   3.016   5.869  1.00 20.00    -0.255 F 
ENDBRANCH   4   5
ENDBRANCH   3   4
ENDBRANCH   1   3
BRANCH   1   7
HETATM    7  C7  UNL     1     -33.777   7.629   3.471  1.00 20.00     0.047 C 
HETATM    8  C2  UNL     1     -33.199   8.136   4.787  1.00 20.00     0.017 C 
HETATM    9  C3  UNL     1     -32.681   7.488   2.417  1.00 20.00     0.017 C 
ENDBRANCH   1   7
TORSDOF 4
ENDMDL
MODEL 6
REMARK VINA RESULT:      -2.5      3.479      4.998
REMARK  4 active torsions:
REMARK  status: ('A' for Active; 'I' for Inactive)
REMARK    1  A    between atoms: C1_1  and  C4_4 
REMARK    2  A    between atoms: C1_1  and  C7_7 
REMARK    3  A    between atoms: C4_4  and  C5_5 
REMARK    4  A    between atoms: C5_5  and  C6_6 
ROOT
HETATM    1  C1  UNL     1     -33.691   6.865   3.448  1.00 20.00     0.130 C 
HETATM    2  O8  UNL     1     -33.818   7.832   4.200  1.00 20.00    -0.298 OA
ENDROOT
BRANCH   1   3
HETATM    3  C4  UNL     1     -34.709   5.731   3.419  1.00 20.00     0.081 C 
BRANCH   3   4
HETATM    4  C5  UNL     1     -34.513   4.708   4.536  1.00 20.00     0.038 C 
BRANCH   4   5
HETATM    5  C6  UNL     1     -33.662   3.523   4.103  1.00 20.00     0.222 C 
HETATM    6  F9  UNL     1     -32.995   3.033   5.182  1.00 20.00    -0.255 F 
ENDBRANCH   4   5
ENDBRANCH   3   4
ENDBRANCH   1   3
BRANCH   1   7
HETATM    7  C7  UNL     1     -32.534   6.765   2.453  1.00 20.00     0.047 C 
HETATM    8  C2  UNL     1     -32.875   5.764   1.355  1.00 20.00     0.017 C 
HETATM    9  C3  UNL     1     -32.203   8.131   1.856  1.00 20.00     0.017 C 
ENDBRANCH   1   7
TORSDOF 4
ENDMDL
MODEL 7
REMARK VINA RESULT:      -2.2      1.444      1.789
REMARK  4 active torsions:
REMARK  status: ('A' for Active; 'I' for Inactive)
REMARK    1  A    between atoms: C1_1  and  C4_4 
REMARK    2  A    between atoms: C1_1  and  C7_7 
REMARK    3  A    between atoms: C4_4  and  C5_5 
REMARK    4  A    between atoms: C5_5  and  C6_6 
ROOT
HETATM    1  C1  UNL     1     -33.341   7.035   3.122  1.00 20.00     0.130 C 
HETATM    2  O8  UNL     1     -33.166   7.833   4.043  1.00 20.00    -0.298 OA
ENDROOT
BRANCH   1   3
HETATM    3  C4  UNL     1     -32.524   7.099   1.838  1.00 20.00     0.081 C 
BRANCH   3   4
HETATM    4  C5  UNL     1     -31.818   8.437   1.630  1.00 20.00     0.038 C 
BRANCH   4   5
HETATM    5  C6  UNL     1     -32.342   9.195   0.420  1.00 20.00     0.222 C 
HETATM    6  F9  UNL     1     -32.409  10.521   0.717  1.00 20.00    -0.255 F 
ENDBRANCH   4   5
ENDBRANCH   3   4
ENDBRANCH   1   3
BRANCH   1   7
HETATM    7  C7  UNL     1     -34.352   5.892   3.228  1.00 20.00     0.047 C 
HETATM    8  C2  UNL     1     -33.659   4.624   3.711  1.00 20.00     0.017 C 
HETATM    9  C3  UNL     1     -35.507   6.265   4.154  1.00 20.00     0.017 C 
ENDBRANCH   1   7
TORSDOF 4
ENDMDL
MODEL 8
REMARK VINA RESULT:      -2.1      2.586      4.318
REMARK  4 active torsions:
REMARK  status: ('A' for Active; 'I' for Inactive)
REMARK    1  A    between atoms: C1_1  and  C4_4 
REMARK    2  A    between atoms: C1_1  and  C7_7 
REMARK    3  A    between atoms: C4_4  and  C5_5 
REMARK    4  A    between atoms: C5_5  and  C6_6 
ROOT
HETATM    1  C1  UNL     1     -32.955   6.914   2.295  1.00 20.00     0.130 C 
HETATM    2  O8  UNL     1     -33.133   5.921   1.591  1.00 20.00    -0.298 OA
ENDROOT
BRANCH   1   3
HETATM    3  C4  UNL     1     -33.748   7.144   3.576  1.00 20.00     0.081 C 
BRANCH   3   4
HETATM    4  C5  UNL     1     -35.100   6.432   3.592  1.00 20.00     0.038 C 
BRANCH   4   5
HETATM    5  C6  UNL     1     -35.102   5.197   4.481  1.00 20.00     0.222 C 
HETATM    6  F9  UNL     1     -34.133   4.341   4.059  1.00 20.00    -0.255 F 
ENDBRANCH   4   5
ENDBRANCH   3   4
ENDBRANCH   1   3
BRANCH   1   7
HETATM    7  C7  UNL     1     -31.888   7.958   1.962  1.00 20.00     0.047 C 
HETATM    8  C2  UNL     1     -32.397   8.896   0.874  1.00 20.00     0.017 C 
HETATM    9  C3  UNL     1     -31.480   8.742   3.206  1.00 20.00     0.017 C 
ENDBRANCH   1   7
TORSDOF 4
ENDMDL
MODEL 9
REMARK VINA RESULT:      -2.0      1.906      2.207
REMARK  4 active torsions:
REMARK  status: ('A' for Active; 'I' for Inactive)
REMARK    1  A    between atoms: C1_1  and  C4_4 
REMARK    2  A    between atoms: C1_1  and  C7_7 
REMARK    3  A    between atoms: C4_4  and  C5_5 
REMARK    4  A    between atoms: C5_5  and  C6_6 
ROOT
HETATM    1  C1  UNL     1     -33.659   5.589   2.964  1.00 20.00     0.130 C 
HETATM    2  O8  UNL     1     -33.280   4.592   3.578  1.00 20.00    -0.298 OA
ENDROOT
BRANCH   1   3
HETATM    3  C4  UNL     1     -33.181   5.888   1.548  1.00 20.00     0.081 C 
BRANCH   3   4
HETATM    4  C5  UNL     1     -31.807   6.554   1.496  1.00 20.00     0.038 C 
BRANCH   4   5
HETATM    5  C6  UNL     1     -31.887   8.070   1.594  1.00 20.00     0.222 C 
HETATM    6  F9  UNL     1     -31.356   8.469   2.781  1.00 20.00    -0.255 F 
ENDBRANCH   4   5
ENDBRANCH   3   4
ENDBRANCH   1   3
BRANCH   1   7
HETATM    7  C7  UNL     1     -34.676   6.564   3.557  1.00 20.00     0.047 C 
HETATM    8  C2  UNL     1     -35.683   5.809   4.417  1.00 20.00     0.017 C 
HETATM    9  C3  UNL     1     -33.982   7.655   4.368  1.00 20.00     0.017 C 
ENDBRANCH   1   7
TORSDOF 4
ENDMDL
