MODEL 1
REMARK VINA RESULT:      -0.2      0.000      0.000
REMARK  3 active torsions:
REMARK  status: ('A' for Active; 'I' for Inactive)
REMARK    1  A    between atoms: C2_2  and  C8_8 
REMARK    2  A    between atoms: C6_6  and  C8_8 
REMARK    3  A    between atoms: C8_8  and  N9_9 
ROOT
HETATM    1  C8  UNL     1     -33.112   6.692   1.887  1.00 20.00     0.255 C 
ENDROOT
BRANCH   1   2
HETATM    2  C2  UNL     1     -31.952   7.573   1.514  1.00 20.00    -0.001 C 
HETATM    3  C1  UNL     1     -32.080   8.833   1.084  1.00 20.00     0.009 C 
ENDBRANCH   1   2
BRANCH   1   4
HETATM    4  C6  UNL     1     -33.193   6.482   3.394  1.00 20.00     0.084 C 
HETATM    5  C4  UNL     1     -34.267   7.341   4.058  1.00 20.00     0.018 C 
HETATM    6  C3  UNL     1     -35.594   6.610   3.911  1.00 20.00     0.011 C 
HETATM    7  C5  UNL     1     -35.353   5.181   4.358  1.00 20.00     0.074 C 
HETATM    8  S10 UNL     1     -33.692   4.765   3.757  1.00 20.00    -0.162 SA
ENDBRANCH   1   4
BRANCH   1   9
HETATM    9  N9  UNL     1     -32.950   5.433   1.198  1.00 20.00     0.088 N 
HETATM   10  C7  UNL     1     -31.542   5.148   0.931  1.00 20.00     0.307 C 
HETATM   11  H25 UNL     1     -33.453   5.458   0.307  1.00 20.00     0.316 HD
ENDBRANCH   1   9
TORSDOF 3
ENDMDL
MODEL 2
REMARK VINA RESULT:       0.8      2.419      4.552
REMARK  3 active torsions:
REMARK  status: ('A' for Active; 'I' for Inactive)
REMARK    1  A    between atoms: C2_2  and  C8_8 
REMARK    2  A    between atoms: C6_6  and  C8_8 
REMARK    3  A    between atoms: C8_8  and  N9_9 
ROOT
HETATM    1  C8  UNL     1     -32.862   7.517   2.010  1.00 20.00     0.255 C 
ENDROOT
BRANCH   1   2
HETATM    2  C2  UNL     1     -32.232   6.178   1.746  1.00 20.00    -0.001 C 
HETATM    3  C1  UNL     1     -32.749   5.259   0.923  1.00 20.00     0.009 C 
ENDBRANCH   1   2
BRANCH   1   4
HETATM    4  C6  UNL     1     -31.925   8.660   1.638  1.00 20.00     0.084 C 
HETATM    5  C4  UNL     1     -31.326   8.509   0.242  1.00 20.00     0.018 C 
HETATM    6  C3  UNL     1     -32.342   9.051  -0.753  1.00 20.00     0.011 C 
HETATM    7  C5  UNL     1     -32.774  10.410  -0.234  1.00 20.00     0.074 C 
HETATM    8  S10 UNL     1     -32.855  10.228   1.570  1.00 20.00    -0.162 SA
ENDBRANCH   1   4
BRANCH   1   9
HETATM    9  N9  UNL     1     -33.213   7.571   3.410  1.00 20.00     0.088 N 
HETATM   10  C7  UNL     1     -34.449   6.840   3.679  1.00 20.00     0.307 C 
HETATM   11  H25 UNL     1     -33.340   8.545   3.699  1.00 20.00     0.316 HD
ENDBRANCH   1   9
TORSDOF 3
ENDMDL
MODEL 3
REMARK VINA RESULT:       1.4      1.043      2.062
REMARK  3 active torsions:
REMARK  status: ('A' for Active; 'I' for Inactive)
REMARK    1  A    between atoms: C2_2  and  C8_8 
REMARK    2  A    between atoms: C6_6  and  C8_8 
REMARK    3  A    between atoms: C8_8  and  N9_9 
ROOT
HETATM    1  C8  UNL     1     -32.480   6.909   2.228  1.00 20.00     0.255 C 
ENDROOT
BRANCH   1   2
HETATM    2  C2  UNL     1     -32.925   5.781   1.338  1.00 20.00    -0.001 C 
HETATM    3  C1  UNL     1     -32.086   4.974   0.680  1.00 20.00     0.009 C 
ENDBRANCH   1   2
BRANCH   1   4
HETATM    4  C6  UNL     1     -32.963   6.715   3.660  1.00 20.00     0.084 C 
HETATM    5  C4  UNL     1     -34.086   7.675   4.046  1.00 20.00     0.018 C 
HETATM    6  C3  UNL     1     -35.393   7.072   3.551  1.00 20.00     0.011 C 
HETATM    7  C5  UNL     1     -35.408   5.628   4.016  1.00 20.00     0.074 C 
HETATM    8  S10 UNL     1     -33.694   5.055   3.850  1.00 20.00    -0.162 SA
ENDBRANCH   1   4
BRANCH   1   9
HETATM    9  N9  UNL     1     -32.992   8.139   1.671  1.00 20.00     0.088 N 
HETATM   10  C7  UNL     1     -31.954   8.871   0.949  1.00 20.00     0.307 C 
HETATM   11  H25 UNL     1     -33.352   8.736   2.421  1.00 20.00     0.316 HD
ENDBRANCH   1   9
TORSDOF 3
ENDMDL
MODEL 4
REMARK VINA RESULT:       1.4      1.884      3.312
REMARK  3 active torsions:
REMARK  status: ('A' for Active; 'I' for Inactive)
REMARK    1  A    between atoms: C2_2  and  C8_8 
REMARK    2  A    between atoms: C6_6  and  C8_8 
REMARK    3  A    between atoms: C8_8  and  N9_9 
ROOT
HETATM    1  C8  UNL     1     -33.163   5.559   2.712  1.00 20.00     0.255 C 
ENDROOT
BRANCH   1   2
HETATM    2  C2  UNL     1     -34.102   4.740   3.552  1.00 20.00    -0.001 C 
HETATM    3  C1  UNL     1     -33.728   3.671   4.265  1.00 20.00     0.009 C 
ENDBRANCH   1   2
BRANCH   1   4
HETATM    4  C6  UNL     1     -33.608   7.014   2.632  1.00 20.00     0.084 C 
HETATM    5  C4  UNL     1     -34.127   7.553   3.963  1.00 20.00     0.018 C 
HETATM    6  C3  UNL     1     -32.921   7.993   4.781  1.00 20.00     0.011 C 
HETATM    7  C5  UNL     1     -32.072   8.858   3.869  1.00 20.00     0.074 C 
HETATM    8  S10 UNL     1     -32.181   8.079   2.233  1.00 20.00    -0.162 SA
ENDBRANCH   1   4
BRANCH   1   9
HETATM    9  N9  UNL     1     -33.108   4.962   1.398  1.00 20.00     0.088 N 
HETATM   10  C7  UNL     1     -31.736   4.881   0.905  1.00 20.00     0.307 C 
HETATM   11  H25 UNL     1     -33.660   5.519   0.740  1.00 20.00     0.316 HD
ENDBRANCH   1   9
TORSDOF 3
ENDMDL
MODEL 5
REMARK VINA RESULT:       1.4      1.920      2.667
REMARK  3 active torsions:
REMARK  status: ('A' for Active; 'I' for Inactive)
REMARK    1  A    between atoms: C2_2  and  C8_8 
REMARK    2  A    between atoms: C6_6  and  C8_8 
REMARK    3  A    between atoms: C8_8  and  N9_9 
ROOT
HETATM    1  C8  UNL     1     -32.773   7.189   2.997  1.00 20.00     0.255 C 
ENDROOT
BRANCH   1   2
HETATM    2  C2  UNL     1     -32.003   7.681   1.803  1.00 20.00    -0.001 C 
HETATM    3  C1  UNL     1     -32.276   8.819   1.155  1.00 20.00     0.009 C 
ENDBRANCH   1   2
BRANCH   1   4
HETATM    4  C6  UNL     1     -33.892   6.238   2.589  1.00 20.00     0.084 C 
HETATM    5  C4  UNL     1     -33.469   4.771   2.622  1.00 20.00     0.018 C 
HETATM    6  C3  UNL     1     -33.614   4.285   4.057  1.00 20.00     0.011 C 
HETATM    7  C5  UNL     1     -34.996   4.709   4.520  1.00 20.00     0.074 C 
HETATM    8  S10 UNL     1     -35.266   6.345   3.784  1.00 20.00    -0.162 SA
ENDBRANCH   1   4
BRANCH   1   9
HETATM    9  N9  UNL     1     -33.301   8.342   3.688  1.00 20.00     0.088 N 
HETATM   10  C7  UNL     1     -32.878   8.367   5.085  1.00 20.00     0.307 C 
HETATM   11  H25 UNL     1     -34.324   8.328   3.656  1.00 20.00     0.316 HD
ENDBRANCH   1   9
TORSDOF 3
ENDMDL
MODEL 6
REMARK VINA RESULT:       1.4      1.703      3.750
REMARK  3 active torsions:
REMARK  status: ('A' for Active; 'I' for Inactive)
REMARK    1  A    between atoms: C2_2  and  C8_8 
REMARK    2  A    between atoms: C6_6  and  C8_8 
REMARK    3  A    between atoms: C8_8  and  N9_9 
ROOT
HETATM    1  C8  UNL     1     -33.996   6.771   3.651  1.00 20.00     0.255 C 
ENDROOT
BRANCH   1   2
HETATM    2  C2  UNL     1     -33.926   8.096   4.358  1.00 20.00    -0.001 C 
HETATM    3  C1  UNL     1     -33.072   8.369   5.350  1.00 20.00     0.009 C 
ENDBRANCH   1   2
BRANCH   1   4
HETATM    4  C6  UNL     1     -33.809   6.928   2.147  1.00 20.00     0.084 C 
HETATM    5  C4  UNL     1     -32.886   8.088   1.779  1.00 20.00     0.018 C 
HETATM    6  C3  UNL     1     -31.454   7.583   1.879  1.00 20.00     0.011 C 
HETATM    7  C5  UNL     1     -31.402   6.274   1.114  1.00 20.00     0.074 C 
HETATM    8  S10 UNL     1     -32.982   5.452   1.466  1.00 20.00    -0.162 SA
ENDBRANCH   1   4
BRANCH   1   9
HETATM    9  N9  UNL     1     -35.277   6.175   3.953  1.00 20.00     0.088 N 
HETATM   10  C7  UNL     1     -35.122   4.849   4.545  1.00 20.00     0.307 C 
HETATM   11  H25 UNL     1     -35.831   6.089   3.097  1.00 20.00     0.316 HD
ENDBRANCH   1   9
TORSDOF 3
ENDMDL
MODEL 7
REMARK VINA RESULT:       1.5      1.763      3.781
REMARK  3 active torsions:
REMARK  status: ('A' for Active; 'I' for Inactive)
REMARK    1  A    between atoms: C2_2  and  C8_8 
REMARK    2  A    between atoms: C6_6  and  C8_8 
REMARK    3  A    between atoms: C8_8  and  N9_9 
ROOT
HETATM    1  C8  UNL     1     -33.547   5.278   3.613  1.00 20.00     0.255 C 
ENDROOT
BRANCH   1   2
HETATM    2  C2  UNL     1     -34.867   5.275   4.332  1.00 20.00    -0.001 C 
HETATM    3  C1  UNL     1     -35.802   6.220   4.182  1.00 20.00     0.009 C 
ENDBRANCH   1   2
BRANCH   1   4
HETATM    4  C6  UNL     1     -33.625   6.049   2.301  1.00 20.00     0.084 C 
HETATM    5  C4  UNL     1     -33.608   7.563   2.498  1.00 20.00     0.018 C 
HETATM    6  C3  UNL     1     -32.153   7.991   2.633  1.00 20.00     0.011 C 
HETATM    7  C5  UNL     1     -31.404   7.346   1.482  1.00 20.00     0.074 C 
HETATM    8  S10 UNL     1     -32.149   5.702   1.287  1.00 20.00    -0.162 SA
ENDBRANCH   1   4
BRANCH   1   9
HETATM    9  N9  UNL     1     -33.165   3.904   3.384  1.00 20.00     0.088 N 
HETATM   10  C7  UNL     1     -33.364   3.088   4.579  1.00 20.00     0.307 C 
HETATM   11  H25 UNL     1     -32.179   3.857   3.116  1.00 20.00     0.316 HD
ENDBRANCH   1   9
TORSDOF 3
ENDMDL
MODEL 8
REMARK VINA RESULT:       1.6      1.964      4.239
REMARK  3 active torsions:
REMARK  status: ('A' for Active; 'I' for Inactive)
REMARK    1  A    between atoms: C2_2  and  C8_8 
REMARK    2  A    between atoms: C6_6  and  C8_8 
REMARK    3  A    between atoms: C8_8  and  N9_9 
ROOT
HETATM    1  C8  UNL     1     -34.310   5.408   3.429  1.00 20.00     0.255 C 
ENDROOT
BRANCH   1   2
HETATM    2  C2  UNL     1     -34.364   4.280   4.421  1.00 20.00    -0.001 C 
HETATM    3  C1  UNL     1     -33.481   3.277   4.460  1.00 20.00     0.009 C 
ENDBRANCH   1   2
BRANCH   1   4
HETATM    4  C6  UNL     1     -32.876   5.849   3.160  1.00 20.00     0.084 C 
HETATM    5  C4  UNL     1     -32.439   5.609   1.717  1.00 20.00     0.018 C 
HETATM    6  C3  UNL     1     -32.930   6.788   0.888  1.00 20.00     0.011 C 
HETATM    7  C5  UNL     1     -32.511   8.043   1.631  1.00 20.00     0.074 C 
HETATM    8  S10 UNL     1     -32.727   7.653   3.390  1.00 20.00    -0.162 SA
ENDBRANCH   1   4
BRANCH   1   9
HETATM    9  N9  UNL     1     -35.097   6.499   3.956  1.00 20.00     0.088 N 
HETATM   10  C7  UNL     1     -36.271   6.759   3.127  1.00 20.00     0.307 C 
HETATM   11  H25 UNL     1     -34.529   7.350   3.995  1.00 20.00     0.316 HD
ENDBRANCH   1   9
TORSDOF 3
ENDMDL
MODEL 9
REMARK VINA RESULT:       2.0      1.694      2.805
REMARK  3 active torsions:
REMARK  status: ('A' for Active; 'I' for Inactive)
REMARK    1  A    between atoms: C2_2  and  C8_8 
REMARK    2  A    between atoms: C6_6  and  C8_8 
REMARK    3  A    between atoms: C8_8  and  N9_9 
ROOT
HETATM    1  C8  UNL     1     -33.696   7.719   3.057  1.00 20.00     0.255 C 
ENDROOT
BRANCH   1   2
HETATM    2  C2  UNL     1     -33.733   7.933   4.545  1.00 20.00    -0.001 C 
HETATM    3  C1  UNL     1     -32.735   8.481   5.246  1.00 20.00     0.009 C 
ENDBRANCH   1   2
BRANCH   1   4
HETATM    4  C6  UNL     1     -34.432   6.447   2.655  1.00 20.00     0.084 C 
HETATM    5  C4  UNL     1     -33.490   5.314   2.256  1.00 20.00     0.018 C 
HETATM    6  C3  UNL     1     -33.042   4.620   3.534  1.00 20.00     0.011 C 
HETATM    7  C5  UNL     1     -34.297   4.343   4.340  1.00 20.00     0.074 C 
HETATM    8  S10 UNL     1     -35.361   5.790   4.081  1.00 20.00    -0.162 SA
ENDBRANCH   1   4
BRANCH   1   9
HETATM    9  N9  UNL     1     -32.310   7.665   2.653  1.00 20.00     0.088 N 
HETATM   10  C7  UNL     1     -32.069   8.476   1.463  1.00 20.00     0.307 C 
HETATM   11  H25 UNL     1     -32.046   6.697   2.448  1.00 20.00     0.316 HD
ENDBRANCH   1   9
TORSDOF 3
ENDMDL
