MODEL 1
REMARK VINA RESULT:      -2.2      0.000      0.000
REMARK  2 active torsions:
REMARK  status: ('A' for Active; 'I' for Inactive)
REMARK    1  A    between atoms: C1_1  and  C5_5 
REMARK    2  A    between atoms: C6_6  and  C10_10 
ROOT
HETATM    1  C2  UNL     1     -33.154   5.199   2.105  1.00 20.00     0.016 C 
HETATM    2  C3  UNL     1     -32.262   6.274   1.487  1.00 20.00     0.005 C 
HETATM    3  C4  UNL     1     -33.061   7.929   3.230  1.00 20.00     0.009 C 
HETATM    4  C5  UNL     1     -33.387   5.464   3.589  1.00 20.00     0.090 C 
HETATM    5  C6  UNL     1     -32.806   7.689   1.733  1.00 20.00    -0.014 C 
HETATM    6  C7  UNL     1     -33.969   6.860   3.866  1.00 20.00    -0.004 C 
HETATM    7  C8  UNL     1     -35.421   7.032   3.401  1.00 20.00     0.011 C 
ENDROOT
BRANCH   4   8
HETATM    8  C1  UNL     1     -34.287   4.377   4.150  1.00 20.00     0.177 C 
HETATM    9  O11 UNL     1     -35.404   4.774   4.583  1.00 20.00    -0.648 OA
HETATM   10  O12 UNL     1     -33.799   3.213   4.110  1.00 20.00    -0.648 OA
ENDBRANCH   4   8
BRANCH   5  11
HETATM   11  C10 UNL     1     -31.843   8.737   1.178  1.00 20.00     0.000 C 
HETATM   12  C9  UNL     1     -32.552   9.742   0.331  1.00 20.00     0.005 C 
ENDBRANCH   5  11
TORSDOF 2
ENDMDL
MODEL 2
REMARK VINA RESULT:      -1.4      2.863      4.841
REMARK  2 active torsions:
REMARK  status: ('A' for Active; 'I' for Inactive)
REMARK    1  A    between atoms: C1_1  and  C5_5 
REMARK    2  A    between atoms: C6_6  and  C10_10 
ROOT
HETATM    1  C2  UNL     1     -33.660   8.132   2.906  1.00 20.00     0.016 C 
HETATM    2  C3  UNL     1     -34.103   7.117   3.958  1.00 20.00     0.005 C 
HETATM    3  C4  UNL     1     -33.039   5.260   2.605  1.00 20.00     0.009 C 
HETATM    4  C5  UNL     1     -32.412   7.654   2.171  1.00 20.00     0.090 C 
HETATM    5  C6  UNL     1     -34.296   5.715   3.364  1.00 20.00    -0.014 C 
HETATM    6  C7  UNL     1     -32.586   6.267   1.531  1.00 20.00    -0.004 C 
HETATM    7  C8  UNL     1     -33.543   6.251   0.332  1.00 20.00     0.011 C 
ENDROOT
BRANCH   4   8
HETATM    8  C1  UNL     1     -32.023   8.689   1.131  1.00 20.00     0.177 C 
HETATM    9  O11 UNL     1     -32.774   9.701   1.072  1.00 20.00    -0.648 OA
HETATM   10  O12 UNL     1     -30.994   8.401   0.457  1.00 20.00    -0.648 OA
ENDBRANCH   4   8
BRANCH   5  11
HETATM   11  C10 UNL     1     -34.652   4.713   4.462  1.00 20.00     0.000 C 
HETATM   12  C9  UNL     1     -33.727   3.540   4.457  1.00 20.00     0.005 C 
ENDBRANCH   5  11
TORSDOF 2
ENDMDL
MODEL 3
REMARK VINA RESULT:      -1.3      2.886      4.687
REMARK  2 active torsions:
REMARK  status: ('A' for Active; 'I' for Inactive)
REMARK    1  A    between atoms: C1_1  and  C5_5 
REMARK    2  A    between atoms: C6_6  and  C10_10 
ROOT
HETATM    1  C2  UNL     1     -32.248   6.437   1.435  1.00 20.00     0.016 C 
HETATM    2  C3  UNL     1     -33.036   5.268   2.023  1.00 20.00     0.005 C 
HETATM    3  C4  UNL     1     -34.209   6.863   3.603  1.00 20.00     0.009 C 
HETATM    4  C5  UNL     1     -33.019   7.746   1.574  1.00 20.00     0.090 C 
HETATM    5  C6  UNL     1     -33.458   5.528   3.476  1.00 20.00    -0.014 C 
HETATM    6  C7  UNL     1     -33.422   8.054   3.025  1.00 20.00    -0.004 C 
HETATM    7  C8  UNL     1     -32.241   8.419   3.934  1.00 20.00     0.011 C 
ENDROOT
BRANCH   4   8
HETATM    8  C1  UNL     1     -32.188   8.873   0.988  1.00 20.00     0.177 C 
HETATM    9  O11 UNL     1     -32.782   9.981   0.880  1.00 20.00    -0.648 OA
HETATM   10  O12 UNL     1     -31.004   8.555   0.682  1.00 20.00    -0.648 OA
ENDBRANCH   4   8
BRANCH   5  11
HETATM   11  C10 UNL     1     -34.319   4.377   3.998  1.00 20.00     0.000 C 
HETATM   12  C9  UNL     1     -33.480   3.256   4.519  1.00 20.00     0.005 C 
ENDBRANCH   5  11
TORSDOF 2
ENDMDL
MODEL 4
REMARK VINA RESULT:      -0.8      0.970      2.255
REMARK  2 active torsions:
REMARK  status: ('A' for Active; 'I' for Inactive)
REMARK    1  A    between atoms: C1_1  and  C5_5 
REMARK    2  A    between atoms: C6_6  and  C10_10 
ROOT
HETATM    1  C2  UNL     1     -33.181   7.376   3.708  1.00 20.00     0.016 C 
HETATM    2  C3  UNL     1     -32.640   8.483   2.805  1.00 20.00     0.005 C 
HETATM    3  C4  UNL     1     -32.715   6.899   0.830  1.00 20.00     0.009 C 
HETATM    4  C5  UNL     1     -34.019   6.378   2.914  1.00 20.00     0.090 C 
HETATM    5  C6  UNL     1     -31.868   7.922   1.602  1.00 20.00    -0.014 C 
HETATM    6  C7  UNL     1     -33.258   5.769   1.724  1.00 20.00    -0.004 C 
HETATM    7  C8  UNL     1     -32.134   4.808   2.131  1.00 20.00     0.011 C 
ENDROOT
BRANCH   4   8
HETATM    8  C1  UNL     1     -34.519   5.295   3.853  1.00 20.00     0.177 C 
HETATM    9  O11 UNL     1     -33.808   4.254   3.902  1.00 20.00    -0.648 OA
HETATM   10  O12 UNL     1     -35.587   5.578   4.465  1.00 20.00    -0.648 OA
ENDBRANCH   4   8
BRANCH   5  11
HETATM   11  C10 UNL     1     -31.420   9.055   0.678  1.00 20.00     0.000 C 
HETATM   12  C9  UNL     1     -32.575   9.889   0.231  1.00 20.00     0.005 C 
ENDBRANCH   5  11
TORSDOF 2
ENDMDL
MODEL 5
REMARK VINA RESULT:       0.3      0.871      2.044
REMARK  2 active torsions:
REMARK  status: ('A' for Active; 'I' for Inactive)
REMARK    1  A    between atoms: C1_1  and  C5_5 
REMARK    2  A    between atoms: C6_6  and  C10_10 
ROOT
HETATM    1  C2  UNL     1     -33.373   7.313   3.718  1.00 20.00     0.016 C 
HETATM    2  C3  UNL     1     -32.883   8.353   2.713  1.00 20.00     0.005 C 
HETATM    3  C4  UNL     1     -32.531   6.521   1.000  1.00 20.00     0.009 C 
HETATM    4  C5  UNL     1     -33.980   6.106   3.010  1.00 20.00     0.090 C 
HETATM    5  C6  UNL     1     -31.915   7.752   1.684  1.00 20.00    -0.014 C 
HETATM    6  C7  UNL     1     -33.019   5.457   2.001  1.00 20.00    -0.004 C 
HETATM    7  C8  UNL     1     -31.831   4.733   2.649  1.00 20.00     0.011 C 
ENDROOT
BRANCH   4   8
HETATM    8  C1  UNL     1     -34.437   5.100   4.052  1.00 20.00     0.177 C 
HETATM    9  O11 UNL     1     -35.266   5.539   4.897  1.00 20.00    -0.648 OA
HETATM   10  O12 UNL     1     -33.927   3.950   3.937  1.00 20.00    -0.648 OA
ENDBRANCH   4   8
BRANCH   5  11
HETATM   11  C10 UNL     1     -31.518   8.800   0.645  1.00 20.00     0.000 C 
HETATM   12  C9  UNL     1     -32.329  10.047   0.783  1.00 20.00     0.005 C 
ENDBRANCH   5  11
TORSDOF 2
ENDMDL
