MODEL 1
REMARK VINA RESULT:      -2.8      0.000      0.000
REMARK  3 active torsions:
REMARK  status: ('A' for Active; 'I' for Inactive)
REMARK    1  A    between atoms: C3_3  and  C7_7 
REMARK    2  A    between atoms: C6_6  and  C8_8 
REMARK    3  A    between atoms: C7_7  and  C8_8 
ROOT
HETATM    1  C1  UNL     1     -33.476   3.136   4.515  1.00 20.00     0.012 C 
HETATM    2  C2  UNL     1     -33.969   4.160   4.128  1.00 20.00    -0.117 C 
HETATM    3  C6  UNL     1     -34.581   5.410   3.653  1.00 20.00     0.098 C 
ENDROOT
BRANCH   3   4
HETATM    4  C8  UNL     1     -33.568   6.557   3.443  1.00 20.00     0.006 C 
HETATM    5  C5  UNL     1     -34.073   7.848   4.107  1.00 20.00     0.011 C 
BRANCH   4   6
HETATM    6  C7  UNL     1     -33.200   6.807   1.961  1.00 20.00     0.087 C 
HETATM    7  C4  UNL     1     -32.510   5.615   1.296  1.00 20.00     0.021 C 
BRANCH   6   8
HETATM    8  C3  UNL     1     -32.201   7.971   1.785  1.00 20.00     0.177 C 
HETATM    9  O9  UNL     1     -32.554   8.894   0.998  1.00 20.00    -0.648 OA
HETATM   10  O10 UNL     1     -31.139   7.859   2.463  1.00 20.00    -0.648 OA
ENDBRANCH   6   8
ENDBRANCH   4   6
ENDBRANCH   3   4
TORSDOF 3
ENDMDL
MODEL 2
REMARK VINA RESULT:      -2.7      0.028      1.021
REMARK  3 active torsions:
REMARK  status: ('A' for Active; 'I' for Inactive)
REMARK    1  A    between atoms: C3_3  and  C7_7 
REMARK    2  A    between atoms: C6_6  and  C8_8 
REMARK    3  A    between atoms: C7_7  and  C8_8 
ROOT
HETATM    1  C1  UNL     1     -33.480   3.130   4.518  1.00 20.00     0.012 C 
HETATM    2  C2  UNL     1     -33.975   4.153   4.130  1.00 20.00    -0.117 C 
HETATM    3  C6  UNL     1     -34.590   5.401   3.655  1.00 20.00     0.098 C 
ENDROOT
BRANCH   3   4
HETATM    4  C8  UNL     1     -33.580   6.552   3.450  1.00 20.00     0.006 C 
HETATM    5  C5  UNL     1     -34.091   7.840   4.115  1.00 20.00     0.011 C 
BRANCH   4   6
HETATM    6  C7  UNL     1     -33.208   6.806   1.970  1.00 20.00     0.087 C 
HETATM    7  C4  UNL     1     -32.515   5.617   1.303  1.00 20.00     0.021 C 
BRANCH   6   8
HETATM    8  C3  UNL     1     -32.210   7.972   1.800  1.00 20.00     0.177 C 
HETATM    9  O9  UNL     1     -31.158   7.910   2.496  1.00 20.00    -0.648 OA
HETATM   10  O10 UNL     1     -32.571   8.856   0.971  1.00 20.00    -0.648 OA
ENDBRANCH   6   8
ENDBRANCH   4   6
ENDBRANCH   3   4
TORSDOF 3
ENDMDL
MODEL 3
REMARK VINA RESULT:      -2.6      2.437      4.653
REMARK  3 active torsions:
REMARK  status: ('A' for Active; 'I' for Inactive)
REMARK    1  A    between atoms: C3_3  and  C7_7 
REMARK    2  A    between atoms: C6_6  and  C8_8 
REMARK    3  A    between atoms: C7_7  and  C8_8 
ROOT
HETATM    1  C1  UNL     1     -32.615   9.726   0.205  1.00 20.00     0.012 C 
HETATM    2  C2  UNL     1     -32.170   8.969   1.023  1.00 20.00    -0.117 C 
HETATM    3  C6  UNL     1     -31.617   8.046   2.026  1.00 20.00     0.098 C 
ENDROOT
BRANCH   3   4
HETATM    4  C8  UNL     1     -32.535   6.843   2.335  1.00 20.00     0.006 C 
HETATM    5  C5  UNL     1     -32.902   6.100   1.040  1.00 20.00     0.011 C 
BRANCH   4   6
HETATM    6  C7  UNL     1     -33.806   7.211   3.138  1.00 20.00     0.087 C 
HETATM    7  C4  UNL     1     -33.518   8.066   4.373  1.00 20.00     0.021 C 
BRANCH   6   8
HETATM    8  C3  UNL     1     -34.537   5.971   3.695  1.00 20.00     0.177 C 
HETATM    9  O9  UNL     1     -33.861   4.905   3.751  1.00 20.00    -0.648 OA
HETATM   10  O10 UNL     1     -35.737   6.177   4.036  1.00 20.00    -0.648 OA
ENDBRANCH   6   8
ENDBRANCH   4   6
ENDBRANCH   3   4
TORSDOF 3
ENDMDL
MODEL 4
REMARK VINA RESULT:      -2.2      2.431      4.319
REMARK  3 active torsions:
REMARK  status: ('A' for Active; 'I' for Inactive)
REMARK    1  A    between atoms: C3_3  and  C7_7 
REMARK    2  A    between atoms: C6_6  and  C8_8 
REMARK    3  A    between atoms: C7_7  and  C8_8 
ROOT
HETATM    1  C1  UNL     1     -32.581   9.921   0.111  1.00 20.00     0.012 C 
HETATM    2  C2  UNL     1     -32.258   9.107   0.932  1.00 20.00    -0.117 C 
HETATM    3  C6  UNL     1     -31.853   8.110   1.934  1.00 20.00     0.098 C 
ENDROOT
BRANCH   3   4
HETATM    4  C8  UNL     1     -33.008   7.641   2.846  1.00 20.00     0.006 C 
HETATM    5  C5  UNL     1     -32.854   8.232   4.257  1.00 20.00     0.011 C 
BRANCH   4   6
HETATM    6  C7  UNL     1     -33.176   6.104   2.908  1.00 20.00     0.087 C 
HETATM    7  C4  UNL     1     -33.251   5.444   1.530  1.00 20.00     0.021 C 
BRANCH   6   8
HETATM    8  C3  UNL     1     -34.486   5.678   3.605  1.00 20.00     0.177 C 
HETATM    9  O9  UNL     1     -35.403   6.545   3.645  1.00 20.00    -0.648 OA
HETATM   10  O10 UNL     1     -34.481   4.495   4.054  1.00 20.00    -0.648 OA
ENDBRANCH   6   8
ENDBRANCH   4   6
ENDBRANCH   3   4
TORSDOF 3
ENDMDL
MODEL 5
REMARK VINA RESULT:      -2.1      1.810      2.768
REMARK  3 active torsions:
REMARK  status: ('A' for Active; 'I' for Inactive)
REMARK    1  A    between atoms: C3_3  and  C7_7 
REMARK    2  A    between atoms: C6_6  and  C8_8 
REMARK    3  A    between atoms: C7_7  and  C8_8 
ROOT
HETATM    1  C1  UNL     1     -35.362   5.847   4.184  1.00 20.00     0.012 C 
HETATM    2  C2  UNL     1     -34.506   6.577   3.765  1.00 20.00    -0.117 C 
HETATM    3  C6  UNL     1     -33.457   7.476   3.260  1.00 20.00     0.098 C 
ENDROOT
BRANCH   3   4
HETATM    4  C8  UNL     1     -33.093   7.235   1.778  1.00 20.00     0.006 C 
HETATM    5  C5  UNL     1     -32.753   5.754   1.543  1.00 20.00     0.011 C 
BRANCH   4   6
HETATM    6  C7  UNL     1     -31.962   8.150   1.252  1.00 20.00     0.087 C 
HETATM    7  C4  UNL     1     -31.093   8.743   2.362  1.00 20.00     0.021 C 
BRANCH   6   8
HETATM    8  C3  UNL     1     -32.500   9.381   0.492  1.00 20.00     0.177 C 
HETATM    9  O9  UNL     1     -32.612  10.446   1.163  1.00 20.00    -0.648 OA
HETATM   10  O10 UNL     1     -32.763   9.172  -0.728  1.00 20.00    -0.648 OA
ENDBRANCH   6   8
ENDBRANCH   4   6
ENDBRANCH   3   4
TORSDOF 3
ENDMDL
MODEL 6
REMARK VINA RESULT:      -1.8      2.087      4.184
REMARK  3 active torsions:
REMARK  status: ('A' for Active; 'I' for Inactive)
REMARK    1  A    between atoms: C3_3  and  C7_7 
REMARK    2  A    between atoms: C6_6  and  C8_8 
REMARK    3  A    between atoms: C7_7  and  C8_8 
ROOT
HETATM    1  C1  UNL     1     -32.319   9.591   0.274  1.00 20.00     0.012 C 
HETATM    2  C2  UNL     1     -32.232   8.890   1.245  1.00 20.00    -0.117 C 
HETATM    3  C6  UNL     1     -32.116   8.030   2.432  1.00 20.00     0.098 C 
ENDROOT
BRANCH   3   4
HETATM    4  C8  UNL     1     -33.413   7.946   3.266  1.00 20.00     0.006 C 
HETATM    5  C5  UNL     1     -33.090   8.004   4.768  1.00 20.00     0.011 C 
BRANCH   4   6
HETATM    6  C7  UNL     1     -34.293   6.716   2.939  1.00 20.00     0.087 C 
HETATM    7  C4  UNL     1     -35.238   6.324   4.076  1.00 20.00     0.021 C 
BRANCH   6   8
HETATM    8  C3  UNL     1     -33.460   5.442   2.681  1.00 20.00     0.177 C 
HETATM    9  O9  UNL     1     -33.485   4.566   3.590  1.00 20.00    -0.648 OA
HETATM   10  O10 UNL     1     -32.848   5.430   1.574  1.00 20.00    -0.648 OA
ENDBRANCH   6   8
ENDBRANCH   4   6
ENDBRANCH   3   4
TORSDOF 3
ENDMDL
MODEL 7
REMARK VINA RESULT:      -1.1      0.714      1.852
REMARK  3 active torsions:
REMARK  status: ('A' for Active; 'I' for Inactive)
REMARK    1  A    between atoms: C3_3  and  C7_7 
REMARK    2  A    between atoms: C6_6  and  C8_8 
REMARK    3  A    between atoms: C7_7  and  C8_8 
ROOT
HETATM    1  C1  UNL     1     -33.246   3.012   4.531  1.00 20.00     0.012 C 
HETATM    2  C2  UNL     1     -33.830   4.008   4.200  1.00 20.00    -0.117 C 
HETATM    3  C6  UNL     1     -34.552   5.225   3.801  1.00 20.00     0.098 C 
ENDROOT
BRANCH   3   4
HETATM    4  C8  UNL     1     -33.841   6.033   2.693  1.00 20.00     0.006 C 
HETATM    5  C5  UNL     1     -33.054   5.094   1.763  1.00 20.00     0.011 C 
BRANCH   4   6
HETATM    6  C7  UNL     1     -32.934   7.168   3.226  1.00 20.00     0.087 C 
HETATM    7  C4  UNL     1     -33.678   8.187   4.088  1.00 20.00     0.021 C 
BRANCH   6   8
HETATM    8  C3  UNL     1     -32.310   8.011   2.092  1.00 20.00     0.177 C 
HETATM    9  O9  UNL     1     -32.976   9.015   1.715  1.00 20.00    -0.648 OA
HETATM   10  O10 UNL     1     -31.192   7.589   1.678  1.00 20.00    -0.648 OA
ENDBRANCH   6   8
ENDBRANCH   4   6
ENDBRANCH   3   4
TORSDOF 3
ENDMDL
MODEL 8
REMARK VINA RESULT:      -1.0      1.218      2.073
REMARK  3 active torsions:
REMARK  status: ('A' for Active; 'I' for Inactive)
REMARK    1  A    between atoms: C3_3  and  C7_7 
REMARK    2  A    between atoms: C6_6  and  C8_8 
REMARK    3  A    between atoms: C7_7  and  C8_8 
ROOT
HETATM    1  C1  UNL     1     -32.964   2.808   5.151  1.00 20.00     0.012 C 
HETATM    2  C2  UNL     1     -33.525   3.557   4.399  1.00 20.00    -0.117 C 
HETATM    3  C6  UNL     1     -34.211   4.469   3.471  1.00 20.00     0.098 C 
ENDROOT
BRANCH   3   4
HETATM    4  C8  UNL     1     -34.448   5.881   4.050  1.00 20.00     0.006 C 
HETATM    5  C5  UNL     1     -35.752   6.478   3.495  1.00 20.00     0.011 C 
BRANCH   4   6
HETATM    6  C7  UNL     1     -33.263   6.854   3.840  1.00 20.00     0.087 C 
HETATM    7  C4  UNL     1     -33.563   8.285   4.288  1.00 20.00     0.021 C 
BRANCH   6   8
HETATM    8  C3  UNL     1     -32.869   6.996   2.354  1.00 20.00     0.177 C 
HETATM    9  O9  UNL     1     -32.968   5.952   1.649  1.00 20.00    -0.648 OA
HETATM   10  O10 UNL     1     -32.494   8.156   2.018  1.00 20.00    -0.648 OA
ENDBRANCH   6   8
ENDBRANCH   4   6
ENDBRANCH   3   4
TORSDOF 3
ENDMDL
MODEL 9
REMARK VINA RESULT:      -1.0      1.547      1.886
REMARK  3 active torsions:
REMARK  status: ('A' for Active; 'I' for Inactive)
REMARK    1  A    between atoms: C3_3  and  C7_7 
REMARK    2  A    between atoms: C6_6  and  C8_8 
REMARK    3  A    between atoms: C7_7  and  C8_8 
ROOT
HETATM    1  C1  UNL     1     -33.153   2.899   4.871  1.00 20.00     0.012 C 
HETATM    2  C2  UNL     1     -33.664   3.786   4.244  1.00 20.00    -0.117 C 
HETATM    3  C6  UNL     1     -34.297   4.866   3.472  1.00 20.00     0.098 C 
ENDROOT
BRANCH   3   4
HETATM    4  C8  UNL     1     -33.630   6.245   3.672  1.00 20.00     0.006 C 
HETATM    5  C5  UNL     1     -34.696   7.350   3.762  1.00 20.00     0.011 C 
BRANCH   4   6
HETATM    6  C7  UNL     1     -32.567   6.591   2.602  1.00 20.00     0.087 C 
HETATM    7  C4  UNL     1     -32.643   8.038   2.115  1.00 20.00     0.021 C 
BRANCH   6   8
HETATM    8  C3  UNL     1     -32.721   5.748   1.318  1.00 20.00     0.177 C 
HETATM    9  O9  UNL     1     -33.724   6.011   0.597  1.00 20.00    -0.648 OA
HETATM   10  O10 UNL     1     -31.810   4.889   1.142  1.00 20.00    -0.648 OA
ENDBRANCH   6   8
ENDBRANCH   4   6
ENDBRANCH   3   4
TORSDOF 3
ENDMDL
