MODEL 1
REMARK VINA RESULT:      -3.1      0.000      0.000
REMARK  5 active torsions:
REMARK  status: ('A' for Active; 'I' for Inactive)
REMARK    1  A    between atoms: C2_2  and  C6_6 
REMARK    2  A    between atoms: C3_3  and  C7_7 
REMARK    3  A    between atoms: C3_3  and  O10_10 
REMARK    4  A    between atoms: C6_6  and  C8_8 
REMARK    5  A    between atoms: C7_7  and  C8_8 
ROOT
HETATM    1  C1  UNL     1     -32.370   9.516   0.496  1.00 20.00    -0.111 C 
HETATM    2  C2  UNL     1     -32.199   8.562   1.204  1.00 20.00    -0.107 C 
HETATM    3  C4  UNL     1     -32.576  10.677  -0.368  1.00 20.00     0.112 C 
ENDROOT
BRANCH   2   4
HETATM    4  C6  UNL     1     -31.993   7.395   2.076  1.00 20.00     0.098 C 
BRANCH   4   5
HETATM    5  C8  UNL     1     -33.028   6.272   1.865  1.00 20.00     0.002 C 
HETATM    6  C5  UNL     1     -32.491   5.178   0.936  1.00 20.00     0.011 C 
BRANCH   5   7
HETATM    7  C7  UNL     1     -33.533   5.646   3.175  1.00 20.00     0.115 C 
BRANCH   7   8
HETATM    8  C3  UNL     1     -34.543   6.518   3.882  1.00 20.00     0.139 C 
HETATM    9  O9  UNL     1     -34.359   7.697   4.152  1.00 20.00    -0.650 OA
BRANCH   8  10
HETATM   10  O10 UNL     1     -35.686   5.852   4.184  1.00 20.00    -0.776 OA
HETATM   11  H22 UNL     1     -36.335   5.786   3.451  1.00 20.00     0.167 HD
ENDBRANCH   8  10
ENDBRANCH   7   8
ENDBRANCH   5   7
ENDBRANCH   4   5
ENDBRANCH   2   4
TORSDOF 5
ENDMDL
MODEL 2
REMARK VINA RESULT:      -2.9      2.590      5.141
REMARK  5 active torsions:
REMARK  status: ('A' for Active; 'I' for Inactive)
REMARK    1  A    between atoms: C2_2  and  C6_6 
REMARK    2  A    between atoms: C3_3  and  C7_7 
REMARK    3  A    between atoms: C3_3  and  O10_10 
REMARK    4  A    between atoms: C6_6  and  C8_8 
REMARK    5  A    between atoms: C7_7  and  C8_8 
ROOT
HETATM    1  C1  UNL     1     -33.907   3.923   4.364  1.00 20.00    -0.111 C 
HETATM    2  C2  UNL     1     -34.450   4.969   4.133  1.00 20.00    -0.107 C 
HETATM    3  C4  UNL     1     -33.247   2.650   4.643  1.00 20.00     0.112 C 
ENDROOT
BRANCH   2   4
HETATM    4  C6  UNL     1     -35.115   6.251   3.855  1.00 20.00     0.098 C 
BRANCH   4   5
HETATM    5  C8  UNL     1     -34.153   7.361   3.387  1.00 20.00     0.002 C 
HETATM    6  C5  UNL     1     -33.452   8.035   4.571  1.00 20.00     0.011 C 
BRANCH   5   7
HETATM    7  C7  UNL     1     -33.111   6.882   2.364  1.00 20.00     0.115 C 
BRANCH   7   8
HETATM    8  C3  UNL     1     -32.261   8.010   1.832  1.00 20.00     0.139 C 
HETATM    9  O9  UNL     1     -32.686   8.910   1.119  1.00 20.00    -0.650 OA
BRANCH   8  10
HETATM   10  O10 UNL     1     -30.968   7.923   2.233  1.00 20.00    -0.776 OA
HETATM   11  H22 UNL     1     -30.633   8.702   2.726  1.00 20.00     0.167 HD
ENDBRANCH   8  10
ENDBRANCH   7   8
ENDBRANCH   5   7
ENDBRANCH   4   5
ENDBRANCH   2   4
TORSDOF 5
ENDMDL
MODEL 3
REMARK VINA RESULT:      -2.5      2.561      5.053
REMARK  5 active torsions:
REMARK  status: ('A' for Active; 'I' for Inactive)
REMARK    1  A    between atoms: C2_2  and  C6_6 
REMARK    2  A    between atoms: C3_3  and  C7_7 
REMARK    3  A    between atoms: C3_3  and  O10_10 
REMARK    4  A    between atoms: C6_6  and  C8_8 
REMARK    5  A    between atoms: C7_7  and  C8_8 
ROOT
HETATM    1  C1  UNL     1     -33.912   3.966   4.342  1.00 20.00    -0.111 C 
HETATM    2  C2  UNL     1     -34.440   5.018   4.106  1.00 20.00    -0.107 C 
HETATM    3  C4  UNL     1     -33.271   2.684   4.628  1.00 20.00     0.112 C 
ENDROOT
BRANCH   2   4
HETATM    4  C6  UNL     1     -35.082   6.310   3.820  1.00 20.00     0.098 C 
BRANCH   4   5
HETATM    5  C8  UNL     1     -34.096   7.494   3.761  1.00 20.00     0.002 C 
HETATM    6  C5  UNL     1     -33.999   8.212   5.112  1.00 20.00     0.011 C 
BRANCH   5   7
HETATM    7  C7  UNL     1     -32.693   7.104   3.273  1.00 20.00     0.115 C 
BRANCH   7   8
HETATM    8  C3  UNL     1     -32.536   7.257   1.779  1.00 20.00     0.139 C 
HETATM    9  O9  UNL     1     -32.153   8.284   1.233  1.00 20.00    -0.650 OA
BRANCH   8  10
HETATM   10  O10 UNL     1     -32.863   6.129   1.102  1.00 20.00    -0.776 OA
HETATM   11  H22 UNL     1     -33.355   5.458   1.623  1.00 20.00     0.167 HD
ENDBRANCH   8  10
ENDBRANCH   7   8
ENDBRANCH   5   7
ENDBRANCH   4   5
ENDBRANCH   2   4
TORSDOF 5
ENDMDL
MODEL 4
REMARK VINA RESULT:      -2.4      1.455      2.105
REMARK  5 active torsions:
REMARK  status: ('A' for Active; 'I' for Inactive)
REMARK    1  A    between atoms: C2_2  and  C6_6 
REMARK    2  A    between atoms: C3_3  and  C7_7 
REMARK    3  A    between atoms: C3_3  and  O10_10 
REMARK    4  A    between atoms: C6_6  and  C8_8 
REMARK    5  A    between atoms: C7_7  and  C8_8 
ROOT
HETATM    1  C1  UNL     1     -32.434   9.125   0.811  1.00 20.00    -0.111 C 
HETATM    2  C2  UNL     1     -32.428   8.079   1.399  1.00 20.00    -0.107 C 
HETATM    3  C4  UNL     1     -32.439  10.399   0.094  1.00 20.00     0.112 C 
ENDROOT
BRANCH   2   4
HETATM    4  C6  UNL     1     -32.425   6.798   2.123  1.00 20.00     0.098 C 
BRANCH   4   5
HETATM    5  C8  UNL     1     -33.236   6.823   3.434  1.00 20.00     0.002 C 
HETATM    6  C5  UNL     1     -33.448   8.255   3.937  1.00 20.00     0.011 C 
BRANCH   5   7
HETATM    7  C7  UNL     1     -34.586   6.096   3.337  1.00 20.00     0.115 C 
BRANCH   7   8
HETATM    8  C3  UNL     1     -34.607   4.807   4.122  1.00 20.00     0.139 C 
HETATM    9  O9  UNL     1     -33.747   3.941   4.037  1.00 20.00    -0.650 OA
BRANCH   8  10
HETATM   10  O10 UNL     1     -35.686   4.712   4.939  1.00 20.00    -0.776 OA
HETATM   11  H22 UNL     1     -36.516   4.427   4.501  1.00 20.00     0.167 HD
ENDBRANCH   8  10
ENDBRANCH   7   8
ENDBRANCH   5   7
ENDBRANCH   4   5
ENDBRANCH   2   4
TORSDOF 5
ENDMDL
MODEL 5
REMARK VINA RESULT:      -2.3      2.678      4.620
REMARK  5 active torsions:
REMARK  status: ('A' for Active; 'I' for Inactive)
REMARK    1  A    between atoms: C2_2  and  C6_6 
REMARK    2  A    between atoms: C3_3  and  C7_7 
REMARK    3  A    between atoms: C3_3  and  O10_10 
REMARK    4  A    between atoms: C6_6  and  C8_8 
REMARK    5  A    between atoms: C7_7  and  C8_8 
ROOT
HETATM    1  C1  UNL     1     -34.528   6.454   3.833  1.00 20.00    -0.111 C 
HETATM    2  C2  UNL     1     -33.819   7.286   3.338  1.00 20.00    -0.107 C 
HETATM    3  C4  UNL     1     -35.394   5.441   4.434  1.00 20.00     0.112 C 
ENDROOT
BRANCH   2   4
HETATM    4  C6  UNL     1     -32.947   8.306   2.736  1.00 20.00     0.098 C 
BRANCH   4   5
HETATM    5  C8  UNL     1     -31.844   7.724   1.829  1.00 20.00     0.002 C 
HETATM    6  C5  UNL     1     -32.292   6.416   1.168  1.00 20.00     0.011 C 
BRANCH   5   7
HETATM    7  C7  UNL     1     -31.343   8.707   0.760  1.00 20.00     0.115 C 
BRANCH   7   8
HETATM    8  C3  UNL     1     -32.401   9.700   0.345  1.00 20.00     0.139 C 
HETATM    9  O9  UNL     1     -32.698  10.695   0.993  1.00 20.00    -0.650 OA
BRANCH   8  10
HETATM   10  O10 UNL     1     -32.989   9.374  -0.833  1.00 20.00    -0.776 OA
HETATM   11  H22 UNL     1     -32.514   9.682  -1.635  1.00 20.00     0.167 HD
ENDBRANCH   8  10
ENDBRANCH   7   8
ENDBRANCH   5   7
ENDBRANCH   4   5
ENDBRANCH   2   4
TORSDOF 5
ENDMDL
MODEL 6
REMARK VINA RESULT:      -2.0      2.861      5.010
REMARK  5 active torsions:
REMARK  status: ('A' for Active; 'I' for Inactive)
REMARK    1  A    between atoms: C2_2  and  C6_6 
REMARK    2  A    between atoms: C3_3  and  C7_7 
REMARK    3  A    between atoms: C3_3  and  O10_10 
REMARK    4  A    between atoms: C6_6  and  C8_8 
REMARK    5  A    between atoms: C7_7  and  C8_8 
ROOT
HETATM    1  C1  UNL     1     -34.407   5.866   3.498  1.00 20.00    -0.111 C 
HETATM    2  C2  UNL     1     -33.587   6.239   2.704  1.00 20.00    -0.107 C 
HETATM    3  C4  UNL     1     -35.408   5.412   4.462  1.00 20.00     0.112 C 
ENDROOT
BRANCH   2   4
HETATM    4  C6  UNL     1     -32.580   6.697   1.736  1.00 20.00     0.098 C 
BRANCH   4   5
HETATM    5  C8  UNL     1     -32.274   8.206   1.825  1.00 20.00     0.002 C 
HETATM    6  C5  UNL     1     -31.364   8.526   3.016  1.00 20.00     0.011 C 
BRANCH   5   7
HETATM    7  C7  UNL     1     -31.676   8.790   0.536  1.00 20.00     0.115 C 
BRANCH   7   8
HETATM    8  C3  UNL     1     -32.485   9.943  -0.007  1.00 20.00     0.139 C 
HETATM    9  O9  UNL     1     -33.116   9.902  -1.056  1.00 20.00    -0.650 OA
BRANCH   8  10
HETATM   10  O10 UNL     1     -32.443  11.035   0.797  1.00 20.00    -0.776 OA
HETATM   11  H22 UNL     1     -33.087  11.032   1.537  1.00 20.00     0.167 HD
ENDBRANCH   8  10
ENDBRANCH   7   8
ENDBRANCH   5   7
ENDBRANCH   4   5
ENDBRANCH   2   4
TORSDOF 5
ENDMDL
MODEL 7
REMARK VINA RESULT:      -1.9      2.273      3.076
REMARK  5 active torsions:
REMARK  status: ('A' for Active; 'I' for Inactive)
REMARK    1  A    between atoms: C2_2  and  C6_6 
REMARK    2  A    between atoms: C3_3  and  C7_7 
REMARK    3  A    between atoms: C3_3  and  O10_10 
REMARK    4  A    between atoms: C6_6  and  C8_8 
REMARK    5  A    between atoms: C7_7  and  C8_8 
ROOT
HETATM    1  C1  UNL     1     -32.311   7.910   1.383  1.00 20.00    -0.111 C 
HETATM    2  C2  UNL     1     -32.641   6.824   1.775  1.00 20.00    -0.107 C 
HETATM    3  C4  UNL     1     -31.912   9.233   0.905  1.00 20.00     0.112 C 
ENDROOT
BRANCH   2   4
HETATM    4  C6  UNL     1     -33.039   5.492   2.256  1.00 20.00     0.098 C 
BRANCH   4   5
HETATM    5  C8  UNL     1     -33.663   5.503   3.666  1.00 20.00     0.002 C 
HETATM    6  C5  UNL     1     -34.655   6.659   3.834  1.00 20.00     0.011 C 
BRANCH   5   7
HETATM    7  C7  UNL     1     -34.336   4.176   4.051  1.00 20.00     0.115 C 
BRANCH   7   8
HETATM    8  C3  UNL     1     -33.361   3.180   4.632  1.00 20.00     0.139 C 
HETATM    9  O9  UNL     1     -32.403   3.488   5.330  1.00 20.00    -0.650 OA
BRANCH   8  10
HETATM   10  O10 UNL     1     -33.663   1.900   4.301  1.00 20.00    -0.776 OA
HETATM   11  H22 UNL     1     -33.498   1.238   5.006  1.00 20.00     0.167 HD
ENDBRANCH   8  10
ENDBRANCH   7   8
ENDBRANCH   5   7
ENDBRANCH   4   5
ENDBRANCH   2   4
TORSDOF 5
ENDMDL
MODEL 8
REMARK VINA RESULT:      -1.8      2.174      3.385
REMARK  5 active torsions:
REMARK  status: ('A' for Active; 'I' for Inactive)
REMARK    1  A    between atoms: C2_2  and  C6_6 
REMARK    2  A    between atoms: C3_3  and  C7_7 
REMARK    3  A    between atoms: C3_3  and  O10_10 
REMARK    4  A    between atoms: C6_6  and  C8_8 
REMARK    5  A    between atoms: C7_7  and  C8_8 
ROOT
HETATM    1  C1  UNL     1     -32.014   5.492   1.063  1.00 20.00    -0.111 C 
HETATM    2  C2  UNL     1     -32.393   6.432   1.708  1.00 20.00    -0.107 C 
HETATM    3  C4  UNL     1     -31.556   4.349   0.276  1.00 20.00     0.112 C 
ENDROOT
BRANCH   2   4
HETATM    4  C6  UNL     1     -32.852   7.582   2.502  1.00 20.00     0.098 C 
BRANCH   4   5
HETATM    5  C8  UNL     1     -33.501   7.190   3.844  1.00 20.00     0.002 C 
HETATM    6  C5  UNL     1     -33.684   8.407   4.757  1.00 20.00     0.011 C 
BRANCH   5   7
HETATM    7  C7  UNL     1     -34.836   6.446   3.689  1.00 20.00     0.115 C 
BRANCH   7   8
HETATM    8  C3  UNL     1     -34.766   5.021   4.182  1.00 20.00     0.139 C 
HETATM    9  O9  UNL     1     -33.863   4.243   3.902  1.00 20.00    -0.650 OA
BRANCH   8  10
HETATM   10  O10 UNL     1     -35.814   4.692   4.979  1.00 20.00    -0.776 OA
HETATM   11  H22 UNL     1     -36.416   5.434   5.200  1.00 20.00     0.167 HD
ENDBRANCH   8  10
ENDBRANCH   7   8
ENDBRANCH   5   7
ENDBRANCH   4   5
ENDBRANCH   2   4
TORSDOF 5
ENDMDL
MODEL 9
REMARK VINA RESULT:      -1.6      2.829      5.035
REMARK  5 active torsions:
REMARK  status: ('A' for Active; 'I' for Inactive)
REMARK    1  A    between atoms: C2_2  and  C6_6 
REMARK    2  A    between atoms: C3_3  and  C7_7 
REMARK    3  A    between atoms: C3_3  and  O10_10 
REMARK    4  A    between atoms: C6_6  and  C8_8 
REMARK    5  A    between atoms: C7_7  and  C8_8 
ROOT
HETATM    1  C1  UNL     1     -33.432   4.548   3.439  1.00 20.00    -0.111 C 
HETATM    2  C2  UNL     1     -33.112   5.300   2.560  1.00 20.00    -0.107 C 
HETATM    3  C4  UNL     1     -33.824   3.633   4.509  1.00 20.00     0.112 C 
ENDROOT
BRANCH   2   4
HETATM    4  C6  UNL     1     -32.714   6.220   1.483  1.00 20.00     0.098 C 
BRANCH   4   5
HETATM    5  C8  UNL     1     -32.892   7.709   1.842  1.00 20.00     0.002 C 
HETATM    6  C5  UNL     1     -32.933   7.922   3.359  1.00 20.00     0.011 C 
BRANCH   5   7
HETATM    7  C7  UNL     1     -31.829   8.625   1.213  1.00 20.00     0.115 C 
BRANCH   7   8
HETATM    8  C3  UNL     1     -32.436   9.729   0.382  1.00 20.00     0.139 C 
HETATM    9  O9  UNL     1     -32.556  10.886   0.764  1.00 20.00    -0.650 OA
BRANCH   8  10
HETATM   10  O10 UNL     1     -32.832   9.302  -0.843  1.00 20.00    -0.776 OA
HETATM   11  H22 UNL     1     -32.125   8.901  -1.393  1.00 20.00     0.167 HD
ENDBRANCH   8  10
ENDBRANCH   7   8
ENDBRANCH   5   7
ENDBRANCH   4   5
ENDBRANCH   2   4
TORSDOF 5
ENDMDL
