MODEL 1
REMARK VINA RESULT:      -0.9      0.000      0.000
REMARK  3 active torsions:
REMARK  status: ('A' for Active; 'I' for Inactive)
REMARK    1  A    between atoms: C2_2  and  C9_9 
REMARK    2  A    between atoms: C3_3  and  C6_6 
REMARK    3  A    between atoms: C7_7  and  C9_9 
ROOT
HETATM    1  C4  UNL     1     -33.480   5.422   2.062  1.00 20.00     0.016 C 
HETATM    2  C5  UNL     1     -32.267   5.946   1.267  1.00 20.00     0.007 C 
HETATM    3  C6  UNL     1     -33.102   6.423   3.179  1.00 20.00     0.091 C 
HETATM    4  C7  UNL     1     -32.371   7.259   2.086  1.00 20.00     0.004 C 
ENDROOT
BRANCH   4   5
HETATM    5  C9  UNL     1     -33.123   8.388   1.393  1.00 20.00     0.038 C 
BRANCH   5   6
HETATM    6  C2  UNL     1     -32.216   9.281   0.582  1.00 20.00    -0.093 C 
HETATM    7  C1  UNL     1     -31.016   8.857   0.155  1.00 20.00     0.014 C 
HETATM    8  C8  UNL     1     -32.697  10.675   0.305  1.00 20.00     0.042 C 
ENDBRANCH   5   6
ENDBRANCH   4   5
BRANCH   3   9
HETATM    9  C3  UNL     1     -34.238   7.080   3.876  1.00 20.00     0.177 C 
HETATM   10  O10 UNL     1     -35.372   6.570   3.659  1.00 20.00    -0.648 OA
HETATM   11  O11 UNL     1     -33.918   8.067   4.596  1.00 20.00    -0.648 OA
ENDBRANCH   3   9
TORSDOF 3
ENDMDL
MODEL 2
REMARK VINA RESULT:      -0.8      1.805      4.457
REMARK  3 active torsions:
REMARK  status: ('A' for Active; 'I' for Inactive)
REMARK    1  A    between atoms: C2_2  and  C9_9 
REMARK    2  A    between atoms: C3_3  and  C6_6 
REMARK    3  A    between atoms: C7_7  and  C9_9 
ROOT
HETATM    1  C4  UNL     1     -32.080   7.380   1.773  1.00 20.00     0.016 C 
HETATM    2  C5  UNL     1     -32.412   6.019   1.129  1.00 20.00     0.007 C 
HETATM    3  C6  UNL     1     -33.440   7.297   2.503  1.00 20.00     0.091 C 
HETATM    4  C7  UNL     1     -33.364   5.751   2.323  1.00 20.00     0.004 C 
ENDROOT
BRANCH   4   5
HETATM    5  C9  UNL     1     -32.766   4.907   3.442  1.00 20.00     0.038 C 
BRANCH   5   6
HETATM    6  C2  UNL     1     -33.804   4.095   4.177  1.00 20.00    -0.093 C 
HETATM    7  C1  UNL     1     -35.023   4.590   4.440  1.00 20.00     0.014 C 
HETATM    8  C8  UNL     1     -33.401   2.722   4.634  1.00 20.00     0.042 C 
ENDBRANCH   5   6
ENDBRANCH   4   5
BRANCH   3   9
HETATM    9  C3  UNL     1     -33.464   7.809   3.897  1.00 20.00     0.177 C 
HETATM   10  O10 UNL     1     -32.365   8.258   4.327  1.00 20.00    -0.648 OA
HETATM   11  O11 UNL     1     -34.586   7.728   4.473  1.00 20.00    -0.648 OA
ENDBRANCH   3   9
TORSDOF 3
ENDMDL
MODEL 3
REMARK VINA RESULT:      -0.5      2.100      4.357
REMARK  3 active torsions:
REMARK  status: ('A' for Active; 'I' for Inactive)
REMARK    1  A    between atoms: C2_2  and  C9_9 
REMARK    2  A    between atoms: C3_3  and  C6_6 
REMARK    3  A    between atoms: C7_7  and  C9_9 
ROOT
HETATM    1  C4  UNL     1     -31.297   5.990   1.111  1.00 20.00     0.016 C 
HETATM    2  C5  UNL     1     -32.467   5.010   1.330  1.00 20.00     0.007 C 
HETATM    3  C6  UNL     1     -32.348   7.112   0.948  1.00 20.00     0.091 C 
HETATM    4  C7  UNL     1     -33.324   6.223   1.776  1.00 20.00     0.004 C 
ENDROOT
BRANCH   4   5
HETATM    5  C9  UNL     1     -33.410   6.427   3.283  1.00 20.00     0.038 C 
BRANCH   5   6
HETATM    6  C2  UNL     1     -34.529   5.636   3.916  1.00 20.00    -0.093 C 
HETATM    7  C1  UNL     1     -35.739   6.178   4.124  1.00 20.00     0.014 C 
HETATM    8  C8  UNL     1     -34.219   4.229   4.337  1.00 20.00     0.042 C 
ENDBRANCH   5   6
ENDBRANCH   4   5
BRANCH   3   9
HETATM    9  C3  UNL     1     -31.989   8.431   1.528  1.00 20.00     0.177 C 
HETATM   10  O10 UNL     1     -31.364   8.387   2.624  1.00 20.00    -0.648 OA
HETATM   11  O11 UNL     1     -32.357   9.428   0.845  1.00 20.00    -0.648 OA
ENDBRANCH   3   9
TORSDOF 3
ENDMDL
MODEL 4
REMARK VINA RESULT:      -0.4      2.073      4.030
REMARK  3 active torsions:
REMARK  status: ('A' for Active; 'I' for Inactive)
REMARK    1  A    between atoms: C2_2  and  C9_9 
REMARK    2  A    between atoms: C3_3  and  C6_6 
REMARK    3  A    between atoms: C7_7  and  C9_9 
ROOT
HETATM    1  C4  UNL     1     -31.879   8.184   0.376  1.00 20.00     0.016 C 
HETATM    2  C5  UNL     1     -32.109   9.254   1.461  1.00 20.00     0.007 C 
HETATM    3  C6  UNL     1     -31.588   7.179   1.514  1.00 20.00     0.091 C 
HETATM    4  C7  UNL     1     -32.428   8.102   2.448  1.00 20.00     0.004 C 
ENDROOT
BRANCH   4   5
HETATM    5  C9  UNL     1     -33.912   7.810   2.634  1.00 20.00     0.038 C 
BRANCH   5   6
HETATM    6  C2  UNL     1     -34.243   7.338   4.029  1.00 20.00    -0.093 C 
HETATM    7  C1  UNL     1     -33.716   7.930   5.112  1.00 20.00     0.014 C 
HETATM    8  C8  UNL     1     -35.157   6.153   4.151  1.00 20.00     0.042 C 
ENDBRANCH   5   6
ENDBRANCH   4   5
BRANCH   3   9
HETATM    9  C3  UNL     1     -32.093   5.797   1.308  1.00 20.00     0.177 C 
HETATM   10  O10 UNL     1     -33.273   5.713   0.868  1.00 20.00    -0.648 OA
HETATM   11  O11 UNL     1     -31.271   4.884   1.602  1.00 20.00    -0.648 OA
ENDBRANCH   3   9
TORSDOF 3
ENDMDL
MODEL 5
REMARK VINA RESULT:      -0.2      2.008      2.691
REMARK  3 active torsions:
REMARK  status: ('A' for Active; 'I' for Inactive)
REMARK    1  A    between atoms: C2_2  and  C9_9 
REMARK    2  A    between atoms: C3_3  and  C6_6 
REMARK    3  A    between atoms: C7_7  and  C9_9 
ROOT
HETATM    1  C4  UNL     1     -33.564   6.005   3.691  1.00 20.00     0.016 C 
HETATM    2  C5  UNL     1     -33.978   7.479   3.868  1.00 20.00     0.007 C 
HETATM    3  C6  UNL     1     -33.789   6.188   2.172  1.00 20.00     0.091 C 
HETATM    4  C7  UNL     1     -33.561   7.714   2.393  1.00 20.00     0.004 C 
ENDROOT
BRANCH   4   5
HETATM    5  C9  UNL     1     -32.161   8.286   2.207  1.00 20.00     0.038 C 
BRANCH   5   6
HETATM    6  C2  UNL     1     -32.011   9.048   0.913  1.00 20.00    -0.093 C 
HETATM    7  C1  UNL     1     -31.187   8.623  -0.058  1.00 20.00     0.014 C 
HETATM    8  C8  UNL     1     -32.792  10.322   0.774  1.00 20.00     0.042 C 
ENDBRANCH   5   6
ENDBRANCH   4   5
BRANCH   3   9
HETATM    9  C3  UNL     1     -32.827   5.490   1.281  1.00 20.00     0.177 C 
HETATM   10  O10 UNL     1     -31.638   5.441   1.704  1.00 20.00    -0.648 OA
HETATM   11  O11 UNL     1     -33.327   5.035   0.214  1.00 20.00    -0.648 OA
ENDBRANCH   3   9
TORSDOF 3
ENDMDL
MODEL 6
REMARK VINA RESULT:      -0.1      2.019      2.890
REMARK  3 active torsions:
REMARK  status: ('A' for Active; 'I' for Inactive)
REMARK    1  A    between atoms: C2_2  and  C9_9 
REMARK    2  A    between atoms: C3_3  and  C6_6 
REMARK    3  A    between atoms: C7_7  and  C9_9 
ROOT
HETATM    1  C4  UNL     1     -33.524   5.986   3.672  1.00 20.00     0.016 C 
HETATM    2  C5  UNL     1     -33.946   7.459   3.843  1.00 20.00     0.007 C 
HETATM    3  C6  UNL     1     -33.768   6.157   2.155  1.00 20.00     0.091 C 
HETATM    4  C7  UNL     1     -33.547   7.685   2.362  1.00 20.00     0.004 C 
ENDROOT
BRANCH   4   5
HETATM    5  C9  UNL     1     -32.153   8.264   2.154  1.00 20.00     0.038 C 
BRANCH   5   6
HETATM    6  C2  UNL     1     -32.057   9.123   0.917  1.00 20.00    -0.093 C 
HETATM    7  C1  UNL     1     -32.767  10.255   0.794  1.00 20.00     0.014 C 
HETATM    8  C8  UNL     1     -31.162   8.637  -0.186  1.00 20.00     0.042 C 
ENDBRANCH   5   6
ENDBRANCH   4   5
BRANCH   3   9
HETATM    9  C3  UNL     1     -32.812   5.457   1.258  1.00 20.00     0.177 C 
HETATM   10  O10 UNL     1     -31.612   5.449   1.650  1.00 20.00    -0.648 OA
HETATM   11  O11 UNL     1     -33.328   4.960   0.218  1.00 20.00    -0.648 OA
ENDBRANCH   3   9
TORSDOF 3
ENDMDL
MODEL 7
REMARK VINA RESULT:       0.1      2.695      5.278
REMARK  3 active torsions:
REMARK  status: ('A' for Active; 'I' for Inactive)
REMARK    1  A    between atoms: C2_2  and  C9_9 
REMARK    2  A    between atoms: C3_3  and  C6_6 
REMARK    3  A    between atoms: C7_7  and  C9_9 
ROOT
HETATM    1  C4  UNL     1     -35.422   6.584   3.144  1.00 20.00     0.016 C 
HETATM    2  C5  UNL     1     -35.526   5.755   4.439  1.00 20.00     0.007 C 
HETATM    3  C6  UNL     1     -33.917   6.762   3.450  1.00 20.00     0.091 C 
HETATM    4  C7  UNL     1     -34.009   5.462   4.304  1.00 20.00     0.004 C 
ENDROOT
BRANCH   4   5
HETATM    5  C9  UNL     1     -33.670   4.127   3.654  1.00 20.00     0.038 C 
BRANCH   5   6
HETATM    6  C2  UNL     1     -33.191   3.099   4.650  1.00 20.00    -0.093 C 
HETATM    7  C1  UNL     1     -33.389   1.786   4.451  1.00 20.00     0.014 C 
HETATM    8  C8  UNL     1     -32.518   3.609   5.891  1.00 20.00     0.042 C 
ENDBRANCH   5   6
ENDBRANCH   4   5
BRANCH   3   9
HETATM    9  C3  UNL     1     -33.006   6.730   2.277  1.00 20.00     0.177 C 
HETATM   10  O10 UNL     1     -32.196   7.696   2.196  1.00 20.00    -0.648 OA
HETATM   11  O11 UNL     1     -33.162   5.738   1.511  1.00 20.00    -0.648 OA
ENDBRANCH   3   9
TORSDOF 3
ENDMDL
MODEL 8
REMARK VINA RESULT:       0.2      2.462      4.301
REMARK  3 active torsions:
REMARK  status: ('A' for Active; 'I' for Inactive)
REMARK    1  A    between atoms: C2_2  and  C9_9 
REMARK    2  A    between atoms: C3_3  and  C6_6 
REMARK    3  A    between atoms: C7_7  and  C9_9 
ROOT
HETATM    1  C4  UNL     1     -30.947   8.361   1.550  1.00 20.00     0.016 C 
HETATM    2  C5  UNL     1     -31.599   7.090   2.128  1.00 20.00     0.007 C 
HETATM    3  C6  UNL     1     -32.127   8.441   0.555  1.00 20.00     0.091 C 
HETATM    4  C7  UNL     1     -32.954   7.604   1.576  1.00 20.00     0.004 C 
ENDROOT
BRANCH   4   5
HETATM    5  C9  UNL     1     -33.825   8.331   2.593  1.00 20.00     0.038 C 
BRANCH   5   6
HETATM    6  C2  UNL     1     -34.086   7.509   3.831  1.00 20.00    -0.093 C 
HETATM    7  C1  UNL     1     -34.887   6.433   3.801  1.00 20.00     0.014 C 
HETATM    8  C8  UNL     1     -33.440   7.968   5.106  1.00 20.00     0.042 C 
ENDBRANCH   5   6
ENDBRANCH   4   5
BRANCH   3   9
HETATM    9  C3  UNL     1     -32.628   9.805   0.245  1.00 20.00     0.177 C 
HETATM   10  O10 UNL     1     -32.473  10.658   1.163  1.00 20.00    -0.648 OA
HETATM   11  O11 UNL     1     -33.145   9.932  -0.900  1.00 20.00    -0.648 OA
ENDBRANCH   3   9
TORSDOF 3
ENDMDL
MODEL 9
REMARK VINA RESULT:       0.3      1.682      2.860
REMARK  3 active torsions:
REMARK  status: ('A' for Active; 'I' for Inactive)
REMARK    1  A    between atoms: C2_2  and  C9_9 
REMARK    2  A    between atoms: C3_3  and  C6_6 
REMARK    3  A    between atoms: C7_7  and  C9_9 
ROOT
HETATM    1  C4  UNL     1     -35.074   4.535   4.510  1.00 20.00     0.016 C 
HETATM    2  C5  UNL     1     -33.810   3.745   4.117  1.00 20.00     0.007 C 
HETATM    3  C6  UNL     1     -34.215   5.820   4.454  1.00 20.00     0.091 C 
HETATM    4  C7  UNL     1     -33.257   5.053   3.493  1.00 20.00     0.004 C 
ENDROOT
BRANCH   4   5
HETATM    5  C9  UNL     1     -33.462   5.182   1.989  1.00 20.00     0.038 C 
BRANCH   5   6
HETATM    6  C2  UNL     1     -32.254   5.746   1.282  1.00 20.00    -0.093 C 
HETATM    7  C1  UNL     1     -31.445   4.966   0.548  1.00 20.00     0.014 C 
HETATM    8  C8  UNL     1     -31.975   7.209   1.467  1.00 20.00     0.042 C 
ENDBRANCH   5   6
ENDBRANCH   4   5
BRANCH   3   9
HETATM    9  C3  UNL     1     -34.884   7.028   3.908  1.00 20.00     0.177 C 
HETATM   10  O10 UNL     1     -36.007   6.826   3.367  1.00 20.00    -0.648 OA
HETATM   11  O11 UNL     1     -34.240   8.104   4.058  1.00 20.00    -0.648 OA
ENDBRANCH   3   9
TORSDOF 3
ENDMDL
