MODEL 1
REMARK VINA RESULT:      -1.8      0.000      0.000
REMARK  3 active torsions:
REMARK  status: ('A' for Active; 'I' for Inactive)
REMARK    1  A    between atoms: C6_6  and  C7_7 
REMARK    2  A    between atoms: C6_6  and  C8_8 
REMARK    3  A    between atoms: C7_7  and  N9_9 
ROOT
HETATM    1  C1  UNL     1     -32.053   6.600   1.473  1.00 20.00     0.050 C 
HETATM    2  C2  UNL     1     -32.064   8.350   3.271  1.00 20.00     0.050 C 
HETATM    3  C3  UNL     1     -33.475   6.215   1.897  1.00 20.00     0.274 C 
HETATM    4  C4  UNL     1     -33.485   7.907   3.636  1.00 20.00     0.274 C 
HETATM    5  C5  UNL     1     -31.712   8.051   1.814  1.00 20.00     0.085 C 
HETATM    6  N9  UNL     1     -33.694   6.488   3.323  1.00 20.00     0.088 N 
HETATM    7 CL11 UNL     1     -32.580   9.172   0.718  1.00 20.00    -0.125 Cl
ENDROOT
BRANCH   6   8
HETATM    8  C7  UNL     1     -35.036   6.066   3.725  1.00 20.00     0.275 C 
BRANCH   8   9
HETATM    9  C6  UNL     1     -34.963   4.784   4.553  1.00 20.00     0.061 C 
BRANCH   9  10
HETATM   10  C8  UNL     1     -33.828   3.887   4.086  1.00 20.00     0.223 C 
HETATM   11  F10 UNL     1     -33.429   3.097   5.118  1.00 20.00    -0.255 F 
ENDBRANCH   9  10
ENDBRANCH   8   9
ENDBRANCH   6   8
TORSDOF 3
ENDMDL
MODEL 2
REMARK VINA RESULT:      -1.3      3.426      5.088
REMARK  3 active torsions:
REMARK  status: ('A' for Active; 'I' for Inactive)
REMARK    1  A    between atoms: C6_6  and  C7_7 
REMARK    2  A    between atoms: C6_6  and  C8_8 
REMARK    3  A    between atoms: C7_7  and  N9_9 
ROOT
HETATM    1  C1  UNL     1     -33.935   7.536   4.357  1.00 20.00     0.050 C 
HETATM    2  C2  UNL     1     -33.785   5.332   3.167  1.00 20.00     0.050 C 
HETATM    3  C3  UNL     1     -33.315   8.198   3.122  1.00 20.00     0.274 C 
HETATM    4  C4  UNL     1     -33.171   6.066   1.971  1.00 20.00     0.274 C 
HETATM    5  C5  UNL     1     -34.672   6.239   4.021  1.00 20.00     0.085 C 
HETATM    6  N9  UNL     1     -32.439   7.264   2.404  1.00 20.00     0.088 N 
HETATM    7 CL11 UNL     1     -36.207   6.595   3.168  1.00 20.00    -0.125 Cl
ENDROOT
BRANCH   6   8
HETATM    8  C7  UNL     1     -31.813   7.924   1.259  1.00 20.00     0.275 C 
BRANCH   8   9
HETATM    9  C6  UNL     1     -32.320   9.360   1.132  1.00 20.00     0.061 C 
BRANCH   9  10
HETATM   10  C8  UNL     1     -32.211   9.862  -0.298  1.00 20.00     0.223 C 
HETATM   11  F10 UNL     1     -33.440  10.249  -0.732  1.00 20.00    -0.255 F 
ENDBRANCH   9  10
ENDBRANCH   8   9
ENDBRANCH   6   8
TORSDOF 3
ENDMDL
MODEL 3
REMARK VINA RESULT:      -1.1      3.521      4.974
REMARK  3 active torsions:
REMARK  status: ('A' for Active; 'I' for Inactive)
REMARK    1  A    between atoms: C6_6  and  C7_7 
REMARK    2  A    between atoms: C6_6  and  C8_8 
REMARK    3  A    between atoms: C7_7  and  N9_9 
ROOT
HETATM    1  C1  UNL     1     -33.787   5.172   1.917  1.00 20.00     0.050 C 
HETATM    2  C2  UNL     1     -34.669   6.497   3.857  1.00 20.00     0.050 C 
HETATM    3  C3  UNL     1     -32.612   6.152   1.836  1.00 20.00     0.274 C 
HETATM    4  C4  UNL     1     -33.464   7.432   3.712  1.00 20.00     0.274 C 
HETATM    5  C5  UNL     1     -34.389   5.093   3.320  1.00 20.00     0.085 C 
HETATM    6  N9  UNL     1     -32.997   7.483   2.320  1.00 20.00     0.088 N 
HETATM    7 CL11 UNL     1     -33.288   4.209   4.424  1.00 20.00    -0.125 Cl
ENDROOT
BRANCH   6   8
HETATM    8  C7  UNL     1     -31.883   8.420   2.187  1.00 20.00     0.275 C 
BRANCH   8   9
HETATM    9  C6  UNL     1     -31.708   8.833   0.726  1.00 20.00     0.061 C 
BRANCH   9  10
HETATM   10  C8  UNL     1     -32.471  10.110   0.415  1.00 20.00     0.223 C 
HETATM   11  F10 UNL     1     -33.100   9.977  -0.782  1.00 20.00    -0.255 F 
ENDBRANCH   9  10
ENDBRANCH   8   9
ENDBRANCH   6   8
TORSDOF 3
ENDMDL
MODEL 4
REMARK VINA RESULT:      -0.6      0.912      1.127
REMARK  3 active torsions:
REMARK  status: ('A' for Active; 'I' for Inactive)
REMARK    1  A    between atoms: C6_6  and  C7_7 
REMARK    2  A    between atoms: C6_6  and  C8_8 
REMARK    3  A    between atoms: C7_7  and  N9_9 
ROOT
HETATM    1  C1  UNL     1     -32.268   6.686   1.278  1.00 20.00     0.050 C 
HETATM    2  C2  UNL     1     -31.279   8.495   2.707  1.00 20.00     0.050 C 
HETATM    3  C3  UNL     1     -33.539   6.763   2.131  1.00 20.00     0.274 C 
HETATM    4  C4  UNL     1     -32.582   8.513   3.513  1.00 20.00     0.274 C 
HETATM    5  C5  UNL     1     -31.481   7.996   1.276  1.00 20.00     0.085 C 
HETATM    6  N9  UNL     1     -33.232   7.195   3.501  1.00 20.00     0.088 N 
HETATM    7 CL11 UNL     1     -32.330   9.234   0.297  1.00 20.00    -0.125 Cl
ENDROOT
BRANCH   6   8
HETATM    8  C7  UNL     1     -34.445   7.213   4.317  1.00 20.00     0.275 C 
BRANCH   8   9
HETATM    9  C6  UNL     1     -35.399   6.106   3.873  1.00 20.00     0.061 C 
BRANCH   9  10
HETATM   10  C8  UNL     1     -35.160   4.823   4.653  1.00 20.00     0.223 C 
HETATM   11  F10 UNL     1     -34.130   4.141   4.087  1.00 20.00    -0.255 F 
ENDBRANCH   9  10
ENDBRANCH   8   9
ENDBRANCH   6   8
TORSDOF 3
ENDMDL
MODEL 5
REMARK VINA RESULT:      -0.3      1.294      2.119
REMARK  3 active torsions:
REMARK  status: ('A' for Active; 'I' for Inactive)
REMARK    1  A    between atoms: C6_6  and  C7_7 
REMARK    2  A    between atoms: C6_6  and  C8_8 
REMARK    3  A    between atoms: C7_7  and  N9_9 
ROOT
HETATM    1  C1  UNL     1     -33.923   8.241   3.057  1.00 20.00     0.050 C 
HETATM    2  C2  UNL     1     -32.851   6.648   1.441  1.00 20.00     0.050 C 
HETATM    3  C3  UNL     1     -34.070   7.076   4.042  1.00 20.00     0.274 C 
HETATM    4  C4  UNL     1     -33.034   5.536   2.479  1.00 20.00     0.274 C 
HETATM    5  C5  UNL     1     -32.768   8.036   2.075  1.00 20.00     0.085 C 
HETATM    6  N9  UNL     1     -34.200   5.796   3.334  1.00 20.00     0.088 N 
HETATM    7 CL11 UNL     1     -31.195   8.251   2.907  1.00 20.00    -0.125 Cl
ENDROOT
BRANCH   6   8
HETATM    8  C7  UNL     1     -34.393   4.702   4.284  1.00 20.00     0.275 C 
BRANCH   8   9
HETATM    9  C6  UNL     1     -33.555   3.491   3.877  1.00 20.00     0.061 C 
BRANCH   9  10
HETATM   10  C8  UNL     1     -33.210   2.626   5.079  1.00 20.00     0.223 C 
HETATM   11  F10 UNL     1     -32.313   3.283   5.861  1.00 20.00    -0.255 F 
ENDBRANCH   9  10
ENDBRANCH   8   9
ENDBRANCH   6   8
TORSDOF 3
ENDMDL
MODEL 6
REMARK VINA RESULT:       0.6      1.042      1.259
REMARK  3 active torsions:
REMARK  status: ('A' for Active; 'I' for Inactive)
REMARK    1  A    between atoms: C6_6  and  C7_7 
REMARK    2  A    between atoms: C6_6  and  C8_8 
REMARK    3  A    between atoms: C7_7  and  N9_9 
ROOT
HETATM    1  C1  UNL     1     -31.378   7.452   0.838  1.00 20.00     0.050 C 
HETATM    2  C2  UNL     1     -31.945   8.691   2.945  1.00 20.00     0.050 C 
HETATM    3  C3  UNL     1     -32.603   6.563   1.081  1.00 20.00     0.274 C 
HETATM    4  C4  UNL     1     -33.151   7.762   3.118  1.00 20.00     0.274 C 
HETATM    5  C5  UNL     1     -31.516   8.830   1.484  1.00 20.00     0.085 C 
HETATM    6  N9  UNL     1     -32.897   6.447   2.515  1.00 20.00     0.088 N 
HETATM    7 CL11 UNL     1     -32.697   9.830   0.578  1.00 20.00    -0.125 Cl
ENDROOT
BRANCH   6   8
HETATM    8  C7  UNL     1     -34.035   5.554   2.734  1.00 20.00     0.275 C 
BRANCH   8   9
HETATM    9  C6  UNL     1     -34.957   6.125   3.811  1.00 20.00     0.061 C 
BRANCH   9  10
HETATM   10  C8  UNL     1     -35.396   5.049   4.791  1.00 20.00     0.223 C 
HETATM   11  F10 UNL     1     -34.559   3.983   4.691  1.00 20.00    -0.255 F 
ENDBRANCH   9  10
ENDBRANCH   8   9
ENDBRANCH   6   8
TORSDOF 3
ENDMDL
