MODEL 1
REMARK VINA RESULT:      -2.7      0.000      0.000
REMARK  5 active torsions:
REMARK  status: ('A' for Active; 'I' for Inactive)
REMARK    1  A    between atoms: C1_1  and  C4_4 
REMARK    2  A    between atoms: C1_1  and  C8_8 
REMARK    3  A    between atoms: C4_4  and  C5_5 
REMARK    4  A    between atoms: C5_5  and  C6_6 
REMARK    5  A    between atoms: C6_6  and  C7_7 
ROOT
HETATM    1  C1  UNL     1     -33.298   6.291   2.544  1.00 20.00     0.130 C 
HETATM    2  O9  UNL     1     -32.933   5.517   1.659  1.00 20.00    -0.298 OA
ENDROOT
BRANCH   1   3
HETATM    3  C4  UNL     1     -33.024   7.788   2.465  1.00 20.00     0.079 C 
BRANCH   3   4
HETATM    4  C5  UNL     1     -31.675   8.129   1.834  1.00 20.00     0.010 C 
BRANCH   4   5
HETATM    5  C6  UNL     1     -31.817   8.672   0.410  1.00 20.00     0.032 C 
BRANCH   5   6
HETATM    6  C7  UNL     1     -32.474  10.043   0.401  1.00 20.00     0.222 C 
HETATM    7  F10 UNL     1     -33.214  10.178  -0.732  1.00 20.00    -0.255 F 
ENDBRANCH   5   6
ENDBRANCH   4   5
ENDBRANCH   3   4
ENDBRANCH   1   3
BRANCH   1   8
HETATM    8  C8  UNL     1     -34.002   5.795   3.807  1.00 20.00     0.047 C 
HETATM    9  C2  UNL     1     -34.017   4.270   3.833  1.00 20.00     0.017 C 
HETATM   10  C3  UNL     1     -35.421   6.351   3.901  1.00 20.00     0.017 C 
ENDBRANCH   1   8
TORSDOF 5
ENDMDL
MODEL 2
REMARK VINA RESULT:      -2.7      3.505      5.352
REMARK  5 active torsions:
REMARK  status: ('A' for Active; 'I' for Inactive)
REMARK    1  A    between atoms: C1_1  and  C4_4 
REMARK    2  A    between atoms: C1_1  and  C8_8 
REMARK    3  A    between atoms: C4_4  and  C5_5 
REMARK    4  A    between atoms: C5_5  and  C6_6 
REMARK    5  A    between atoms: C6_6  and  C7_7 
ROOT
HETATM    1  C1  UNL     1     -33.767   7.140   3.476  1.00 20.00     0.130 C 
HETATM    2  O9  UNL     1     -33.225   7.712   4.422  1.00 20.00    -0.298 OA
ENDROOT
BRANCH   1   3
HETATM    3  C4  UNL     1     -35.032   6.310   3.659  1.00 20.00     0.079 C 
BRANCH   3   4
HETATM    4  C5  UNL     1     -34.839   5.094   4.564  1.00 20.00     0.010 C 
BRANCH   4   5
HETATM    5  C6  UNL     1     -33.970   4.013   3.913  1.00 20.00     0.032 C 
BRANCH   5   6
HETATM    6  C7  UNL     1     -33.243   3.182   4.956  1.00 20.00     0.222 C 
HETATM    7  F10 UNL     1     -33.342   1.866   4.629  1.00 20.00    -0.255 F 
ENDBRANCH   5   6
ENDBRANCH   4   5
ENDBRANCH   3   4
ENDBRANCH   1   3
BRANCH   1   8
HETATM    8  C8  UNL     1     -33.178   7.180   2.067  1.00 20.00     0.047 C 
HETATM    9  C2  UNL     1     -32.746   5.781   1.640  1.00 20.00     0.017 C 
HETATM   10  C3  UNL     1     -32.005   8.156   1.987  1.00 20.00     0.017 C 
ENDBRANCH   1   8
TORSDOF 5
ENDMDL
MODEL 3
REMARK VINA RESULT:      -2.7      1.076      1.540
REMARK  5 active torsions:
REMARK  status: ('A' for Active; 'I' for Inactive)
REMARK    1  A    between atoms: C1_1  and  C4_4 
REMARK    2  A    between atoms: C1_1  and  C8_8 
REMARK    3  A    between atoms: C4_4  and  C5_5 
REMARK    4  A    between atoms: C5_5  and  C6_6 
REMARK    5  A    between atoms: C6_6  and  C7_7 
ROOT
HETATM    1  C1  UNL     1     -33.191   6.809   2.558  1.00 20.00     0.130 C 
HETATM    2  O9  UNL     1     -33.255   5.723   1.981  1.00 20.00    -0.298 OA
ENDROOT
BRANCH   1   3
HETATM    3  C4  UNL     1     -32.005   7.747   2.373  1.00 20.00     0.079 C 
BRANCH   3   4
HETATM    4  C5  UNL     1     -32.001   8.470   1.027  1.00 20.00     0.010 C 
BRANCH   4   5
HETATM    5  C6  UNL     1     -32.455   9.928   1.146  1.00 20.00     0.032 C 
BRANCH   5   6
HETATM    6  C7  UNL     1     -32.786  10.519  -0.215  1.00 20.00     0.222 C 
HETATM    7  F10 UNL     1     -32.735   9.538  -1.154  1.00 20.00    -0.255 F 
ENDBRANCH   5   6
ENDBRANCH   4   5
ENDBRANCH   3   4
ENDBRANCH   1   3
BRANCH   1   8
HETATM    8  C8  UNL     1     -34.272   7.264   3.538  1.00 20.00     0.047 C 
HETATM    9  C2  UNL     1     -33.636   7.987   4.720  1.00 20.00     0.017 C 
HETATM   10  C3  UNL     1     -35.115   6.084   4.016  1.00 20.00     0.017 C 
ENDBRANCH   1   8
TORSDOF 5
ENDMDL
MODEL 4
REMARK VINA RESULT:      -2.5      1.168      1.603
REMARK  5 active torsions:
REMARK  status: ('A' for Active; 'I' for Inactive)
REMARK    1  A    between atoms: C1_1  and  C4_4 
REMARK    2  A    between atoms: C1_1  and  C8_8 
REMARK    3  A    between atoms: C4_4  and  C5_5 
REMARK    4  A    between atoms: C5_5  and  C6_6 
REMARK    5  A    between atoms: C6_6  and  C7_7 
ROOT
HETATM    1  C1  UNL     1     -33.463   6.872   3.197  1.00 20.00     0.130 C 
HETATM    2  O9  UNL     1     -33.347   7.716   4.086  1.00 20.00    -0.298 OA
ENDROOT
BRANCH   1   3
HETATM    3  C4  UNL     1     -32.692   6.975   1.888  1.00 20.00     0.079 C 
BRANCH   3   4
HETATM    4  C5  UNL     1     -31.770   8.192   1.815  1.00 20.00     0.010 C 
BRANCH   4   5
HETATM    5  C6  UNL     1     -31.710   8.795   0.409  1.00 20.00     0.032 C 
BRANCH   5   6
HETATM    6  C7  UNL     1     -32.508  10.086   0.323  1.00 20.00     0.222 C 
HETATM    7  F10 UNL     1     -33.211  10.100  -0.841  1.00 20.00    -0.255 F 
ENDBRANCH   5   6
ENDBRANCH   4   5
ENDBRANCH   3   4
ENDBRANCH   1   3
BRANCH   1   8
HETATM    8  C8  UNL     1     -34.430   5.695   3.327  1.00 20.00     0.047 C 
HETATM    9  C2  UNL     1     -35.582   6.063   4.255  1.00 20.00     0.017 C 
HETATM   10  C3  UNL     1     -33.710   4.444   3.827  1.00 20.00     0.017 C 
ENDBRANCH   1   8
TORSDOF 5
ENDMDL
MODEL 5
REMARK VINA RESULT:      -2.5      3.568      5.471
REMARK  5 active torsions:
REMARK  status: ('A' for Active; 'I' for Inactive)
REMARK    1  A    between atoms: C1_1  and  C4_4 
REMARK    2  A    between atoms: C1_1  and  C8_8 
REMARK    3  A    between atoms: C4_4  and  C5_5 
REMARK    4  A    between atoms: C5_5  and  C6_6 
REMARK    5  A    between atoms: C6_6  and  C7_7 
ROOT
HETATM    1  C1  UNL     1     -33.721   7.141   3.604  1.00 20.00     0.130 C 
HETATM    2  O9  UNL     1     -33.620   8.010   4.470  1.00 20.00    -0.298 OA
ENDROOT
BRANCH   1   3
HETATM    3  C4  UNL     1     -34.906   6.184   3.561  1.00 20.00     0.079 C 
BRANCH   3   4
HETATM    4  C5  UNL     1     -34.757   4.984   4.495  1.00 20.00     0.010 C 
BRANCH   4   5
HETATM    5  C6  UNL     1     -33.883   3.881   3.893  1.00 20.00     0.032 C 
BRANCH   5   6
HETATM    6  C7  UNL     1     -33.181   3.075   4.974  1.00 20.00     0.222 C 
HETATM    7  F10 UNL     1     -33.313   1.749   4.701  1.00 20.00    -0.255 F 
ENDBRANCH   5   6
ENDBRANCH   4   5
ENDBRANCH   3   4
ENDBRANCH   1   3
BRANCH   1   8
HETATM    8  C8  UNL     1     -32.638   6.929   2.546  1.00 20.00     0.047 C 
HETATM    9  C2  UNL     1     -32.190   8.271   1.980  1.00 20.00     0.017 C 
HETATM   10  C3  UNL     1     -33.130   6.009   1.431  1.00 20.00     0.017 C 
ENDBRANCH   1   8
TORSDOF 5
ENDMDL
MODEL 6
REMARK VINA RESULT:      -2.2      2.994      5.078
REMARK  5 active torsions:
REMARK  status: ('A' for Active; 'I' for Inactive)
REMARK    1  A    between atoms: C1_1  and  C4_4 
REMARK    2  A    between atoms: C1_1  and  C8_8 
REMARK    3  A    between atoms: C4_4  and  C5_5 
REMARK    4  A    between atoms: C5_5  and  C6_6 
REMARK    5  A    between atoms: C6_6  and  C7_7 
ROOT
HETATM    1  C1  UNL     1     -32.922   6.899   2.207  1.00 20.00     0.130 C 
HETATM    2  O9  UNL     1     -33.185   6.000   1.407  1.00 20.00    -0.298 OA
ENDROOT
BRANCH   1   3
HETATM    3  C4  UNL     1     -33.653   7.029   3.537  1.00 20.00     0.079 C 
BRANCH   3   4
HETATM    4  C5  UNL     1     -34.987   6.285   3.577  1.00 20.00     0.010 C 
BRANCH   4   5
HETATM    5  C6  UNL     1     -34.945   5.060   4.494  1.00 20.00     0.032 C 
BRANCH   5   6
HETATM    6  C7  UNL     1     -33.949   4.026   3.995  1.00 20.00     0.222 C 
HETATM    7  F10 UNL     1     -33.602   3.206   5.022  1.00 20.00    -0.255 F 
ENDBRANCH   5   6
ENDBRANCH   4   5
ENDBRANCH   3   4
ENDBRANCH   1   3
BRANCH   1   8
HETATM    8  C8  UNL     1     -31.883   7.975   1.894  1.00 20.00     0.047 C 
HETATM    9  C2  UNL     1     -31.494   8.714   3.169  1.00 20.00     0.017 C 
HETATM   10  C3  UNL     1     -32.401   8.951   0.840  1.00 20.00     0.017 C 
ENDBRANCH   1   8
TORSDOF 5
ENDMDL
MODEL 7
REMARK VINA RESULT:      -2.1      1.416      1.444
REMARK  5 active torsions:
REMARK  status: ('A' for Active; 'I' for Inactive)
REMARK    1  A    between atoms: C1_1  and  C4_4 
REMARK    2  A    between atoms: C1_1  and  C8_8 
REMARK    3  A    between atoms: C4_4  and  C5_5 
REMARK    4  A    between atoms: C5_5  and  C6_6 
REMARK    5  A    between atoms: C6_6  and  C7_7 
ROOT
HETATM    1  C1  UNL     1     -33.638   7.254   3.772  1.00 20.00     0.130 C 
HETATM    2  O9  UNL     1     -33.276   8.134   4.554  1.00 20.00    -0.298 OA
ENDROOT
BRANCH   1   3
HETATM    3  C4  UNL     1     -33.005   7.093   2.396  1.00 20.00     0.079 C 
BRANCH   3   4
HETATM    4  C5  UNL     1     -31.966   8.166   2.072  1.00 20.00     0.010 C 
BRANCH   4   5
HETATM    5  C6  UNL     1     -31.968   8.550   0.589  1.00 20.00     0.032 C 
BRANCH   5   6
HETATM    6  C7  UNL     1     -32.422   9.987   0.389  1.00 20.00     0.222 C 
HETATM    7  F10 UNL     1     -33.166  10.067  -0.746  1.00 20.00    -0.255 F 
ENDBRANCH   5   6
ENDBRANCH   4   5
ENDBRANCH   3   4
ENDBRANCH   1   3
BRANCH   1   8
HETATM    8  C8  UNL     1     -34.784   6.301   4.109  1.00 20.00     0.047 C 
HETATM    9  C2  UNL     1     -34.341   4.856   3.906  1.00 20.00     0.017 C 
HETATM   10  C3  UNL     1     -36.023   6.610   3.270  1.00 20.00     0.017 C 
ENDBRANCH   1   8
TORSDOF 5
ENDMDL
MODEL 8
REMARK VINA RESULT:      -1.7      2.284      4.633
REMARK  5 active torsions:
REMARK  status: ('A' for Active; 'I' for Inactive)
REMARK    1  A    between atoms: C1_1  and  C4_4 
REMARK    2  A    between atoms: C1_1  and  C8_8 
REMARK    3  A    between atoms: C4_4  and  C5_5 
REMARK    4  A    between atoms: C5_5  and  C6_6 
REMARK    5  A    between atoms: C6_6  and  C7_7 
ROOT
HETATM    1  C1  UNL     1     -32.003   8.094   1.796  1.00 20.00     0.130 C 
HETATM    2  O9  UNL     1     -31.692   8.609   2.870  1.00 20.00    -0.298 OA
ENDROOT
BRANCH   1   3
HETATM    3  C4  UNL     1     -32.036   6.582   1.612  1.00 20.00     0.079 C 
BRANCH   3   4
HETATM    4  C5  UNL     1     -33.422   5.971   1.816  1.00 20.00     0.010 C 
BRANCH   4   5
HETATM    5  C6  UNL     1     -33.737   5.722   3.294  1.00 20.00     0.032 C 
BRANCH   5   6
HETATM    6  C7  UNL     1     -34.836   6.647   3.791  1.00 20.00     0.222 C 
HETATM    7  F10 UNL     1     -34.273   7.737   4.376  1.00 20.00    -0.255 F 
ENDBRANCH   5   6
ENDBRANCH   4   5
ENDBRANCH   3   4
ENDBRANCH   1   3
BRANCH   1   8
HETATM    8  C8  UNL     1     -32.323   8.936   0.562  1.00 20.00     0.047 C 
HETATM    9  C2  UNL     1     -31.118   8.978  -0.371  1.00 20.00     0.017 C 
HETATM   10  C3  UNL     1     -32.751  10.348   0.955  1.00 20.00     0.017 C 
ENDBRANCH   1   8
TORSDOF 5
ENDMDL
MODEL 9
REMARK VINA RESULT:      -1.7      2.775      5.084
REMARK  5 active torsions:
REMARK  status: ('A' for Active; 'I' for Inactive)
REMARK    1  A    between atoms: C1_1  and  C4_4 
REMARK    2  A    between atoms: C1_1  and  C8_8 
REMARK    3  A    between atoms: C4_4  and  C5_5 
REMARK    4  A    between atoms: C5_5  and  C6_6 
REMARK    5  A    between atoms: C6_6  and  C7_7 
ROOT
HETATM    1  C1  UNL     1     -32.216   8.168   2.102  1.00 20.00     0.130 C 
HETATM    2  O9  UNL     1     -31.317   8.474   2.886  1.00 20.00    -0.298 OA
ENDROOT
BRANCH   1   3
HETATM    3  C4  UNL     1     -33.188   7.033   2.401  1.00 20.00     0.079 C 
BRANCH   3   4
HETATM    4  C5  UNL     1     -33.968   7.223   3.701  1.00 20.00     0.010 C 
BRANCH   4   5
HETATM    5  C6  UNL     1     -35.231   6.359   3.755  1.00 20.00     0.032 C 
BRANCH   5   6
HETATM    6  C7  UNL     1     -35.010   5.105   4.585  1.00 20.00     0.222 C 
HETATM    7  F10 UNL     1     -34.115   4.301   3.952  1.00 20.00    -0.255 F 
ENDBRANCH   5   6
ENDBRANCH   4   5
ENDBRANCH   3   4
ENDBRANCH   1   3
BRANCH   1   8
HETATM    8  C8  UNL     1     -32.382   8.868   0.754  1.00 20.00     0.047 C 
HETATM    9  C2  UNL     1     -31.096   8.756  -0.057  1.00 20.00     0.017 C 
HETATM   10  C3  UNL     1     -32.778  10.332   0.939  1.00 20.00     0.017 C 
ENDBRANCH   1   8
TORSDOF 5
ENDMDL
