MODEL 1
REMARK VINA RESULT:       0.5      0.000      0.000
REMARK  1 active torsions:
REMARK  status: ('A' for Active; 'I' for Inactive)
REMARK    1  A    between atoms: C6_6  and  C11_11 
ROOT
HETATM    1  C1  UNL     1     -32.823   5.734   0.981  1.00 20.00     0.002 C 
HETATM    2  C2  UNL     1     -34.215   5.993   1.555  1.00 20.00     0.010 C 
HETATM    3  C3  UNL     1     -31.709   6.499   1.704  1.00 20.00     0.009 C 
HETATM    4  C4  UNL     1     -35.327   6.222   3.883  1.00 20.00     0.016 A 
HETATM    5  C5  UNL     1     -33.383   7.777   3.150  1.00 20.00     0.018 C 
HETATM    6  C6  UNL     1     -34.056   5.458   4.128  1.00 20.00     0.005 A 
HETATM    7  C7  UNL     1     -34.130   6.462   2.985  1.00 20.00    -0.035 A 
HETATM    8  C8  UNL     1     -32.137   7.888   2.226  1.00 20.00    -0.047 C 
HETATM    9  C9  UNL     1     -30.967   8.497   3.025  1.00 20.00     0.015 C 
HETATM   10  C10 UNL     1     -32.433   8.831   1.043  1.00 20.00     0.015 C 
ENDROOT
BRANCH   6  11
HETATM   11  C11 UNL     1     -34.014   3.984   3.913  1.00 20.00     0.090 C 
HETATM   12 BR12 UNL     1     -32.827   3.138   5.210  1.00 20.00    -0.096 Br
ENDBRANCH   6  11
TORSDOF 1
ENDMDL
MODEL 2
REMARK VINA RESULT:       1.2      2.757      4.601
REMARK  1 active torsions:
REMARK  status: ('A' for Active; 'I' for Inactive)
REMARK    1  A    between atoms: C6_6  and  C11_11 
ROOT
HETATM    1  C1  UNL     1     -32.866   5.517   1.073  1.00 20.00     0.002 C 
HETATM    2  C2  UNL     1     -31.699   6.261   1.722  1.00 20.00     0.010 C 
HETATM    3  C3  UNL     1     -34.219   5.806   1.729  1.00 20.00     0.009 C 
HETATM    4  C4  UNL     1     -31.201   8.626   2.650  1.00 20.00     0.016 A 
HETATM    5  C5  UNL     1     -33.138   7.180   3.592  1.00 20.00     0.018 C 
HETATM    6  C6  UNL     1     -32.361   8.809   1.713  1.00 20.00     0.005 A 
HETATM    7  C7  UNL     1     -32.181   7.488   2.451  1.00 20.00    -0.035 A 
HETATM    8  C8  UNL     1     -34.141   6.040   3.254  1.00 20.00    -0.047 C 
HETATM    9  C9  UNL     1     -35.542   6.430   3.766  1.00 20.00     0.015 C 
HETATM   10  C10 UNL     1     -33.729   4.738   3.970  1.00 20.00     0.015 C 
ENDROOT
BRANCH   6  11
HETATM   11  C11 UNL     1     -32.127   8.959   0.249  1.00 20.00     0.090 C 
HETATM   12 BR12 UNL     1     -32.866  10.647  -0.392  1.00 20.00    -0.096 Br
ENDBRANCH   6  11
TORSDOF 1
ENDMDL
