MODEL 1
REMARK VINA RESULT:       0.4      0.000      0.000
REMARK  1 active torsions:
REMARK  status: ('A' for Active; 'I' for Inactive)
REMARK    1  A    between atoms: C6_6  and  C8_8 
ROOT
HETATM    1  C1  UNL     1     -35.383   6.468   3.872  1.00 20.00     0.011 C 
HETATM    2  C2  UNL     1     -34.099   7.235   3.554  1.00 20.00     0.011 C 
HETATM    3  C3  UNL     1     -33.317   6.446   1.199  1.00 20.00     0.017 A 
HETATM    4  C4  UNL     1     -35.131   5.168   4.623  1.00 20.00     0.074 C 
HETATM    5  C5  UNL     1     -32.691   5.131   3.354  1.00 20.00     0.083 C 
HETATM    6  C6  UNL     1     -32.127   7.120   1.824  1.00 20.00     0.009 A 
HETATM    7  C7  UNL     1     -33.149   6.413   2.706  1.00 20.00    -0.027 A 
HETATM    8  S9  UNL     1     -34.096   4.030   3.656  1.00 20.00    -0.168 SA
ENDROOT
BRANCH   6   9
HETATM    9  C8  UNL     1     -31.986   8.603   1.767  1.00 20.00     0.120 C 
HETATM   10 CL10 UNL     1     -32.297   9.220   0.122  1.00 20.00    -0.130 Cl
ENDBRANCH   6   9
TORSDOF 1
ENDMDL
MODEL 2
REMARK VINA RESULT:       0.6      2.951      4.388
REMARK  1 active torsions:
REMARK  status: ('A' for Active; 'I' for Inactive)
REMARK    1  A    between atoms: C6_6  and  C8_8 
ROOT
HETATM    1  C1  UNL     1     -32.719   6.282   1.116  1.00 20.00     0.011 C 
HETATM    2  C2  UNL     1     -33.182   5.598   2.403  1.00 20.00     0.011 C 
HETATM    3  C3  UNL     1     -35.321   6.853   3.192  1.00 20.00     0.017 A 
HETATM    4  C4  UNL     1     -31.716   7.401   1.362  1.00 20.00     0.074 C 
HETATM    5  C5  UNL     1     -32.940   7.701   3.807  1.00 20.00     0.083 C 
HETATM    6  C6  UNL     1     -34.843   6.067   4.382  1.00 20.00     0.009 A 
HETATM    7  C7  UNL     1     -33.839   6.577   3.355  1.00 20.00    -0.027 A 
HETATM    8  S9  UNL     1     -32.426   8.715   2.398  1.00 20.00    -0.168 SA
ENDROOT
BRANCH   6   9
HETATM    9  C8  UNL     1     -35.201   4.628   4.526  1.00 20.00     0.120 C 
HETATM   10 CL10 UNL     1     -33.744   3.615   4.719  1.00 20.00    -0.130 Cl
ENDBRANCH   6   9
TORSDOF 1
ENDMDL
MODEL 3
REMARK VINA RESULT:       1.2      1.305      2.229
REMARK  1 active torsions:
REMARK  status: ('A' for Active; 'I' for Inactive)
REMARK    1  A    between atoms: C6_6  and  C8_8 
ROOT
HETATM    1  C1  UNL     1     -32.841   4.995   2.613  1.00 20.00     0.011 C 
HETATM    2  C2  UNL     1     -32.836   6.192   1.662  1.00 20.00     0.011 C 
HETATM    3  C3  UNL     1     -31.856   8.204   2.991  1.00 20.00     0.017 A 
HETATM    4  C4  UNL     1     -34.147   4.851   3.383  1.00 20.00     0.074 C 
HETATM    5  C5  UNL     1     -34.378   7.580   3.128  1.00 20.00     0.083 C 
HETATM    6  C6  UNL     1     -32.546   8.799   1.794  1.00 20.00     0.009 A 
HETATM    7  C7  UNL     1     -33.060   7.497   2.399  1.00 20.00    -0.027 A 
HETATM    8  S9  UNL     1     -34.476   6.310   4.415  1.00 20.00    -0.168 SA
ENDROOT
BRANCH   6   9
HETATM    9  C8  UNL     1     -31.847   8.867   0.480  1.00 20.00     0.120 C 
HETATM   10 CL10 UNL     1     -32.683   9.975  -0.642  1.00 20.00    -0.130 Cl
ENDBRANCH   6   9
TORSDOF 1
ENDMDL
MODEL 4
REMARK VINA RESULT:       2.4      2.482      3.060
REMARK  1 active torsions:
REMARK  status: ('A' for Active; 'I' for Inactive)
REMARK    1  A    between atoms: C6_6  and  C8_8 
ROOT
HETATM    1  C1  UNL     1     -33.100   8.151   2.768  1.00 20.00     0.011 C 
HETATM    2  C2  UNL     1     -32.217   6.998   2.290  1.00 20.00     0.011 C 
HETATM    3  C3  UNL     1     -33.667   5.562   0.673  1.00 20.00     0.017 A 
HETATM    4  C4  UNL     1     -33.848   7.836   4.057  1.00 20.00     0.074 C 
HETATM    5  C5  UNL     1     -33.743   5.208   3.249  1.00 20.00     0.083 C 
HETATM    6  C6  UNL     1     -32.498   4.697   1.056  1.00 20.00     0.009 A 
HETATM    7  C7  UNL     1     -33.024   5.741   2.035  1.00 20.00    -0.027 A 
HETATM    8  S9  UNL     1     -34.956   6.410   3.851  1.00 20.00    -0.168 SA
ENDROOT
BRANCH   6   9
HETATM    9  C8  UNL     1     -31.196   4.831   0.343  1.00 20.00     0.120 C 
HETATM   10 CL10 UNL     1     -30.825   3.366  -0.606  1.00 20.00    -0.130 Cl
ENDBRANCH   6   9
TORSDOF 1
ENDMDL
MODEL 5
REMARK VINA RESULT:       2.7      3.176      4.668
REMARK  1 active torsions:
REMARK  status: ('A' for Active; 'I' for Inactive)
REMARK    1  A    between atoms: C6_6  and  C8_8 
ROOT
HETATM    1  C1  UNL     1     -32.838  10.552   0.919  1.00 20.00     0.011 C 
HETATM    2  C2  UNL     1     -33.554   9.462   1.717  1.00 20.00     0.011 C 
HETATM    3  C3  UNL     1     -31.801   8.456   3.357  1.00 20.00     0.017 A 
HETATM    4  C4  UNL     1     -32.230  10.038  -0.379  1.00 20.00     0.074 C 
HETATM    5  C5  UNL     1     -32.011   7.615   0.904  1.00 20.00     0.083 C 
HETATM    6  C6  UNL     1     -32.930   7.464   3.303  1.00 20.00     0.009 A 
HETATM    7  C7  UNL     1     -32.619   8.329   2.087  1.00 20.00    -0.027 A 
HETATM    8  S9  UNL     1     -30.988   8.749  -0.068  1.00 20.00    -0.168 SA
ENDROOT
BRANCH   6   9
HETATM    9  C8  UNL     1     -34.141   7.656   4.150  1.00 20.00     0.120 C 
HETATM   10 CL10 UNL     1     -35.278   6.292   3.972  1.00 20.00    -0.130 Cl
ENDBRANCH   6   9
TORSDOF 1
ENDMDL
MODEL 6
REMARK VINA RESULT:       2.8      2.478      3.204
REMARK  1 active torsions:
REMARK  status: ('A' for Active; 'I' for Inactive)
REMARK    1  A    between atoms: C6_6  and  C8_8 
ROOT
HETATM    1  C1  UNL     1     -34.184   6.521   3.944  1.00 20.00     0.011 C 
HETATM    2  C2  UNL     1     -34.185   6.043   2.492  1.00 20.00     0.011 C 
HETATM    3  C3  UNL     1     -31.770   5.225   1.969  1.00 20.00     0.017 A 
HETATM    4  C4  UNL     1     -33.877   8.007   4.083  1.00 20.00     0.074 C 
HETATM    5  C5  UNL     1     -32.434   7.731   1.757  1.00 20.00     0.083 C 
HETATM    6  C6  UNL     1     -32.437   5.416   0.635  1.00 20.00     0.009 A 
HETATM    7  C7  UNL     1     -32.847   6.282   1.821  1.00 20.00    -0.027 A 
HETATM    8  S9  UNL     1     -32.233   8.411   3.423  1.00 20.00    -0.168 SA
ENDROOT
BRANCH   6   9
HETATM    9  C8  UNL     1     -33.306   4.346   0.068  1.00 20.00     0.120 C 
HETATM   10 CL10 UNL     1     -34.697   5.039  -0.809  1.00 20.00    -0.130 Cl
ENDBRANCH   6   9
TORSDOF 1
ENDMDL
MODEL 7
REMARK VINA RESULT:       3.3      2.726      3.317
REMARK  1 active torsions:
REMARK  status: ('A' for Active; 'I' for Inactive)
REMARK    1  A    between atoms: C6_6  and  C8_8 
ROOT
HETATM    1  C1  UNL     1     -34.312   6.088   3.734  1.00 20.00     0.011 C 
HETATM    2  C2  UNL     1     -33.982   5.703   2.292  1.00 20.00     0.011 C 
HETATM    3  C3  UNL     1     -31.404   5.363   2.175  1.00 20.00     0.017 A 
HETATM    4  C4  UNL     1     -34.314   7.594   3.964  1.00 20.00     0.074 C 
HETATM    5  C5  UNL     1     -32.480   7.717   1.918  1.00 20.00     0.083 C 
HETATM    6  C6  UNL     1     -31.865   5.508   0.750  1.00 20.00     0.009 A 
HETATM    7  C7  UNL     1     -32.620   6.216   1.870  1.00 20.00    -0.027 A 
HETATM    8  S9  UNL     1     -32.688   8.324   3.611  1.00 20.00    -0.168 SA
ENDROOT
BRANCH   6   9
HETATM    9  C8  UNL     1     -32.413   4.335   0.013  1.00 20.00     0.120 C 
HETATM   10 CL10 UNL     1     -31.108   3.365  -0.721  1.00 20.00    -0.130 Cl
ENDBRANCH   6   9
TORSDOF 1
ENDMDL
