MODEL 1
REMARK VINA RESULT:       1.4      0.000      0.000
REMARK  2 active torsions:
REMARK  status: ('A' for Active; 'I' for Inactive)
REMARK    1  A    between atoms: C5_5  and  C8_8 
REMARK    2  A    between atoms: C9_9  and  C10_10 
ROOT
HETATM    1  C1  UNL     1     -33.758   7.095   3.203  1.00 20.00     0.009 A 
HETATM    2  C2  UNL     1     -32.644   5.794   1.499  1.00 20.00     0.009 A 
HETATM    3  C3  UNL     1     -33.327   8.271   2.587  1.00 20.00     0.019 A 
HETATM    4  C4  UNL     1     -32.214   6.969   0.882  1.00 20.00     0.019 A 
HETATM    5  C5  UNL     1     -33.416   5.857   2.659  1.00 20.00    -0.053 A 
HETATM    6  C6  UNL     1     -32.554   8.207   1.427  1.00 20.00     0.011 A 
HETATM    7 BR12 UNL     1     -31.971   9.799   0.592  1.00 20.00    -0.051 Br
ENDROOT
BRANCH   5   8
HETATM    8  C8  UNL     1     -33.882   4.584   3.327  1.00 20.00     0.024 A 
HETATM    9  C7  UNL     1     -34.928   4.637   4.420  1.00 20.00     0.016 A 
HETATM   10  C9  UNL     1     -33.506   4.306   4.767  1.00 20.00     0.008 A 
BRANCH  10  11
HETATM   11  C10 UNL     1     -33.140   2.925   5.190  1.00 20.00     0.119 C 
HETATM   12 CL11 UNL     1     -32.241   2.938   6.733  1.00 20.00    -0.130 Cl
ENDBRANCH  10  11
ENDBRANCH   5   8
TORSDOF 2
ENDMDL
MODEL 2
REMARK VINA RESULT:       1.4      0.034      1.395
REMARK  2 active torsions:
REMARK  status: ('A' for Active; 'I' for Inactive)
REMARK    1  A    between atoms: C5_5  and  C8_8 
REMARK    2  A    between atoms: C9_9  and  C10_10 
ROOT
HETATM    1  C1  UNL     1     -32.670   5.820   1.491  1.00 20.00     0.009 A 
HETATM    2  C2  UNL     1     -33.771   7.122   3.203  1.00 20.00     0.009 A 
HETATM    3  C3  UNL     1     -32.234   6.996   0.878  1.00 20.00     0.019 A 
HETATM    4  C4  UNL     1     -33.336   8.297   2.590  1.00 20.00     0.019 A 
HETATM    5  C5  UNL     1     -33.438   5.884   2.654  1.00 20.00    -0.053 A 
HETATM    6  C6  UNL     1     -32.568   8.234   1.427  1.00 20.00     0.011 A 
HETATM    7 BR12 UNL     1     -31.978   9.826   0.597  1.00 20.00    -0.051 Br
ENDROOT
BRANCH   5   8
HETATM    8  C8  UNL     1     -33.909   4.611   3.317  1.00 20.00     0.024 A 
HETATM    9  C7  UNL     1     -34.941   4.666   4.424  1.00 20.00     0.016 A 
HETATM   10  C9  UNL     1     -33.519   4.317   4.751  1.00 20.00     0.008 A 
BRANCH  10  11
HETATM   11  C10 UNL     1     -33.162   2.929   5.158  1.00 20.00     0.119 C 
HETATM   12 CL11 UNL     1     -32.250   2.919   6.693  1.00 20.00    -0.130 Cl
ENDBRANCH  10  11
ENDBRANCH   5   8
TORSDOF 2
ENDMDL
MODEL 3
REMARK VINA RESULT:       1.7      4.039      5.887
REMARK  2 active torsions:
REMARK  status: ('A' for Active; 'I' for Inactive)
REMARK    1  A    between atoms: C5_5  and  C8_8 
REMARK    2  A    between atoms: C9_9  and  C10_10 
ROOT
HETATM    1  C1  UNL     1     -32.297   5.649   1.543  1.00 20.00     0.009 A 
HETATM    2  C2  UNL     1     -33.813   6.991   2.861  1.00 20.00     0.009 A 
HETATM    3  C3  UNL     1     -32.506   4.569   2.403  1.00 20.00     0.019 A 
HETATM    4  C4  UNL     1     -34.023   5.913   3.720  1.00 20.00     0.019 A 
HETATM    5  C5  UNL     1     -32.951   6.859   1.773  1.00 20.00    -0.053 A 
HETATM    6  C6  UNL     1     -33.368   4.702   3.491  1.00 20.00     0.011 A 
HETATM    7 BR12 UNL     1     -33.651   3.240   4.655  1.00 20.00    -0.051 Br
ENDROOT
BRANCH   5   8
HETATM    8  C8  UNL     1     -32.724   8.028   0.842  1.00 20.00     0.024 A 
HETATM    9  C7  UNL     1     -31.317   8.486   0.523  1.00 20.00     0.016 A 
HETATM   10  C9  UNL     1     -32.197   9.338   1.389  1.00 20.00     0.008 A 
BRANCH  10  11
HETATM   11  C10 UNL     1     -32.729  10.631   0.875  1.00 20.00     0.119 C 
HETATM   12 CL11 UNL     1     -32.995  10.565  -0.890  1.00 20.00    -0.130 Cl
ENDBRANCH  10  11
ENDBRANCH   5   8
TORSDOF 2
ENDMDL
MODEL 4
REMARK VINA RESULT:       1.7      4.037      5.718
REMARK  2 active torsions:
REMARK  status: ('A' for Active; 'I' for Inactive)
REMARK    1  A    between atoms: C5_5  and  C8_8 
REMARK    2  A    between atoms: C9_9  and  C10_10 
ROOT
HETATM    1  C1  UNL     1     -33.806   6.965   2.873  1.00 20.00     0.009 A 
HETATM    2  C2  UNL     1     -32.290   5.628   1.551  1.00 20.00     0.009 A 
HETATM    3  C3  UNL     1     -34.012   5.883   3.730  1.00 20.00     0.019 A 
HETATM    4  C4  UNL     1     -32.495   4.546   2.407  1.00 20.00     0.019 A 
HETATM    5  C5  UNL     1     -32.945   6.836   1.783  1.00 20.00    -0.053 A 
HETATM    6  C6  UNL     1     -33.357   4.674   3.497  1.00 20.00     0.011 A 
HETATM    7 BR12 UNL     1     -33.636   3.209   4.657  1.00 20.00    -0.051 Br
ENDROOT
BRANCH   5   8
HETATM    8  C8  UNL     1     -32.723   8.008   0.855  1.00 20.00     0.024 A 
HETATM    9  C7  UNL     1     -31.317   8.470   0.535  1.00 20.00     0.016 A 
HETATM   10  C9  UNL     1     -32.198   9.318   1.404  1.00 20.00     0.008 A 
BRANCH  10  11
HETATM   11  C10 UNL     1     -32.735  10.611   0.893  1.00 20.00     0.119 C 
HETATM   12 CL11 UNL     1     -32.985  10.554  -0.874  1.00 20.00    -0.130 Cl
ENDBRANCH  10  11
ENDBRANCH   5   8
TORSDOF 2
ENDMDL
MODEL 5
REMARK VINA RESULT:       2.1      3.946      6.021
REMARK  2 active torsions:
REMARK  status: ('A' for Active; 'I' for Inactive)
REMARK    1  A    between atoms: C5_5  and  C8_8 
REMARK    2  A    between atoms: C9_9  and  C10_10 
ROOT
HETATM    1  C1  UNL     1     -32.310   6.634   1.449  1.00 20.00     0.009 A 
HETATM    2  C2  UNL     1     -33.361   8.064   3.088  1.00 20.00     0.009 A 
HETATM    3  C3  UNL     1     -32.804   5.511   2.112  1.00 20.00     0.019 A 
HETATM    4  C4  UNL     1     -33.855   6.942   3.752  1.00 20.00     0.019 A 
HETATM    5  C5  UNL     1     -32.589   7.911   1.937  1.00 20.00    -0.053 A 
HETATM    6  C6  UNL     1     -33.576   5.664   3.264  1.00 20.00     0.011 A 
HETATM    7 BR12 UNL     1     -34.245   4.143   4.163  1.00 20.00    -0.051 Br
ENDROOT
BRANCH   5   8
HETATM    8  C8  UNL     1     -32.053   9.127   1.218  1.00 20.00     0.024 A 
HETATM    9  C7  UNL     1     -32.745  10.466   1.366  1.00 20.00     0.016 A 
HETATM   10  C9  UNL     1     -32.830   9.726   0.064  1.00 20.00     0.008 A 
BRANCH  10  11
HETATM   11  C10 UNL     1     -32.110  10.236  -1.136  1.00 20.00     0.119 C 
HETATM   12 CL11 UNL     1     -31.317   8.907  -2.028  1.00 20.00    -0.130 Cl
ENDBRANCH  10  11
ENDBRANCH   5   8
TORSDOF 2
ENDMDL
MODEL 6
REMARK VINA RESULT:       2.4      4.012      5.813
REMARK  2 active torsions:
REMARK  status: ('A' for Active; 'I' for Inactive)
REMARK    1  A    between atoms: C5_5  and  C8_8 
REMARK    2  A    between atoms: C9_9  and  C10_10 
ROOT
HETATM    1  C1  UNL     1     -33.012   5.511   2.213  1.00 20.00     0.009 A 
HETATM    2  C2  UNL     1     -33.653   7.644   3.149  1.00 20.00     0.009 A 
HETATM    3  C3  UNL     1     -33.849   4.861   3.120  1.00 20.00     0.019 A 
HETATM    4  C4  UNL     1     -34.490   6.995   4.056  1.00 20.00     0.019 A 
HETATM    5  C5  UNL     1     -32.915   6.902   2.227  1.00 20.00    -0.053 A 
HETATM    6  C6  UNL     1     -34.587   5.603   4.043  1.00 20.00     0.011 A 
HETATM    7 BR12 UNL     1     -35.721   4.723   5.272  1.00 20.00    -0.051 Br
ENDROOT
BRANCH   5   8
HETATM    8  C8  UNL     1     -32.007   7.605   1.244  1.00 20.00     0.024 A 
HETATM    9  C7  UNL     1     -30.835   8.424   1.741  1.00 20.00     0.016 A 
HETATM   10  C9  UNL     1     -32.026   9.116   1.147  1.00 20.00     0.008 A 
BRANCH  10  11
HETATM   11  C10 UNL     1     -31.921   9.781  -0.182  1.00 20.00     0.119 C 
HETATM   12 CL11 UNL     1     -33.405  10.698  -0.565  1.00 20.00    -0.130 Cl
ENDBRANCH  10  11
ENDBRANCH   5   8
TORSDOF 2
ENDMDL
MODEL 7
REMARK VINA RESULT:       3.7      1.114      2.057
REMARK  2 active torsions:
REMARK  status: ('A' for Active; 'I' for Inactive)
REMARK    1  A    between atoms: C5_5  and  C8_8 
REMARK    2  A    between atoms: C9_9  and  C10_10 
ROOT
HETATM    1  C1  UNL     1     -31.964   6.819   1.118  1.00 20.00     0.009 A 
HETATM    2  C2  UNL     1     -33.268   7.852   2.869  1.00 20.00     0.009 A 
HETATM    3  C3  UNL     1     -31.873   8.046   0.461  1.00 20.00     0.019 A 
HETATM    4  C4  UNL     1     -33.178   9.080   2.213  1.00 20.00     0.019 A 
HETATM    5  C5  UNL     1     -32.661   6.722   2.322  1.00 20.00    -0.053 A 
HETATM    6  C6  UNL     1     -32.481   9.177   1.008  1.00 20.00     0.011 A 
HETATM    7 BR12 UNL     1     -32.358  10.840   0.119  1.00 20.00    -0.051 Br
ENDROOT
BRANCH   5   8
HETATM    8  C8  UNL     1     -32.760   5.392   3.033  1.00 20.00     0.024 A 
HETATM    9  C7  UNL     1     -33.337   4.188   2.319  1.00 20.00     0.016 A 
HETATM   10  C9  UNL     1     -34.116   4.842   3.422  1.00 20.00     0.008 A 
BRANCH  10  11
HETATM   11  C10 UNL     1     -34.294   4.148   4.728  1.00 20.00     0.119 C 
HETATM   12 CL11 UNL     1     -33.127   2.810   4.914  1.00 20.00    -0.130 Cl
ENDBRANCH  10  11
ENDBRANCH   5   8
TORSDOF 2
ENDMDL
MODEL 8
REMARK VINA RESULT:       3.7      1.113      1.512
REMARK  2 active torsions:
REMARK  status: ('A' for Active; 'I' for Inactive)
REMARK    1  A    between atoms: C5_5  and  C8_8 
REMARK    2  A    between atoms: C9_9  and  C10_10 
ROOT
HETATM    1  C1  UNL     1     -33.313   7.841   2.860  1.00 20.00     0.009 A 
HETATM    2  C2  UNL     1     -31.940   6.834   1.146  1.00 20.00     0.009 A 
HETATM    3  C3  UNL     1     -33.224   9.071   2.208  1.00 20.00     0.019 A 
HETATM    4  C4  UNL     1     -31.851   8.064   0.494  1.00 20.00     0.019 A 
HETATM    5  C5  UNL     1     -32.670   6.723   2.328  1.00 20.00    -0.053 A 
HETATM    6  C6  UNL     1     -32.493   9.183   1.025  1.00 20.00     0.011 A 
HETATM    7 BR12 UNL     1     -32.373  10.849   0.142  1.00 20.00    -0.051 Br
ENDROOT
BRANCH   5   8
HETATM    8  C8  UNL     1     -32.766   5.390   3.035  1.00 20.00     0.024 A 
HETATM    9  C7  UNL     1     -33.356   4.191   2.323  1.00 20.00     0.016 A 
HETATM   10  C9  UNL     1     -34.120   4.843   3.437  1.00 20.00     0.008 A 
BRANCH  10  11
HETATM   11  C10 UNL     1     -34.286   4.145   4.743  1.00 20.00     0.119 C 
HETATM   12 CL11 UNL     1     -33.122   2.801   4.910  1.00 20.00    -0.130 Cl
ENDBRANCH  10  11
ENDBRANCH   5   8
TORSDOF 2
ENDMDL
