MODEL 1
REMARK VINA RESULT:      -0.3      0.000      0.000
REMARK  1 active torsions:
REMARK  status: ('A' for Active; 'I' for Inactive)
REMARK    1  A    between atoms: C5_5  and  C10_10 
ROOT
HETATM    1  C1  UNL     1     -34.631   6.368   3.655  1.00 20.00     0.002 C 
HETATM    2  C2  UNL     1     -33.739   7.602   3.716  1.00 20.00     0.011 C 
HETATM    3  C3  UNL     1     -33.730   5.316   3.027  1.00 20.00     0.010 C 
HETATM    4  C4  UNL     1     -31.396   8.083   2.725  1.00 20.00     0.017 A 
HETATM    5  C5  UNL     1     -32.371   8.738   1.795  1.00 20.00     0.005 A 
HETATM    6  C6  UNL     1     -32.776   7.467   2.544  1.00 20.00    -0.029 A 
HETATM    7  C7  UNL     1     -32.974   6.079   1.904  1.00 20.00    -0.040 C 
HETATM    8  C8  UNL     1     -31.684   5.321   1.577  1.00 20.00     0.015 C 
HETATM    9  C9  UNL     1     -33.866   6.144   0.652  1.00 20.00     0.015 C 
ENDROOT
BRANCH   5  10
HETATM   10  C10 UNL     1     -32.037   8.820   0.347  1.00 20.00     0.090 C 
HETATM   11 BR11 UNL     1     -32.780  10.447  -0.435  1.00 20.00    -0.096 Br
ENDBRANCH   5  10
TORSDOF 1
ENDMDL
MODEL 2
REMARK VINA RESULT:      -0.1      2.884      4.225
REMARK  1 active torsions:
REMARK  status: ('A' for Active; 'I' for Inactive)
REMARK    1  A    between atoms: C5_5  and  C10_10 
ROOT
HETATM    1  C1  UNL     1     -31.911   8.292   2.922  1.00 20.00     0.002 C 
HETATM    2  C2  UNL     1     -33.046   7.865   3.845  1.00 20.00     0.011 C 
HETATM    3  C3  UNL     1     -32.381   7.830   1.551  1.00 20.00     0.010 C 
HETATM    4  C4  UNL     1     -35.140   6.400   3.432  1.00 20.00     0.017 A 
HETATM    5  C5  UNL     1     -34.148   5.505   4.110  1.00 20.00     0.005 A 
HETATM    6  C6  UNL     1     -33.654   6.628   3.196  1.00 20.00    -0.029 A 
HETATM    7  C7  UNL     1     -33.007   6.432   1.812  1.00 20.00    -0.040 C 
HETATM    8  C8  UNL     1     -33.981   6.110   0.675  1.00 20.00     0.015 C 
HETATM    9  C9  UNL     1     -31.885   5.378   1.845  1.00 20.00     0.015 C 
ENDROOT
BRANCH   5  10
HETATM   10  C10 UNL     1     -34.145   4.055   3.778  1.00 20.00     0.090 C 
HETATM   11 BR11 UNL     1     -32.982   3.075   5.002  1.00 20.00    -0.096 Br
ENDBRANCH   5  10
TORSDOF 1
ENDMDL
MODEL 3
REMARK VINA RESULT:       0.3      1.141      2.822
REMARK  1 active torsions:
REMARK  status: ('A' for Active; 'I' for Inactive)
REMARK    1  A    between atoms: C5_5  and  C10_10 
ROOT
HETATM    1  C1  UNL     1     -33.875   4.284   4.377  1.00 20.00     0.002 C 
HETATM    2  C2  UNL     1     -33.141   4.511   3.060  1.00 20.00     0.011 C 
HETATM    3  C3  UNL     1     -35.076   5.212   4.273  1.00 20.00     0.010 C 
HETATM    4  C4  UNL     1     -33.491   6.248   1.173  1.00 20.00     0.017 A 
HETATM    5  C5  UNL     1     -32.345   6.763   1.989  1.00 20.00     0.005 A 
HETATM    6  C6  UNL     1     -33.450   5.950   2.665  1.00 20.00    -0.029 A 
HETATM    7  C7  UNL     1     -34.503   6.511   3.640  1.00 20.00    -0.040 C 
HETATM    8  C8  UNL     1     -35.651   7.286   2.987  1.00 20.00     0.015 C 
HETATM    9  C9  UNL     1     -33.864   7.369   4.746  1.00 20.00     0.015 C 
ENDROOT
BRANCH   5  10
HETATM   10  C10 UNL     1     -32.155   8.234   2.113  1.00 20.00     0.090 C 
HETATM   11 BR11 UNL     1     -32.300   9.092   0.365  1.00 20.00    -0.096 Br
ENDBRANCH   5  10
TORSDOF 1
ENDMDL
