MODEL 1
REMARK VINA RESULT:      -1.9      0.000      0.000
REMARK  3 active torsions:
REMARK  status: ('A' for Active; 'I' for Inactive)
REMARK    1  A    between atoms: C4_4  and  C6_6 
REMARK    2  A    between atoms: C5_5  and  C8_8 
REMARK    3  A    between atoms: C6_6  and  C9_9 
ROOT
HETATM    1  C3  UNL     1     -35.228   6.324   3.716  1.00 20.00     0.017 A 
HETATM    2  C5  UNL     1     -34.167   5.406   4.253  1.00 20.00     0.009 A 
HETATM    3  C6  UNL     1     -33.776   6.551   3.328  1.00 20.00    -0.032 A 
ENDROOT
BRANCH   3   4
HETATM    4  C4  UNL     1     -33.317   6.310   1.883  1.00 20.00    -0.006 A 
HETATM    5  C1  UNL     1     -32.137   7.018   1.278  1.00 20.00     0.006 A 
HETATM    6  C2  UNL     1     -32.068   5.542   1.547  1.00 20.00     0.006 A 
ENDBRANCH   3   4
BRANCH   3   7
HETATM    7  C9  UNL     1     -33.079   7.718   3.986  1.00 20.00     0.006 C 
HETATM    8  C7  UNL     1     -33.877   8.293   5.118  1.00 20.00     0.006 C 
ENDBRANCH   3   7
BRANCH   2   9
HETATM    9  C8  UNL     1     -34.117   3.982   3.815  1.00 20.00     0.120 C 
HETATM   10 CL10 UNL     1     -33.096   3.006   4.906  1.00 20.00    -0.130 Cl
ENDBRANCH   2   9
TORSDOF 3
ENDMDL
MODEL 2
REMARK VINA RESULT:      -1.5      3.166      4.200
REMARK  3 active torsions:
REMARK  status: ('A' for Active; 'I' for Inactive)
REMARK    1  A    between atoms: C4_4  and  C6_6 
REMARK    2  A    between atoms: C5_5  and  C8_8 
REMARK    3  A    between atoms: C6_6  and  C9_9 
ROOT
HETATM    1  C3  UNL     1     -31.370   8.087   2.559  1.00 20.00     0.017 A 
HETATM    2  C5  UNL     1     -32.415   8.843   1.790  1.00 20.00     0.009 A 
HETATM    3  C6  UNL     1     -32.787   7.542   2.488  1.00 20.00    -0.032 A 
ENDROOT
BRANCH   3   4
HETATM    4  C4  UNL     1     -33.080   6.254   1.706  1.00 20.00    -0.006 A 
HETATM    5  C1  UNL     1     -32.007   5.469   1.004  1.00 20.00     0.006 A 
HETATM    6  C2  UNL     1     -32.692   4.892   2.211  1.00 20.00     0.006 A 
ENDBRANCH   3   4
BRANCH   3   7
HETATM    7  C9  UNL     1     -33.624   7.682   3.737  1.00 20.00     0.006 C 
HETATM    8  C7  UNL     1     -34.796   6.745   3.745  1.00 20.00     0.006 C 
ENDBRANCH   3   7
BRANCH   2   9
HETATM    9  C8  UNL     1     -32.325   8.948   0.306  1.00 20.00     0.120 C 
HETATM   10 CL10 UNL     1     -32.815  10.569  -0.259  1.00 20.00    -0.130 Cl
ENDBRANCH   2   9
TORSDOF 3
ENDMDL
MODEL 3
REMARK VINA RESULT:      -0.9      2.502      4.102
REMARK  3 active torsions:
REMARK  status: ('A' for Active; 'I' for Inactive)
REMARK    1  A    between atoms: C4_4  and  C6_6 
REMARK    2  A    between atoms: C5_5  and  C8_8 
REMARK    3  A    between atoms: C6_6  and  C9_9 
ROOT
HETATM    1  C3  UNL     1     -33.572   6.191   1.183  1.00 20.00     0.017 A 
HETATM    2  C5  UNL     1     -32.207   6.441   1.758  1.00 20.00     0.009 A 
HETATM    3  C6  UNL     1     -33.260   5.730   2.597  1.00 20.00    -0.032 A 
ENDROOT
BRANCH   3   4
HETATM    4  C4  UNL     1     -33.938   6.407   3.797  1.00 20.00    -0.006 A 
HETATM    5  C1  UNL     1     -34.684   7.707   3.679  1.00 20.00     0.006 A 
HETATM    6  C2  UNL     1     -35.431   6.437   3.974  1.00 20.00     0.006 A 
ENDBRANCH   3   4
BRANCH   3   7
HETATM    7  C9  UNL     1     -33.055   4.247   2.791  1.00 20.00     0.006 C 
HETATM    8  C7  UNL     1     -33.636   3.756   4.084  1.00 20.00     0.006 C 
ENDBRANCH   3   7
BRANCH   2   9
HETATM    9  C8  UNL     1     -31.762   7.832   2.057  1.00 20.00     0.120 C 
HETATM   10 CL10 UNL     1     -32.321   8.973   0.803  1.00 20.00    -0.130 Cl
ENDBRANCH   2   9
TORSDOF 3
ENDMDL
MODEL 4
REMARK VINA RESULT:      -0.7      2.239      3.731
REMARK  3 active torsions:
REMARK  status: ('A' for Active; 'I' for Inactive)
REMARK    1  A    between atoms: C4_4  and  C6_6 
REMARK    2  A    between atoms: C5_5  and  C8_8 
REMARK    3  A    between atoms: C6_6  and  C9_9 
ROOT
HETATM    1  C3  UNL     1     -31.760   8.458   3.319  1.00 20.00     0.017 A 
HETATM    2  C5  UNL     1     -32.899   7.480   3.274  1.00 20.00     0.009 A 
HETATM    3  C6  UNL     1     -32.264   7.958   1.975  1.00 20.00    -0.032 A 
ENDROOT
BRANCH   3   4
HETATM    4  C4  UNL     1     -32.988   8.915   1.018  1.00 20.00    -0.006 A 
HETATM    5  C1  UNL     1     -32.725  10.395   0.997  1.00 20.00     0.006 A 
HETATM    6  C2  UNL     1     -32.311   9.542  -0.169  1.00 20.00     0.006 A 
ENDBRANCH   3   4
BRANCH   3   7
HETATM    7  C9  UNL     1     -31.392   6.953   1.261  1.00 20.00     0.006 C 
HETATM    8  C7  UNL     1     -32.079   5.633   1.077  1.00 20.00     0.006 C 
ENDBRANCH   3   7
BRANCH   2   9
HETATM    9  C8  UNL     1     -34.267   7.904   3.689  1.00 20.00     0.120 C 
HETATM   10 CL10 UNL     1     -35.333   6.494   3.938  1.00 20.00    -0.130 Cl
ENDBRANCH   2   9
TORSDOF 3
ENDMDL
MODEL 5
REMARK VINA RESULT:      -0.5      2.160      3.652
REMARK  3 active torsions:
REMARK  status: ('A' for Active; 'I' for Inactive)
REMARK    1  A    between atoms: C4_4  and  C6_6 
REMARK    2  A    between atoms: C5_5  and  C8_8 
REMARK    3  A    between atoms: C6_6  and  C9_9 
ROOT
HETATM    1  C3  UNL     1     -32.180   5.321   2.005  1.00 20.00     0.017 A 
HETATM    2  C5  UNL     1     -32.795   5.778   0.713  1.00 20.00     0.009 A 
HETATM    3  C6  UNL     1     -32.744   6.729   1.901  1.00 20.00    -0.032 A 
ENDROOT
BRANCH   3   4
HETATM    4  C4  UNL     1     -34.004   7.115   2.689  1.00 20.00    -0.006 A 
HETATM    5  C1  UNL     1     -34.564   6.262   3.792  1.00 20.00     0.006 A 
HETATM    6  C2  UNL     1     -33.954   7.597   4.112  1.00 20.00     0.006 A 
ENDBRANCH   3   4
BRANCH   3   7
HETATM    7  C9  UNL     1     -31.738   7.851   1.802  1.00 20.00     0.006 C 
HETATM    8  C7  UNL     1     -32.261   9.015   1.014  1.00 20.00     0.006 C 
ENDBRANCH   3   7
BRANCH   2   9
HETATM    9  C8  UNL     1     -34.072   5.174   0.236  1.00 20.00     0.120 C 
HETATM   10 CL10 UNL     1     -33.771   3.707  -0.736  1.00 20.00    -0.130 Cl
ENDBRANCH   2   9
TORSDOF 3
ENDMDL
MODEL 6
REMARK VINA RESULT:      -0.4      2.918      4.669
REMARK  3 active torsions:
REMARK  status: ('A' for Active; 'I' for Inactive)
REMARK    1  A    between atoms: C4_4  and  C6_6 
REMARK    2  A    between atoms: C5_5  and  C8_8 
REMARK    3  A    between atoms: C6_6  and  C9_9 
ROOT
HETATM    1  C3  UNL     1     -33.030   7.188   0.537  1.00 20.00     0.017 A 
HETATM    2  C5  UNL     1     -31.998   7.759   1.468  1.00 20.00     0.009 A 
HETATM    3  C6  UNL     1     -33.052   6.801   2.007  1.00 20.00    -0.032 A 
ENDROOT
BRANCH   3   4
HETATM    4  C4  UNL     1     -34.197   7.277   2.912  1.00 20.00    -0.006 A 
HETATM    5  C1  UNL     1     -34.855   6.383   3.926  1.00 20.00     0.006 A 
HETATM    6  C2  UNL     1     -34.012   7.542   4.381  1.00 20.00     0.006 A 
ENDBRANCH   3   4
BRANCH   3   7
HETATM    7  C9  UNL     1     -32.568   5.411   2.343  1.00 20.00     0.006 C 
HETATM    8  C7  UNL     1     -32.093   4.665   1.132  1.00 20.00     0.006 C 
ENDBRANCH   3   7
BRANCH   2   9
HETATM    9  C8  UNL     1     -32.006   9.213   1.796  1.00 20.00     0.120 C 
HETATM   10 CL10 UNL     1     -32.543  10.188   0.401  1.00 20.00    -0.130 Cl
ENDBRANCH   2   9
TORSDOF 3
ENDMDL
MODEL 7
REMARK VINA RESULT:      -0.3      2.001      3.367
REMARK  3 active torsions:
REMARK  status: ('A' for Active; 'I' for Inactive)
REMARK    1  A    between atoms: C4_4  and  C6_6 
REMARK    2  A    between atoms: C5_5  and  C8_8 
REMARK    3  A    between atoms: C6_6  and  C9_9 
ROOT
HETATM    1  C3  UNL     1     -33.062   5.560   3.432  1.00 20.00     0.017 A 
HETATM    2  C5  UNL     1     -34.282   6.356   3.068  1.00 20.00     0.009 A 
HETATM    3  C6  UNL     1     -33.049   6.418   2.177  1.00 20.00    -0.032 A 
ENDROOT
BRANCH   3   4
HETATM    4  C4  UNL     1     -32.159   7.666   2.105  1.00 20.00    -0.006 A 
HETATM    5  C1  UNL     1     -31.408   8.056   0.862  1.00 20.00     0.006 A 
HETATM    6  C2  UNL     1     -32.554   8.901   1.343  1.00 20.00     0.006 A 
ENDBRANCH   3   4
BRANCH   3   7
HETATM    7  C9  UNL     1     -33.152   5.685   0.861  1.00 20.00     0.006 C 
HETATM    8  C7  UNL     1     -32.052   4.682   0.680  1.00 20.00     0.006 C 
ENDBRANCH   3   7
BRANCH   2   9
HETATM    9  C8  UNL     1     -34.706   7.508   3.915  1.00 20.00     0.120 C 
HETATM   10 CL10 UNL     1     -33.444   7.936   5.103  1.00 20.00    -0.130 Cl
ENDBRANCH   2   9
TORSDOF 3
ENDMDL
MODEL 8
REMARK VINA RESULT:      -0.2      2.113      3.760
REMARK  3 active torsions:
REMARK  status: ('A' for Active; 'I' for Inactive)
REMARK    1  A    between atoms: C4_4  and  C6_6 
REMARK    2  A    between atoms: C5_5  and  C8_8 
REMARK    3  A    between atoms: C6_6  and  C9_9 
ROOT
HETATM    1  C3  UNL     1     -31.161   7.445   1.738  1.00 20.00     0.017 A 
HETATM    2  C5  UNL     1     -32.302   6.753   1.049  1.00 20.00     0.009 A 
HETATM    3  C6  UNL     1     -32.588   7.778   2.138  1.00 20.00    -0.032 A 
ENDROOT
BRANCH   3   4
HETATM    4  C4  UNL     1     -33.117   7.371   3.521  1.00 20.00    -0.006 A 
HETATM    5  C1  UNL     1     -34.203   8.130   4.230  1.00 20.00     0.006 A 
HETATM    6  C2  UNL     1     -34.468   6.742   3.719  1.00 20.00     0.006 A 
ENDBRANCH   3   4
BRANCH   3   7
HETATM    7  C9  UNL     1     -33.126   9.107   1.665  1.00 20.00     0.006 C 
HETATM    8  C7  UNL     1     -32.338   9.664   0.517  1.00 20.00     0.006 C 
ENDBRANCH   3   7
BRANCH   2   9
HETATM    9  C8  UNL     1     -32.529   5.294   1.255  1.00 20.00     0.120 C 
HETATM   10 CL10 UNL     1     -31.426   4.319   0.246  1.00 20.00    -0.130 Cl
ENDBRANCH   2   9
TORSDOF 3
ENDMDL
MODEL 9
REMARK VINA RESULT:      -0.1      2.113      2.976
REMARK  3 active torsions:
REMARK  status: ('A' for Active; 'I' for Inactive)
REMARK    1  A    between atoms: C4_4  and  C6_6 
REMARK    2  A    between atoms: C5_5  and  C8_8 
REMARK    3  A    between atoms: C6_6  and  C9_9 
ROOT
HETATM    1  C3  UNL     1     -33.722   6.244   1.323  1.00 20.00     0.017 A 
HETATM    2  C5  UNL     1     -32.638   5.606   2.145  1.00 20.00     0.009 A 
HETATM    3  C6  UNL     1     -32.967   7.080   2.343  1.00 20.00    -0.032 A 
ENDROOT
BRANCH   3   4
HETATM    4  C4  UNL     1     -32.020   8.195   1.877  1.00 20.00    -0.006 A 
HETATM    5  C1  UNL     1     -31.756   8.481   0.425  1.00 20.00     0.006 A 
HETATM    6  C2  UNL     1     -32.515   9.474   1.260  1.00 20.00     0.006 A 
ENDBRANCH   3   4
BRANCH   3   7
HETATM    7  C9  UNL     1     -33.708   7.423   3.613  1.00 20.00     0.006 C 
HETATM    8  C7  UNL     1     -34.963   6.618   3.774  1.00 20.00     0.006 C 
ENDBRANCH   3   7
BRANCH   2   9
HETATM    9  C8  UNL     1     -31.373   5.157   1.497  1.00 20.00     0.120 C 
HETATM   10 CL10 UNL     1     -31.703   4.196   0.029  1.00 20.00    -0.130 Cl
ENDBRANCH   2   9
TORSDOF 3
ENDMDL
