MODEL 1
REMARK VINA RESULT:      -1.1      0.000      0.000
REMARK  4 active torsions:
REMARK  status: ('A' for Active; 'I' for Inactive)
REMARK    1  A    between atoms: C2_2  and  C6_6 
REMARK    2  A    between atoms: C3_3  and  C7_7 
REMARK    3  A    between atoms: C3_3  and  C8_8 
REMARK    4  A    between atoms: C8_8  and  O9_9 
ROOT
HETATM    1  C1  UNL     1     -31.419   8.025   2.610  1.00 20.00     0.018 A 
HETATM    2  C2  UNL     1     -32.438   8.779   1.803  1.00 20.00     0.011 A 
HETATM    3  C3  UNL     1     -32.836   7.487   2.504  1.00 20.00    -0.014 A 
ENDROOT
BRANCH   3   4
HETATM    4  C7  UNL     1     -33.728   7.608   3.711  1.00 20.00     0.007 C 
HETATM    5  C4  UNL     1     -34.763   6.521   3.771  1.00 20.00     0.006 C 
ENDBRANCH   3   4
BRANCH   3   6
HETATM    6  C8  UNL     1     -33.057   6.231   1.703  1.00 20.00     0.176 C 
BRANCH   6   7
HETATM    7  O9  UNL     1     -31.818   5.547   1.549  1.00 20.00    -0.395 OA
HETATM    8  C5  UNL     1     -31.875   4.599   0.494  1.00 20.00     0.201 C 
ENDBRANCH   6   7
ENDBRANCH   3   6
BRANCH   2   9
HETATM    9  C6  UNL     1     -32.299   8.879   0.323  1.00 20.00     0.120 C 
HETATM   10 CL10 UNL     1     -32.753  10.504  -0.260  1.00 20.00    -0.130 Cl
ENDBRANCH   2   9
TORSDOF 4
ENDMDL
MODEL 2
REMARK VINA RESULT:      -0.7      3.157      4.290
REMARK  4 active torsions:
REMARK  status: ('A' for Active; 'I' for Inactive)
REMARK    1  A    between atoms: C2_2  and  C6_6 
REMARK    2  A    between atoms: C3_3  and  C7_7 
REMARK    3  A    between atoms: C3_3  and  C8_8 
REMARK    4  A    between atoms: C8_8  and  O9_9 
ROOT
HETATM    1  C1  UNL     1     -35.158   6.385   3.666  1.00 20.00     0.018 A 
HETATM    2  C2  UNL     1     -34.117   5.449   4.211  1.00 20.00     0.011 A 
HETATM    3  C3  UNL     1     -33.690   6.650   3.377  1.00 20.00    -0.014 A 
ENDROOT
BRANCH   3   4
HETATM    4  C7  UNL     1     -33.023   7.788   4.103  1.00 20.00     0.007 C 
HETATM    5  C4  UNL     1     -33.877   8.343   5.206  1.00 20.00     0.006 C 
ENDBRANCH   3   4
BRANCH   3   6
HETATM    6  C8  UNL     1     -33.201   6.453   1.967  1.00 20.00     0.176 C 
BRANCH   6   7
HETATM    7  O9  UNL     1     -31.973   7.151   1.793  1.00 20.00    -0.395 OA
HETATM    8  C5  UNL     1     -32.157   8.354   1.061  1.00 20.00     0.201 C 
ENDBRANCH   6   7
ENDBRANCH   3   6
BRANCH   2   9
HETATM    9  C6  UNL     1     -34.027   4.050   3.709  1.00 20.00     0.120 C 
HETATM   10 CL10 UNL     1     -33.135   3.009   4.853  1.00 20.00    -0.130 Cl
ENDBRANCH   2   9
TORSDOF 4
ENDMDL
MODEL 3
REMARK VINA RESULT:      -0.5      3.069      4.198
REMARK  4 active torsions:
REMARK  status: ('A' for Active; 'I' for Inactive)
REMARK    1  A    between atoms: C2_2  and  C6_6 
REMARK    2  A    between atoms: C3_3  and  C7_7 
REMARK    3  A    between atoms: C3_3  and  C8_8 
REMARK    4  A    between atoms: C8_8  and  O9_9 
ROOT
HETATM    1  C1  UNL     1     -35.229   6.323   3.705  1.00 20.00     0.018 A 
HETATM    2  C2  UNL     1     -34.143   5.438   4.247  1.00 20.00     0.011 A 
HETATM    3  C3  UNL     1     -33.810   6.475   3.182  1.00 20.00    -0.014 A 
ENDROOT
BRANCH   3   4
HETATM    4  C7  UNL     1     -33.023   7.681   3.620  1.00 20.00     0.007 C 
HETATM    5  C4  UNL     1     -32.298   8.337   2.481  1.00 20.00     0.006 C 
ENDBRANCH   3   4
BRANCH   3   6
HETATM    6  C8  UNL     1     -33.528   6.040   1.768  1.00 20.00     0.176 C 
BRANCH   6   7
HETATM    7  O9  UNL     1     -32.187   5.571   1.678  1.00 20.00    -0.395 OA
HETATM    8  C5  UNL     1     -32.013   4.703   0.569  1.00 20.00     0.201 C 
ENDBRANCH   6   7
ENDBRANCH   3   6
BRANCH   2   9
HETATM    9  C6  UNL     1     -34.156   3.974   3.967  1.00 20.00     0.120 C 
HETATM   10 CL10 UNL     1     -32.981   3.109   4.995  1.00 20.00    -0.130 Cl
ENDBRANCH   2   9
TORSDOF 4
ENDMDL
MODEL 4
REMARK VINA RESULT:      -0.3      1.040      1.385
REMARK  4 active torsions:
REMARK  status: ('A' for Active; 'I' for Inactive)
REMARK    1  A    between atoms: C2_2  and  C6_6 
REMARK    2  A    between atoms: C3_3  and  C7_7 
REMARK    3  A    between atoms: C3_3  and  C8_8 
REMARK    4  A    between atoms: C8_8  and  O9_9 
ROOT
HETATM    1  C1  UNL     1     -32.781   7.880   4.154  1.00 20.00     0.018 A 
HETATM    2  C2  UNL     1     -33.128   8.264   2.744  1.00 20.00     0.011 A 
HETATM    3  C3  UNL     1     -33.611   6.932   3.303  1.00 20.00    -0.014 A 
ENDROOT
BRANCH   3   4
HETATM    4  C7  UNL     1     -35.079   6.809   3.613  1.00 20.00     0.007 C 
HETATM    5  C4  UNL     1     -35.406   5.538   4.342  1.00 20.00     0.006 C 
ENDBRANCH   3   4
BRANCH   3   6
HETATM    6  C8  UNL     1     -32.971   5.647   2.848  1.00 20.00     0.176 C 
BRANCH   6   7
HETATM    7  O9  UNL     1     -33.215   5.466   1.458  1.00 20.00    -0.395 OA
HETATM    8  C5  UNL     1     -32.085   4.917   0.798  1.00 20.00     0.201 C 
ENDBRANCH   6   7
ENDBRANCH   3   6
BRANCH   2   9
HETATM    9  C6  UNL     1     -32.063   8.362   1.707  1.00 20.00     0.120 C 
HETATM   10 CL10 UNL     1     -32.430   9.645   0.522  1.00 20.00    -0.130 Cl
ENDBRANCH   2   9
TORSDOF 4
ENDMDL
MODEL 5
REMARK VINA RESULT:      -0.2      2.458      3.589
REMARK  4 active torsions:
REMARK  status: ('A' for Active; 'I' for Inactive)
REMARK    1  A    between atoms: C2_2  and  C6_6 
REMARK    2  A    between atoms: C3_3  and  C7_7 
REMARK    3  A    between atoms: C3_3  and  C8_8 
REMARK    4  A    between atoms: C8_8  and  O9_9 
ROOT
HETATM    1  C1  UNL     1     -33.566   6.149   0.828  1.00 20.00     0.018 A 
HETATM    2  C2  UNL     1     -32.657   5.342   1.711  1.00 20.00     0.011 A 
HETATM    3  C3  UNL     1     -33.120   6.721   2.164  1.00 20.00    -0.014 A 
ENDROOT
BRANCH   3   4
HETATM    4  C7  UNL     1     -34.129   6.774   3.280  1.00 20.00     0.007 C 
HETATM    5  C4  UNL     1     -33.840   7.873   4.261  1.00 20.00     0.006 C 
ENDBRANCH   3   4
BRANCH   3   6
HETATM    6  C8  UNL     1     -32.159   7.880   2.150  1.00 20.00     0.176 C 
BRANCH   6   7
HETATM    7  O9  UNL     1     -32.022   8.362   0.819  1.00 20.00    -0.395 OA
HETATM    8  C5  UNL     1     -32.452   9.711   0.706  1.00 20.00     0.201 C 
ENDBRANCH   6   7
ENDBRANCH   3   6
BRANCH   2   9
HETATM    9  C6  UNL     1     -31.255   5.063   1.291  1.00 20.00     0.120 C 
HETATM   10 CL10 UNL     1     -31.208   3.938  -0.094  1.00 20.00    -0.130 Cl
ENDBRANCH   2   9
TORSDOF 4
ENDMDL
MODEL 6
REMARK VINA RESULT:      -0.2      2.079      2.655
REMARK  4 active torsions:
REMARK  status: ('A' for Active; 'I' for Inactive)
REMARK    1  A    between atoms: C2_2  and  C6_6 
REMARK    2  A    between atoms: C3_3  and  C7_7 
REMARK    3  A    between atoms: C3_3  and  C8_8 
REMARK    4  A    between atoms: C8_8  and  O9_9 
ROOT
HETATM    1  C1  UNL     1     -33.116   7.434   4.360  1.00 20.00     0.018 A 
HETATM    2  C2  UNL     1     -33.491   7.648   2.922  1.00 20.00     0.011 A 
HETATM    3  C3  UNL     1     -34.033   6.438   3.671  1.00 20.00    -0.014 A 
ENDROOT
BRANCH   3   4
HETATM    4  C7  UNL     1     -35.493   6.453   4.036  1.00 20.00     0.007 C 
HETATM    5  C4  UNL     1     -36.377   6.731   2.855  1.00 20.00     0.006 C 
ENDBRANCH   3   4
BRANCH   3   6
HETATM    6  C8  UNL     1     -33.490   5.064   3.376  1.00 20.00     0.176 C 
BRANCH   6   7
HETATM    7  O9  UNL     1     -34.215   4.100   4.130  1.00 20.00    -0.395 OA
HETATM    8  C5  UNL     1     -33.355   3.111   4.676  1.00 20.00     0.201 C 
ENDBRANCH   6   7
ENDBRANCH   3   6
BRANCH   2   9
HETATM    9  C6  UNL     1     -32.461   7.536   1.852  1.00 20.00     0.120 C 
HETATM   10 CL10 UNL     1     -32.313   9.061   0.935  1.00 20.00    -0.130 Cl
ENDBRANCH   2   9
TORSDOF 4
ENDMDL
MODEL 7
REMARK VINA RESULT:      -0.1      2.822      3.910
REMARK  4 active torsions:
REMARK  status: ('A' for Active; 'I' for Inactive)
REMARK    1  A    between atoms: C2_2  and  C6_6 
REMARK    2  A    between atoms: C3_3  and  C7_7 
REMARK    3  A    between atoms: C3_3  and  C8_8 
REMARK    4  A    between atoms: C8_8  and  O9_9 
ROOT
HETATM    1  C1  UNL     1     -35.410   6.398   3.636  1.00 20.00     0.018 A 
HETATM    2  C2  UNL     1     -34.284   7.388   3.721  1.00 20.00     0.011 A 
HETATM    3  C3  UNL     1     -34.017   5.985   3.190  1.00 20.00    -0.014 A 
ENDROOT
BRANCH   3   4
HETATM    4  C7  UNL     1     -33.762   5.847   1.713  1.00 20.00     0.007 C 
HETATM    5  C4  UNL     1     -32.300   5.715   1.393  1.00 20.00     0.006 C 
ENDBRANCH   3   4
BRANCH   3   6
HETATM    6  C8  UNL     1     -33.271   4.988   4.036  1.00 20.00     0.176 C 
BRANCH   6   7
HETATM    7  O9  UNL     1     -34.018   3.779   4.109  1.00 20.00    -0.395 OA
HETATM    8  C5  UNL     1     -33.278   2.746   4.742  1.00 20.00     0.201 C 
ENDBRANCH   6   7
ENDBRANCH   3   6
BRANCH   2   9
HETATM    9  C6  UNL     1     -33.790   7.852   5.047  1.00 20.00     0.120 C 
HETATM   10 CL10 UNL     1     -32.229   8.705   4.893  1.00 20.00    -0.130 Cl
ENDBRANCH   2   9
TORSDOF 4
ENDMDL
MODEL 8
REMARK VINA RESULT:      -0.1      2.607      3.880
REMARK  4 active torsions:
REMARK  status: ('A' for Active; 'I' for Inactive)
REMARK    1  A    between atoms: C2_2  and  C6_6 
REMARK    2  A    between atoms: C3_3  and  C7_7 
REMARK    3  A    between atoms: C3_3  and  C8_8 
REMARK    4  A    between atoms: C8_8  and  O9_9 
ROOT
HETATM    1  C1  UNL     1     -31.853   8.329   3.453  1.00 20.00     0.018 A 
HETATM    2  C2  UNL     1     -32.976   7.333   3.505  1.00 20.00     0.011 A 
HETATM    3  C3  UNL     1     -32.352   7.697   2.164  1.00 20.00    -0.014 A 
ENDROOT
BRANCH   3   4
HETATM    4  C7  UNL     1     -31.484   6.657   1.506  1.00 20.00     0.007 C 
HETATM    5  C4  UNL     1     -32.266   5.457   1.057  1.00 20.00     0.006 C 
ENDBRANCH   3   4
BRANCH   3   6
HETATM    6  C8  UNL     1     -33.105   8.569   1.194  1.00 20.00     0.176 C 
BRANCH   6   7
HETATM    7  O9  UNL     1     -32.177   9.288   0.391  1.00 20.00    -0.395 OA
HETATM    8  C5  UNL     1     -32.618  10.617   0.150  1.00 20.00     0.201 C 
ENDBRANCH   6   7
ENDBRANCH   3   6
BRANCH   2   9
HETATM    9  C6  UNL     1     -34.347   7.766   3.897  1.00 20.00     0.120 C 
HETATM   10 CL10 UNL     1     -35.473   6.381   3.942  1.00 20.00    -0.130 Cl
ENDBRANCH   2   9
TORSDOF 4
ENDMDL
MODEL 9
REMARK VINA RESULT:       0.0      2.269      3.792
REMARK  4 active torsions:
REMARK  status: ('A' for Active; 'I' for Inactive)
REMARK    1  A    between atoms: C2_2  and  C6_6 
REMARK    2  A    between atoms: C3_3  and  C7_7 
REMARK    3  A    between atoms: C3_3  and  C8_8 
REMARK    4  A    between atoms: C8_8  and  O9_9 
ROOT
HETATM    1  C1  UNL     1     -33.005   5.672   3.416  1.00 20.00     0.018 A 
HETATM    2  C2  UNL     1     -34.216   6.482   3.049  1.00 20.00     0.011 A 
HETATM    3  C3  UNL     1     -32.979   6.529   2.161  1.00 20.00    -0.014 A 
ENDROOT
BRANCH   3   4
HETATM    4  C7  UNL     1     -33.061   5.831   0.830  1.00 20.00     0.007 C 
HETATM    5  C4  UNL     1     -32.000   4.783   0.665  1.00 20.00     0.006 C 
ENDBRANCH   3   4
BRANCH   3   6
HETATM    6  C8  UNL     1     -32.099   7.751   2.159  1.00 20.00     0.176 C 
BRANCH   6   7
HETATM    7  O9  UNL     1     -31.929   8.206   0.821  1.00 20.00    -0.395 OA
HETATM    8  C5  UNL     1     -32.420   9.528   0.654  1.00 20.00     0.201 C 
ENDBRANCH   6   7
ENDBRANCH   3   6
BRANCH   2   9
HETATM    9  C6  UNL     1     -34.639   7.630   3.898  1.00 20.00     0.120 C 
HETATM   10 CL10 UNL     1     -33.432   7.972   5.169  1.00 20.00    -0.130 Cl
ENDBRANCH   2   9
TORSDOF 4
ENDMDL
