MODEL 1
REMARK VINA RESULT:      -3.0      0.000      0.000
REMARK  3 active torsions:
REMARK  status: ('A' for Active; 'I' for Inactive)
REMARK    1  A    between atoms: C2_2  and  C5_5 
REMARK    2  A    between atoms: C3_3  and  C6_6 
REMARK    3  A    between atoms: C5_5  and  C7_7 
ROOT
HETATM    1  C1  UNL     1     -34.235   7.523   4.018  1.00 20.00     0.011 A 
HETATM    2  C2  UNL     1     -33.353   6.604   3.215  1.00 20.00    -0.009 A 
HETATM    3  C3  UNL     1     -34.772   6.206   3.523  1.00 20.00     0.004 A 
ENDROOT
BRANCH   2   4
HETATM    4  C5  UNL     1     -32.963   6.967   1.824  1.00 20.00     0.005 C 
BRANCH   4   5
HETATM    5  C7  UNL     1     -31.911   8.088   1.779  1.00 20.00    -0.004 C 
HETATM    6  C4  UNL     1     -32.229   9.146   0.735  1.00 20.00     0.005 C 
ENDBRANCH   4   5
ENDBRANCH   2   4
BRANCH   3   7
HETATM    7  C6  UNL     1     -35.047   5.101   4.483  1.00 20.00     0.119 C 
HETATM    8 CL8  UNL     1     -33.905   3.747   4.257  1.00 20.00    -0.130 Cl
ENDBRANCH   3   7
TORSDOF 3
ENDMDL
MODEL 2
REMARK VINA RESULT:      -2.9      1.012      1.804
REMARK  3 active torsions:
REMARK  status: ('A' for Active; 'I' for Inactive)
REMARK    1  A    between atoms: C2_2  and  C5_5 
REMARK    2  A    between atoms: C3_3  and  C6_6 
REMARK    3  A    between atoms: C5_5  and  C7_7 
ROOT
HETATM    1  C1  UNL     1     -33.019   5.873   1.956  1.00 20.00     0.011 A 
HETATM    2  C2  UNL     1     -33.079   7.376   1.894  1.00 20.00    -0.009 A 
HETATM    3  C3  UNL     1     -33.367   6.664   3.190  1.00 20.00     0.004 A 
ENDROOT
BRANCH   2   4
HETATM    4  C5  UNL     1     -31.828   8.169   1.739  1.00 20.00     0.005 C 
BRANCH   4   5
HETATM    5  C7  UNL     1     -31.751   8.893   0.383  1.00 20.00    -0.004 C 
HETATM    6  C4  UNL     1     -32.569  10.174   0.358  1.00 20.00     0.005 C 
ENDBRANCH   4   5
ENDBRANCH   2   4
BRANCH   3   7
HETATM    7  C6  UNL     1     -34.753   6.632   3.734  1.00 20.00     0.119 C 
HETATM    8 CL8  UNL     1     -35.141   5.033   4.426  1.00 20.00    -0.130 Cl
ENDBRANCH   3   7
TORSDOF 3
ENDMDL
MODEL 3
REMARK VINA RESULT:      -2.6      2.007      4.132
REMARK  3 active torsions:
REMARK  status: ('A' for Active; 'I' for Inactive)
REMARK    1  A    between atoms: C2_2  and  C5_5 
REMARK    2  A    between atoms: C3_3  and  C6_6 
REMARK    3  A    between atoms: C5_5  and  C7_7 
ROOT
HETATM    1  C1  UNL     1     -34.566   7.565   4.096  1.00 20.00     0.011 A 
HETATM    2  C2  UNL     1     -34.518   6.177   3.514  1.00 20.00    -0.009 A 
HETATM    3  C3  UNL     1     -33.273   7.026   3.542  1.00 20.00     0.004 A 
ENDROOT
BRANCH   2   4
HETATM    4  C5  UNL     1     -34.631   4.988   4.404  1.00 20.00     0.005 C 
BRANCH   4   5
HETATM    5  C7  UNL     1     -33.857   3.772   3.866  1.00 20.00    -0.004 C 
HETATM    6  C4  UNL     1     -33.124   3.015   4.962  1.00 20.00     0.005 C 
ENDBRANCH   4   5
ENDBRANCH   2   4
BRANCH   3   7
HETATM    7  C6  UNL     1     -32.715   7.575   2.275  1.00 20.00     0.119 C 
HETATM    8 CL8  UNL     1     -31.956   6.292   1.292  1.00 20.00    -0.130 Cl
ENDBRANCH   3   7
TORSDOF 3
ENDMDL
MODEL 4
REMARK VINA RESULT:      -2.6      2.574      4.549
REMARK  3 active torsions:
REMARK  status: ('A' for Active; 'I' for Inactive)
REMARK    1  A    between atoms: C2_2  and  C5_5 
REMARK    2  A    between atoms: C3_3  and  C6_6 
REMARK    3  A    between atoms: C5_5  and  C7_7 
ROOT
HETATM    1  C1  UNL     1     -33.105   5.731   1.742  1.00 20.00     0.011 A 
HETATM    2  C2  UNL     1     -33.411   6.378   3.067  1.00 20.00    -0.009 A 
HETATM    3  C3  UNL     1     -33.155   7.233   1.854  1.00 20.00     0.004 A 
ENDROOT
BRANCH   2   4
HETATM    4  C5  UNL     1     -34.781   6.291   3.644  1.00 20.00     0.005 C 
BRANCH   4   5
HETATM    5  C7  UNL     1     -35.010   4.988   4.430  1.00 20.00    -0.004 C 
HETATM    6  C4  UNL     1     -33.886   3.983   4.235  1.00 20.00     0.005 C 
ENDBRANCH   4   5
ENDBRANCH   2   4
BRANCH   3   7
HETATM    7  C6  UNL     1     -31.902   8.032   1.754  1.00 20.00     0.119 C 
HETATM    8 CL8  UNL     1     -32.082   9.376   0.593  1.00 20.00    -0.130 Cl
ENDBRANCH   3   7
TORSDOF 3
ENDMDL
MODEL 5
REMARK VINA RESULT:      -2.5      1.018      1.473
REMARK  3 active torsions:
REMARK  status: ('A' for Active; 'I' for Inactive)
REMARK    1  A    between atoms: C2_2  and  C5_5 
REMARK    2  A    between atoms: C3_3  and  C6_6 
REMARK    3  A    between atoms: C5_5  and  C7_7 
ROOT
HETATM    1  C1  UNL     1     -34.302   7.763   4.478  1.00 20.00     0.011 A 
HETATM    2  C2  UNL     1     -33.428   7.003   3.515  1.00 20.00    -0.009 A 
HETATM    3  C3  UNL     1     -34.868   6.602   3.703  1.00 20.00     0.004 A 
ENDROOT
BRANCH   2   4
HETATM    4  C5  UNL     1     -32.989   7.638   2.241  1.00 20.00     0.005 C 
BRANCH   4   5
HETATM    5  C7  UNL     1     -31.901   6.824   1.520  1.00 20.00    -0.004 C 
HETATM    6  C4  UNL     1     -32.360   5.419   1.168  1.00 20.00     0.005 C 
ENDBRANCH   4   5
ENDBRANCH   2   4
BRANCH   3   7
HETATM    7  C6  UNL     1     -35.205   5.330   4.400  1.00 20.00     0.119 C 
HETATM    8 CL8  UNL     1     -34.002   4.059   4.045  1.00 20.00    -0.130 Cl
ENDBRANCH   3   7
TORSDOF 3
ENDMDL
MODEL 6
REMARK VINA RESULT:      -2.5      3.050      4.896
REMARK  3 active torsions:
REMARK  status: ('A' for Active; 'I' for Inactive)
REMARK    1  A    between atoms: C2_2  and  C5_5 
REMARK    2  A    between atoms: C3_3  and  C6_6 
REMARK    3  A    between atoms: C5_5  and  C7_7 
ROOT
HETATM    1  C1  UNL     1     -31.258   7.643   1.575  1.00 20.00     0.011 A 
HETATM    2  C2  UNL     1     -32.464   7.879   2.447  1.00 20.00    -0.009 A 
HETATM    3  C3  UNL     1     -32.445   8.394   1.032  1.00 20.00     0.004 A 
ENDROOT
BRANCH   2   4
HETATM    4  C5  UNL     1     -33.354   6.743   2.817  1.00 20.00     0.005 C 
BRANCH   4   5
HETATM    5  C7  UNL     1     -34.345   7.110   3.935  1.00 20.00    -0.004 C 
HETATM    6  C4  UNL     1     -35.410   6.047   4.144  1.00 20.00     0.005 C 
ENDBRANCH   4   5
ENDBRANCH   2   4
BRANCH   3   7
HETATM    7  C6  UNL     1     -32.348   9.858   0.771  1.00 20.00     0.119 C 
HETATM    8 CL8  UNL     1     -32.921  10.262  -0.871  1.00 20.00    -0.130 Cl
ENDBRANCH   3   7
TORSDOF 3
ENDMDL
MODEL 7
REMARK VINA RESULT:      -2.4      2.695      4.302
REMARK  3 active torsions:
REMARK  status: ('A' for Active; 'I' for Inactive)
REMARK    1  A    between atoms: C2_2  and  C5_5 
REMARK    2  A    between atoms: C3_3  and  C6_6 
REMARK    3  A    between atoms: C5_5  and  C7_7 
ROOT
HETATM    1  C1  UNL     1     -32.127   5.745   1.367  1.00 20.00     0.011 A 
HETATM    2  C2  UNL     1     -32.863   6.283   2.566  1.00 20.00    -0.009 A 
HETATM    3  C3  UNL     1     -32.688   7.142   1.341  1.00 20.00     0.004 A 
ENDROOT
BRANCH   2   4
HETATM    4  C5  UNL     1     -34.209   5.750   2.919  1.00 20.00     0.005 C 
BRANCH   4   5
HETATM    5  C7  UNL     1     -34.901   6.576   4.016  1.00 20.00    -0.004 C 
HETATM    6  C4  UNL     1     -34.076   7.774   4.455  1.00 20.00     0.005 C 
ENDBRANCH   4   5
ENDBRANCH   2   4
BRANCH   3   7
HETATM    7  C6  UNL     1     -31.774   8.317   1.377  1.00 20.00     0.119 C 
HETATM    8 CL8  UNL     1     -32.378   9.641   0.343  1.00 20.00    -0.130 Cl
ENDBRANCH   3   7
TORSDOF 3
ENDMDL
MODEL 8
REMARK VINA RESULT:      -2.1      1.116      1.534
REMARK  3 active torsions:
REMARK  status: ('A' for Active; 'I' for Inactive)
REMARK    1  A    between atoms: C2_2  and  C5_5 
REMARK    2  A    between atoms: C3_3  and  C6_6 
REMARK    3  A    between atoms: C5_5  and  C7_7 
ROOT
HETATM    1  C1  UNL     1     -33.134   5.572   1.654  1.00 20.00     0.011 A 
HETATM    2  C2  UNL     1     -33.558   6.711   2.544  1.00 20.00    -0.009 A 
HETATM    3  C3  UNL     1     -33.151   5.393   3.150  1.00 20.00     0.004 A 
ENDROOT
BRANCH   2   4
HETATM    4  C5  UNL     1     -32.683   7.906   2.698  1.00 20.00     0.005 C 
BRANCH   4   5
HETATM    5  C7  UNL     1     -31.837   8.184   1.443  1.00 20.00    -0.004 C 
HETATM    6  C4  UNL     1     -32.327   9.394   0.664  1.00 20.00     0.005 C 
ENDBRANCH   4   5
ENDBRANCH   2   4
BRANCH   3   7
HETATM    7  C6  UNL     1     -34.172   4.516   3.787  1.00 20.00     0.119 C 
HETATM    8 CL8  UNL     1     -33.408   3.141   4.632  1.00 20.00    -0.130 Cl
ENDBRANCH   3   7
TORSDOF 3
ENDMDL
MODEL 9
REMARK VINA RESULT:      -1.7      1.940      3.909
REMARK  3 active torsions:
REMARK  status: ('A' for Active; 'I' for Inactive)
REMARK    1  A    between atoms: C2_2  and  C5_5 
REMARK    2  A    between atoms: C3_3  and  C6_6 
REMARK    3  A    between atoms: C5_5  and  C7_7 
ROOT
HETATM    1  C1  UNL     1     -32.111   7.515   1.844  1.00 20.00     0.011 A 
HETATM    2  C2  UNL     1     -33.493   7.126   2.300  1.00 20.00    -0.009 A 
HETATM    3  C3  UNL     1     -32.514   6.064   1.874  1.00 20.00     0.004 A 
ENDROOT
BRANCH   2   4
HETATM    4  C5  UNL     1     -33.873   7.260   3.735  1.00 20.00     0.005 C 
BRANCH   4   5
HETATM    5  C7  UNL     1     -35.197   6.548   4.063  1.00 20.00    -0.004 C 
HETATM    6  C4  UNL     1     -35.006   5.072   4.374  1.00 20.00     0.005 C 
ENDBRANCH   4   5
ENDBRANCH   2   4
BRANCH   3   7
HETATM    7  C6  UNL     1     -32.726   5.320   0.601  1.00 20.00     0.119 C 
HETATM    8 CL8  UNL     1     -31.340   4.256   0.234  1.00 20.00    -0.130 Cl
ENDBRANCH   3   7
TORSDOF 3
ENDMDL
