MODEL 1
REMARK VINA RESULT:      -0.1      0.000      0.000
REMARK  2 active torsions:
REMARK  status: ('A' for Active; 'I' for Inactive)
REMARK    1  A    between atoms: C2_2  and  C6_6 
REMARK    2  A    between atoms: C7_7  and  C10_10 
ROOT
HETATM    1  C1  UNL     1     -32.996   9.004   2.082  1.00 20.00     0.022 A 
HETATM    2  C2  UNL     1     -32.856   7.626   2.413  1.00 20.00    -0.040 A 
HETATM    3  C3  UNL     1     -32.403   9.309   0.876  1.00 20.00    -0.020 A 
HETATM    4  C4  UNL     1     -32.162   6.929   1.448  1.00 20.00    -0.014 A 
HETATM    5  C8  UNL     1     -32.330  10.619   0.191  1.00 20.00     0.056 C 
HETATM    6  C9  UNL     1     -31.808   5.492   1.414  1.00 20.00     0.057 C 
HETATM    7  S11 UNL     1     -31.681   7.936   0.150  1.00 20.00    -0.100 SA
ENDROOT
BRANCH   2   8
HETATM    8  C6  UNL     1     -33.409   7.010   3.678  1.00 20.00     0.025 A 
HETATM    9  C5  UNL     1     -34.532   7.692   4.430  1.00 20.00     0.016 A 
HETATM   10  C7  UNL     1     -34.803   6.420   3.685  1.00 20.00     0.008 A 
BRANCH  10  11
HETATM   11  C10 UNL     1     -35.077   5.159   4.430  1.00 20.00     0.119 C 
HETATM   12 CL12 UNL     1     -33.887   3.893   4.020  1.00 20.00    -0.130 Cl
ENDBRANCH  10  11
ENDBRANCH   2   8
TORSDOF 2
ENDMDL
MODEL 2
REMARK VINA RESULT:       1.3      2.926      4.871
REMARK  2 active torsions:
REMARK  status: ('A' for Active; 'I' for Inactive)
REMARK    1  A    between atoms: C2_2  and  C6_6 
REMARK    2  A    between atoms: C7_7  and  C10_10 
ROOT
HETATM    1  C1  UNL     1     -34.054   7.043   3.684  1.00 20.00     0.022 A 
HETATM    2  C2  UNL     1     -33.022   7.039   2.702  1.00 20.00    -0.040 A 
HETATM    3  C3  UNL     1     -34.581   5.786   3.885  1.00 20.00    -0.020 A 
HETATM    4  C4  UNL     1     -32.800   5.780   2.190  1.00 20.00    -0.014 A 
HETATM    5  C8  UNL     1     -35.661   5.378   4.811  1.00 20.00     0.056 C 
HETATM    6  C9  UNL     1     -31.824   5.354   1.160  1.00 20.00     0.057 C 
HETATM    7  S11 UNL     1     -33.833   4.609   2.891  1.00 20.00    -0.100 SA
ENDROOT
BRANCH   2   8
HETATM    8  C6  UNL     1     -32.266   8.278   2.280  1.00 20.00     0.025 A 
HETATM    9  C5  UNL     1     -31.133   8.175   1.281  1.00 20.00     0.016 A 
HETATM   10  C7  UNL     1     -32.425   8.819   0.875  1.00 20.00     0.008 A 
BRANCH  10  11
HETATM   11  C10 UNL     1     -32.490  10.289   0.643  1.00 20.00     0.119 C 
HETATM   12 CL12 UNL     1     -33.042  10.660  -1.014  1.00 20.00    -0.130 Cl
ENDBRANCH  10  11
ENDBRANCH   2   8
TORSDOF 2
ENDMDL
MODEL 3
REMARK VINA RESULT:       1.4      2.789      4.803
REMARK  2 active torsions:
REMARK  status: ('A' for Active; 'I' for Inactive)
REMARK    1  A    between atoms: C2_2  and  C6_6 
REMARK    2  A    between atoms: C7_7  and  C10_10 
ROOT
HETATM    1  C1  UNL     1     -33.776   7.529   3.085  1.00 20.00     0.022 A 
HETATM    2  C2  UNL     1     -32.761   7.300   2.113  1.00 20.00    -0.040 A 
HETATM    3  C3  UNL     1     -34.343   6.354   3.528  1.00 20.00    -0.020 A 
HETATM    4  C4  UNL     1     -32.589   5.958   1.850  1.00 20.00    -0.014 A 
HETATM    5  C8  UNL     1     -35.421   6.170   4.525  1.00 20.00     0.056 C 
HETATM    6  C9  UNL     1     -31.645   5.308   0.912  1.00 20.00     0.057 C 
HETATM    7  S11 UNL     1     -33.651   4.982   2.772  1.00 20.00    -0.100 SA
ENDROOT
BRANCH   2   8
HETATM    8  C6  UNL     1     -31.969   8.406   1.454  1.00 20.00     0.025 A 
HETATM    9  C5  UNL     1     -31.193   8.135   0.183  1.00 20.00     0.016 A 
HETATM   10  C7  UNL     1     -32.430   8.980   0.131  1.00 20.00     0.008 A 
BRANCH  10  11
HETATM   11  C10 UNL     1     -32.327  10.444  -0.125  1.00 20.00     0.119 C 
HETATM   12 CL12 UNL     1     -32.764  11.388   1.326  1.00 20.00    -0.130 Cl
ENDBRANCH  10  11
ENDBRANCH   2   8
TORSDOF 2
ENDMDL
MODEL 4
REMARK VINA RESULT:       1.6      3.097      5.274
REMARK  2 active torsions:
REMARK  status: ('A' for Active; 'I' for Inactive)
REMARK    1  A    between atoms: C2_2  and  C6_6 
REMARK    2  A    between atoms: C7_7  and  C10_10 
ROOT
HETATM    1  C1  UNL     1     -32.758   5.398   3.128  1.00 20.00     0.022 A 
HETATM    2  C2  UNL     1     -33.080   6.784   3.054  1.00 20.00    -0.040 A 
HETATM    3  C3  UNL     1     -33.739   4.673   3.769  1.00 20.00    -0.020 A 
HETATM    4  C4  UNL     1     -34.294   7.066   3.640  1.00 20.00    -0.014 A 
HETATM    5  C8  UNL     1     -33.778   3.221   4.045  1.00 20.00     0.056 C 
HETATM    6  C9  UNL     1     -34.982   8.371   3.772  1.00 20.00     0.057 C 
HETATM    7  S11 UNL     1     -35.041   5.664   4.278  1.00 20.00    -0.100 SA
ENDROOT
BRANCH   2   8
HETATM    8  C6  UNL     1     -32.186   7.815   2.405  1.00 20.00     0.025 A 
HETATM    9  C5  UNL     1     -31.370   7.455   1.182  1.00 20.00     0.016 A 
HETATM   10  C7  UNL     1     -32.543   8.379   1.046  1.00 20.00     0.008 A 
BRANCH  10  11
HETATM   11  C10 UNL     1     -32.330   9.825   0.756  1.00 20.00     0.119 C 
HETATM   12 CL12 UNL     1     -32.955  10.261  -0.858  1.00 20.00    -0.130 Cl
ENDBRANCH  10  11
ENDBRANCH   2   8
TORSDOF 2
ENDMDL
MODEL 5
REMARK VINA RESULT:       2.3      3.114      5.240
REMARK  2 active torsions:
REMARK  status: ('A' for Active; 'I' for Inactive)
REMARK    1  A    between atoms: C2_2  and  C6_6 
REMARK    2  A    between atoms: C7_7  and  C10_10 
ROOT
HETATM    1  C1  UNL     1     -32.884   5.138   3.342  1.00 20.00     0.022 A 
HETATM    2  C2  UNL     1     -33.694   6.282   3.091  1.00 20.00    -0.040 A 
HETATM    3  C3  UNL     1     -33.551   4.183   4.078  1.00 20.00    -0.020 A 
HETATM    4  C4  UNL     1     -34.950   6.159   3.643  1.00 20.00    -0.014 A 
HETATM    5  C8  UNL     1     -33.058   2.867   4.541  1.00 20.00     0.056 C 
HETATM    6  C9  UNL     1     -36.079   7.117   3.609  1.00 20.00     0.057 C 
HETATM    7  S11 UNL     1     -35.148   4.669   4.462  1.00 20.00    -0.100 SA
ENDROOT
BRANCH   2   8
HETATM    8  C6  UNL     1     -33.221   7.486   2.308  1.00 20.00     0.025 A 
HETATM    9  C5  UNL     1     -32.177   8.413   2.893  1.00 20.00     0.016 A 
HETATM   10  C7  UNL     1     -31.816   7.517   1.746  1.00 20.00     0.008 A 
BRANCH  10  11
HETATM   11  C10 UNL     1     -31.564   8.093   0.395  1.00 20.00     0.119 C 
HETATM   12 CL12 UNL     1     -32.287   9.718   0.238  1.00 20.00    -0.130 Cl
ENDBRANCH  10  11
ENDBRANCH   2   8
TORSDOF 2
ENDMDL
