MODEL 1
REMARK VINA RESULT:      -0.5      0.000      0.000
REMARK  2 active torsions:
REMARK  status: ('A' for Active; 'I' for Inactive)
REMARK    1  A    between atoms: C3_3  and  C6_6 
REMARK    2  A    between atoms: C7_7  and  C9_9 
ROOT
HETATM    1  C1  UNL     1     -34.846   6.244   3.900  1.00 20.00     0.016 A 
HETATM    2  C2  UNL     1     -34.916   4.938   4.466  1.00 20.00     0.015 A 
HETATM    3  C3  UNL     1     -33.714   6.416   3.134  1.00 20.00    -0.013 A 
HETATM    4  C4  UNL     1     -33.835   4.161   4.110  1.00 20.00    -0.021 A 
HETATM    5  C8  UNL     1     -33.545   2.761   4.485  1.00 20.00     0.056 C 
HETATM    6  S10 UNL     1     -32.742   5.007   3.098  1.00 20.00    -0.099 SA
ENDROOT
BRANCH   3   7
HETATM    7  C6  UNL     1     -33.366   7.693   2.406  1.00 20.00     0.031 A 
HETATM    8  C5  UNL     1     -32.302   8.618   2.958  1.00 20.00     0.016 A 
HETATM    9  C7  UNL     1     -32.025   7.827   1.714  1.00 20.00     0.009 A 
BRANCH   9  10
HETATM   10  C9  UNL     1     -31.930   8.513   0.396  1.00 20.00     0.120 C 
HETATM   11 CL11 UNL     1     -32.519  10.195   0.497  1.00 20.00    -0.130 Cl
ENDBRANCH   9  10
ENDBRANCH   3   7
TORSDOF 2
ENDMDL
MODEL 2
REMARK VINA RESULT:      -0.3      2.811      5.314
REMARK  2 active torsions:
REMARK  status: ('A' for Active; 'I' for Inactive)
REMARK    1  A    between atoms: C3_3  and  C6_6 
REMARK    2  A    between atoms: C7_7  and  C9_9 
ROOT
HETATM    1  C1  UNL     1     -31.951   7.178   1.581  1.00 20.00     0.016 A 
HETATM    2  C2  UNL     1     -31.614   8.052   0.508  1.00 20.00     0.015 A 
HETATM    3  C3  UNL     1     -32.831   7.762   2.467  1.00 20.00    -0.013 A 
HETATM    4  C4  UNL     1     -32.248   9.270   0.613  1.00 20.00    -0.021 A 
HETATM    5  C8  UNL     1     -32.164  10.434  -0.296  1.00 20.00     0.056 C 
HETATM    6  S10 UNL     1     -33.246   9.356   2.003  1.00 20.00    -0.099 SA
ENDROOT
BRANCH   3   7
HETATM    7  C6  UNL     1     -33.371   7.080   3.703  1.00 20.00     0.031 A 
HETATM    8  C5  UNL     1     -34.474   7.731   4.510  1.00 20.00     0.016 A 
HETATM    9  C7  UNL     1     -34.773   6.506   3.697  1.00 20.00     0.009 A 
BRANCH   9  10
HETATM   10  C9  UNL     1     -35.051   5.208   4.371  1.00 20.00     0.120 C 
HETATM   11 CL11 UNL     1     -33.855   3.966   3.905  1.00 20.00    -0.130 Cl
ENDBRANCH   9  10
ENDBRANCH   3   7
TORSDOF 2
ENDMDL
MODEL 3
REMARK VINA RESULT:      -0.2      0.999      1.552
REMARK  2 active torsions:
REMARK  status: ('A' for Active; 'I' for Inactive)
REMARK    1  A    between atoms: C3_3  and  C6_6 
REMARK    2  A    between atoms: C7_7  and  C9_9 
ROOT
HETATM    1  C1  UNL     1     -34.065   7.710   3.578  1.00 20.00     0.016 A 
HETATM    2  C2  UNL     1     -34.594   6.519   4.155  1.00 20.00     0.015 A 
HETATM    3  C3  UNL     1     -33.074   7.444   2.658  1.00 20.00    -0.013 A 
HETATM    4  C4  UNL     1     -33.987   5.388   3.655  1.00 20.00    -0.021 A 
HETATM    5  C8  UNL     1     -34.254   3.974   3.993  1.00 20.00     0.056 C 
HETATM    6  S10 UNL     1     -32.785   5.765   2.493  1.00 20.00    -0.099 SA
ENDROOT
BRANCH   3   7
HETATM    7  C6  UNL     1     -32.329   8.504   1.881  1.00 20.00     0.031 A 
HETATM    8  C5  UNL     1     -31.204   8.113   0.946  1.00 20.00     0.016 A 
HETATM    9  C7  UNL     1     -32.504   8.604   0.380  1.00 20.00     0.009 A 
BRANCH   9  10
HETATM   10  C9  UNL     1     -32.579   9.939  -0.276  1.00 20.00     0.120 C 
HETATM   11 CL11 UNL     1     -32.618  11.253   0.932  1.00 20.00    -0.130 Cl
ENDBRANCH   9  10
ENDBRANCH   3   7
TORSDOF 2
ENDMDL
MODEL 4
REMARK VINA RESULT:      -0.2      2.920      5.328
REMARK  2 active torsions:
REMARK  status: ('A' for Active; 'I' for Inactive)
REMARK    1  A    between atoms: C3_3  and  C6_6 
REMARK    2  A    between atoms: C7_7  and  C9_9 
ROOT
HETATM    1  C1  UNL     1     -32.319   6.755   1.961  1.00 20.00     0.016 A 
HETATM    2  C2  UNL     1     -31.844   7.668   0.975  1.00 20.00     0.015 A 
HETATM    3  C3  UNL     1     -33.254   7.331   2.792  1.00 20.00    -0.013 A 
HETATM    4  C4  UNL     1     -32.435   8.907   1.090  1.00 20.00    -0.021 A 
HETATM    5  C8  UNL     1     -32.216  10.112   0.261  1.00 20.00     0.056 C 
HETATM    6  S10 UNL     1     -33.557   8.966   2.383  1.00 20.00    -0.099 SA
ENDROOT
BRANCH   3   7
HETATM    7  C6  UNL     1     -33.939   6.611   3.930  1.00 20.00     0.031 A 
HETATM    8  C5  UNL     1     -35.434   6.378   3.894  1.00 20.00     0.016 A 
HETATM    9  C7  UNL     1     -34.498   5.220   3.717  1.00 20.00     0.009 A 
BRANCH   9  10
HETATM   10  C9  UNL     1     -34.368   4.190   4.785  1.00 20.00     0.120 C 
HETATM   11 CL11 UNL     1     -33.084   3.012   4.396  1.00 20.00    -0.130 Cl
ENDBRANCH   9  10
ENDBRANCH   3   7
TORSDOF 2
ENDMDL
MODEL 5
REMARK VINA RESULT:       0.8      2.800      5.166
REMARK  2 active torsions:
REMARK  status: ('A' for Active; 'I' for Inactive)
REMARK    1  A    between atoms: C3_3  and  C6_6 
REMARK    2  A    between atoms: C7_7  and  C9_9 
ROOT
HETATM    1  C1  UNL     1     -32.393   8.338   3.736  1.00 20.00     0.016 A 
HETATM    2  C2  UNL     1     -31.671   8.944   2.668  1.00 20.00     0.015 A 
HETATM    3  C3  UNL     1     -33.198   7.309   3.298  1.00 20.00    -0.013 A 
HETATM    4  C4  UNL     1     -31.952   8.356   1.454  1.00 20.00    -0.021 A 
HETATM    5  C8  UNL     1     -31.408   8.691   0.120  1.00 20.00     0.056 C 
HETATM    6  S10 UNL     1     -33.082   7.077   1.606  1.00 20.00    -0.099 SA
ENDROOT
BRANCH   3   7
HETATM    7  C6  UNL     1     -34.080   6.477   4.200  1.00 20.00     0.031 A 
HETATM    8  C5  UNL     1     -35.485   6.113   3.766  1.00 20.00     0.016 A 
HETATM    9  C7  UNL     1     -34.425   5.053   3.816  1.00 20.00     0.009 A 
BRANCH   9  10
HETATM   10  C9  UNL     1     -34.476   3.990   4.857  1.00 20.00     0.120 C 
HETATM   11 CL11 UNL     1     -33.074   2.890   4.730  1.00 20.00    -0.130 Cl
ENDBRANCH   9  10
ENDBRANCH   3   7
TORSDOF 2
ENDMDL
MODEL 6
REMARK VINA RESULT:       1.7      2.965      5.250
REMARK  2 active torsions:
REMARK  status: ('A' for Active; 'I' for Inactive)
REMARK    1  A    between atoms: C3_3  and  C6_6 
REMARK    2  A    between atoms: C7_7  and  C9_9 
ROOT
HETATM    1  C1  UNL     1     -33.830   7.212   3.903  1.00 20.00     0.016 A 
HETATM    2  C2  UNL     1     -33.308   8.282   3.120  1.00 20.00     0.015 A 
HETATM    3  C3  UNL     1     -33.572   5.983   3.337  1.00 20.00    -0.013 A 
HETATM    4  C4  UNL     1     -32.671   7.830   1.985  1.00 20.00    -0.021 A 
HETATM    5  C8  UNL     1     -32.000   8.619   0.929  1.00 20.00     0.056 C 
HETATM    6  S10 UNL     1     -32.704   6.121   1.868  1.00 20.00    -0.099 SA
ENDROOT
BRANCH   3   7
HETATM    7  C6  UNL     1     -33.999   4.664   3.938  1.00 20.00     0.031 A 
HETATM    8  C5  UNL     1     -33.831   3.380   3.153  1.00 20.00     0.016 A 
HETATM    9  C7  UNL     1     -32.954   3.644   4.342  1.00 20.00     0.009 A 
BRANCH   9  10
HETATM   10  C9  UNL     1     -33.127   2.852   5.591  1.00 20.00     0.120 C 
HETATM   11 CL11 UNL     1     -32.072   3.462   6.896  1.00 20.00    -0.130 Cl
ENDBRANCH   9  10
ENDBRANCH   3   7
TORSDOF 2
ENDMDL
