MODEL 1
REMARK VINA RESULT:      -2.3      0.000      0.000
REMARK  2 active torsions:
REMARK  status: ('A' for Active; 'I' for Inactive)
REMARK    1  A    between atoms: C2_2  and  C6_6 
REMARK    2  A    between atoms: C3_3  and  C7_7 
ROOT
HETATM    1  C1  UNL     1     -32.081   5.311   1.495  1.00 20.00     0.011 A 
HETATM    2  C2  UNL     1     -32.667   6.677   1.259  1.00 20.00     0.004 A 
HETATM    3  C3  UNL     1     -33.471   5.625   1.986  1.00 20.00    -0.006 A 
ENDROOT
BRANCH   3   4
HETATM    4  C7  UNL     1     -33.752   5.702   3.448  1.00 20.00    -0.018 C 
HETATM    5  C4  UNL     1     -34.978   6.584   3.750  1.00 20.00     0.010 C 
HETATM    6  C5  UNL     1     -33.969   4.306   4.064  1.00 20.00     0.010 C 
ENDBRANCH   3   4
BRANCH   2   7
HETATM    7  C6  UNL     1     -32.099   7.869   1.949  1.00 20.00     0.119 C 
HETATM    8 CL8  UNL     1     -32.194   9.323   0.917  1.00 20.00    -0.130 Cl
ENDBRANCH   2   7
TORSDOF 2
ENDMDL
MODEL 2
REMARK VINA RESULT:      -1.7      1.645      2.236
REMARK  2 active torsions:
REMARK  status: ('A' for Active; 'I' for Inactive)
REMARK    1  A    between atoms: C2_2  and  C6_6 
REMARK    2  A    between atoms: C3_3  and  C7_7 
ROOT
HETATM    1  C1  UNL     1     -31.366   7.772   2.458  1.00 20.00     0.011 A 
HETATM    2  C2  UNL     1     -32.257   8.144   1.302  1.00 20.00     0.004 A 
HETATM    3  C3  UNL     1     -32.775   7.242   2.398  1.00 20.00    -0.006 A 
ENDROOT
BRANCH   3   4
HETATM    4  C7  UNL     1     -33.791   7.693   3.391  1.00 20.00    -0.018 C 
HETATM    5  C4  UNL     1     -34.820   6.590   3.699  1.00 20.00     0.010 C 
HETATM    6  C5  UNL     1     -33.138   8.158   4.708  1.00 20.00     0.010 C 
ENDBRANCH   3   4
BRANCH   2   7
HETATM    7  C6  UNL     1     -32.723   9.549   1.134  1.00 20.00     0.119 C 
HETATM    8 CL8  UNL     1     -32.798  10.005  -0.590  1.00 20.00    -0.130 Cl
ENDBRANCH   2   7
TORSDOF 2
ENDMDL
MODEL 3
REMARK VINA RESULT:      -1.5      2.525      4.078
REMARK  2 active torsions:
REMARK  status: ('A' for Active; 'I' for Inactive)
REMARK    1  A    between atoms: C2_2  and  C6_6 
REMARK    2  A    between atoms: C3_3  and  C7_7 
ROOT
HETATM    1  C1  UNL     1     -34.437   7.434   3.961  1.00 20.00     0.011 A 
HETATM    2  C2  UNL     1     -34.696   5.959   3.801  1.00 20.00     0.004 A 
HETATM    3  C3  UNL     1     -34.068   6.744   2.673  1.00 20.00    -0.006 A 
ENDROOT
BRANCH   3   4
HETATM    4  C7  UNL     1     -32.637   6.585   2.289  1.00 20.00    -0.018 C 
HETATM    5  C4  UNL     1     -32.459   5.555   1.158  1.00 20.00     0.010 C 
HETATM    6  C5  UNL     1     -32.007   7.924   1.858  1.00 20.00     0.010 C 
ENDBRANCH   3   4
BRANCH   2   7
HETATM    7  C6  UNL     1     -33.932   4.969   4.610  1.00 20.00     0.119 C 
HETATM    8 CL8  UNL     1     -33.785   3.409   3.755  1.00 20.00    -0.130 Cl
ENDBRANCH   2   7
TORSDOF 2
ENDMDL
MODEL 4
REMARK VINA RESULT:      -1.5      1.268      2.592
REMARK  2 active torsions:
REMARK  status: ('A' for Active; 'I' for Inactive)
REMARK    1  A    between atoms: C2_2  and  C6_6 
REMARK    2  A    between atoms: C3_3  and  C7_7 
ROOT
HETATM    1  C1  UNL     1     -31.895   8.567   2.693  1.00 20.00     0.011 A 
HETATM    2  C2  UNL     1     -31.562   8.579   1.224  1.00 20.00     0.004 A 
HETATM    3  C3  UNL     1     -31.807   7.268   1.934  1.00 20.00    -0.006 A 
ENDROOT
BRANCH   3   4
HETATM    4  C7  UNL     1     -33.031   6.450   1.702  1.00 20.00    -0.018 C 
HETATM    5  C4  UNL     1     -32.692   5.066   1.116  1.00 20.00     0.010 C 
HETATM    6  C5  UNL     1     -33.851   6.265   2.993  1.00 20.00     0.010 C 
ENDBRANCH   3   4
BRANCH   2   7
HETATM    7  C6  UNL     1     -32.524   9.148   0.240  1.00 20.00     0.119 C 
HETATM    8 CL8  UNL     1     -32.655  10.920   0.413  1.00 20.00    -0.130 Cl
ENDBRANCH   2   7
TORSDOF 2
ENDMDL
MODEL 5
REMARK VINA RESULT:      -1.3      3.058      4.271
REMARK  2 active torsions:
REMARK  status: ('A' for Active; 'I' for Inactive)
REMARK    1  A    between atoms: C2_2  and  C6_6 
REMARK    2  A    between atoms: C3_3  and  C7_7 
ROOT
HETATM    1  C1  UNL     1     -35.424   5.909   4.220  1.00 20.00     0.011 A 
HETATM    2  C2  UNL     1     -34.508   4.798   3.779  1.00 20.00     0.004 A 
HETATM    3  C3  UNL     1     -34.351   6.183   3.198  1.00 20.00    -0.006 A 
ENDROOT
BRANCH   3   4
HETATM    4  C7  UNL     1     -33.199   7.066   3.536  1.00 20.00    -0.018 C 
HETATM    5  C4  UNL     1     -32.566   7.689   2.278  1.00 20.00     0.010 C 
HETATM    6  C5  UNL     1     -33.605   8.191   4.508  1.00 20.00     0.010 C 
ENDBRANCH   3   4
BRANCH   2   7
HETATM    7  C6  UNL     1     -33.523   4.212   4.731  1.00 20.00     0.119 C 
HETATM    8 CL8  UNL     1     -33.345   2.454   4.479  1.00 20.00    -0.130 Cl
ENDBRANCH   2   7
TORSDOF 2
ENDMDL
MODEL 6
REMARK VINA RESULT:      -1.3      2.537      4.285
REMARK  2 active torsions:
REMARK  status: ('A' for Active; 'I' for Inactive)
REMARK    1  A    between atoms: C2_2  and  C6_6 
REMARK    2  A    between atoms: C3_3  and  C7_7 
ROOT
HETATM    1  C1  UNL     1     -32.076   6.972   1.439  1.00 20.00     0.011 A 
HETATM    2  C2  UNL     1     -32.346   7.734   2.710  1.00 20.00     0.004 A 
HETATM    3  C3  UNL     1     -31.851   8.461   1.482  1.00 20.00    -0.006 A 
ENDROOT
BRANCH   3   4
HETATM    4  C7  UNL     1     -32.720   9.376   0.690  1.00 20.00    -0.018 C 
HETATM    5  C4  UNL     1     -32.559  10.843   1.129  1.00 20.00     0.010 C 
HETATM    6  C5  UNL     1     -32.440   9.267  -0.821  1.00 20.00     0.010 C 
ENDBRANCH   3   4
BRANCH   2   7
HETATM    7  C6  UNL     1     -33.739   7.878   3.219  1.00 20.00     0.119 C 
HETATM    8 CL8  UNL     1     -34.431   6.296   3.672  1.00 20.00    -0.130 Cl
ENDBRANCH   2   7
TORSDOF 2
ENDMDL
MODEL 7
REMARK VINA RESULT:      -1.1      2.709      4.135
REMARK  2 active torsions:
REMARK  status: ('A' for Active; 'I' for Inactive)
REMARK    1  A    between atoms: C2_2  and  C6_6 
REMARK    2  A    between atoms: C3_3  and  C7_7 
ROOT
HETATM    1  C1  UNL     1     -34.067   7.369   4.327  1.00 20.00     0.011 A 
HETATM    2  C2  UNL     1     -34.293   6.306   3.284  1.00 20.00     0.004 A 
HETATM    3  C3  UNL     1     -33.750   7.658   2.883  1.00 20.00    -0.006 A 
ENDROOT
BRANCH   3   4
HETATM    4  C7  UNL     1     -32.338   7.855   2.448  1.00 20.00    -0.018 C 
HETATM    5  C4  UNL     1     -32.253   8.514   1.059  1.00 20.00     0.010 C 
HETATM    6  C5  UNL     1     -31.539   8.699   3.459  1.00 20.00     0.010 C 
ENDBRANCH   3   4
BRANCH   2   7
HETATM    7  C6  UNL     1     -33.458   5.073   3.274  1.00 20.00     0.119 C 
HETATM    8 CL8  UNL     1     -34.059   3.875   4.454  1.00 20.00    -0.130 Cl
ENDBRANCH   2   7
TORSDOF 2
ENDMDL
MODEL 8
REMARK VINA RESULT:      -1.0      2.429      3.873
REMARK  2 active torsions:
REMARK  status: ('A' for Active; 'I' for Inactive)
REMARK    1  A    between atoms: C2_2  and  C6_6 
REMARK    2  A    between atoms: C3_3  and  C7_7 
ROOT
HETATM    1  C1  UNL     1     -33.158   5.800   1.058  1.00 20.00     0.011 A 
HETATM    2  C2  UNL     1     -33.147   5.728   2.563  1.00 20.00     0.004 A 
HETATM    3  C3  UNL     1     -32.168   6.624   1.841  1.00 20.00    -0.006 A 
ENDROOT
BRANCH   3   4
HETATM    4  C7  UNL     1     -32.277   8.110   1.863  1.00 20.00    -0.018 C 
HETATM    5  C4  UNL     1     -31.429   8.730   2.990  1.00 20.00     0.010 C 
HETATM    6  C5  UNL     1     -31.865   8.735   0.517  1.00 20.00     0.010 C 
ENDBRANCH   3   4
BRANCH   2   7
HETATM    7  C6  UNL     1     -34.293   6.264   3.350  1.00 20.00     0.119 C 
HETATM    8 CL8  UNL     1     -35.022   4.999   4.377  1.00 20.00    -0.130 Cl
ENDBRANCH   2   7
TORSDOF 2
ENDMDL
MODEL 9
REMARK VINA RESULT:      -0.8      1.181      2.260
REMARK  2 active torsions:
REMARK  status: ('A' for Active; 'I' for Inactive)
REMARK    1  A    between atoms: C2_2  and  C6_6 
REMARK    2  A    between atoms: C3_3  and  C7_7 
ROOT
HETATM    1  C1  UNL     1     -33.682   8.490   3.699  1.00 20.00     0.011 A 
HETATM    2  C2  UNL     1     -32.463   7.859   3.078  1.00 20.00     0.004 A 
HETATM    3  C3  UNL     1     -33.377   7.036   3.955  1.00 20.00    -0.006 A 
ENDROOT
BRANCH   3   4
HETATM    4  C7  UNL     1     -34.267   5.974   3.408  1.00 20.00    -0.018 C 
HETATM    5  C4  UNL     1     -33.800   4.566   3.821  1.00 20.00     0.010 C 
HETATM    6  C5  UNL     1     -35.731   6.170   3.846  1.00 20.00     0.010 C 
ENDBRANCH   3   4
BRANCH   2   7
HETATM    7  C6  UNL     1     -32.385   7.669   1.602  1.00 20.00     0.119 C 
HETATM    8 CL8  UNL     1     -32.295   9.235   0.751  1.00 20.00    -0.130 Cl
ENDBRANCH   2   7
TORSDOF 2
ENDMDL
