MODEL 1
REMARK VINA RESULT:      -0.4      0.000      0.000
REMARK  2 active torsions:
REMARK  status: ('A' for Active; 'I' for Inactive)
REMARK    1  A    between atoms: C4_4  and  C9_9 
REMARK    2  A    between atoms: C5_5  and  C6_6 
ROOT
HETATM    1  C3  UNL     1     -31.616   7.203   1.639  1.00 20.00     0.017 A 
HETATM    2  C4  UNL     1     -32.668   8.207   1.261  1.00 20.00     0.009 A 
HETATM    3  C6  UNL     1     -32.602   7.680   2.694  1.00 20.00    -0.032 A 
HETATM    4  C8  UNL     1     -32.052   8.580   3.774  1.00 20.00     0.016 C 
ENDROOT
BRANCH   3   5
HETATM    5  C5  UNL     1     -33.710   6.741   3.195  1.00 20.00    -0.036 A 
HETATM    6  C1  UNL     1     -34.441   7.045   4.481  1.00 20.00     0.011 A 
HETATM    7  C2  UNL     1     -35.154   7.184   3.167  1.00 20.00     0.011 A 
HETATM    8  C7  UNL     1     -33.448   5.285   2.899  1.00 20.00     0.016 C 
ENDBRANCH   3   5
BRANCH   2   9
HETATM    9  C9  UNL     1     -32.285   9.599   0.892  1.00 20.00     0.120 C 
HETATM   10 CL10 UNL     1     -32.864  10.017  -0.744  1.00 20.00    -0.130 Cl
ENDBRANCH   2   9
TORSDOF 2
ENDMDL
MODEL 2
REMARK VINA RESULT:      -0.4      3.023      4.513
REMARK  2 active torsions:
REMARK  status: ('A' for Active; 'I' for Inactive)
REMARK    1  A    between atoms: C4_4  and  C9_9 
REMARK    2  A    between atoms: C5_5  and  C6_6 
ROOT
HETATM    1  C3  UNL     1     -33.797   5.400   2.007  1.00 20.00     0.017 A 
HETATM    2  C4  UNL     1     -33.311   5.038   3.381  1.00 20.00     0.009 A 
HETATM    3  C6  UNL     1     -33.873   6.434   3.119  1.00 20.00    -0.032 A 
HETATM    4  C8  UNL     1     -35.252   6.770   3.635  1.00 20.00     0.016 C 
ENDROOT
BRANCH   3   5
HETATM    5  C5  UNL     1     -32.917   7.637   3.121  1.00 20.00    -0.036 A 
HETATM    6  C1  UNL     1     -31.700   7.644   2.227  1.00 20.00     0.011 A 
HETATM    7  C2  UNL     1     -32.851   8.559   1.927  1.00 20.00     0.011 A 
HETATM    8  C7  UNL     1     -32.760   8.281   4.476  1.00 20.00     0.016 C 
ENDBRANCH   3   5
BRANCH   2   9
HETATM    9  C9  UNL     1     -34.029   4.014   4.191  1.00 20.00     0.120 C 
HETATM   10 CL10 UNL     1     -32.886   2.874   4.954  1.00 20.00    -0.130 Cl
ENDBRANCH   2   9
TORSDOF 2
ENDMDL
MODEL 3
REMARK VINA RESULT:      -0.3      2.901      4.269
REMARK  2 active torsions:
REMARK  status: ('A' for Active; 'I' for Inactive)
REMARK    1  A    between atoms: C4_4  and  C9_9 
REMARK    2  A    between atoms: C5_5  and  C6_6 
ROOT
HETATM    1  C3  UNL     1     -35.093   7.055   3.047  1.00 20.00     0.017 A 
HETATM    2  C4  UNL     1     -34.411   5.740   3.296  1.00 20.00     0.009 A 
HETATM    3  C6  UNL     1     -33.592   7.029   3.285  1.00 20.00    -0.032 A 
HETATM    4  C8  UNL     1     -33.106   7.592   4.599  1.00 20.00     0.016 C 
ENDROOT
BRANCH   3   5
HETATM    5  C5  UNL     1     -32.621   7.287   2.122  1.00 20.00    -0.036 A 
HETATM    6  C1  UNL     1     -32.671   8.593   1.364  1.00 20.00     0.011 A 
HETATM    7  C2  UNL     1     -31.509   8.299   2.269  1.00 20.00     0.011 A 
HETATM    8  C7  UNL     1     -32.303   6.053   1.315  1.00 20.00     0.016 C 
ENDBRANCH   3   5
BRANCH   2   9
HETATM    9  C9  UNL     1     -34.690   4.968   4.539  1.00 20.00     0.120 C 
HETATM   10 CL10 UNL     1     -33.715   3.474   4.606  1.00 20.00    -0.130 Cl
ENDBRANCH   2   9
TORSDOF 2
ENDMDL
MODEL 4
REMARK VINA RESULT:      -0.2      1.205      2.078
REMARK  2 active torsions:
REMARK  status: ('A' for Active; 'I' for Inactive)
REMARK    1  A    between atoms: C4_4  and  C9_9 
REMARK    2  A    between atoms: C5_5  and  C6_6 
ROOT
HETATM    1  C3  UNL     1     -31.281   8.031   2.308  1.00 20.00     0.017 A 
HETATM    2  C4  UNL     1     -32.237   8.377   1.202  1.00 20.00     0.009 A 
HETATM    3  C6  UNL     1     -32.700   7.487   2.355  1.00 20.00    -0.032 A 
HETATM    4  C8  UNL     1     -33.613   8.074   3.404  1.00 20.00     0.016 C 
ENDROOT
BRANCH   3   5
HETATM    5  C5  UNL     1     -32.966   5.997   2.088  1.00 20.00    -0.036 A 
HETATM    6  C1  UNL     1     -33.226   5.511   0.682  1.00 20.00     0.011 A 
HETATM    7  C2  UNL     1     -31.937   5.158   1.367  1.00 20.00     0.011 A 
HETATM    8  C7  UNL     1     -33.736   5.314   3.189  1.00 20.00     0.016 C 
ENDBRANCH   3   5
BRANCH   2   9
HETATM    9  C9  UNL     1     -32.708   9.779   1.023  1.00 20.00     0.120 C 
HETATM   10 CL10 UNL     1     -32.854  10.196  -0.707  1.00 20.00    -0.130 Cl
ENDBRANCH   2   9
TORSDOF 2
ENDMDL
MODEL 5
REMARK VINA RESULT:      -0.2      3.197      4.498
REMARK  2 active torsions:
REMARK  status: ('A' for Active; 'I' for Inactive)
REMARK    1  A    between atoms: C4_4  and  C9_9 
REMARK    2  A    between atoms: C5_5  and  C6_6 
ROOT
HETATM    1  C3  UNL     1     -33.704   5.346   2.139  1.00 20.00     0.017 A 
HETATM    2  C4  UNL     1     -33.292   4.901   3.513  1.00 20.00     0.009 A 
HETATM    3  C6  UNL     1     -34.080   6.198   3.341  1.00 20.00    -0.032 A 
HETATM    4  C8  UNL     1     -35.540   6.217   3.725  1.00 20.00     0.016 C 
ENDROOT
BRANCH   3   5
HETATM    5  C5  UNL     1     -33.373   7.540   3.587  1.00 20.00    -0.036 A 
HETATM    6  C1  UNL     1     -34.086   8.652   4.320  1.00 20.00     0.011 A 
HETATM    7  C2  UNL     1     -32.948   7.931   4.983  1.00 20.00     0.011 A 
HETATM    8  C7  UNL     1     -32.455   7.955   2.465  1.00 20.00     0.016 C 
ENDBRANCH   3   5
BRANCH   2   9
HETATM    9  C9  UNL     1     -33.878   3.671   4.116  1.00 20.00     0.120 C 
HETATM   10 CL10 UNL     1     -32.716   2.871   5.211  1.00 20.00    -0.130 Cl
ENDBRANCH   2   9
TORSDOF 2
ENDMDL
MODEL 6
REMARK VINA RESULT:       0.0      3.082      4.496
REMARK  2 active torsions:
REMARK  status: ('A' for Active; 'I' for Inactive)
REMARK    1  A    between atoms: C4_4  and  C9_9 
REMARK    2  A    between atoms: C5_5  and  C6_6 
ROOT
HETATM    1  C3  UNL     1     -35.205   6.527   3.203  1.00 20.00     0.017 A 
HETATM    2  C4  UNL     1     -34.379   5.302   3.480  1.00 20.00     0.009 A 
HETATM    3  C6  UNL     1     -33.693   6.656   3.304  1.00 20.00    -0.032 A 
HETATM    4  C8  UNL     1     -33.155   7.361   4.526  1.00 20.00     0.016 C 
ENDROOT
BRANCH   3   5
HETATM    5  C5  UNL     1     -32.854   6.909   2.042  1.00 20.00    -0.036 A 
HETATM    6  C1  UNL     1     -31.948   5.828   1.500  1.00 20.00     0.011 A 
HETATM    7  C2  UNL     1     -33.193   6.206   0.749  1.00 20.00     0.011 A 
HETATM    8  C7  UNL     1     -32.354   8.327   1.924  1.00 20.00     0.016 C 
ENDBRANCH   3   5
BRANCH   2   9
HETATM    9  C9  UNL     1     -34.475   4.608   4.795  1.00 20.00     0.120 C 
HETATM   10 CL10 UNL     1     -33.440   3.154   4.836  1.00 20.00    -0.130 Cl
ENDBRANCH   2   9
TORSDOF 2
ENDMDL
MODEL 7
REMARK VINA RESULT:       0.5      1.238      1.759
REMARK  2 active torsions:
REMARK  status: ('A' for Active; 'I' for Inactive)
REMARK    1  A    between atoms: C4_4  and  C9_9 
REMARK    2  A    between atoms: C5_5  and  C6_6 
ROOT
HETATM    1  C3  UNL     1     -33.806   6.747   0.931  1.00 20.00     0.017 A 
HETATM    2  C4  UNL     1     -32.989   7.666   1.794  1.00 20.00     0.009 A 
HETATM    3  C6  UNL     1     -33.162   6.202   2.196  1.00 20.00    -0.032 A 
HETATM    4  C8  UNL     1     -32.000   5.257   2.009  1.00 20.00     0.016 C 
ENDROOT
BRANCH   3   5
HETATM    5  C5  UNL     1     -34.029   5.861   3.418  1.00 20.00    -0.036 A 
HETATM    6  C1  UNL     1     -34.313   6.910   4.467  1.00 20.00     0.011 A 
HETATM    7  C2  UNL     1     -35.414   6.447   3.556  1.00 20.00     0.011 A 
HETATM    8  C7  UNL     1     -33.845   4.448   3.913  1.00 20.00     0.016 C 
ENDBRANCH   3   5
BRANCH   2   9
HETATM    9  C9  UNL     1     -31.700   8.223   1.296  1.00 20.00     0.120 C 
HETATM   10 CL10 UNL     1     -31.973   9.580   0.169  1.00 20.00    -0.130 Cl
ENDBRANCH   2   9
TORSDOF 2
ENDMDL
MODEL 8
REMARK VINA RESULT:       0.5      2.538      4.128
REMARK  2 active torsions:
REMARK  status: ('A' for Active; 'I' for Inactive)
REMARK    1  A    between atoms: C4_4  and  C9_9 
REMARK    2  A    between atoms: C5_5  and  C6_6 
ROOT
HETATM    1  C3  UNL     1     -33.113   7.054   4.151  1.00 20.00     0.017 A 
HETATM    2  C4  UNL     1     -34.286   7.561   3.362  1.00 20.00     0.009 A 
HETATM    3  C6  UNL     1     -33.009   7.142   2.636  1.00 20.00    -0.032 A 
HETATM    4  C8  UNL     1     -32.999   5.834   1.883  1.00 20.00     0.016 C 
ENDROOT
BRANCH   3   5
HETATM    5  C5  UNL     1     -32.133   8.223   1.983  1.00 20.00    -0.036 A 
HETATM    6  C1  UNL     1     -31.817   8.158   0.508  1.00 20.00     0.011 A 
HETATM    7  C2  UNL     1     -32.741   9.221   1.027  1.00 20.00     0.011 A 
HETATM    8  C7  UNL     1     -31.037   8.737   2.883  1.00 20.00     0.016 C 
ENDBRANCH   3   5
BRANCH   2   9
HETATM    9  C9  UNL     1     -35.550   6.774   3.298  1.00 20.00     0.120 C 
HETATM   10 CL10 UNL     1     -35.510   5.394   4.430  1.00 20.00    -0.130 Cl
ENDBRANCH   2   9
TORSDOF 2
ENDMDL
MODEL 9
REMARK VINA RESULT:       0.7      2.240      4.276
REMARK  2 active torsions:
REMARK  status: ('A' for Active; 'I' for Inactive)
REMARK    1  A    between atoms: C4_4  and  C9_9 
REMARK    2  A    between atoms: C5_5  and  C6_6 
ROOT
HETATM    1  C3  UNL     1     -32.152   8.395   3.297  1.00 20.00     0.017 A 
HETATM    2  C4  UNL     1     -33.399   7.804   2.704  1.00 20.00     0.009 A 
HETATM    3  C6  UNL     1     -32.204   8.114   1.804  1.00 20.00    -0.032 A 
HETATM    4  C8  UNL     1     -31.357   6.970   1.302  1.00 20.00     0.016 C 
ENDROOT
BRANCH   3   5
HETATM    5  C5  UNL     1     -32.306   9.275   0.802  1.00 20.00    -0.036 A 
HETATM    6  C1  UNL     1     -31.313   9.393  -0.331  1.00 20.00     0.011 A 
HETATM    7  C2  UNL     1     -32.737   9.016  -0.622  1.00 20.00     0.011 A 
HETATM    8  C7  UNL     1     -32.776  10.568   1.421  1.00 20.00     0.016 C 
ENDBRANCH   3   5
BRANCH   2   9
HETATM    9  C9  UNL     1     -33.814   6.415   3.049  1.00 20.00     0.120 C 
HETATM   10 CL10 UNL     1     -35.336   6.407   3.982  1.00 20.00    -0.130 Cl
ENDBRANCH   2   9
TORSDOF 2
ENDMDL
