MODEL 1
REMARK VINA RESULT:       1.1      0.000      0.000
REMARK  1 active torsions:
REMARK  status: ('A' for Active; 'I' for Inactive)
REMARK    1  A    between atoms: C5_5  and  C10_10 
ROOT
HETATM    1  C1  UNL     1     -33.804   7.916   4.401  1.00 20.00     0.036 C 
HETATM    2  C2  UNL     1     -35.551   6.055   4.062  1.00 20.00     0.016 A 
HETATM    3  C3  UNL     1     -34.013   6.850   2.140  1.00 20.00     0.047 C 
HETATM    4  C4  UNL     1     -32.364   8.254   4.047  1.00 20.00     0.169 C 
HETATM    5  C5  UNL     1     -34.253   5.345   4.322  1.00 20.00     0.009 A 
HETATM    6  C6  UNL     1     -34.253   6.700   3.627  1.00 20.00    -0.031 A 
HETATM    7  C7  UNL     1     -32.568   7.303   1.838  1.00 20.00     0.054 C 
HETATM    8  C8  UNL     1     -31.547   6.173   2.021  1.00 20.00     0.045 C 
HETATM    9  C9  UNL     1     -32.494   7.783   0.379  1.00 20.00     0.045 C 
HETATM   10  O11 UNL     1     -32.218   8.445   2.639  1.00 20.00    -0.381 OA
ENDROOT
BRANCH   5  11
HETATM   11  C10 UNL     1     -33.984   4.050   3.634  1.00 20.00     0.120 C 
HETATM   12 CL12 UNL     1     -33.173   2.894   4.727  1.00 20.00    -0.130 Cl
ENDBRANCH   5  11
TORSDOF 1
ENDMDL
MODEL 2
REMARK VINA RESULT:       2.6      3.262      4.505
REMARK  1 active torsions:
REMARK  status: ('A' for Active; 'I' for Inactive)
REMARK    1  A    between atoms: C5_5  and  C10_10 
ROOT
HETATM    1  C1  UNL     1     -33.171   7.542   3.558  1.00 20.00     0.036 C 
HETATM    2  C2  UNL     1     -31.575   9.233   2.451  1.00 20.00     0.016 A 
HETATM    3  C3  UNL     1     -31.707   6.769   1.672  1.00 20.00     0.047 C 
HETATM    4  C4  UNL     1     -34.136   6.425   3.192  1.00 20.00     0.169 C 
HETATM    5  C5  UNL     1     -32.793   9.196   1.573  1.00 20.00     0.009 A 
HETATM    6  C6  UNL     1     -32.373   7.951   2.343  1.00 20.00    -0.031 A 
HETATM    7  C7  UNL     1     -32.704   5.616   1.425  1.00 20.00     0.054 C 
HETATM    8  C8  UNL     1     -33.658   5.905   0.259  1.00 20.00     0.045 C 
HETATM    9  C9  UNL     1     -31.915   4.340   1.092  1.00 20.00     0.045 C 
HETATM   10  O11 UNL     1     -33.438   5.315   2.625  1.00 20.00    -0.381 OA
ENDROOT
BRANCH   5  11
HETATM   11  C10 UNL     1     -32.633   9.366   0.101  1.00 20.00     0.120 C 
HETATM   12 CL12 UNL     1     -32.098  11.021  -0.305  1.00 20.00    -0.130 Cl
ENDBRANCH   5  11
TORSDOF 1
ENDMDL
MODEL 3
REMARK VINA RESULT:       3.0      2.744      4.355
REMARK  1 active torsions:
REMARK  status: ('A' for Active; 'I' for Inactive)
REMARK    1  A    between atoms: C5_5  and  C10_10 
ROOT
HETATM    1  C1  UNL     1     -32.687   4.632   2.444  1.00 20.00     0.036 C 
HETATM    2  C2  UNL     1     -32.155   6.327   0.580  1.00 20.00     0.016 A 
HETATM    3  C3  UNL     1     -34.244   6.566   2.088  1.00 20.00     0.047 C 
HETATM    4  C4  UNL     1     -33.166   4.584   3.887  1.00 20.00     0.169 C 
HETATM    5  C5  UNL     1     -31.620   6.939   1.844  1.00 20.00     0.009 A 
HETATM    6  C6  UNL     1     -32.841   6.030   1.896  1.00 20.00    -0.031 A 
HETATM    7  C7  UNL     1     -34.728   6.392   3.543  1.00 20.00     0.054 C 
HETATM    8  C8  UNL     1     -34.075   7.394   4.504  1.00 20.00     0.045 C 
HETATM    9  C9  UNL     1     -36.249   6.608   3.589  1.00 20.00     0.045 C 
HETATM   10  O11 UNL     1     -34.515   5.041   3.989  1.00 20.00    -0.381 OA
ENDROOT
BRANCH   5  11
HETATM   11  C10 UNL     1     -31.668   8.419   2.011  1.00 20.00     0.120 C 
HETATM   12 CL12 UNL     1     -32.217   9.222   0.514  1.00 20.00    -0.130 Cl
ENDBRANCH   5  11
TORSDOF 1
ENDMDL
MODEL 4
REMARK VINA RESULT:       3.5      2.724      4.145
REMARK  1 active torsions:
REMARK  status: ('A' for Active; 'I' for Inactive)
REMARK    1  A    between atoms: C5_5  and  C10_10 
ROOT
HETATM    1  C1  UNL     1     -34.951   7.282   4.250  1.00 20.00     0.036 C 
HETATM    2  C2  UNL     1     -32.628   8.372   4.026  1.00 20.00     0.016 A 
HETATM    3  C3  UNL     1     -32.921   5.808   4.212  1.00 20.00     0.047 C 
HETATM    4  C4  UNL     1     -35.750   6.100   3.721  1.00 20.00     0.169 C 
HETATM    5  C5  UNL     1     -33.010   7.950   2.636  1.00 20.00     0.009 A 
HETATM    6  C6  UNL     1     -33.504   7.153   3.835  1.00 20.00    -0.031 A 
HETATM    7  C7  UNL     1     -33.824   4.644   3.753  1.00 20.00     0.054 C 
HETATM    8  C8  UNL     1     -33.745   4.400   2.240  1.00 20.00     0.045 C 
HETATM    9  C9  UNL     1     -33.380   3.358   4.468  1.00 20.00     0.045 C 
HETATM   10  O11 UNL     1     -35.184   4.866   4.166  1.00 20.00    -0.381 OA
ENDROOT
BRANCH   5  11
HETATM   11  C10 UNL     1     -31.947   7.486   1.700  1.00 20.00     0.120 C 
HETATM   12 CL12 UNL     1     -31.592   8.721   0.460  1.00 20.00    -0.130 Cl
ENDBRANCH   5  11
TORSDOF 1
ENDMDL
MODEL 5
REMARK VINA RESULT:       3.5      2.222      3.785
REMARK  1 active torsions:
REMARK  status: ('A' for Active; 'I' for Inactive)
REMARK    1  A    between atoms: C5_5  and  C10_10 
ROOT
HETATM    1  C1  UNL     1     -32.389   7.407   2.711  1.00 20.00     0.036 C 
HETATM    2  C2  UNL     1     -32.065   5.438   1.083  1.00 20.00     0.016 A 
HETATM    3  C3  UNL     1     -33.792   5.348   3.008  1.00 20.00     0.047 C 
HETATM    4  C4  UNL     1     -33.495   8.192   3.399  1.00 20.00     0.169 C 
HETATM    5  C5  UNL     1     -33.239   6.210   0.552  1.00 20.00     0.009 A 
HETATM    6  C6  UNL     1     -32.965   6.178   2.049  1.00 20.00    -0.031 A 
HETATM    7  C7  UNL     1     -34.824   6.210   3.765  1.00 20.00     0.054 C 
HETATM    8  C8  UNL     1     -36.014   6.613   2.884  1.00 20.00     0.045 C 
HETATM    9  C9  UNL     1     -35.364   5.405   4.958  1.00 20.00     0.045 C 
HETATM   10  O11 UNL     1     -34.193   7.371   4.336  1.00 20.00    -0.381 OA
ENDROOT
BRANCH   5  11
HETATM   11  C10 UNL     1     -34.351   5.473  -0.114  1.00 20.00     0.120 C 
HETATM   12 CL12 UNL     1     -33.822   3.855  -0.656  1.00 20.00    -0.130 Cl
ENDBRANCH   5  11
TORSDOF 1
ENDMDL
MODEL 6
REMARK VINA RESULT:       4.1      2.925      4.406
REMARK  1 active torsions:
REMARK  status: ('A' for Active; 'I' for Inactive)
REMARK    1  A    between atoms: C5_5  and  C10_10 
ROOT
HETATM    1  C1  UNL     1     -32.244   8.420   4.247  1.00 20.00     0.036 C 
HETATM    2  C2  UNL     1     -31.114   8.045   1.963  1.00 20.00     0.016 A 
HETATM    3  C3  UNL     1     -33.010   6.506   2.818  1.00 20.00     0.047 C 
HETATM    4  C4  UNL     1     -33.622   8.419   4.890  1.00 20.00     0.169 C 
HETATM    5  C5  UNL     1     -32.368   8.818   1.669  1.00 20.00     0.009 A 
HETATM    6  C6  UNL     1     -32.327   7.856   2.849  1.00 20.00    -0.031 A 
HETATM    7  C7  UNL     1     -34.352   6.527   3.580  1.00 20.00     0.054 C 
HETATM    8  C8  UNL     1     -35.459   7.249   2.802  1.00 20.00     0.045 C 
HETATM    9  C9  UNL     1     -34.806   5.079   3.826  1.00 20.00     0.045 C 
HETATM   10  O11 UNL     1     -34.183   7.106   4.887  1.00 20.00    -0.381 OA
ENDROOT
BRANCH   5  11
HETATM   11  C10 UNL     1     -33.101   8.557   0.398  1.00 20.00     0.120 C 
HETATM   12 CL12 UNL     1     -32.877   9.894  -0.765  1.00 20.00    -0.130 Cl
ENDBRANCH   5  11
TORSDOF 1
ENDMDL
