MODEL 1
REMARK VINA RESULT:       0.1      0.000      0.000
REMARK  1 active torsions:
REMARK  status: ('A' for Active; 'I' for Inactive)
REMARK    1  A    between atoms: C4_4  and  C10_10 
ROOT
HETATM    1  C1  UNL     1     -32.151   7.901   3.447  1.00 20.00     0.007 C 
HETATM    2  C2  UNL     1     -33.566   7.647   3.965  1.00 20.00     0.009 C 
HETATM    3  C3  UNL     1     -34.066   6.330   1.846  1.00 20.00     0.013 C 
HETATM    4  C4  UNL     1     -32.070   7.941   1.913  1.00 20.00     0.003 C 
HETATM    5  C5  UNL     1     -32.678   6.676   1.270  1.00 20.00    -0.013 C 
HETATM    6  C6  UNL     1     -34.216   6.372   3.387  1.00 20.00    -0.047 C 
HETATM    7  C7  UNL     1     -31.702   5.497   1.319  1.00 20.00     0.010 C 
HETATM    8  C8  UNL     1     -33.623   5.117   4.054  1.00 20.00     0.015 C 
HETATM    9  C9  UNL     1     -35.723   6.390   3.726  1.00 20.00     0.015 C 
ENDROOT
BRANCH   4  10
HETATM   10  C10 UNL     1     -32.730   9.212   1.362  1.00 20.00     0.119 C 
HETATM   11 CL11 UNL     1     -32.232   9.473  -0.317  1.00 20.00    -0.130 Cl
ENDBRANCH   4  10
TORSDOF 1
ENDMDL
MODEL 2
REMARK VINA RESULT:       1.4      2.550      3.999
REMARK  1 active torsions:
REMARK  status: ('A' for Active; 'I' for Inactive)
REMARK    1  A    between atoms: C4_4  and  C10_10 
ROOT
HETATM    1  C1  UNL     1     -34.475   7.038   3.182  1.00 20.00     0.007 C 
HETATM    2  C2  UNL     1     -33.271   7.952   3.409  1.00 20.00     0.009 C 
HETATM    3  C3  UNL     1     -31.881   6.429   1.917  1.00 20.00     0.013 C 
HETATM    4  C4  UNL     1     -34.081   5.575   2.927  1.00 20.00     0.003 C 
HETATM    5  C5  UNL     1     -33.060   5.446   1.775  1.00 20.00    -0.013 C 
HETATM    6  C6  UNL     1     -32.231   7.896   2.271  1.00 20.00    -0.047 C 
HETATM    7  C7  UNL     1     -33.745   5.530   0.407  1.00 20.00     0.010 C 
HETATM    8  C8  UNL     1     -32.736   8.675   1.042  1.00 20.00     0.015 C 
HETATM    9  C9  UNL     1     -30.940   8.599   2.748  1.00 20.00     0.015 C 
ENDROOT
BRANCH   4  10
HETATM   10  C10 UNL     1     -33.553   4.917   4.209  1.00 20.00     0.119 C 
HETATM   11 CL11 UNL     1     -33.603   3.155   4.049  1.00 20.00    -0.130 Cl
ENDBRANCH   4  10
TORSDOF 1
ENDMDL
MODEL 3
REMARK VINA RESULT:       2.3      1.814      3.180
REMARK  1 active torsions:
REMARK  status: ('A' for Active; 'I' for Inactive)
REMARK    1  A    between atoms: C4_4  and  C10_10 
ROOT
HETATM    1  C1  UNL     1     -33.860   6.222   1.737  1.00 20.00     0.007 C 
HETATM    2  C2  UNL     1     -33.964   6.421   3.249  1.00 20.00     0.009 C 
HETATM    3  C3  UNL     1     -32.110   8.159   3.110  1.00 20.00     0.013 C 
HETATM    4  C4  UNL     1     -32.450   6.489   1.191  1.00 20.00     0.003 C 
HETATM    5  C5  UNL     1     -31.925   7.881   1.605  1.00 20.00    -0.013 C 
HETATM    6  C6  UNL     1     -33.490   7.811   3.723  1.00 20.00    -0.047 C 
HETATM    7  C7  UNL     1     -32.508   8.987   0.719  1.00 20.00     0.010 C 
HETATM    8  C8  UNL     1     -34.547   8.882   3.393  1.00 20.00     0.015 C 
HETATM    9  C9  UNL     1     -33.343   7.785   5.260  1.00 20.00     0.015 C 
ENDROOT
BRANCH   4  10
HETATM   10  C10 UNL     1     -31.476   5.383   1.619  1.00 20.00     0.119 C 
HETATM   11 CL11 UNL     1     -31.294   4.198   0.316  1.00 20.00    -0.130 Cl
ENDBRANCH   4  10
TORSDOF 1
ENDMDL
MODEL 4
REMARK VINA RESULT:       2.4      1.719      3.397
REMARK  1 active torsions:
REMARK  status: ('A' for Active; 'I' for Inactive)
REMARK    1  A    between atoms: C4_4  and  C10_10 
ROOT
HETATM    1  C1  UNL     1     -33.355   8.303   2.459  1.00 20.00     0.007 C 
HETATM    2  C2  UNL     1     -32.334   7.332   1.867  1.00 20.00     0.009 C 
HETATM    3  C3  UNL     1     -33.482   5.429   3.107  1.00 20.00     0.013 C 
HETATM    4  C4  UNL     1     -33.885   7.858   3.830  1.00 20.00     0.003 C 
HETATM    5  C5  UNL     1     -34.444   6.419   3.793  1.00 20.00    -0.013 C 
HETATM    6  C6  UNL     1     -32.849   5.881   1.767  1.00 20.00    -0.047 C 
HETATM    7  C7  UNL     1     -35.857   6.382   3.203  1.00 20.00     0.010 C 
HETATM    8  C8  UNL     1     -33.835   5.740   0.593  1.00 20.00     0.015 C 
HETATM    9  C9  UNL     1     -31.652   4.953   1.461  1.00 20.00     0.015 C 
ENDROOT
BRANCH   4  10
HETATM   10  C10 UNL     1     -32.804   8.001   4.910  1.00 20.00     0.119 C 
HETATM   11 CL11 UNL     1     -31.542   9.115   4.359  1.00 20.00    -0.130 Cl
ENDBRANCH   4  10
TORSDOF 1
ENDMDL
