MODEL 1
REMARK VINA RESULT:      -0.4      0.000      0.000
REMARK  1 active torsions:
REMARK  status: ('A' for Active; 'I' for Inactive)
REMARK    1  A    between atoms: C5_5  and  C7_7 
ROOT
HETATM    1  C1  UNL     1     -35.231   6.531   3.659  1.00 20.00     0.020 C 
HETATM    2  C2  UNL     1     -33.037   7.827   4.179  1.00 20.00     0.017 A 
HETATM    3  C3  UNL     1     -35.354   5.324   4.569  1.00 20.00     0.075 C 
HETATM    4  C4  UNL     1     -33.050   5.428   3.174  1.00 20.00     0.083 C 
HETATM    5  C5  UNL     1     -33.308   8.002   2.711  1.00 20.00     0.005 A 
HETATM    6  C6  UNL     1     -33.759   6.735   3.415  1.00 20.00    -0.026 A 
HETATM    7  S8  UNL     1     -34.114   4.164   3.944  1.00 20.00    -0.168 SA
ENDROOT
BRANCH   5   8
HETATM    8  C7  UNL     1     -32.176   8.012   1.742  1.00 20.00     0.090 C 
HETATM    9 BR9  UNL     1     -32.352   9.509   0.502  1.00 20.00    -0.096 Br
ENDBRANCH   5   8
TORSDOF 1
ENDMDL
MODEL 2
REMARK VINA RESULT:      -0.2      3.109      4.122
REMARK  1 active torsions:
REMARK  status: ('A' for Active; 'I' for Inactive)
REMARK    1  A    between atoms: C5_5  and  C7_7 
ROOT
HETATM    1  C1  UNL     1     -32.913   7.716   3.913  1.00 20.00     0.020 C 
HETATM    2  C2  UNL     1     -35.204   6.581   3.436  1.00 20.00     0.017 A 
HETATM    3  C3  UNL     1     -32.516   8.603   2.749  1.00 20.00     0.075 C 
HETATM    4  C4  UNL     1     -33.059   6.054   2.063  1.00 20.00     0.083 C 
HETATM    5  C5  UNL     1     -34.409   5.622   4.276  1.00 20.00     0.005 A 
HETATM    6  C6  UNL     1     -33.692   6.567   3.329  1.00 20.00    -0.026 A 
HETATM    7  S8  UNL     1     -32.058   7.443   1.438  1.00 20.00    -0.168 SA
ENDROOT
BRANCH   5   8
HETATM    8  C7  UNL     1     -34.499   4.156   4.017  1.00 20.00     0.090 C 
HETATM    9 BR9  UNL     1     -33.039   3.215   4.906  1.00 20.00    -0.096 Br
ENDBRANCH   5   8
TORSDOF 1
ENDMDL
MODEL 3
REMARK VINA RESULT:       0.3      1.266      1.991
REMARK  1 active torsions:
REMARK  status: ('A' for Active; 'I' for Inactive)
REMARK    1  A    between atoms: C5_5  and  C7_7 
ROOT
HETATM    1  C1  UNL     1     -33.009   5.049   3.267  1.00 20.00     0.020 C 
HETATM    2  C2  UNL     1     -33.181   6.450   1.083  1.00 20.00     0.017 A 
HETATM    3  C3  UNL     1     -34.386   4.590   3.705  1.00 20.00     0.075 C 
HETATM    4  C4  UNL     1     -34.166   7.253   3.352  1.00 20.00     0.083 C 
HETATM    5  C5  UNL     1     -32.017   6.997   1.861  1.00 20.00     0.005 A 
HETATM    6  C6  UNL     1     -33.194   6.385   2.597  1.00 20.00    -0.026 A 
HETATM    7  S8  UNL     1     -35.182   6.093   4.323  1.00 20.00    -0.168 SA
ENDROOT
BRANCH   5   8
HETATM    8  C7  UNL     1     -31.752   8.465   1.869  1.00 20.00     0.090 C 
HETATM    9 BR9  UNL     1     -32.384   9.281   0.214  1.00 20.00    -0.096 Br
ENDBRANCH   5   8
TORSDOF 1
ENDMDL
MODEL 4
REMARK VINA RESULT:       1.5      3.388      4.660
REMARK  1 active torsions:
REMARK  status: ('A' for Active; 'I' for Inactive)
REMARK    1  A    between atoms: C5_5  and  C7_7 
ROOT
HETATM    1  C1  UNL     1     -31.710   7.710   0.851  1.00 20.00     0.020 C 
HETATM    2  C2  UNL     1     -31.658   8.412   3.354  1.00 20.00     0.017 A 
HETATM    3  C3  UNL     1     -31.180   8.834  -0.019  1.00 20.00     0.075 C 
HETATM    4  C4  UNL     1     -33.207   9.553   1.605  1.00 20.00     0.083 C 
HETATM    5  C5  UNL     1     -32.831   7.488   3.186  1.00 20.00     0.005 A 
HETATM    6  C6  UNL     1     -32.388   8.362   2.027  1.00 20.00    -0.026 A 
HETATM    7  S8  UNL     1     -32.490  10.082   0.015  1.00 20.00    -0.168 SA
ENDROOT
BRANCH   5   8
HETATM    8  C7  UNL     1     -34.093   7.744   3.936  1.00 20.00     0.090 C 
HETATM    9 BR9  UNL     1     -35.188   6.131   4.001  1.00 20.00    -0.096 Br
ENDBRANCH   5   8
TORSDOF 1
ENDMDL
MODEL 5
REMARK VINA RESULT:       2.3      1.739      2.247
REMARK  1 active torsions:
REMARK  status: ('A' for Active; 'I' for Inactive)
REMARK    1  A    between atoms: C5_5  and  C7_7 
ROOT
HETATM    1  C1  UNL     1     -32.870   8.344   4.022  1.00 20.00     0.020 C 
HETATM    2  C2  UNL     1     -31.387   7.234   2.196  1.00 20.00     0.017 A 
HETATM    3  C3  UNL     1     -33.595   7.281   4.825  1.00 20.00     0.075 C 
HETATM    4  C4  UNL     1     -33.985   7.117   2.162  1.00 20.00     0.083 C 
HETATM    5  C5  UNL     1     -31.846   8.553   1.642  1.00 20.00     0.005 A 
HETATM    6  C6  UNL     1     -32.726   7.802   2.625  1.00 20.00    -0.026 A 
HETATM    7  S8  UNL     1     -34.858   6.651   3.693  1.00 20.00    -0.168 SA
ENDROOT
BRANCH   5   8
HETATM    8  C7  UNL     1     -32.194   8.672   0.197  1.00 20.00     0.090 C 
HETATM    9 BR9  UNL     1     -32.779  10.487  -0.218  1.00 20.00    -0.096 Br
ENDBRANCH   5   8
TORSDOF 1
ENDMDL
