MODEL 1
REMARK VINA RESULT:      -1.7      0.000      0.000
REMARK  3 active torsions:
REMARK  status: ('A' for Active; 'I' for Inactive)
REMARK    1  A    between atoms: C4_4  and  C6_6 
REMARK    2  A    between atoms: C5_5  and  C8_8 
REMARK    3  A    between atoms: C6_6  and  C9_9 
ROOT
HETATM    1  C3  UNL     1     -31.184   7.682   2.093  1.00 20.00     0.017 A 
HETATM    2  C5  UNL     1     -32.305   8.602   1.704  1.00 20.00     0.009 A 
HETATM    3  C6  UNL     1     -32.619   7.187   2.173  1.00 20.00    -0.032 A 
ENDROOT
BRANCH   3   4
HETATM    4  C4  UNL     1     -33.291   6.985   3.540  1.00 20.00    -0.006 A 
HETATM    5  C1  UNL     1     -34.532   7.730   3.952  1.00 20.00     0.006 A 
HETATM    6  C2  UNL     1     -34.592   6.248   3.704  1.00 20.00     0.006 A 
ENDBRANCH   3   4
BRANCH   3   7
HETATM    7  C9  UNL     1     -33.036   6.159   1.150  1.00 20.00     0.006 C 
HETATM    8  C7  UNL     1     -32.060   5.022   1.055  1.00 20.00     0.006 C 
ENDBRANCH   3   7
BRANCH   2   9
HETATM    9  C8  UNL     1     -32.465   9.041   0.288  1.00 20.00     0.120 C 
HETATM   10 CL10 UNL     1     -32.573  10.819   0.171  1.00 20.00    -0.130 Cl
ENDBRANCH   2   9
TORSDOF 3
ENDMDL
MODEL 2
REMARK VINA RESULT:      -0.5      2.322      3.396
REMARK  3 active torsions:
REMARK  status: ('A' for Active; 'I' for Inactive)
REMARK    1  A    between atoms: C4_4  and  C6_6 
REMARK    2  A    between atoms: C5_5  and  C8_8 
REMARK    3  A    between atoms: C6_6  and  C9_9 
ROOT
HETATM    1  C3  UNL     1     -33.425   6.205   0.578  1.00 20.00     0.017 A 
HETATM    2  C5  UNL     1     -32.769   5.410   1.670  1.00 20.00     0.009 A 
HETATM    3  C6  UNL     1     -33.071   6.886   1.889  1.00 20.00    -0.032 A 
ENDROOT
BRANCH   3   4
HETATM    4  C4  UNL     1     -34.179   7.284   2.877  1.00 20.00    -0.006 A 
HETATM    5  C1  UNL     1     -34.635   6.381   3.991  1.00 20.00     0.006 A 
HETATM    6  C2  UNL     1     -33.899   7.653   4.307  1.00 20.00     0.006 A 
ENDBRANCH   3   4
BRANCH   3   7
HETATM    7  C9  UNL     1     -31.930   7.874   1.851  1.00 20.00     0.006 C 
HETATM    8  C7  UNL     1     -32.207   9.028   0.932  1.00 20.00     0.006 C 
ENDBRANCH   3   7
BRANCH   2   9
HETATM    9  C8  UNL     1     -31.386   4.882   1.493  1.00 20.00     0.120 C 
HETATM   10 CL10 UNL     1     -31.224   3.996  -0.047  1.00 20.00    -0.130 Cl
ENDBRANCH   2   9
TORSDOF 3
ENDMDL
MODEL 3
REMARK VINA RESULT:      -0.5      3.011      4.225
REMARK  3 active torsions:
REMARK  status: ('A' for Active; 'I' for Inactive)
REMARK    1  A    between atoms: C4_4  and  C6_6 
REMARK    2  A    between atoms: C5_5  and  C8_8 
REMARK    3  A    between atoms: C6_6  and  C9_9 
ROOT
HETATM    1  C3  UNL     1     -34.540   6.667   3.169  1.00 20.00     0.017 A 
HETATM    2  C5  UNL     1     -33.667   5.603   3.770  1.00 20.00     0.009 A 
HETATM    3  C6  UNL     1     -33.290   6.218   2.429  1.00 20.00    -0.032 A 
ENDROOT
BRANCH   3   4
HETATM    4  C4  UNL     1     -32.066   7.145   2.349  1.00 20.00    -0.006 A 
HETATM    5  C1  UNL     1     -32.018   8.349   1.449  1.00 20.00     0.006 A 
HETATM    6  C2  UNL     1     -32.054   8.527   2.941  1.00 20.00     0.006 A 
ENDBRANCH   3   4
BRANCH   3   7
HETATM    7  C9  UNL     1     -33.503   5.409   1.173  1.00 20.00     0.006 C 
HETATM    8  C7  UNL     1     -32.220   4.847   0.634  1.00 20.00     0.006 C 
ENDBRANCH   3   7
BRANCH   2   9
HETATM    9  C8  UNL     1     -34.166   4.206   3.910  1.00 20.00     0.120 C 
HETATM   10 CL10 UNL     1     -33.010   3.194   4.818  1.00 20.00    -0.130 Cl
ENDBRANCH   2   9
TORSDOF 3
ENDMDL
MODEL 4
REMARK VINA RESULT:      -0.2      1.817      3.044
REMARK  3 active torsions:
REMARK  status: ('A' for Active; 'I' for Inactive)
REMARK    1  A    between atoms: C4_4  and  C6_6 
REMARK    2  A    between atoms: C5_5  and  C8_8 
REMARK    3  A    between atoms: C6_6  and  C9_9 
ROOT
HETATM    1  C3  UNL     1     -33.640   6.128   1.229  1.00 20.00     0.017 A 
HETATM    2  C5  UNL     1     -32.284   6.251   1.863  1.00 20.00     0.009 A 
HETATM    3  C6  UNL     1     -33.463   5.763   2.694  1.00 20.00    -0.032 A 
ENDROOT
BRANCH   3   4
HETATM    4  C4  UNL     1     -33.509   4.291   3.133  1.00 20.00    -0.006 A 
HETATM    5  C1  UNL     1     -32.546   3.712   4.134  1.00 20.00     0.006 A 
HETATM    6  C2  UNL     1     -33.999   3.862   4.489  1.00 20.00     0.006 A 
ENDBRANCH   3   4
BRANCH   3   7
HETATM    7  C9  UNL     1     -34.079   6.701   3.704  1.00 20.00     0.006 C 
HETATM    8  C7  UNL     1     -35.570   6.552   3.783  1.00 20.00     0.006 C 
ENDBRANCH   3   7
BRANCH   2   9
HETATM    9  C8  UNL     1     -31.658   7.590   2.053  1.00 20.00     0.120 C 
HETATM   10 CL10 UNL     1     -32.290   8.773   0.875  1.00 20.00    -0.130 Cl
ENDBRANCH   2   9
TORSDOF 3
ENDMDL
MODEL 5
REMARK VINA RESULT:      -0.1      3.316      4.415
REMARK  3 active torsions:
REMARK  status: ('A' for Active; 'I' for Inactive)
REMARK    1  A    between atoms: C4_4  and  C6_6 
REMARK    2  A    between atoms: C5_5  and  C8_8 
REMARK    3  A    between atoms: C6_6  and  C9_9 
ROOT
HETATM    1  C3  UNL     1     -35.309   5.752   3.666  1.00 20.00     0.017 A 
HETATM    2  C5  UNL     1     -34.150   5.048   4.309  1.00 20.00     0.009 A 
HETATM    3  C6  UNL     1     -33.891   6.129   3.269  1.00 20.00    -0.032 A 
ENDROOT
BRANCH   3   4
HETATM    4  C4  UNL     1     -33.296   7.473   3.719  1.00 20.00    -0.006 A 
HETATM    5  C1  UNL     1     -34.132   8.709   3.907  1.00 20.00     0.006 A 
HETATM    6  C2  UNL     1     -33.509   8.035   5.097  1.00 20.00     0.006 A 
ENDBRANCH   3   4
BRANCH   3   7
HETATM    7  C9  UNL     1     -33.444   5.717   1.888  1.00 20.00     0.006 C 
HETATM    8  C7  UNL     1     -32.242   6.487   1.425  1.00 20.00     0.006 C 
ENDBRANCH   3   7
BRANCH   2   9
HETATM    9  C8  UNL     1     -33.907   3.600   4.051  1.00 20.00     0.120 C 
HETATM   10 CL10 UNL     1     -32.761   2.915   5.235  1.00 20.00    -0.130 Cl
ENDBRANCH   2   9
TORSDOF 3
ENDMDL
MODEL 6
REMARK VINA RESULT:       0.1      2.165      3.836
REMARK  3 active torsions:
REMARK  status: ('A' for Active; 'I' for Inactive)
REMARK    1  A    between atoms: C4_4  and  C6_6 
REMARK    2  A    between atoms: C5_5  and  C8_8 
REMARK    3  A    between atoms: C6_6  and  C9_9 
ROOT
HETATM    1  C3  UNL     1     -35.317   6.368   3.499  1.00 20.00     0.017 A 
HETATM    2  C5  UNL     1     -34.235   7.380   3.747  1.00 20.00     0.009 A 
HETATM    3  C6  UNL     1     -33.870   6.000   3.216  1.00 20.00    -0.032 A 
ENDROOT
BRANCH   3   4
HETATM    4  C4  UNL     1     -33.378   5.864   1.766  1.00 20.00    -0.006 A 
HETATM    5  C1  UNL     1     -32.276   6.717   1.199  1.00 20.00     0.006 A 
HETATM    6  C2  UNL     1     -32.054   5.246   1.412  1.00 20.00     0.006 A 
ENDBRANCH   3   4
BRANCH   3   7
HETATM    7  C9  UNL     1     -33.229   5.006   4.153  1.00 20.00     0.006 C 
HETATM    8  C7  UNL     1     -33.923   3.676   4.134  1.00 20.00     0.006 C 
ENDBRANCH   3   7
BRANCH   2   9
HETATM    9  C8  UNL     1     -33.919   7.824   5.134  1.00 20.00     0.120 C 
HETATM   10 CL10 UNL     1     -32.353   8.678   5.199  1.00 20.00    -0.130 Cl
ENDBRANCH   2   9
TORSDOF 3
ENDMDL
MODEL 7
REMARK VINA RESULT:       0.4      2.717      3.980
REMARK  3 active torsions:
REMARK  status: ('A' for Active; 'I' for Inactive)
REMARK    1  A    between atoms: C4_4  and  C6_6 
REMARK    2  A    between atoms: C5_5  and  C8_8 
REMARK    3  A    between atoms: C6_6  and  C9_9 
ROOT
HETATM    1  C3  UNL     1     -34.363   7.063   2.707  1.00 20.00     0.017 A 
HETATM    2  C5  UNL     1     -33.513   6.133   3.524  1.00 20.00     0.009 A 
HETATM    3  C6  UNL     1     -33.094   6.484   2.103  1.00 20.00    -0.032 A 
ENDROOT
BRANCH   3   4
HETATM    4  C4  UNL     1     -31.864   7.380   1.886  1.00 20.00    -0.006 A 
HETATM    5  C1  UNL     1     -31.921   8.659   1.095  1.00 20.00     0.006 A 
HETATM    6  C2  UNL     1     -31.690   8.703   2.580  1.00 20.00     0.006 A 
ENDBRANCH   3   4
BRANCH   3   7
HETATM    7  C9  UNL     1     -33.272   5.451   1.017  1.00 20.00     0.006 C 
HETATM    8  C7  UNL     1     -31.978   4.790   0.643  1.00 20.00     0.006 C 
ENDBRANCH   3   7
BRANCH   2   9
HETATM    9  C8  UNL     1     -34.022   4.787   3.911  1.00 20.00     0.120 C 
HETATM   10 CL10 UNL     1     -35.594   4.906   4.748  1.00 20.00    -0.130 Cl
ENDBRANCH   2   9
TORSDOF 3
ENDMDL
MODEL 8
REMARK VINA RESULT:       0.5      2.286      3.982
REMARK  3 active torsions:
REMARK  status: ('A' for Active; 'I' for Inactive)
REMARK    1  A    between atoms: C4_4  and  C6_6 
REMARK    2  A    between atoms: C5_5  and  C8_8 
REMARK    3  A    between atoms: C6_6  and  C9_9 
ROOT
HETATM    1  C3  UNL     1     -31.235   7.396   2.349  1.00 20.00     0.017 A 
HETATM    2  C5  UNL     1     -32.007   6.824   1.194  1.00 20.00     0.009 A 
HETATM    3  C6  UNL     1     -32.341   8.218   1.707  1.00 20.00    -0.032 A 
ENDROOT
BRANCH   3   4
HETATM    4  C4  UNL     1     -31.992   9.437   0.838  1.00 20.00    -0.006 A 
HETATM    5  C1  UNL     1     -32.702   9.744  -0.452  1.00 20.00     0.006 A 
HETATM    6  C2  UNL     1     -32.882  10.645   0.738  1.00 20.00     0.006 A 
ENDBRANCH   3   4
BRANCH   3   7
HETATM    7  C9  UNL     1     -33.598   8.412   2.520  1.00 20.00     0.006 C 
HETATM    8  C7  UNL     1     -33.450   7.908   3.926  1.00 20.00     0.006 C 
ENDBRANCH   3   7
BRANCH   2   9
HETATM    9  C8  UNL     1     -32.904   5.650   1.393  1.00 20.00     0.120 C 
HETATM   10 CL10 UNL     1     -32.516   4.338   0.248  1.00 20.00    -0.130 Cl
ENDBRANCH   2   9
TORSDOF 3
ENDMDL
MODEL 9
REMARK VINA RESULT:       0.5      2.504      3.917
REMARK  3 active torsions:
REMARK  status: ('A' for Active; 'I' for Inactive)
REMARK    1  A    between atoms: C4_4  and  C6_6 
REMARK    2  A    between atoms: C5_5  and  C8_8 
REMARK    3  A    between atoms: C6_6  and  C9_9 
ROOT
HETATM    1  C3  UNL     1     -33.978   6.613   1.318  1.00 20.00     0.017 A 
HETATM    2  C5  UNL     1     -33.706   6.714   2.791  1.00 20.00     0.009 A 
HETATM    3  C6  UNL     1     -32.551   6.807   1.803  1.00 20.00    -0.032 A 
ENDROOT
BRANCH   3   4
HETATM    4  C4  UNL     1     -31.845   8.158   1.603  1.00 20.00    -0.006 A 
HETATM    5  C1  UNL     1     -31.310   8.604   0.270  1.00 20.00     0.006 A 
HETATM    6  C2  UNL     1     -32.486   9.311   0.883  1.00 20.00     0.006 A 
ENDBRANCH   3   4
BRANCH   3   7
HETATM    7  C9  UNL     1     -31.621   5.627   1.658  1.00 20.00     0.006 C 
HETATM    8  C7  UNL     1     -32.013   4.730   0.521  1.00 20.00     0.006 C 
ENDBRANCH   3   7
BRANCH   2   9
HETATM    9  C8  UNL     1     -33.918   5.538   3.681  1.00 20.00     0.120 C 
HETATM   10 CL10 UNL     1     -35.541   5.575   4.424  1.00 20.00    -0.130 Cl
ENDBRANCH   2   9
TORSDOF 3
ENDMDL
