MODEL 1
REMARK VINA RESULT:      -0.2      0.000      0.000
REMARK  2 active torsions:
REMARK  status: ('A' for Active; 'I' for Inactive)
REMARK    1  A    between atoms: C3_3  and  C6_6 
REMARK    2  A    between atoms: C7_7  and  C9_9 
ROOT
HETATM    1  C1  UNL     1     -33.003   6.033   2.035  1.00 20.00     0.016 A 
HETATM    2  C2  UNL     1     -32.133   6.603   1.061  1.00 20.00     0.015 A 
HETATM    3  C3  UNL     1     -33.423   6.962   2.960  1.00 20.00    -0.013 A 
HETATM    4  C4  UNL     1     -31.922   7.947   1.279  1.00 20.00    -0.021 A 
HETATM    5  C8  UNL     1     -31.094   8.887   0.493  1.00 20.00     0.056 C 
HETATM    6  S10 UNL     1     -32.771   8.515   2.653  1.00 20.00    -0.099 SA
ENDROOT
BRANCH   3   7
HETATM    7  C6  UNL     1     -34.371   6.649   4.132  1.00 20.00     0.031 A 
HETATM    8  C5  UNL     1     -35.730   6.061   3.823  1.00 20.00     0.016 A 
HETATM    9  C7  UNL     1     -34.694   5.215   4.501  1.00 20.00     0.005 A 
BRANCH   9  10
HETATM   10  C9  UNL     1     -34.098   4.050   3.786  1.00 20.00     0.090 C 
HETATM   11 BR11 UNL     1     -33.018   2.979   5.007  1.00 20.00    -0.096 Br
ENDBRANCH   9  10
ENDBRANCH   3   7
TORSDOF 2
ENDMDL
MODEL 2
REMARK VINA RESULT:      -0.2      1.032      1.405
REMARK  2 active torsions:
REMARK  status: ('A' for Active; 'I' for Inactive)
REMARK    1  A    between atoms: C3_3  and  C6_6 
REMARK    2  A    between atoms: C7_7  and  C9_9 
ROOT
HETATM    1  C1  UNL     1     -32.676   8.204   4.016  1.00 20.00     0.016 A 
HETATM    2  C2  UNL     1     -31.763   8.644   3.014  1.00 20.00     0.015 A 
HETATM    3  C3  UNL     1     -33.598   7.311   3.520  1.00 20.00    -0.013 A 
HETATM    4  C4  UNL     1     -32.023   8.069   1.789  1.00 20.00    -0.021 A 
HETATM    5  C8  UNL     1     -31.305   8.264   0.511  1.00 20.00     0.056 C 
HETATM    6  S10 UNL     1     -33.362   7.005   1.851  1.00 20.00    -0.099 SA
ENDROOT
BRANCH   3   7
HETATM    7  C6  UNL     1     -34.710   6.658   4.360  1.00 20.00     0.031 A 
HETATM    8  C5  UNL     1     -35.853   5.978   3.639  1.00 20.00     0.016 A 
HETATM    9  C7  UNL     1     -34.861   5.150   4.400  1.00 20.00     0.005 A 
BRANCH   9  10
HETATM   10  C9  UNL     1     -33.939   4.232   3.670  1.00 20.00     0.090 C 
HETATM   11 BR11 UNL     1     -33.167   2.925   4.895  1.00 20.00    -0.096 Br
ENDBRANCH   9  10
ENDBRANCH   3   7
TORSDOF 2
ENDMDL
MODEL 3
REMARK VINA RESULT:       0.8      3.184      5.353
REMARK  2 active torsions:
REMARK  status: ('A' for Active; 'I' for Inactive)
REMARK    1  A    between atoms: C3_3  and  C6_6 
REMARK    2  A    between atoms: C7_7  and  C9_9 
ROOT
HETATM    1  C1  UNL     1     -33.195   8.190   3.816  1.00 20.00     0.016 A 
HETATM    2  C2  UNL     1     -34.307   7.561   4.449  1.00 20.00     0.015 A 
HETATM    3  C3  UNL     1     -32.656   7.407   2.820  1.00 20.00    -0.013 A 
HETATM    4  C4  UNL     1     -34.575   6.321   3.911  1.00 20.00    -0.021 A 
HETATM    5  C8  UNL     1     -35.640   5.367   4.287  1.00 20.00     0.056 C 
HETATM    6  S10 UNL     1     -33.489   5.920   2.650  1.00 20.00    -0.099 SA
ENDROOT
BRANCH   3   7
HETATM    7  C6  UNL     1     -31.450   7.815   1.956  1.00 20.00     0.031 A 
HETATM    8  C5  UNL     1     -31.557   7.670   0.454  1.00 20.00     0.016 A 
HETATM    9  C7  UNL     1     -31.519   9.039   1.064  1.00 20.00     0.005 A 
BRANCH   9  10
HETATM   10  C9  UNL     1     -32.722   9.917   1.001  1.00 20.00     0.090 C 
HETATM   11 BR11 UNL     1     -32.998  10.568  -0.817  1.00 20.00    -0.096 Br
ENDBRANCH   9  10
ENDBRANCH   3   7
TORSDOF 2
ENDMDL
MODEL 4
REMARK VINA RESULT:       1.3      3.098      5.207
REMARK  2 active torsions:
REMARK  status: ('A' for Active; 'I' for Inactive)
REMARK    1  A    between atoms: C3_3  and  C6_6 
REMARK    2  A    between atoms: C7_7  and  C9_9 
ROOT
HETATM    1  C1  UNL     1     -32.797   5.914   1.748  1.00 20.00     0.016 A 
HETATM    2  C2  UNL     1     -33.915   5.353   2.431  1.00 20.00     0.015 A 
HETATM    3  C3  UNL     1     -32.427   7.132   2.274  1.00 20.00    -0.013 A 
HETATM    4  C4  UNL     1     -34.356   6.163   3.455  1.00 20.00    -0.021 A 
HETATM    5  C8  UNL     1     -35.477   5.933   4.391  1.00 20.00     0.056 C 
HETATM    6  S10 UNL     1     -33.425   7.594   3.588  1.00 20.00    -0.099 SA
ENDROOT
BRANCH   3   7
HETATM    7  C6  UNL     1     -31.255   7.981   1.752  1.00 20.00     0.031 A 
HETATM    8  C5  UNL     1     -31.100   8.154   0.257  1.00 20.00     0.016 A 
HETATM    9  C7  UNL     1     -31.507   9.326   1.100  1.00 20.00     0.005 A 
BRANCH   9  10
HETATM   10  C9  UNL     1     -32.874   9.905   0.961  1.00 20.00     0.090 C 
HETATM   11 BR11 UNL     1     -33.124  10.643  -0.828  1.00 20.00    -0.096 Br
ENDBRANCH   9  10
ENDBRANCH   3   7
TORSDOF 2
ENDMDL
MODEL 5
REMARK VINA RESULT:       1.5      1.486      2.046
REMARK  2 active torsions:
REMARK  status: ('A' for Active; 'I' for Inactive)
REMARK    1  A    between atoms: C3_3  and  C6_6 
REMARK    2  A    between atoms: C7_7  and  C9_9 
ROOT
HETATM    1  C1  UNL     1     -31.679   7.615   1.785  1.00 20.00     0.016 A 
HETATM    2  C2  UNL     1     -31.583   8.152   0.468  1.00 20.00     0.015 A 
HETATM    3  C3  UNL     1     -32.470   8.390   2.603  1.00 20.00    -0.013 A 
HETATM    4  C4  UNL     1     -32.306   9.317   0.331  1.00 20.00    -0.021 A 
HETATM    5  C8  UNL     1     -32.462  10.166  -0.870  1.00 20.00     0.056 C 
HETATM    6  S10 UNL     1     -33.095   9.758   1.785  1.00 20.00    -0.099 SA
ENDROOT
BRANCH   3   7
HETATM    7  C6  UNL     1     -32.766   8.068   4.079  1.00 20.00     0.031 A 
HETATM    8  C5  UNL     1     -34.153   8.348   4.614  1.00 20.00     0.016 A 
HETATM    9  C7  UNL     1     -33.696   6.929   4.448  1.00 20.00     0.005 A 
BRANCH   9  10
HETATM   10  C9  UNL     1     -34.337   6.054   3.425  1.00 20.00     0.090 C 
HETATM   11 BR11 UNL     1     -34.057   4.174   3.863  1.00 20.00    -0.096 Br
ENDBRANCH   9  10
ENDBRANCH   3   7
TORSDOF 2
ENDMDL
MODEL 6
REMARK VINA RESULT:       2.4      2.153      4.519
REMARK  2 active torsions:
REMARK  status: ('A' for Active; 'I' for Inactive)
REMARK    1  A    between atoms: C3_3  and  C6_6 
REMARK    2  A    between atoms: C7_7  and  C9_9 
ROOT
HETATM    1  C1  UNL     1     -35.118   6.083   4.091  1.00 20.00     0.016 A 
HETATM    2  C2  UNL     1     -35.138   4.744   4.578  1.00 20.00     0.015 A 
HETATM    3  C3  UNL     1     -33.912   6.403   3.509  1.00 20.00    -0.013 A 
HETATM    4  C4  UNL     1     -33.947   4.091   4.348  1.00 20.00    -0.021 A 
HETATM    5  C8  UNL     1     -33.578   2.702   4.697  1.00 20.00     0.056 C 
HETATM    6  S10 UNL     1     -32.811   5.092   3.550  1.00 20.00    -0.099 SA
ENDROOT
BRANCH   3   7
HETATM    7  C6  UNL     1     -33.586   7.773   2.889  1.00 20.00     0.031 A 
HETATM    8  C5  UNL     1     -32.226   8.380   3.153  1.00 20.00     0.016 A 
HETATM    9  C7  UNL     1     -32.564   7.893   1.776  1.00 20.00     0.005 A 
BRANCH   9  10
HETATM   10  C9  UNL     1     -31.855   6.710   1.208  1.00 20.00     0.090 C 
HETATM   11 BR11 UNL     1     -33.126   5.492   0.368  1.00 20.00    -0.096 Br
ENDBRANCH   9  10
ENDBRANCH   3   7
TORSDOF 2
ENDMDL
MODEL 7
REMARK VINA RESULT:       2.5      3.008      4.647
REMARK  2 active torsions:
REMARK  status: ('A' for Active; 'I' for Inactive)
REMARK    1  A    between atoms: C3_3  and  C6_6 
REMARK    2  A    between atoms: C7_7  and  C9_9 
ROOT
HETATM    1  C1  UNL     1     -33.132   5.242   2.669  1.00 20.00     0.016 A 
HETATM    2  C2  UNL     1     -32.814   3.876   2.922  1.00 20.00     0.015 A 
HETATM    3  C3  UNL     1     -34.006   5.751   3.603  1.00 20.00    -0.013 A 
HETATM    4  C4  UNL     1     -33.457   3.393   4.041  1.00 20.00    -0.021 A 
HETATM    5  C8  UNL     1     -33.385   2.039   4.630  1.00 20.00     0.056 C 
HETATM    6  S10 UNL     1     -34.440   4.584   4.780  1.00 20.00    -0.099 SA
ENDROOT
BRANCH   3   7
HETATM    7  C6  UNL     1     -34.532   7.197   3.599  1.00 20.00     0.031 A 
HETATM    8  C5  UNL     1     -33.859   8.212   4.496  1.00 20.00     0.016 A 
HETATM    9  C7  UNL     1     -33.700   8.318   3.009  1.00 20.00     0.005 A 
BRANCH   9  10
HETATM   10  C9  UNL     1     -32.368   8.083   2.382  1.00 20.00     0.090 C 
HETATM   11 BR11 UNL     1     -32.171   9.166   0.772  1.00 20.00    -0.096 Br
ENDBRANCH   9  10
ENDBRANCH   3   7
TORSDOF 2
ENDMDL
MODEL 8
REMARK VINA RESULT:       2.7      1.441      1.947
REMARK  2 active torsions:
REMARK  status: ('A' for Active; 'I' for Inactive)
REMARK    1  A    between atoms: C3_3  and  C6_6 
REMARK    2  A    between atoms: C7_7  and  C9_9 
ROOT
HETATM    1  C1  UNL     1     -33.314   9.464   1.849  1.00 20.00     0.016 A 
HETATM    2  C2  UNL     1     -32.575   9.659   0.646  1.00 20.00     0.015 A 
HETATM    3  C3  UNL     1     -32.904   8.341   2.532  1.00 20.00    -0.013 A 
HETATM    4  C4  UNL     1     -31.627   8.676   0.456  1.00 20.00    -0.021 A 
HETATM    5  C8  UNL     1     -30.667   8.529  -0.658  1.00 20.00     0.056 C 
HETATM    6  S10 UNL     1     -31.633   7.526   1.724  1.00 20.00    -0.099 SA
ENDROOT
BRANCH   3   7
HETATM    7  C6  UNL     1     -33.510   7.869   3.865  1.00 20.00     0.031 A 
HETATM    8  C5  UNL     1     -34.961   7.443   3.888  1.00 20.00     0.016 A 
HETATM    9  C7  UNL     1     -33.886   6.415   4.070  1.00 20.00     0.005 A 
BRANCH   9  10
HETATM   10  C9  UNL     1     -33.663   5.375   3.026  1.00 20.00     0.090 C 
HETATM   11 BR11 UNL     1     -33.571   3.603   3.836  1.00 20.00    -0.096 Br
ENDBRANCH   9  10
ENDBRANCH   3   7
TORSDOF 2
ENDMDL
MODEL 9
REMARK VINA RESULT:       2.8      1.551      2.330
REMARK  2 active torsions:
REMARK  status: ('A' for Active; 'I' for Inactive)
REMARK    1  A    between atoms: C3_3  and  C6_6 
REMARK    2  A    between atoms: C7_7  and  C9_9 
ROOT
HETATM    1  C1  UNL     1     -34.110   6.990   4.073  1.00 20.00     0.016 A 
HETATM    2  C2  UNL     1     -33.431   8.065   3.428  1.00 20.00     0.015 A 
HETATM    3  C3  UNL     1     -33.879   5.785   3.450  1.00 20.00    -0.013 A 
HETATM    4  C4  UNL     1     -32.706   7.638   2.336  1.00 20.00    -0.021 A 
HETATM    5  C8  UNL     1     -31.871   8.441   1.417  1.00 20.00     0.056 C 
HETATM    6  S10 UNL     1     -32.847   5.950   2.093  1.00 20.00    -0.099 SA
ENDROOT
BRANCH   3   7
HETATM    7  C6  UNL     1     -34.472   4.443   3.914  1.00 20.00     0.031 A 
HETATM    8  C5  UNL     1     -33.946   3.168   3.292  1.00 20.00     0.016 A 
HETATM    9  C7  UNL     1     -33.639   3.472   4.727  1.00 20.00     0.005 A 
BRANCH   9  10
HETATM   10  C9  UNL     1     -32.238   3.771   5.143  1.00 20.00     0.090 C 
HETATM   11 BR11 UNL     1     -32.018   3.480   7.059  1.00 20.00    -0.096 Br
ENDBRANCH   9  10
ENDBRANCH   3   7
TORSDOF 2
ENDMDL
