MODEL 1
REMARK VINA RESULT:      -0.6      0.000      0.000
REMARK  1 active torsions:
REMARK  status: ('A' for Active; 'I' for Inactive)
REMARK    1  A    between atoms: C4_4  and  C10_10 
ROOT
HETATM    1  C1  UNL     1     -33.023   5.642   2.594  1.00 20.00     0.007 C 
HETATM    2  C2  UNL     1     -32.563   6.556   1.459  1.00 20.00     0.009 C 
HETATM    3  C3  UNL     1     -33.649   8.524   2.638  1.00 20.00     0.013 C 
HETATM    4  C4  UNL     1     -34.328   6.146   3.224  1.00 20.00     0.003 C 
HETATM    5  C5  UNL     1     -34.203   7.598   3.738  1.00 20.00    -0.013 C 
HETATM    6  C6  UNL     1     -32.391   8.030   1.883  1.00 20.00    -0.047 C 
HETATM    7  C7  UNL     1     -33.445   7.731   5.062  1.00 20.00     0.010 C 
HETATM    8  C8  UNL     1     -31.112   8.206   2.721  1.00 20.00     0.015 C 
HETATM    9  C9  UNL     1     -32.220   8.892   0.612  1.00 20.00     0.015 C 
ENDROOT
BRANCH   4  10
HETATM   10  C10 UNL     1     -34.816   5.170   4.297  1.00 20.00     0.119 C 
HETATM   11 CL11 UNL     1     -33.811   3.713   4.289  1.00 20.00    -0.130 Cl
ENDBRANCH   4  10
TORSDOF 1
ENDMDL
MODEL 2
REMARK VINA RESULT:       0.7      2.485      4.402
REMARK  1 active torsions:
REMARK  status: ('A' for Active; 'I' for Inactive)
REMARK    1  A    between atoms: C4_4  and  C10_10 
ROOT
HETATM    1  C1  UNL     1     -32.654   7.942   3.414  1.00 20.00     0.007 C 
HETATM    2  C2  UNL     1     -33.898   7.387   4.107  1.00 20.00     0.009 C 
HETATM    3  C3  UNL     1     -34.309   5.882   2.105  1.00 20.00     0.013 C 
HETATM    4  C4  UNL     1     -32.807   7.921   1.888  1.00 20.00     0.003 C 
HETATM    5  C5  UNL     1     -33.115   6.504   1.355  1.00 20.00    -0.013 C 
HETATM    6  C6  UNL     1     -34.276   5.962   3.651  1.00 20.00    -0.047 C 
HETATM    7  C7  UNL     1     -31.898   5.575   1.304  1.00 20.00     0.010 C 
HETATM    8  C8  UNL     1     -33.312   4.926   4.258  1.00 20.00     0.015 C 
HETATM    9  C9  UNL     1     -35.687   5.631   4.184  1.00 20.00     0.015 C 
ENDROOT
BRANCH   4  10
HETATM   10  C10 UNL     1     -31.589   8.561   1.219  1.00 20.00     0.119 C 
HETATM   11 CL11 UNL     1     -32.116   9.777   0.045  1.00 20.00    -0.130 Cl
ENDBRANCH   4  10
TORSDOF 1
ENDMDL
MODEL 3
REMARK VINA RESULT:       1.9      1.015      2.481
REMARK  1 active torsions:
REMARK  status: ('A' for Active; 'I' for Inactive)
REMARK    1  A    between atoms: C4_4  and  C10_10 
ROOT
HETATM    1  C1  UNL     1     -33.905   6.964   3.472  1.00 20.00     0.007 C 
HETATM    2  C2  UNL     1     -32.871   8.068   3.256  1.00 20.00     0.009 C 
HETATM    3  C3  UNL     1     -31.651   6.567   1.612  1.00 20.00     0.013 C 
HETATM    4  C4  UNL     1     -33.287   5.573   3.285  1.00 20.00     0.003 C 
HETATM    5  C5  UNL     1     -32.631   5.411   1.895  1.00 20.00    -0.013 C 
HETATM    6  C6  UNL     1     -32.172   8.000   1.882  1.00 20.00    -0.047 C 
HETATM    7  C7  UNL     1     -33.627   5.185   0.754  1.00 20.00     0.010 C 
HETATM    8  C8  UNL     1     -33.118   8.485   0.769  1.00 20.00     0.015 C 
HETATM    9  C9  UNL     1     -30.962   8.960   1.895  1.00 20.00     0.015 C 
ENDROOT
BRANCH   4  10
HETATM   10  C10 UNL     1     -34.316   4.484   3.592  1.00 20.00     0.119 C 
HETATM   11 CL11 UNL     1     -33.565   3.198   4.550  1.00 20.00    -0.130 Cl
ENDBRANCH   4  10
TORSDOF 1
ENDMDL
