MODEL 1
REMARK VINA RESULT:       4.1      0.000      0.000
REMARK  1 active torsions:
REMARK  status: ('A' for Active; 'I' for Inactive)
REMARK    1  A    between atoms: C5_5  and  C10_10 
ROOT
HETATM    1  C1  UNL     1     -35.583   6.566   3.901  1.00 20.00     0.017 A 
HETATM    2  C2  UNL     1     -33.816   7.303   2.173  1.00 20.00     0.020 C 
HETATM    3  C3  UNL     1     -33.190   7.172   4.679  1.00 20.00     0.083 C 
HETATM    4  C4  UNL     1     -31.542   8.338   2.817  1.00 20.00     0.082 C 
HETATM    5  C5  UNL     1     -34.738   5.359   3.627  1.00 20.00     0.005 A 
HETATM    6  C6  UNL     1     -34.113   6.749   3.561  1.00 20.00    -0.026 A 
HETATM    7  C7  UNL     1     -32.309   7.404   1.844  1.00 20.00    -0.038 C 
HETATM    8  C8  UNL     1     -31.667   6.000   1.841  1.00 20.00     0.015 C 
HETATM    9  C9  UNL     1     -32.171   7.969   0.413  1.00 20.00     0.015 C 
HETATM   10  S11 UNL     1     -32.412   8.765   4.360  1.00 20.00    -0.168 SA
ENDROOT
BRANCH   5  11
HETATM   11  C10 UNL     1     -34.440   4.393   4.722  1.00 20.00     0.090 C 
HETATM   12 BR12 UNL     1     -33.138   3.067   4.127  1.00 20.00    -0.096 Br
ENDBRANCH   5  11
TORSDOF 1
ENDMDL
MODEL 2
REMARK VINA RESULT:       5.2      3.068      4.537
REMARK  1 active torsions:
REMARK  status: ('A' for Active; 'I' for Inactive)
REMARK    1  A    between atoms: C5_5  and  C10_10 
ROOT
HETATM    1  C1  UNL     1     -31.190   8.862   2.668  1.00 20.00     0.017 A 
HETATM    2  C2  UNL     1     -31.786   6.491   1.848  1.00 20.00     0.020 C 
HETATM    3  C3  UNL     1     -33.595   7.956   2.976  1.00 20.00     0.083 C 
HETATM    4  C4  UNL     1     -33.987   5.288   2.452  1.00 20.00     0.082 C 
HETATM    5  C5  UNL     1     -31.873   9.037   1.345  1.00 20.00     0.005 A 
HETATM    6  C6  UNL     1     -32.270   7.877   2.253  1.00 20.00    -0.026 A 
HETATM    7  C7  UNL     1     -32.910   5.546   1.366  1.00 20.00    -0.038 C 
HETATM    8  C8  UNL     1     -33.570   6.109   0.089  1.00 20.00     0.015 C 
HETATM    9  C9  UNL     1     -32.265   4.195   0.984  1.00 20.00     0.015 C 
HETATM   10  S11 UNL     1     -33.981   6.438   3.865  1.00 20.00    -0.168 SA
ENDROOT
BRANCH   5  11
HETATM   11  C10 UNL     1     -32.755  10.216   1.112  1.00 20.00     0.090 C 
HETATM   12 BR12 UNL     1     -32.946  10.556  -0.801  1.00 20.00    -0.096 Br
ENDBRANCH   5  11
TORSDOF 1
ENDMDL
MODEL 3
REMARK VINA RESULT:       5.3      2.969      4.663
REMARK  1 active torsions:
REMARK  status: ('A' for Active; 'I' for Inactive)
REMARK    1  A    between atoms: C5_5  and  C10_10 
ROOT
HETATM    1  C1  UNL     1     -31.122   8.977   1.666  1.00 20.00     0.017 A 
HETATM    2  C2  UNL     1     -31.790   6.510   2.005  1.00 20.00     0.020 C 
HETATM    3  C3  UNL     1     -33.537   8.380   2.378  1.00 20.00     0.083 C 
HETATM    4  C4  UNL     1     -34.002   5.774   3.112  1.00 20.00     0.082 C 
HETATM    5  C5  UNL     1     -31.833   8.562   0.414  1.00 20.00     0.005 A 
HETATM    6  C6  UNL     1     -32.233   7.945   1.751  1.00 20.00    -0.026 A 
HETATM    7  C7  UNL     1     -32.947   5.485   2.012  1.00 20.00    -0.038 C 
HETATM    8  C8  UNL     1     -33.626   5.436   0.626  1.00 20.00     0.015 C 
HETATM    9  C9  UNL     1     -32.342   4.086   2.269  1.00 20.00     0.015 C 
HETATM   10  S11 UNL     1     -33.934   7.435   3.859  1.00 20.00    -0.168 SA
ENDROOT
BRANCH   5  11
HETATM   11  C10 UNL     1     -32.694   9.538  -0.313  1.00 20.00     0.090 C 
HETATM   12 BR12 UNL     1     -32.582  11.299   0.521  1.00 20.00    -0.096 Br
ENDBRANCH   5  11
TORSDOF 1
ENDMDL
MODEL 4
REMARK VINA RESULT:       5.8      2.698      4.518
REMARK  1 active torsions:
REMARK  status: ('A' for Active; 'I' for Inactive)
REMARK    1  A    between atoms: C5_5  and  C10_10 
ROOT
HETATM    1  C1  UNL     1     -31.355   7.656   1.725  1.00 20.00     0.017 A 
HETATM    2  C2  UNL     1     -33.232   6.383   2.952  1.00 20.00     0.020 C 
HETATM    3  C3  UNL     1     -32.675   8.818   3.623  1.00 20.00     0.083 C 
HETATM    4  C4  UNL     1     -34.342   7.230   5.122  1.00 20.00     0.082 C 
HETATM    5  C5  UNL     1     -32.643   8.119   1.113  1.00 20.00     0.005 A 
HETATM    6  C6  UNL     1     -32.605   7.722   2.586  1.00 20.00    -0.026 A 
HETATM    7  C7  UNL     1     -34.540   6.501   3.767  1.00 20.00    -0.038 C 
HETATM    8  C8  UNL     1     -35.625   7.216   2.935  1.00 20.00     0.015 C 
HETATM    9  C9  UNL     1     -35.055   5.072   4.051  1.00 20.00     0.015 C 
HETATM   10  S11 UNL     1     -32.789   8.168   5.299  1.00 20.00    -0.168 SA
ENDROOT
BRANCH   5  11
HETATM   11  C10 UNL     1     -32.788   9.533   0.663  1.00 20.00     0.090 C 
HETATM   12 BR12 UNL     1     -32.003   9.770  -1.108  1.00 20.00    -0.096 Br
ENDBRANCH   5  11
TORSDOF 1
ENDMDL
MODEL 5
REMARK VINA RESULT:       5.8      0.950      1.012
REMARK  1 active torsions:
REMARK  status: ('A' for Active; 'I' for Inactive)
REMARK    1  A    between atoms: C5_5  and  C10_10 
ROOT
HETATM    1  C1  UNL     1     -35.419   5.333   4.319  1.00 20.00     0.017 A 
HETATM    2  C2  UNL     1     -34.230   6.317   2.252  1.00 20.00     0.020 C 
HETATM    3  C3  UNL     1     -33.248   6.712   4.612  1.00 20.00     0.083 C 
HETATM    4  C4  UNL     1     -32.324   8.049   2.397  1.00 20.00     0.082 C 
HETATM    5  C5  UNL     1     -34.288   4.400   4.004  1.00 20.00     0.005 A 
HETATM    6  C6  UNL     1     -34.142   5.891   3.712  1.00 20.00    -0.026 A 
HETATM    7  C7  UNL     1     -32.892   6.810   1.657  1.00 20.00    -0.038 C 
HETATM    8  C8  UNL     1     -31.853   5.668   1.660  1.00 20.00     0.015 C 
HETATM    9  C9  UNL     1     -33.140   7.193   0.181  1.00 20.00     0.015 C 
HETATM   10  S11 UNL     1     -33.057   8.405   4.028  1.00 20.00    -0.168 SA
ENDROOT
BRANCH   5  11
HETATM   11  C10 UNL     1     -33.554   3.720   5.108  1.00 20.00     0.090 C 
HETATM   12 BR12 UNL     1     -33.219   1.851   4.655  1.00 20.00    -0.096 Br
ENDBRANCH   5  11
TORSDOF 1
ENDMDL
MODEL 6
REMARK VINA RESULT:       7.1      2.392      3.288
REMARK  1 active torsions:
REMARK  status: ('A' for Active; 'I' for Inactive)
REMARK    1  A    between atoms: C5_5  and  C10_10 
ROOT
HETATM    1  C1  UNL     1     -33.504   5.003   0.274  1.00 20.00     0.017 A 
HETATM    2  C2  UNL     1     -33.179   7.454   1.009  1.00 20.00     0.020 C 
HETATM    3  C3  UNL     1     -33.132   5.563   2.773  1.00 20.00     0.083 C 
HETATM    4  C4  UNL     1     -33.224   8.218   3.473  1.00 20.00     0.082 C 
HETATM    5  C5  UNL     1     -32.027   5.196   0.442  1.00 20.00     0.005 A 
HETATM    6  C6  UNL     1     -32.996   5.975   1.326  1.00 20.00    -0.026 A 
HETATM    7  C7  UNL     1     -32.584   8.405   2.072  1.00 20.00    -0.038 C 
HETATM    8  C8  UNL     1     -31.054   8.218   2.160  1.00 20.00     0.015 C 
HETATM    9  C9  UNL     1     -32.837   9.856   1.608  1.00 20.00     0.015 C 
HETATM   10  S11 UNL     1     -34.183   6.687   3.710  1.00 20.00    -0.168 SA
ENDROOT
BRANCH   5  11
HETATM   11  C10 UNL     1     -31.183   4.081   0.958  1.00 20.00     0.090 C 
HETATM   12 BR12 UNL     1     -30.326   3.135  -0.518  1.00 20.00    -0.096 Br
ENDBRANCH   5  11
TORSDOF 1
ENDMDL
