MODEL 1
REMARK VINA RESULT:       1.0      0.000      0.000
REMARK  1 active torsions:
REMARK  status: ('A' for Active; 'I' for Inactive)
REMARK    1  A    between atoms: C4_4  and  C8_8 
ROOT
HETATM    1  C1  UNL     1     -31.044   8.544   2.326  1.00 20.00     0.017 A 
HETATM    2  C2  UNL     1     -31.836   6.144   1.761  1.00 20.00     0.025 C 
HETATM    3  C3  UNL     1     -33.386   7.666   3.017  1.00 20.00     0.084 C 
HETATM    4  C4  UNL     1     -31.883   8.663   1.089  1.00 20.00     0.009 A 
HETATM    5  C5  UNL     1     -33.134   5.353   1.668  1.00 20.00     0.044 C 
HETATM    6  C6  UNL     1     -32.186   7.572   2.108  1.00 20.00    -0.026 A 
HETATM    7  C7  UNL     1     -33.873   5.576   0.353  1.00 20.00     0.021 C 
HETATM    8  S9  UNL     1     -34.105   5.995   3.058  1.00 20.00    -0.164 SA
ENDROOT
BRANCH   4   9
HETATM    9  C8  UNL     1     -32.752   9.860   0.899  1.00 20.00     0.120 C 
HETATM   10 CL10 UNL     1     -32.967  10.233  -0.833  1.00 20.00    -0.130 Cl
ENDBRANCH   4   9
TORSDOF 1
ENDMDL
MODEL 2
REMARK VINA RESULT:       1.2      3.577      4.678
REMARK  1 active torsions:
REMARK  status: ('A' for Active; 'I' for Inactive)
REMARK    1  A    between atoms: C4_4  and  C8_8 
ROOT
HETATM    1  C1  UNL     1     -35.514   6.105   3.871  1.00 20.00     0.017 A 
HETATM    2  C2  UNL     1     -34.089   6.557   1.757  1.00 20.00     0.025 C 
HETATM    3  C3  UNL     1     -33.174   7.218   3.999  1.00 20.00     0.084 C 
HETATM    4  C4  UNL     1     -34.539   4.970   3.776  1.00 20.00     0.009 A 
HETATM    5  C5  UNL     1     -32.642   6.855   1.387  1.00 20.00     0.044 C 
HETATM    6  C6  UNL     1     -34.153   6.347   3.252  1.00 20.00    -0.026 A 
HETATM    7  C7  UNL     1     -31.775   5.602   1.328  1.00 20.00     0.021 C 
HETATM    8  S9  UNL     1     -32.092   7.944   2.729  1.00 20.00    -0.164 SA
ENDROOT
BRANCH   4   9
HETATM    9  C8  UNL     1     -33.963   4.384   5.020  1.00 20.00     0.120 C 
HETATM   10 CL10 UNL     1     -33.139   2.837   4.685  1.00 20.00    -0.130 Cl
ENDBRANCH   4   9
TORSDOF 1
ENDMDL
MODEL 3
REMARK VINA RESULT:       1.2      1.447      1.845
REMARK  1 active torsions:
REMARK  status: ('A' for Active; 'I' for Inactive)
REMARK    1  A    between atoms: C4_4  and  C8_8 
ROOT
HETATM    1  C1  UNL     1     -31.317   7.585   1.611  1.00 20.00     0.017 A 
HETATM    2  C2  UNL     1     -33.251   6.278   2.733  1.00 20.00     0.025 C 
HETATM    3  C3  UNL     1     -32.503   8.446   3.752  1.00 20.00     0.084 C 
HETATM    4  C4  UNL     1     -32.586   8.219   1.123  1.00 20.00     0.009 A 
HETATM    5  C5  UNL     1     -34.383   6.523   3.722  1.00 20.00     0.044 C 
HETATM    6  C6  UNL     1     -32.536   7.590   2.510  1.00 20.00    -0.026 A 
HETATM    7  C7  UNL     1     -35.604   7.171   3.078  1.00 20.00     0.021 C 
HETATM    8  S9  UNL     1     -33.634   7.647   4.932  1.00 20.00    -0.164 SA
ENDROOT
BRANCH   4   9
HETATM    9  C8  UNL     1     -32.637   9.692   0.901  1.00 20.00     0.120 C 
HETATM   10 CL10 UNL     1     -32.822  10.078  -0.832  1.00 20.00    -0.130 Cl
ENDBRANCH   4   9
TORSDOF 1
ENDMDL
MODEL 4
REMARK VINA RESULT:       2.2      2.834      3.920
REMARK  1 active torsions:
REMARK  status: ('A' for Active; 'I' for Inactive)
REMARK    1  A    between atoms: C4_4  and  C8_8 
ROOT
HETATM    1  C1  UNL     1     -33.252   7.172   4.625  1.00 20.00     0.017 A 
HETATM    2  C2  UNL     1     -31.998   8.548   2.824  1.00 20.00     0.025 C 
HETATM    3  C3  UNL     1     -32.782   6.233   2.252  1.00 20.00     0.084 C 
HETATM    4  C4  UNL     1     -34.310   7.777   3.752  1.00 20.00     0.009 A 
HETATM    5  C5  UNL     1     -31.797   8.554   1.314  1.00 20.00     0.044 C 
HETATM    6  C6  UNL     1     -32.951   7.425   3.162  1.00 20.00    -0.026 A 
HETATM    7  C7  UNL     1     -32.955   9.203   0.564  1.00 20.00     0.021 C 
HETATM    8  S9  UNL     1     -31.689   6.789   0.909  1.00 20.00    -0.164 SA
ENDROOT
BRANCH   4   9
HETATM    9  C8  UNL     1     -35.550   7.006   3.452  1.00 20.00     0.120 C 
HETATM   10 CL10 UNL     1     -35.580   5.459   4.343  1.00 20.00    -0.130 Cl
ENDBRANCH   4   9
TORSDOF 1
ENDMDL
MODEL 5
REMARK VINA RESULT:       3.6      2.710      3.854
REMARK  1 active torsions:
REMARK  status: ('A' for Active; 'I' for Inactive)
REMARK    1  A    between atoms: C4_4  and  C8_8 
ROOT
HETATM    1  C1  UNL     1     -33.410   6.012   0.657  1.00 20.00     0.017 A 
HETATM    2  C2  UNL     1     -34.099   7.624   2.564  1.00 20.00     0.025 C 
HETATM    3  C3  UNL     1     -34.082   5.154   3.012  1.00 20.00     0.084 C 
HETATM    4  C4  UNL     1     -32.186   6.203   1.504  1.00 20.00     0.009 A 
HETATM    5  C5  UNL     1     -34.241   7.618   4.080  1.00 20.00     0.044 C 
HETATM    6  C6  UNL     1     -33.568   6.274   2.141  1.00 20.00    -0.026 A 
HETATM    7  C7  UNL     1     -32.914   7.825   4.801  1.00 20.00     0.021 C 
HETATM    8  S9  UNL     1     -34.897   5.962   4.423  1.00 20.00    -0.164 SA
ENDROOT
BRANCH   4   9
HETATM    9  C8  UNL     1     -31.251   5.062   1.718  1.00 20.00     0.120 C 
HETATM   10 CL10 UNL     1     -31.097   4.067   0.244  1.00 20.00    -0.130 Cl
ENDBRANCH   4   9
TORSDOF 1
ENDMDL
MODEL 6
REMARK VINA RESULT:       3.7      2.615      3.703
REMARK  1 active torsions:
REMARK  status: ('A' for Active; 'I' for Inactive)
REMARK    1  A    between atoms: C4_4  and  C8_8 
ROOT
HETATM    1  C1  UNL     1     -35.004   7.543   3.557  1.00 20.00     0.017 A 
HETATM    2  C2  UNL     1     -34.985   5.059   4.286  1.00 20.00     0.025 C 
HETATM    3  C3  UNL     1     -33.412   5.802   2.477  1.00 20.00     0.084 C 
HETATM    4  C4  UNL     1     -33.868   7.403   4.526  1.00 20.00     0.009 A 
HETATM    5  C5  UNL     1     -34.079   3.839   4.191  1.00 20.00     0.044 C 
HETATM    6  C6  UNL     1     -34.266   6.224   3.648  1.00 20.00    -0.026 A 
HETATM    7  C7  UNL     1     -32.974   3.836   5.242  1.00 20.00     0.021 C 
HETATM    8  S9  UNL     1     -33.371   3.984   2.528  1.00 20.00    -0.164 SA
ENDROOT
BRANCH   4   9
HETATM    9  C8  UNL     1     -32.617   8.186   4.316  1.00 20.00     0.120 C 
HETATM   10 CL10 UNL     1     -32.320   8.478   2.580  1.00 20.00    -0.130 Cl
ENDBRANCH   4   9
TORSDOF 1
ENDMDL
MODEL 7
REMARK VINA RESULT:       3.7      2.440      3.494
REMARK  1 active torsions:
REMARK  status: ('A' for Active; 'I' for Inactive)
REMARK    1  A    between atoms: C4_4  and  C8_8 
ROOT
HETATM    1  C1  UNL     1     -31.965   5.216   1.380  1.00 20.00     0.017 A 
HETATM    2  C2  UNL     1     -33.278   5.469   3.598  1.00 20.00     0.025 C 
HETATM    3  C3  UNL     1     -32.960   7.488   2.141  1.00 20.00     0.084 C 
HETATM    4  C4  UNL     1     -33.417   5.145   1.014  1.00 20.00     0.009 A 
HETATM    5  C5  UNL     1     -34.254   6.437   4.253  1.00 20.00     0.044 C 
HETATM    6  C6  UNL     1     -32.976   5.981   2.209  1.00 20.00    -0.026 A 
HETATM    7  C7  UNL     1     -35.690   6.241   3.782  1.00 20.00     0.021 C 
HETATM    8  S9  UNL     1     -33.632   8.059   3.732  1.00 20.00    -0.164 SA
ENDROOT
BRANCH   4   9
HETATM    9  C8  UNL     1     -33.886   5.744  -0.268  1.00 20.00     0.120 C 
HETATM   10 CL10 UNL     1     -35.045   4.670  -1.098  1.00 20.00    -0.130 Cl
ENDBRANCH   4   9
TORSDOF 1
ENDMDL
MODEL 8
REMARK VINA RESULT:       3.9      2.654      3.973
REMARK  1 active torsions:
REMARK  status: ('A' for Active; 'I' for Inactive)
REMARK    1  A    between atoms: C4_4  and  C8_8 
ROOT
HETATM    1  C1  UNL     1     -32.910   5.125   1.381  1.00 20.00     0.017 A 
HETATM    2  C2  UNL     1     -31.182   7.037   1.635  1.00 20.00     0.025 C 
HETATM    3  C3  UNL     1     -33.547   7.614   1.022  1.00 20.00     0.084 C 
HETATM    4  C4  UNL     1     -33.102   5.678   2.761  1.00 20.00     0.009 A 
HETATM    5  C5  UNL     1     -31.158   8.546   1.836  1.00 20.00     0.044 C 
HETATM    6  C6  UNL     1     -32.625   6.590   1.638  1.00 20.00    -0.026 A 
HETATM    7  C7  UNL     1     -31.365   8.954   3.291  1.00 20.00     0.021 C 
HETATM    8  S9  UNL     1     -32.543   9.117   0.814  1.00 20.00    -0.164 SA
ENDROOT
BRANCH   4   9
HETATM    9  C8  UNL     1     -34.473   5.755   3.342  1.00 20.00     0.120 C 
HETATM   10 CL10 UNL     1     -34.680   7.234   4.319  1.00 20.00    -0.130 Cl
ENDBRANCH   4   9
TORSDOF 1
ENDMDL
