MODEL 1
REMARK VINA RESULT:      -2.7      0.000      0.000
REMARK  3 active torsions:
REMARK  status: ('A' for Active; 'I' for Inactive)
REMARK    1  A    between atoms: C4_4  and  C5_5 
REMARK    2  A    between atoms: C6_6  and  C7_7 
REMARK    3  A    between atoms: C7_7  and  O8_8 
ROOT
HETATM    1  C3  UNL     1     -34.340   7.570   4.247  1.00 20.00     0.012 A 
HETATM    2  C5  UNL     1     -33.569   6.630   3.358  1.00 20.00    -0.004 A 
HETATM    3  C6  UNL     1     -35.006   6.336   3.700  1.00 20.00     0.014 A 
ENDROOT
BRANCH   2   4
HETATM    4  C4  UNL     1     -33.125   7.010   1.954  1.00 20.00    -0.010 A 
HETATM    5  C1  UNL     1     -31.897   7.833   1.686  1.00 20.00     0.005 A 
HETATM    6  C2  UNL     1     -31.933   6.386   1.283  1.00 20.00     0.005 A 
ENDBRANCH   2   4
BRANCH   3   7
HETATM    7  C7  UNL     1     -35.348   5.203   4.605  1.00 20.00     0.169 C 
BRANCH   7   8
HETATM    8  O8  UNL     1     -34.493   4.092   4.338  1.00 20.00    -0.400 OA
HETATM    9  H20 UNL     1     -35.009   3.295   4.536  1.00 20.00     0.209 HD
ENDBRANCH   7   8
ENDBRANCH   3   7
TORSDOF 3
ENDMDL
MODEL 2
REMARK VINA RESULT:      -2.5      1.089      1.671
REMARK  3 active torsions:
REMARK  status: ('A' for Active; 'I' for Inactive)
REMARK    1  A    between atoms: C4_4  and  C5_5 
REMARK    2  A    between atoms: C6_6  and  C7_7 
REMARK    3  A    between atoms: C7_7  and  O8_8 
ROOT
HETATM    1  C3  UNL     1     -33.360   5.536   2.613  1.00 20.00     0.012 A 
HETATM    2  C5  UNL     1     -33.572   7.005   2.354  1.00 20.00    -0.004 A 
HETATM    3  C6  UNL     1     -33.995   6.401   3.668  1.00 20.00     0.014 A 
ENDROOT
BRANCH   2   4
HETATM    4  C4  UNL     1     -32.422   7.992   2.242  1.00 20.00    -0.010 A 
HETATM    5  C1  UNL     1     -31.282   7.804   1.280  1.00 20.00     0.005 A 
HETATM    6  C2  UNL     1     -32.263   8.924   1.073  1.00 20.00     0.005 A 
ENDBRANCH   2   4
BRANCH   3   7
HETATM    7  C7  UNL     1     -35.440   6.247   3.996  1.00 20.00     0.169 C 
BRANCH   7   8
HETATM    8  O8  UNL     1     -35.665   4.983   4.620  1.00 20.00    -0.400 OA
HETATM    9  H20 UNL     1     -35.786   4.342   3.904  1.00 20.00     0.209 HD
ENDBRANCH   7   8
ENDBRANCH   3   7
TORSDOF 3
ENDMDL
MODEL 3
REMARK VINA RESULT:      -2.4      1.884      2.959
REMARK  3 active torsions:
REMARK  status: ('A' for Active; 'I' for Inactive)
REMARK    1  A    between atoms: C4_4  and  C5_5 
REMARK    2  A    between atoms: C6_6  and  C7_7 
REMARK    3  A    between atoms: C7_7  and  O8_8 
ROOT
HETATM    1  C3  UNL     1     -32.358   6.713   1.777  1.00 20.00     0.012 A 
HETATM    2  C5  UNL     1     -32.953   8.055   1.441  1.00 20.00    -0.004 A 
HETATM    3  C6  UNL     1     -32.767   7.652   2.881  1.00 20.00     0.014 A 
ENDROOT
BRANCH   2   4
HETATM    4  C4  UNL     1     -32.146   9.171   0.796  1.00 20.00    -0.010 A 
HETATM    5  C1  UNL     1     -32.496   9.754  -0.545  1.00 20.00     0.005 A 
HETATM    6  C2  UNL     1     -32.648  10.584   0.698  1.00 20.00     0.005 A 
ENDBRANCH   2   4
BRANCH   3   7
HETATM    7  C7  UNL     1     -33.947   7.340   3.734  1.00 20.00     0.169 C 
BRANCH   7   8
HETATM    8  O8  UNL     1     -34.260   5.950   3.641  1.00 20.00    -0.400 OA
HETATM    9  H20 UNL     1     -33.744   5.601   2.900  1.00 20.00     0.209 HD
ENDBRANCH   7   8
ENDBRANCH   3   7
TORSDOF 3
ENDMDL
MODEL 4
REMARK VINA RESULT:      -2.3      2.506      4.322
REMARK  3 active torsions:
REMARK  status: ('A' for Active; 'I' for Inactive)
REMARK    1  A    between atoms: C4_4  and  C5_5 
REMARK    2  A    between atoms: C6_6  and  C7_7 
REMARK    3  A    between atoms: C7_7  and  O8_8 
ROOT
HETATM    1  C3  UNL     1     -32.335   5.667   1.489  1.00 20.00     0.012 A 
HETATM    2  C5  UNL     1     -33.062   6.209   2.692  1.00 20.00    -0.004 A 
HETATM    3  C6  UNL     1     -32.802   7.098   1.503  1.00 20.00     0.014 A 
ENDROOT
BRANCH   2   4
HETATM    4  C4  UNL     1     -34.459   5.752   3.079  1.00 20.00    -0.010 A 
HETATM    5  C1  UNL     1     -34.741   4.982   4.339  1.00 20.00     0.005 A 
HETATM    6  C2  UNL     1     -35.243   6.391   4.192  1.00 20.00     0.005 A 
ENDBRANCH   2   4
BRANCH   3   7
HETATM    7  C7  UNL     1     -31.816   8.210   1.596  1.00 20.00     0.169 C 
BRANCH   7   8
HETATM    8  O8  UNL     1     -32.202   9.277   0.730  1.00 20.00    -0.400 OA
HETATM    9  H20 UNL     1     -31.616  10.021   0.933  1.00 20.00     0.209 HD
ENDBRANCH   7   8
ENDBRANCH   3   7
TORSDOF 3
ENDMDL
MODEL 5
REMARK VINA RESULT:      -2.2      2.959      4.605
REMARK  3 active torsions:
REMARK  status: ('A' for Active; 'I' for Inactive)
REMARK    1  A    between atoms: C4_4  and  C5_5 
REMARK    2  A    between atoms: C6_6  and  C7_7 
REMARK    3  A    between atoms: C7_7  and  O8_8 
ROOT
HETATM    1  C3  UNL     1     -31.556   7.322   1.802  1.00 20.00     0.012 A 
HETATM    2  C5  UNL     1     -32.851   7.804   2.401  1.00 20.00    -0.004 A 
HETATM    3  C6  UNL     1     -32.482   8.190   0.993  1.00 20.00     0.014 A 
ENDROOT
BRANCH   2   4
HETATM    4  C4  UNL     1     -34.007   6.868   2.714  1.00 20.00    -0.010 A 
HETATM    5  C1  UNL     1     -33.867   5.684   3.631  1.00 20.00     0.005 A 
HETATM    6  C2  UNL     1     -34.707   6.859   4.044  1.00 20.00     0.005 A 
ENDBRANCH   2   4
BRANCH   3   7
HETATM    7  C7  UNL     1     -32.105   9.595   0.671  1.00 20.00     0.169 C 
BRANCH   7   8
HETATM    8  O8  UNL     1     -32.820  10.039  -0.482  1.00 20.00    -0.400 OA
HETATM    9  H20 UNL     1     -33.713  10.265  -0.181  1.00 20.00     0.209 HD
ENDBRANCH   7   8
ENDBRANCH   3   7
TORSDOF 3
ENDMDL
MODEL 6
REMARK VINA RESULT:      -1.7      2.679      3.541
REMARK  3 active torsions:
REMARK  status: ('A' for Active; 'I' for Inactive)
REMARK    1  A    between atoms: C4_4  and  C5_5 
REMARK    2  A    between atoms: C6_6  and  C7_7 
REMARK    3  A    between atoms: C7_7  and  O8_8 
ROOT
HETATM    1  C3  UNL     1     -32.020   8.057   2.783  1.00 20.00     0.012 A 
HETATM    2  C5  UNL     1     -32.020   8.348   1.305  1.00 20.00    -0.004 A 
HETATM    3  C6  UNL     1     -32.636   7.074   1.823  1.00 20.00     0.014 A 
ENDROOT
BRANCH   2   4
HETATM    4  C4  UNL     1     -32.849   9.464   0.690  1.00 20.00    -0.010 A 
HETATM    5  C1  UNL     1     -32.298  10.840   0.438  1.00 20.00     0.005 A 
HETATM    6  C2  UNL     1     -32.644   9.945  -0.719  1.00 20.00     0.005 A 
ENDBRANCH   2   4
BRANCH   3   7
HETATM    7  C7  UNL     1     -31.979   5.762   1.567  1.00 20.00     0.169 C 
BRANCH   7   8
HETATM    8  O8  UNL     1     -32.799   4.966   0.711  1.00 20.00    -0.400 OA
HETATM    9  H20 UNL     1     -33.702   5.034   1.055  1.00 20.00     0.209 HD
ENDBRANCH   7   8
ENDBRANCH   3   7
TORSDOF 3
ENDMDL
MODEL 7
REMARK VINA RESULT:      -1.7      3.406      4.588
REMARK  3 active torsions:
REMARK  status: ('A' for Active; 'I' for Inactive)
REMARK    1  A    between atoms: C4_4  and  C5_5 
REMARK    2  A    between atoms: C6_6  and  C7_7 
REMARK    3  A    between atoms: C7_7  and  O8_8 
ROOT
HETATM    1  C3  UNL     1     -31.371   8.287   2.047  1.00 20.00     0.012 A 
HETATM    2  C5  UNL     1     -32.766   7.814   1.732  1.00 20.00    -0.004 A 
HETATM    3  C6  UNL     1     -32.004   8.639   0.727  1.00 20.00     0.014 A 
ENDROOT
BRANCH   2   4
HETATM    4  C4  UNL     1     -33.101   6.350   1.499  1.00 20.00    -0.010 A 
HETATM    5  C1  UNL     1     -32.083   5.252   1.636  1.00 20.00     0.005 A 
HETATM    6  C2  UNL     1     -33.214   5.354   2.620  1.00 20.00     0.005 A 
ENDBRANCH   2   4
BRANCH   3   7
HETATM    7  C7  UNL     1     -32.413  10.042   0.440  1.00 20.00     0.169 C 
BRANCH   7   8
HETATM    8  O8  UNL     1     -33.045  10.114  -0.838  1.00 20.00    -0.400 OA
HETATM    9  H20 UNL     1     -32.931  11.024  -1.150  1.00 20.00     0.209 HD
ENDBRANCH   7   8
ENDBRANCH   3   7
TORSDOF 3
ENDMDL
MODEL 8
REMARK VINA RESULT:      -1.6      2.569      3.956
REMARK  3 active torsions:
REMARK  status: ('A' for Active; 'I' for Inactive)
REMARK    1  A    between atoms: C4_4  and  C5_5 
REMARK    2  A    between atoms: C6_6  and  C7_7 
REMARK    3  A    between atoms: C7_7  and  O8_8 
ROOT
HETATM    1  C3  UNL     1     -34.968   6.108   3.806  1.00 20.00     0.012 A 
HETATM    2  C5  UNL     1     -34.240   4.813   3.560  1.00 20.00    -0.004 A 
HETATM    3  C6  UNL     1     -33.522   6.127   3.389  1.00 20.00     0.014 A 
ENDROOT
BRANCH   2   4
HETATM    4  C4  UNL     1     -33.903   3.838   4.676  1.00 20.00    -0.010 A 
HETATM    5  C1  UNL     1     -33.421   2.439   4.413  1.00 20.00     0.005 A 
HETATM    6  C2  UNL     1     -32.490   3.452   5.018  1.00 20.00     0.005 A 
ENDBRANCH   2   4
BRANCH   3   7
HETATM    7  C7  UNL     1     -33.138   6.604   2.032  1.00 20.00     0.169 C 
BRANCH   7   8
HETATM    8  O8  UNL     1     -32.316   7.766   2.139  1.00 20.00    -0.400 OA
HETATM    9  H20 UNL     1     -31.838   7.688   2.978  1.00 20.00     0.209 HD
ENDBRANCH   7   8
ENDBRANCH   3   7
TORSDOF 3
ENDMDL
MODEL 9
REMARK VINA RESULT:      -1.6      2.138      3.854
REMARK  3 active torsions:
REMARK  status: ('A' for Active; 'I' for Inactive)
REMARK    1  A    between atoms: C4_4  and  C5_5 
REMARK    2  A    between atoms: C6_6  and  C7_7 
REMARK    3  A    between atoms: C7_7  and  O8_8 
ROOT
HETATM    1  C3  UNL     1     -32.151   6.946   1.550  1.00 20.00     0.012 A 
HETATM    2  C5  UNL     1     -33.412   6.289   2.048  1.00 20.00    -0.004 A 
HETATM    3  C6  UNL     1     -32.267   5.445   1.551  1.00 20.00     0.014 A 
ENDROOT
BRANCH   2   4
HETATM    4  C4  UNL     1     -33.829   6.319   3.509  1.00 20.00    -0.010 A 
HETATM    5  C1  UNL     1     -34.292   7.574   4.196  1.00 20.00     0.005 A 
HETATM    6  C2  UNL     1     -35.263   6.455   3.941  1.00 20.00     0.005 A 
ENDBRANCH   2   4
BRANCH   3   7
HETATM    7  C7  UNL     1     -32.382   4.700   0.266  1.00 20.00     0.169 C 
BRANCH   7   8
HETATM    8  O8  UNL     1     -31.159   4.019  -0.014  1.00 20.00    -0.400 OA
HETATM    9  H20 UNL     1     -31.373   3.075  -0.049  1.00 20.00     0.209 HD
ENDBRANCH   7   8
ENDBRANCH   3   7
TORSDOF 3
ENDMDL
