MODEL 1
REMARK VINA RESULT:      -1.3      0.000      0.000
REMARK  2 active torsions:
REMARK  status: ('A' for Active; 'I' for Inactive)
REMARK    1  A    between atoms: C5_5  and  C6_6 
REMARK    2  A    between atoms: C7_7  and  C8_8 
ROOT
HETATM    1  C1  UNL     1     -34.915   6.543   3.213  1.00 20.00     0.033 C 
HETATM    2  C3  UNL     1     -35.472   6.041   4.528  1.00 20.00     0.168 C 
HETATM    3  C4  UNL     1     -34.077   4.396   3.648  1.00 20.00     0.172 C 
HETATM    4  C5  UNL     1     -33.638   5.740   3.095  1.00 20.00     0.016 C 
HETATM    5  O9  UNL     1     -35.057   4.674   4.660  1.00 20.00    -0.391 OA
ENDROOT
BRANCH   4   6
HETATM    6  C6  UNL     1     -33.075   5.668   1.688  1.00 20.00    -0.003 A 
HETATM    7  C2  UNL     1     -31.593   5.523   1.472  1.00 20.00     0.011 A 
HETATM    8  C7  UNL     1     -32.287   6.800   1.075  1.00 20.00     0.000 A 
BRANCH   8   9
HETATM    9  C8  UNL     1     -32.003   8.068   1.804  1.00 20.00     0.090 C 
HETATM   10 BR10 UNL     1     -32.267   9.604   0.630  1.00 20.00    -0.096 Br
ENDBRANCH   8   9
ENDBRANCH   4   6
TORSDOF 2
ENDMDL
MODEL 2
REMARK VINA RESULT:      -0.5      1.391      2.055
REMARK  2 active torsions:
REMARK  status: ('A' for Active; 'I' for Inactive)
REMARK    1  A    between atoms: C5_5  and  C6_6 
REMARK    2  A    between atoms: C7_7  and  C8_8 
ROOT
HETATM    1  C1  UNL     1     -33.755   5.538   3.026  1.00 20.00     0.033 C 
HETATM    2  C3  UNL     1     -34.982   5.740   3.891  1.00 20.00     0.168 C 
HETATM    3  C4  UNL     1     -33.807   7.750   3.805  1.00 20.00     0.172 C 
HETATM    4  C5  UNL     1     -33.475   6.949   2.558  1.00 20.00     0.016 C 
HETATM    5  O9  UNL     1     -34.875   7.051   4.464  1.00 20.00    -0.391 OA
ENDROOT
BRANCH   4   6
HETATM    6  C6  UNL     1     -32.063   7.168   2.049  1.00 20.00    -0.003 A 
HETATM    7  C2  UNL     1     -31.372   8.485   2.277  1.00 20.00     0.011 A 
HETATM    8  C7  UNL     1     -31.756   8.071   0.880  1.00 20.00     0.000 A 
BRANCH   8   9
HETATM    9  C8  UNL     1     -32.816   8.814   0.140  1.00 20.00     0.090 C 
HETATM   10 BR10 UNL     1     -32.584  10.739   0.367  1.00 20.00    -0.096 Br
ENDBRANCH   8   9
ENDBRANCH   4   6
TORSDOF 2
ENDMDL
MODEL 3
REMARK VINA RESULT:      -0.2      3.204      4.669
REMARK  2 active torsions:
REMARK  status: ('A' for Active; 'I' for Inactive)
REMARK    1  A    between atoms: C5_5  and  C6_6 
REMARK    2  A    between atoms: C7_7  and  C8_8 
ROOT
HETATM    1  C1  UNL     1     -32.710   6.325   1.467  1.00 20.00     0.033 C 
HETATM    2  C3  UNL     1     -31.613   7.369   1.462  1.00 20.00     0.168 C 
HETATM    3  C4  UNL     1     -33.114   7.892   3.166  1.00 20.00     0.172 C 
HETATM    4  C5  UNL     1     -33.197   6.400   2.898  1.00 20.00     0.016 C 
HETATM    5  O9  UNL     1     -31.996   8.379   2.407  1.00 20.00    -0.391 OA
ENDROOT
BRANCH   4   6
HETATM    6  C6  UNL     1     -34.580   5.816   3.117  1.00 20.00    -0.003 A 
HETATM    7  C2  UNL     1     -35.363   6.168   4.352  1.00 20.00     0.011 A 
HETATM    8  C7  UNL     1     -34.856   4.762   4.161  1.00 20.00     0.000 A 
BRANCH   8   9
HETATM    9  C8  UNL     1     -33.793   4.218   5.052  1.00 20.00     0.090 C 
HETATM   10 BR10 UNL     1     -33.169   2.490   4.395  1.00 20.00    -0.096 Br
ENDBRANCH   8   9
ENDBRANCH   4   6
TORSDOF 2
ENDMDL
MODEL 4
REMARK VINA RESULT:      -0.0      3.576      4.925
REMARK  2 active torsions:
REMARK  status: ('A' for Active; 'I' for Inactive)
REMARK    1  A    between atoms: C5_5  and  C6_6 
REMARK    2  A    between atoms: C7_7  and  C8_8 
ROOT
HETATM    1  C1  UNL     1     -32.381  10.111   1.480  1.00 20.00     0.033 C 
HETATM    2  C3  UNL     1     -32.759  10.973   0.293  1.00 20.00     0.168 C 
HETATM    3  C4  UNL     1     -32.413   8.796  -0.462  1.00 20.00     0.172 C 
HETATM    4  C5  UNL     1     -32.798   8.736   1.006  1.00 20.00     0.016 C 
HETATM    5  O9  UNL     1     -32.606  10.157  -0.877  1.00 20.00    -0.391 OA
ENDROOT
BRANCH   4   6
HETATM    6  C6  UNL     1     -32.148   7.593   1.762  1.00 20.00    -0.003 A 
HETATM    7  C2  UNL     1     -32.771   6.224   1.746  1.00 20.00     0.011 A 
HETATM    8  C7  UNL     1     -32.743   7.019   3.025  1.00 20.00     0.000 A 
BRANCH   8   9
HETATM    9  C8  UNL     1     -34.009   7.531   3.621  1.00 20.00     0.090 C 
HETATM   10 BR10 UNL     1     -35.220   6.054   4.022  1.00 20.00    -0.096 Br
ENDBRANCH   8   9
ENDBRANCH   4   6
TORSDOF 2
ENDMDL
MODEL 5
REMARK VINA RESULT:       0.9      1.186      2.266
REMARK  2 active torsions:
REMARK  status: ('A' for Active; 'I' for Inactive)
REMARK    1  A    between atoms: C5_5  and  C6_6 
REMARK    2  A    between atoms: C7_7  and  C8_8 
ROOT
HETATM    1  C1  UNL     1     -33.130   5.101   3.781  1.00 20.00     0.033 C 
HETATM    2  C3  UNL     1     -34.100   3.941   3.859  1.00 20.00     0.168 C 
HETATM    3  C4  UNL     1     -35.256   5.898   4.373  1.00 20.00     0.172 C 
HETATM    4  C5  UNL     1     -34.062   6.262   3.507  1.00 20.00     0.016 C 
HETATM    5  O9  UNL     1     -35.332   4.463   4.376  1.00 20.00    -0.391 OA
ENDROOT
BRANCH   4   6
HETATM    6  C6  UNL     1     -33.471   7.623   3.823  1.00 20.00    -0.003 A 
HETATM    7  C2  UNL     1     -33.951   8.845   3.088  1.00 20.00     0.011 A 
HETATM    8  C7  UNL     1     -32.547   8.342   2.871  1.00 20.00     0.000 A 
BRANCH   8   9
HETATM    9  C8  UNL     1     -32.148   7.771   1.554  1.00 20.00     0.090 C 
HETATM   10 BR10 UNL     1     -32.131   9.161   0.184  1.00 20.00    -0.096 Br
ENDBRANCH   8   9
ENDBRANCH   4   6
TORSDOF 2
ENDMDL
MODEL 6
REMARK VINA RESULT:       1.0      3.399      4.821
REMARK  2 active torsions:
REMARK  status: ('A' for Active; 'I' for Inactive)
REMARK    1  A    between atoms: C5_5  and  C6_6 
REMARK    2  A    between atoms: C7_7  and  C8_8 
ROOT
HETATM    1  C1  UNL     1     -33.105   9.686   1.165  1.00 20.00     0.033 C 
HETATM    2  C3  UNL     1     -32.039   9.528   0.101  1.00 20.00     0.168 C 
HETATM    3  C4  UNL     1     -31.646   7.951   1.771  1.00 20.00     0.172 C 
HETATM    4  C5  UNL     1     -33.123   8.306   1.787  1.00 20.00     0.016 C 
HETATM    5  O9  UNL     1     -31.093   8.571   0.600  1.00 20.00    -0.391 OA
ENDROOT
BRANCH   4   6
HETATM    6  C6  UNL     1     -33.749   8.254   3.168  1.00 20.00    -0.003 A 
HETATM    7  C2  UNL     1     -33.000   7.632   4.316  1.00 20.00     0.011 A 
HETATM    8  C7  UNL     1     -34.242   6.967   3.783  1.00 20.00     0.000 A 
BRANCH   8   9
HETATM    9  C8  UNL     1     -34.151   5.656   3.081  1.00 20.00     0.090 C 
HETATM   10 BR10 UNL     1     -34.050   4.196   4.373  1.00 20.00    -0.096 Br
ENDBRANCH   8   9
ENDBRANCH   4   6
TORSDOF 2
ENDMDL
MODEL 7
REMARK VINA RESULT:       1.1      1.474      1.510
REMARK  2 active torsions:
REMARK  status: ('A' for Active; 'I' for Inactive)
REMARK    1  A    between atoms: C5_5  and  C6_6 
REMARK    2  A    between atoms: C7_7  and  C8_8 
ROOT
HETATM    1  C1  UNL     1     -35.248   6.162   3.697  1.00 20.00     0.033 C 
HETATM    2  C3  UNL     1     -35.423   5.124   4.786  1.00 20.00     0.168 C 
HETATM    3  C4  UNL     1     -33.658   4.460   3.418  1.00 20.00     0.172 C 
HETATM    4  C5  UNL     1     -33.795   5.970   3.322  1.00 20.00     0.016 C 
HETATM    5  O9  UNL     1     -34.538   4.039   4.472  1.00 20.00    -0.391 OA
ENDROOT
BRANCH   4   6
HETATM    6  C6  UNL     1     -33.423   6.532   1.962  1.00 20.00    -0.003 A 
HETATM    7  C2  UNL     1     -32.094   6.195   1.342  1.00 20.00     0.011 A 
HETATM    8  C7  UNL     1     -32.377   7.606   1.791  1.00 20.00     0.000 A 
BRANCH   8   9
HETATM    9  C8  UNL     1     -31.632   8.191   2.942  1.00 20.00     0.090 C 
HETATM   10 BR10 UNL     1     -32.839   8.517   4.441  1.00 20.00    -0.096 Br
ENDBRANCH   8   9
ENDBRANCH   4   6
TORSDOF 2
ENDMDL
MODEL 8
REMARK VINA RESULT:       1.1      3.226      4.690
REMARK  2 active torsions:
REMARK  status: ('A' for Active; 'I' for Inactive)
REMARK    1  A    between atoms: C5_5  and  C6_6 
REMARK    2  A    between atoms: C7_7  and  C8_8 
ROOT
HETATM    1  C1  UNL     1     -31.571   8.787  -0.103  1.00 20.00     0.033 C 
HETATM    2  C3  UNL     1     -32.047  10.221  -0.190  1.00 20.00     0.168 C 
HETATM    3  C4  UNL     1     -33.117   9.202   1.612  1.00 20.00     0.172 C 
HETATM    4  C5  UNL     1     -31.809   8.473   1.359  1.00 20.00     0.016 C 
HETATM    5  O9  UNL     1     -33.101  10.368   0.774  1.00 20.00    -0.391 OA
ENDROOT
BRANCH   4   6
HETATM    6  C6  UNL     1     -31.864   6.991   1.677  1.00 20.00    -0.003 A 
HETATM    7  C2  UNL     1     -33.045   6.167   1.242  1.00 20.00     0.011 A 
HETATM    8  C7  UNL     1     -32.807   6.421   2.708  1.00 20.00     0.000 A 
BRANCH   8   9
HETATM    9  C8  UNL     1     -33.752   7.269   3.487  1.00 20.00     0.090 C 
HETATM   10 BR10 UNL     1     -35.284   6.216   4.081  1.00 20.00    -0.096 Br
ENDBRANCH   8   9
ENDBRANCH   4   6
TORSDOF 2
ENDMDL
MODEL 9
REMARK VINA RESULT:       1.3      3.172      4.438
REMARK  2 active torsions:
REMARK  status: ('A' for Active; 'I' for Inactive)
REMARK    1  A    between atoms: C5_5  and  C6_6 
REMARK    2  A    between atoms: C7_7  and  C8_8 
ROOT
HETATM    1  C1  UNL     1     -32.782   7.981   2.885  1.00 20.00     0.033 C 
HETATM    2  C3  UNL     1     -31.666   8.014   1.862  1.00 20.00     0.168 C 
HETATM    3  C4  UNL     1     -32.862   6.034   1.578  1.00 20.00     0.172 C 
HETATM    4  C5  UNL     1     -33.781   7.060   2.219  1.00 20.00     0.016 C 
HETATM    5  O9  UNL     1     -31.666   6.737   1.205  1.00 20.00    -0.391 OA
ENDROOT
BRANCH   4   6
HETATM    6  C6  UNL     1     -34.801   6.458   3.166  1.00 20.00    -0.003 A 
HETATM    7  C2  UNL     1     -34.576   6.510   4.653  1.00 20.00     0.011 A 
HETATM    8  C7  UNL     1     -34.538   5.186   3.934  1.00 20.00     0.000 A 
BRANCH   8   9
HETATM    9  C8  UNL     1     -33.260   4.429   3.820  1.00 20.00     0.090 C 
HETATM   10 BR10 UNL     1     -33.331   2.802   4.895  1.00 20.00    -0.096 Br
ENDBRANCH   8   9
ENDBRANCH   4   6
TORSDOF 2
ENDMDL
