MODEL 1
REMARK VINA RESULT:       0.4      0.000      0.000
REMARK  2 active torsions:
REMARK  status: ('A' for Active; 'I' for Inactive)
REMARK    1  A    between atoms: C6_6  and  C8_8 
REMARK    2  A    between atoms: C8_8  and  O9_9 
ROOT
HETATM    1  C1  UNL     1     -33.485   5.696   1.836  1.00 20.00     0.011 C 
HETATM    2  C2  UNL     1     -32.070   6.219   1.592  1.00 20.00     0.011 C 
HETATM    3  C3  UNL     1     -30.873   8.464   1.135  1.00 20.00     0.018 A 
HETATM    4  C4  UNL     1     -33.963   5.930   3.265  1.00 20.00     0.074 C 
HETATM    5  C5  UNL     1     -32.274   8.109   3.268  1.00 20.00     0.083 C 
HETATM    6  C6  UNL     1     -32.295   8.642   0.680  1.00 20.00     0.019 A 
HETATM    7  C7  UNL     1     -31.980   7.711   1.845  1.00 20.00    -0.026 A 
HETATM    8  S10 UNL     1     -33.989   7.699   3.691  1.00 20.00    -0.168 SA
ENDROOT
BRANCH   6   9
HETATM    9  C8  UNL     1     -32.972   9.959   0.845  1.00 20.00     0.169 C 
BRANCH   9  10
HETATM   10  O9  UNL     1     -32.307  10.950   0.061  1.00 20.00    -0.400 OA
HETATM   11  H24 UNL     1     -32.645  11.808   0.359  1.00 20.00     0.209 HD
ENDBRANCH   9  10
ENDBRANCH   6   9
TORSDOF 2
ENDMDL
MODEL 2
REMARK VINA RESULT:       1.7      2.983      4.183
REMARK  2 active torsions:
REMARK  status: ('A' for Active; 'I' for Inactive)
REMARK    1  A    between atoms: C6_6  and  C8_8 
REMARK    2  A    between atoms: C8_8  and  O9_9 
ROOT
HETATM    1  C1  UNL     1     -32.375   8.435   1.408  1.00 20.00     0.011 C 
HETATM    2  C2  UNL     1     -32.390   8.419   2.936  1.00 20.00     0.011 C 
HETATM    3  C3  UNL     1     -33.815   7.450   4.862  1.00 20.00     0.018 A 
HETATM    4  C4  UNL     1     -31.817   7.148   0.809  1.00 20.00     0.074 C 
HETATM    5  C5  UNL     1     -32.736   5.913   3.096  1.00 20.00     0.083 C 
HETATM    6  C6  UNL     1     -34.728   7.553   3.671  1.00 20.00     0.019 A 
HETATM    7  C7  UNL     1     -33.241   7.284   3.469  1.00 20.00    -0.026 A 
HETATM    8  S10 UNL     1     -32.795   5.693   1.298  1.00 20.00    -0.168 SA
ENDROOT
BRANCH   6   9
HETATM    9  C8  UNL     1     -35.783   6.526   3.447  1.00 20.00     0.169 C 
BRANCH   9  10
HETATM   10  O9  UNL     1     -35.720   5.533   4.471  1.00 20.00    -0.400 OA
HETATM   11  H24 UNL     1     -36.623   5.428   4.807  1.00 20.00     0.209 HD
ENDBRANCH   9  10
ENDBRANCH   6   9
TORSDOF 2
ENDMDL
MODEL 3
REMARK VINA RESULT:       2.8      2.480      3.700
REMARK  2 active torsions:
REMARK  status: ('A' for Active; 'I' for Inactive)
REMARK    1  A    between atoms: C6_6  and  C8_8 
REMARK    2  A    between atoms: C8_8  and  O9_9 
ROOT
HETATM    1  C1  UNL     1     -31.941   5.582   1.963  1.00 20.00     0.011 C 
HETATM    2  C2  UNL     1     -33.449   5.517   2.199  1.00 20.00     0.011 C 
HETATM    3  C3  UNL     1     -35.250   6.692   3.633  1.00 20.00     0.018 A 
HETATM    4  C4  UNL     1     -31.536   6.729   1.043  1.00 20.00     0.074 C 
HETATM    5  C5  UNL     1     -33.783   8.020   1.982  1.00 20.00     0.083 C 
HETATM    6  C6  UNL     1     -33.946   6.874   4.359  1.00 20.00     0.019 A 
HETATM    7  C7  UNL     1     -33.964   6.792   2.837  1.00 20.00    -0.026 A 
HETATM    8  S10 UNL     1     -32.019   8.346   1.724  1.00 20.00    -0.168 SA
ENDROOT
BRANCH   6   9
HETATM    9  C8  UNL     1     -33.677   8.135   5.107  1.00 20.00     0.169 C 
BRANCH   9  10
HETATM   10  O9  UNL     1     -32.272   8.384   5.150  1.00 20.00    -0.400 OA
HETATM   11  H24 UNL     1     -31.895   7.724   5.750  1.00 20.00     0.209 HD
ENDBRANCH   9  10
ENDBRANCH   6   9
TORSDOF 2
ENDMDL
MODEL 4
REMARK VINA RESULT:       2.9      3.032      4.011
REMARK  2 active torsions:
REMARK  status: ('A' for Active; 'I' for Inactive)
REMARK    1  A    between atoms: C6_6  and  C8_8 
REMARK    2  A    between atoms: C8_8  and  O9_9 
ROOT
HETATM    1  C1  UNL     1     -34.010   3.980   4.824  1.00 20.00     0.011 C 
HETATM    2  C2  UNL     1     -35.094   4.937   4.328  1.00 20.00     0.011 C 
HETATM    3  C3  UNL     1     -35.310   7.370   3.484  1.00 20.00     0.018 A 
HETATM    4  C4  UNL     1     -33.196   3.370   3.688  1.00 20.00     0.074 C 
HETATM    5  C5  UNL     1     -33.780   5.673   2.290  1.00 20.00     0.083 C 
HETATM    6  C6  UNL     1     -34.070   7.325   4.333  1.00 20.00     0.019 A 
HETATM    7  C7  UNL     1     -34.498   6.091   3.548  1.00 20.00    -0.026 A 
HETATM    8  S10 UNL     1     -32.347   4.643   2.703  1.00 20.00    -0.168 SA
ENDROOT
BRANCH   6   9
HETATM    9  C8  UNL     1     -32.887   8.155   3.972  1.00 20.00     0.169 C 
BRANCH   9  10
HETATM   10  O9  UNL     1     -32.239   8.621   5.157  1.00 20.00    -0.400 OA
HETATM   11  H24 UNL     1     -31.306   8.374   5.073  1.00 20.00     0.209 HD
ENDBRANCH   9  10
ENDBRANCH   6   9
TORSDOF 2
ENDMDL
MODEL 5
REMARK VINA RESULT:       3.1      2.897      3.311
REMARK  2 active torsions:
REMARK  status: ('A' for Active; 'I' for Inactive)
REMARK    1  A    between atoms: C6_6  and  C8_8 
REMARK    2  A    between atoms: C8_8  and  O9_9 
ROOT
HETATM    1  C1  UNL     1     -34.200   3.994   3.992  1.00 20.00     0.011 C 
HETATM    2  C2  UNL     1     -32.860   4.520   3.477  1.00 20.00     0.011 C 
HETATM    3  C3  UNL     1     -31.939   5.898   1.495  1.00 20.00     0.018 A 
HETATM    4  C4  UNL     1     -35.017   5.064   4.710  1.00 20.00     0.074 C 
HETATM    5  C5  UNL     1     -33.717   6.872   3.086  1.00 20.00     0.083 C 
HETATM    6  C6  UNL     1     -33.232   5.292   1.024  1.00 20.00     0.019 A 
HETATM    7  C7  UNL     1     -33.054   5.656   2.493  1.00 20.00    -0.026 A 
HETATM    8  S10 UNL     1     -35.402   6.468   3.619  1.00 20.00    -0.168 SA
ENDROOT
BRANCH   6   9
HETATM    9  C8  UNL     1     -34.118   6.049   0.095  1.00 20.00     0.169 C 
BRANCH   9  10
HETATM   10  O9  UNL     1     -34.744   5.150  -0.821  1.00 20.00    -0.400 OA
HETATM   11  H24 UNL     1     -35.698   5.229  -0.673  1.00 20.00     0.209 HD
ENDBRANCH   9  10
ENDBRANCH   6   9
TORSDOF 2
ENDMDL
MODEL 6
REMARK VINA RESULT:       3.3      2.406      3.336
REMARK  2 active torsions:
REMARK  status: ('A' for Active; 'I' for Inactive)
REMARK    1  A    between atoms: C6_6  and  C8_8 
REMARK    2  A    between atoms: C8_8  and  O9_9 
ROOT
HETATM    1  C1  UNL     1     -32.589   8.112   4.707  1.00 20.00     0.011 C 
HETATM    2  C2  UNL     1     -32.313   8.596   3.284  1.00 20.00     0.011 C 
HETATM    3  C3  UNL     1     -32.067   7.616   0.905  1.00 20.00     0.018 A 
HETATM    4  C4  UNL     1     -34.069   7.840   4.962  1.00 20.00     0.074 C 
HETATM    5  C5  UNL     1     -34.233   7.294   2.264  1.00 20.00     0.083 C 
HETATM    6  C6  UNL     1     -31.745   6.499   1.859  1.00 20.00     0.019 A 
HETATM    7  C7  UNL     1     -32.752   7.572   2.257  1.00 20.00    -0.026 A 
HETATM    8  S10 UNL     1     -34.723   6.559   3.847  1.00 20.00    -0.168 SA
ENDROOT
BRANCH   6   9
HETATM    9  C8  UNL     1     -32.131   5.099   1.525  1.00 20.00     0.169 C 
BRANCH   9  10
HETATM   10  O9  UNL     1     -31.496   4.695   0.311  1.00 20.00    -0.400 OA
HETATM   11  H24 UNL     1     -30.545   4.829   0.442  1.00 20.00     0.209 HD
ENDBRANCH   9  10
ENDBRANCH   6   9
TORSDOF 2
ENDMDL
