MODEL 1
REMARK VINA RESULT:       0.8      0.000      0.000
REMARK  1 active torsions:
REMARK  status: ('A' for Active; 'I' for Inactive)
REMARK    1  A    between atoms: C5_5  and  C10_10 
ROOT
HETATM    1  C1  UNL     1     -33.843   5.158   2.536  1.00 20.00     0.002 C 
HETATM    2  C2  UNL     1     -32.725   5.792   1.718  1.00 20.00     0.011 C 
HETATM    3  C3  UNL     1     -33.786   5.914   3.854  1.00 20.00     0.010 C 
HETATM    4  C4  UNL     1     -31.245   7.873   2.150  1.00 20.00     0.017 A 
HETATM    5  C5  UNL     1     -32.306   8.321   1.192  1.00 20.00     0.009 A 
HETATM    6  C6  UNL     1     -32.623   7.229   2.213  1.00 20.00    -0.028 A 
HETATM    7  C7  UNL     1     -33.545   7.392   3.437  1.00 20.00    -0.040 C 
HETATM    8  C8  UNL     1     -34.891   8.034   3.060  1.00 20.00     0.015 C 
HETATM    9  C9  UNL     1     -32.932   8.143   4.622  1.00 20.00     0.015 C 
ENDROOT
BRANCH   5  10
HETATM   10  C10 UNL     1     -32.782   9.729   1.255  1.00 20.00     0.120 C 
HETATM   11 CL11 UNL     1     -32.860  10.461  -0.372  1.00 20.00    -0.130 Cl
ENDBRANCH   5  10
TORSDOF 1
ENDMDL
MODEL 2
REMARK VINA RESULT:       1.3      2.583      3.987
REMARK  1 active torsions:
REMARK  status: ('A' for Active; 'I' for Inactive)
REMARK    1  A    between atoms: C5_5  and  C10_10 
ROOT
HETATM    1  C1  UNL     1     -32.009   8.522   1.097  1.00 20.00     0.002 C 
HETATM    2  C2  UNL     1     -32.600   8.752   2.483  1.00 20.00     0.011 C 
HETATM    3  C3  UNL     1     -31.614   7.053   1.124  1.00 20.00     0.010 C 
HETATM    4  C4  UNL     1     -33.197   7.109   4.393  1.00 20.00     0.017 A 
HETATM    5  C5  UNL     1     -34.491   7.418   3.705  1.00 20.00     0.009 A 
HETATM    6  C6  UNL     1     -33.190   7.412   2.901  1.00 20.00    -0.028 A 
HETATM    7  C7  UNL     1     -32.792   6.353   1.854  1.00 20.00    -0.040 C 
HETATM    8  C8  UNL     1     -33.924   6.090   0.846  1.00 20.00     0.015 C 
HETATM    9  C9  UNL     1     -32.295   5.023   2.427  1.00 20.00     0.015 C 
ENDROOT
BRANCH   5  10
HETATM   10  C10 UNL     1     -35.545   6.369   3.653  1.00 20.00     0.120 C 
HETATM   11 CL11 UNL     1     -35.039   4.896   4.525  1.00 20.00    -0.130 Cl
ENDBRANCH   5  10
TORSDOF 1
ENDMDL
MODEL 3
REMARK VINA RESULT:       2.2      2.982      4.248
REMARK  1 active torsions:
REMARK  status: ('A' for Active; 'I' for Inactive)
REMARK    1  A    between atoms: C5_5  and  C10_10 
ROOT
HETATM    1  C1  UNL     1     -31.858   8.204   2.258  1.00 20.00     0.002 C 
HETATM    2  C2  UNL     1     -31.956   6.750   1.812  1.00 20.00     0.011 C 
HETATM    3  C3  UNL     1     -33.304   8.586   2.528  1.00 20.00     0.010 C 
HETATM    4  C4  UNL     1     -33.938   5.083   1.803  1.00 20.00     0.017 A 
HETATM    5  C5  UNL     1     -33.123   4.739   3.012  1.00 20.00     0.009 A 
HETATM    6  C6  UNL     1     -33.178   6.187   2.525  1.00 20.00    -0.028 A 
HETATM    7  C7  UNL     1     -33.902   7.343   3.243  1.00 20.00    -0.040 C 
HETATM    8  C8  UNL     1     -33.545   7.403   4.738  1.00 20.00     0.015 C 
HETATM    9  C9  UNL     1     -35.423   7.364   3.076  1.00 20.00     0.015 C 
ENDROOT
BRANCH   5  10
HETATM   10  C10 UNL     1     -33.815   4.203   4.216  1.00 20.00     0.120 C 
HETATM   11 CL11 UNL     1     -32.923   2.825   4.917  1.00 20.00    -0.130 Cl
ENDBRANCH   5  10
TORSDOF 1
ENDMDL
MODEL 4
REMARK VINA RESULT:       2.4      2.199      3.290
REMARK  1 active torsions:
REMARK  status: ('A' for Active; 'I' for Inactive)
REMARK    1  A    between atoms: C5_5  and  C10_10 
ROOT
HETATM    1  C1  UNL     1     -32.870   8.082   5.120  1.00 20.00     0.002 C 
HETATM    2  C2  UNL     1     -32.217   8.227   3.750  1.00 20.00     0.011 C 
HETATM    3  C3  UNL     1     -34.330   7.820   4.786  1.00 20.00     0.010 C 
HETATM    4  C4  UNL     1     -33.121   7.806   1.360  1.00 20.00     0.017 A 
HETATM    5  C5  UNL     1     -32.309   6.596   1.706  1.00 20.00     0.009 A 
HETATM    6  C6  UNL     1     -33.041   7.356   2.812  1.00 20.00    -0.028 A 
HETATM    7  C7  UNL     1     -34.278   6.845   3.578  1.00 20.00    -0.040 C 
HETATM    8  C8  UNL     1     -34.079   5.411   4.098  1.00 20.00     0.015 C 
HETATM    9  C9  UNL     1     -35.602   6.936   2.815  1.00 20.00     0.015 C 
ENDROOT
BRANCH   5  10
HETATM   10  C10 UNL     1     -32.713   5.277   1.148  1.00 20.00     0.120 C 
HETATM   11 CL11 UNL     1     -31.345   4.471   0.332  1.00 20.00    -0.130 Cl
ENDBRANCH   5  10
TORSDOF 1
ENDMDL
MODEL 5
REMARK VINA RESULT:       3.3      2.234      3.531
REMARK  1 active torsions:
REMARK  status: ('A' for Active; 'I' for Inactive)
REMARK    1  A    between atoms: C5_5  and  C10_10 
ROOT
HETATM    1  C1  UNL     1     -31.763   5.423   1.535  1.00 20.00     0.002 C 
HETATM    2  C2  UNL     1     -33.090   5.386   2.285  1.00 20.00     0.011 C 
HETATM    3  C3  UNL     1     -31.803   6.763   0.817  1.00 20.00     0.010 C 
HETATM    4  C4  UNL     1     -34.905   7.195   2.657  1.00 20.00     0.017 A 
HETATM    5  C5  UNL     1     -34.101   7.161   3.920  1.00 20.00     0.009 A 
HETATM    6  C6  UNL     1     -33.426   6.840   2.586  1.00 20.00    -0.028 A 
HETATM    7  C7  UNL     1     -32.404   7.740   1.864  1.00 20.00    -0.040 C 
HETATM    8  C8  UNL     1     -31.287   8.214   2.810  1.00 20.00     0.015 C 
HETATM    9  C9  UNL     1     -32.999   8.943   1.128  1.00 20.00     0.015 C 
ENDROOT
BRANCH   5  10
HETATM   10  C10 UNL     1     -33.929   8.419   4.697  1.00 20.00     0.120 C 
HETATM   11 CL11 UNL     1     -32.710   8.224   5.986  1.00 20.00    -0.130 Cl
ENDBRANCH   5  10
TORSDOF 1
ENDMDL
MODEL 6
REMARK VINA RESULT:       3.3      2.516      3.928
REMARK  1 active torsions:
REMARK  status: ('A' for Active; 'I' for Inactive)
REMARK    1  A    between atoms: C5_5  and  C10_10 
ROOT
HETATM    1  C1  UNL     1     -31.586   8.151   1.849  1.00 20.00     0.002 C 
HETATM    2  C2  UNL     1     -31.911   6.705   1.495  1.00 20.00     0.011 C 
HETATM    3  C3  UNL     1     -32.917   8.701   2.338  1.00 20.00     0.010 C 
HETATM    4  C4  UNL     1     -34.030   5.270   1.895  1.00 20.00     0.017 A 
HETATM    5  C5  UNL     1     -33.061   4.873   2.967  1.00 20.00     0.009 A 
HETATM    6  C6  UNL     1     -33.046   6.303   2.428  1.00 20.00    -0.028 A 
HETATM    7  C7  UNL     1     -33.511   7.553   3.200  1.00 20.00    -0.040 C 
HETATM    8  C8  UNL     1     -32.901   7.616   4.611  1.00 20.00     0.015 C 
HETATM    9  C9  UNL     1     -35.028   7.739   3.287  1.00 20.00     0.015 C 
ENDROOT
BRANCH   5  10
HETATM   10  C10 UNL     1     -33.590   4.453   4.293  1.00 20.00     0.120 C 
HETATM   11 CL11 UNL     1     -35.322   4.856   4.458  1.00 20.00    -0.130 Cl
ENDBRANCH   5  10
TORSDOF 1
ENDMDL
MODEL 7
REMARK VINA RESULT:       3.5      1.192      2.809
REMARK  1 active torsions:
REMARK  status: ('A' for Active; 'I' for Inactive)
REMARK    1  A    between atoms: C5_5  and  C10_10 
ROOT
HETATM    1  C1  UNL     1     -33.738   4.340   3.880  1.00 20.00     0.002 C 
HETATM    2  C2  UNL     1     -33.947   5.828   4.141  1.00 20.00     0.011 C 
HETATM    3  C3  UNL     1     -33.880   4.225   2.371  1.00 20.00     0.010 C 
HETATM    4  C4  UNL     1     -34.141   7.846   2.529  1.00 20.00     0.017 A 
HETATM    5  C5  UNL     1     -32.735   7.872   3.046  1.00 20.00     0.009 A 
HETATM    6  C6  UNL     1     -33.455   6.534   2.884  1.00 20.00    -0.028 A 
HETATM    7  C7  UNL     1     -33.129   5.468   1.819  1.00 20.00    -0.040 C 
HETATM    8  C8  UNL     1     -31.622   5.159   1.759  1.00 20.00     0.015 C 
HETATM    9  C9  UNL     1     -33.647   5.772   0.411  1.00 20.00     0.015 C 
ENDROOT
BRANCH   5  10
HETATM   10  C10 UNL     1     -31.655   8.387   2.162  1.00 20.00     0.120 C 
HETATM   11 CL11 UNL     1     -32.327   9.247   0.749  1.00 20.00    -0.130 Cl
ENDBRANCH   5  10
TORSDOF 1
ENDMDL
MODEL 8
REMARK VINA RESULT:       3.6      1.152      1.392
REMARK  1 active torsions:
REMARK  status: ('A' for Active; 'I' for Inactive)
REMARK    1  A    between atoms: C5_5  and  C10_10 
ROOT
HETATM    1  C1  UNL     1     -35.137   5.811   3.917  1.00 20.00     0.002 C 
HETATM    2  C2  UNL     1     -34.177   5.583   2.756  1.00 20.00     0.011 C 
HETATM    3  C3  UNL     1     -34.371   6.761   4.825  1.00 20.00     0.010 C 
HETATM    4  C4  UNL     1     -31.933   6.715   2.131  1.00 20.00     0.017 A 
HETATM    5  C5  UNL     1     -32.968   7.351   1.254  1.00 20.00     0.009 A 
HETATM    6  C6  UNL     1     -33.358   6.862   2.648  1.00 20.00    -0.028 A 
HETATM    7  C7  UNL     1     -33.702   7.767   3.848  1.00 20.00    -0.040 C 
HETATM    8  C8  UNL     1     -34.722   8.856   3.471  1.00 20.00     0.015 C 
HETATM    9  C9  UNL     1     -32.501   8.408   4.548  1.00 20.00     0.015 C 
ENDROOT
BRANCH   5  10
HETATM   10  C10 UNL     1     -32.793   8.773   0.852  1.00 20.00     0.120 C 
HETATM   11 CL11 UNL     1     -31.104   9.112   0.383  1.00 20.00    -0.130 Cl
ENDBRANCH   5  10
TORSDOF 1
ENDMDL
