MODEL 1
REMARK VINA RESULT:       0.4      0.000      0.000
REMARK  1 active torsions:
REMARK  status: ('A' for Active; 'I' for Inactive)
REMARK    1  A    between atoms: C6_6  and  C8_8 
ROOT
HETATM    1  C1  UNL     1     -32.697   7.927   3.704  1.00 20.00     0.036 C 
HETATM    2  C2  UNL     1     -32.683   5.960   2.151  1.00 20.00     0.036 C 
HETATM    3  C3  UNL     1     -31.029   7.914   1.713  1.00 20.00     0.016 A 
HETATM    4  C4  UNL     1     -34.169   7.624   3.965  1.00 20.00     0.168 C 
HETATM    5  C5  UNL     1     -34.157   5.764   2.497  1.00 20.00     0.168 C 
HETATM    6  C6  UNL     1     -32.348   8.317   1.111  1.00 20.00     0.005 A 
HETATM    7  C7  UNL     1     -32.314   7.414   2.334  1.00 20.00    -0.032 A 
HETATM    8  O9  UNL     1     -34.422   6.222   3.827  1.00 20.00    -0.391 OA
ENDROOT
BRANCH   6   9
HETATM    9  C8  UNL     1     -32.795   9.737   1.164  1.00 20.00     0.090 C 
HETATM   10 BR10 UNL     1     -32.764  10.529  -0.620  1.00 20.00    -0.096 Br
ENDBRANCH   6   9
TORSDOF 1
ENDMDL
MODEL 2
REMARK VINA RESULT:       1.7      3.349      4.536
REMARK  1 active torsions:
REMARK  status: ('A' for Active; 'I' for Inactive)
REMARK    1  A    between atoms: C6_6  and  C8_8 
ROOT
HETATM    1  C1  UNL     1     -33.956   7.739   4.504  1.00 20.00     0.036 C 
HETATM    2  C2  UNL     1     -33.783   7.305   2.042  1.00 20.00     0.036 C 
HETATM    3  C3  UNL     1     -35.680   6.149   3.387  1.00 20.00     0.016 A 
HETATM    4  C4  UNL     1     -32.450   7.977   4.499  1.00 20.00     0.168 C 
HETATM    5  C5  UNL     1     -32.285   7.568   2.171  1.00 20.00     0.168 C 
HETATM    6  C6  UNL     1     -34.443   5.311   3.572  1.00 20.00     0.005 A 
HETATM    7  C7  UNL     1     -34.322   6.813   3.366  1.00 20.00    -0.032 A 
HETATM    8  O9  UNL     1     -32.031   8.495   3.232  1.00 20.00    -0.391 OA
ENDROOT
BRANCH   6   9
HETATM    9  C8  UNL     1     -34.173   4.648   4.878  1.00 20.00     0.090 C 
HETATM   10 BR10 UNL     1     -33.239   2.956   4.605  1.00 20.00    -0.096 Br
ENDBRANCH   6   9
TORSDOF 1
ENDMDL
MODEL 3
REMARK VINA RESULT:       1.9      2.992      4.102
REMARK  1 active torsions:
REMARK  status: ('A' for Active; 'I' for Inactive)
REMARK    1  A    between atoms: C6_6  and  C8_8 
ROOT
HETATM    1  C1  UNL     1     -32.673   6.011   2.874  1.00 20.00     0.036 C 
HETATM    2  C2  UNL     1     -32.309   8.488   2.759  1.00 20.00     0.036 C 
HETATM    3  C3  UNL     1     -33.583   7.502   4.796  1.00 20.00     0.016 A 
HETATM    4  C4  UNL     1     -32.642   6.004   1.349  1.00 20.00     0.168 C 
HETATM    5  C5  UNL     1     -32.297   8.346   1.239  1.00 20.00     0.168 C 
HETATM    6  C6  UNL     1     -34.587   7.648   3.684  1.00 20.00     0.005 A 
HETATM    7  C7  UNL     1     -33.128   7.369   3.361  1.00 20.00    -0.032 A 
HETATM    8  O9  UNL     1     -31.802   7.057   0.863  1.00 20.00    -0.391 OA
ENDROOT
BRANCH   6   9
HETATM    9  C8  UNL     1     -35.665   6.635   3.508  1.00 20.00     0.090 C 
HETATM   10 BR10 UNL     1     -35.320   5.071   4.624  1.00 20.00    -0.096 Br
ENDBRANCH   6   9
TORSDOF 1
ENDMDL
MODEL 4
REMARK VINA RESULT:       1.9      2.197      3.228
REMARK  1 active torsions:
REMARK  status: ('A' for Active; 'I' for Inactive)
REMARK    1  A    between atoms: C6_6  and  C8_8 
ROOT
HETATM    1  C1  UNL     1     -33.637   5.513   2.542  1.00 20.00     0.036 C 
HETATM    2  C2  UNL     1     -35.434   5.636   4.284  1.00 20.00     0.036 C 
HETATM    3  C3  UNL     1     -34.806   7.791   2.978  1.00 20.00     0.016 A 
HETATM    4  C4  UNL     1     -33.032   4.366   3.345  1.00 20.00     0.168 C 
HETATM    5  C5  UNL     1     -34.731   4.481   4.992  1.00 20.00     0.168 C 
HETATM    6  C6  UNL     1     -33.804   7.650   4.093  1.00 20.00     0.005 A 
HETATM    7  C7  UNL     1     -34.426   6.412   3.467  1.00 20.00    -0.032 A 
HETATM    8  O9  UNL     1     -34.057   3.650   4.042  1.00 20.00    -0.391 OA
ENDROOT
BRANCH   6   9
HETATM    9  C8  UNL     1     -32.382   8.039   3.878  1.00 20.00     0.090 C 
HETATM   10 BR10 UNL     1     -32.034   8.332   1.979  1.00 20.00    -0.096 Br
ENDBRANCH   6   9
TORSDOF 1
ENDMDL
MODEL 5
REMARK VINA RESULT:       2.1      3.332      4.260
REMARK  1 active torsions:
REMARK  status: ('A' for Active; 'I' for Inactive)
REMARK    1  A    between atoms: C6_6  and  C8_8 
ROOT
HETATM    1  C1  UNL     1     -34.889   6.625   3.000  1.00 20.00     0.036 C 
HETATM    2  C2  UNL     1     -32.544   7.507   2.919  1.00 20.00     0.036 C 
HETATM    3  C3  UNL     1     -33.170   5.472   1.431  1.00 20.00     0.016 A 
HETATM    4  C4  UNL     1     -34.962   7.143   4.433  1.00 20.00     0.168 C 
HETATM    5  C5  UNL     1     -32.745   7.977   4.357  1.00 20.00     0.168 C 
HETATM    6  C6  UNL     1     -32.866   4.931   2.803  1.00 20.00     0.005 A 
HETATM    7  C7  UNL     1     -33.449   6.327   2.646  1.00 20.00    -0.032 A 
HETATM    8  O9  UNL     1     -34.122   8.292   4.591  1.00 20.00    -0.391 OA
ENDROOT
BRANCH   6   9
HETATM    9  C8  UNL     1     -33.646   3.784   3.347  1.00 20.00     0.090 C 
HETATM   10 BR10 UNL     1     -32.825   3.118   4.988  1.00 20.00    -0.096 Br
ENDBRANCH   6   9
TORSDOF 1
ENDMDL
MODEL 6
REMARK VINA RESULT:       2.5      3.036      4.224
REMARK  1 active torsions:
REMARK  status: ('A' for Active; 'I' for Inactive)
REMARK    1  A    between atoms: C6_6  and  C8_8 
ROOT
HETATM    1  C1  UNL     1     -31.354   7.666   1.929  1.00 20.00     0.036 C 
HETATM    2  C2  UNL     1     -32.645   9.812   2.019  1.00 20.00     0.036 C 
HETATM    3  C3  UNL     1     -32.716   8.220   4.070  1.00 20.00     0.016 A 
HETATM    4  C4  UNL     1     -31.540   7.697   0.415  1.00 20.00     0.168 C 
HETATM    5  C5  UNL     1     -32.760   9.726   0.500  1.00 20.00     0.168 C 
HETATM    6  C6  UNL     1     -33.733   7.707   3.086  1.00 20.00     0.005 A 
HETATM    7  C7  UNL     1     -32.485   8.421   2.589  1.00 20.00    -0.032 A 
HETATM    8  O9  UNL     1     -31.625   9.049  -0.049  1.00 20.00    -0.391 OA
ENDROOT
BRANCH   6   9
HETATM    9  C8  UNL     1     -33.947   6.242   2.922  1.00 20.00     0.090 C 
HETATM   10 BR10 UNL     1     -35.221   5.586   4.248  1.00 20.00    -0.096 Br
ENDBRANCH   6   9
TORSDOF 1
ENDMDL
MODEL 7
REMARK VINA RESULT:       2.7      3.049      4.330
REMARK  1 active torsions:
REMARK  status: ('A' for Active; 'I' for Inactive)
REMARK    1  A    between atoms: C6_6  and  C8_8 
ROOT
HETATM    1  C1  UNL     1     -31.581   8.305   0.297  1.00 20.00     0.036 C 
HETATM    2  C2  UNL     1     -32.384  10.380   1.452  1.00 20.00     0.036 C 
HETATM    3  C3  UNL     1     -31.456   8.425   2.889  1.00 20.00     0.016 A 
HETATM    4  C4  UNL     1     -32.575   8.622  -0.815  1.00 20.00     0.168 C 
HETATM    5  C5  UNL     1     -33.335  10.583   0.276  1.00 20.00     0.168 C 
HETATM    6  C6  UNL     1     -32.893   8.098   2.586  1.00 20.00     0.005 A 
HETATM    7  C7  UNL     1     -32.071   8.907   1.595  1.00 20.00    -0.032 A 
HETATM    8  O9  UNL     1     -32.772  10.036  -0.921  1.00 20.00    -0.391 OA
ENDROOT
BRANCH   6   9
HETATM    9  C8  UNL     1     -33.305   6.688   2.335  1.00 20.00     0.090 C 
HETATM   10 BR10 UNL     1     -34.616   6.114   3.663  1.00 20.00    -0.096 Br
ENDBRANCH   6   9
TORSDOF 1
ENDMDL
MODEL 8
REMARK VINA RESULT:       2.9      2.397      3.137
REMARK  1 active torsions:
REMARK  status: ('A' for Active; 'I' for Inactive)
REMARK    1  A    between atoms: C6_6  and  C8_8 
ROOT
HETATM    1  C1  UNL     1     -34.365   7.607   2.670  1.00 20.00     0.036 C 
HETATM    2  C2  UNL     1     -32.269   8.571   3.650  1.00 20.00     0.036 C 
HETATM    3  C3  UNL     1     -32.279   7.880   1.147  1.00 20.00     0.016 A 
HETATM    4  C4  UNL     1     -34.701   7.096   4.068  1.00 20.00     0.168 C 
HETATM    5  C5  UNL     1     -32.720   8.007   4.994  1.00 20.00     0.168 C 
HETATM    6  C6  UNL     1     -32.016   6.629   1.943  1.00 20.00     0.005 A 
HETATM    7  C7  UNL     1     -32.865   7.744   2.534  1.00 20.00    -0.032 A 
HETATM    8  O9  UNL     1     -34.149   7.964   5.063  1.00 20.00    -0.391 OA
ENDROOT
BRANCH   6   9
HETATM    9  C8  UNL     1     -32.585   5.325   1.501  1.00 20.00     0.090 C 
HETATM   10 BR10 UNL     1     -31.307   4.368   0.378  1.00 20.00    -0.096 Br
ENDBRANCH   6   9
TORSDOF 1
ENDMDL
MODEL 9
REMARK VINA RESULT:       3.4      2.623      2.972
REMARK  1 active torsions:
REMARK  status: ('A' for Active; 'I' for Inactive)
REMARK    1  A    between atoms: C6_6  and  C8_8 
ROOT
HETATM    1  C1  UNL     1     -34.215   6.879   3.242  1.00 20.00     0.036 C 
HETATM    2  C2  UNL     1     -32.951   4.783   3.784  1.00 20.00     0.036 C 
HETATM    3  C3  UNL     1     -32.011   6.378   1.962  1.00 20.00     0.016 A 
HETATM    4  C4  UNL     1     -35.481   6.144   3.669  1.00 20.00     0.168 C 
HETATM    5  C5  UNL     1     -34.288   4.163   4.182  1.00 20.00     0.168 C 
HETATM    6  C6  UNL     1     -33.051   5.519   1.294  1.00 20.00     0.005 A 
HETATM    7  C7  UNL     1     -33.189   5.875   2.765  1.00 20.00    -0.032 A 
HETATM    8  O9  UNL     1     -35.178   5.170   4.673  1.00 20.00    -0.391 OA
ENDROOT
BRANCH   6   9
HETATM    9  C8  UNL     1     -33.930   6.091   0.236  1.00 20.00     0.090 C 
HETATM   10 BR10 UNL     1     -34.718   4.666  -0.841  1.00 20.00    -0.096 Br
ENDBRANCH   6   9
TORSDOF 1
ENDMDL
