MODEL 1
REMARK VINA RESULT:      -0.3      0.000      0.000
REMARK  2 active torsions:
REMARK  status: ('A' for Active; 'I' for Inactive)
REMARK    1  A    between atoms: C3_3  and  O9_9 
REMARK    2  A    between atoms: C4_4  and  C8_8 
ROOT
HETATM    1  C1  UNL     1     -33.466   5.876   2.960  1.00 20.00     0.037 C 
HETATM    2  C2  UNL     1     -33.836   7.375   3.049  1.00 20.00    -0.006 C 
HETATM    3  C3  UNL     1     -32.866   6.157   1.564  1.00 20.00     0.127 C 
HETATM    4  C4  UNL     1     -32.696   7.652   2.003  1.00 20.00    -0.015 C 
HETATM    5  C5  UNL     1     -33.768   8.004   4.429  1.00 20.00     0.011 C 
HETATM    6  C6  UNL     1     -31.317   7.998   2.573  1.00 20.00     0.018 C 
ENDROOT
BRANCH   4   7
HETATM    7  C8  UNL     1     -33.099   8.653   0.921  1.00 20.00     0.007 C 
HETATM    8  C7  UNL     1     -31.969   9.561   0.562  1.00 20.00     0.006 C 
ENDBRANCH   4   7
BRANCH   3   9
HETATM    9  O9  UNL     1     -31.662   5.441   1.230  1.00 20.00    -0.395 OA
HETATM   10  H25 UNL     1     -31.107   6.070   0.750  1.00 20.00     0.210 HD
ENDBRANCH   3   9
TORSDOF 2
ENDMDL
MODEL 2
REMARK VINA RESULT:       0.2      1.635      2.954
REMARK  2 active torsions:
REMARK  status: ('A' for Active; 'I' for Inactive)
REMARK    1  A    between atoms: C3_3  and  O9_9 
REMARK    2  A    between atoms: C4_4  and  C8_8 
ROOT
HETATM    1  C1  UNL     1     -33.158   8.182   3.050  1.00 20.00     0.037 C 
HETATM    2  C2  UNL     1     -33.327   6.661   3.273  1.00 20.00    -0.006 C 
HETATM    3  C3  UNL     1     -32.104   7.858   1.967  1.00 20.00     0.127 C 
HETATM    4  C4  UNL     1     -32.782   6.452   1.813  1.00 20.00    -0.015 C 
HETATM    5  C5  UNL     1     -34.721   6.185   3.636  1.00 20.00     0.011 C 
HETATM    6  C6  UNL     1     -33.829   6.367   0.700  1.00 20.00     0.018 C 
ENDROOT
BRANCH   4   7
HETATM    7  C8  UNL     1     -31.780   5.304   1.701  1.00 20.00     0.007 C 
HETATM    8  C7  UNL     1     -31.962   4.537   0.433  1.00 20.00     0.006 C 
ENDBRANCH   4   7
BRANCH   3   9
HETATM    9  O9  UNL     1     -32.102   8.705   0.804  1.00 20.00    -0.395 OA
HETATM   10  H25 UNL     1     -31.408   8.359   0.228  1.00 20.00     0.210 HD
ENDBRANCH   3   9
TORSDOF 2
ENDMDL
MODEL 3
REMARK VINA RESULT:       0.6      2.025      3.868
REMARK  2 active torsions:
REMARK  status: ('A' for Active; 'I' for Inactive)
REMARK    1  A    between atoms: C3_3  and  O9_9 
REMARK    2  A    between atoms: C4_4  and  C8_8 
ROOT
HETATM    1  C1  UNL     1     -32.319   7.783   2.384  1.00 20.00     0.037 C 
HETATM    2  C2  UNL     1     -33.327   6.737   1.852  1.00 20.00    -0.006 C 
HETATM    3  C3  UNL     1     -33.218   7.943   3.632  1.00 20.00     0.127 C 
HETATM    4  C4  UNL     1     -33.774   6.506   3.341  1.00 20.00    -0.015 C 
HETATM    5  C5  UNL     1     -32.743   5.589   1.049  1.00 20.00     0.011 C 
HETATM    6  C6  UNL     1     -33.065   5.380   4.099  1.00 20.00     0.018 C 
ENDROOT
BRANCH   4   7
HETATM    7  C8  UNL     1     -35.290   6.396   3.506  1.00 20.00     0.007 C 
HETATM    8  C7  UNL     1     -35.661   5.330   4.484  1.00 20.00     0.006 C 
ENDBRANCH   4   7
BRANCH   3   9
HETATM    9  O9  UNL     1     -32.540   8.131   4.887  1.00 20.00    -0.395 OA
HETATM   10  H25 UNL     1     -31.685   7.691   4.792  1.00 20.00     0.210 HD
ENDBRANCH   3   9
TORSDOF 2
ENDMDL
MODEL 4
REMARK VINA RESULT:       0.8      1.663      3.020
REMARK  2 active torsions:
REMARK  status: ('A' for Active; 'I' for Inactive)
REMARK    1  A    between atoms: C3_3  and  O9_9 
REMARK    2  A    between atoms: C4_4  and  C8_8 
ROOT
HETATM    1  C1  UNL     1     -33.342   7.181   3.458  1.00 20.00     0.037 C 
HETATM    2  C2  UNL     1     -32.988   7.513   1.990  1.00 20.00    -0.006 C 
HETATM    3  C3  UNL     1     -33.997   5.874   2.954  1.00 20.00     0.127 C 
HETATM    4  C4  UNL     1     -33.077   5.972   1.688  1.00 20.00    -0.015 C 
HETATM    5  C5  UNL     1     -31.683   8.254   1.764  1.00 20.00     0.011 C 
HETATM    6  C6  UNL     1     -31.770   5.181   1.785  1.00 20.00     0.018 C 
ENDROOT
BRANCH   4   7
HETATM    7  C8  UNL     1     -33.806   5.654   0.383  1.00 20.00     0.007 C 
HETATM    8  C7  UNL     1     -33.410   4.319  -0.156  1.00 20.00     0.006 C 
ENDBRANCH   4   7
BRANCH   3   9
HETATM    9  O9  UNL     1     -33.827   4.713   3.787  1.00 20.00    -0.395 OA
HETATM   10  H25 UNL     1     -34.222   3.979   3.298  1.00 20.00     0.210 HD
ENDBRANCH   3   9
TORSDOF 2
ENDMDL
MODEL 5
REMARK VINA RESULT:       1.0      2.350      3.408
REMARK  2 active torsions:
REMARK  status: ('A' for Active; 'I' for Inactive)
REMARK    1  A    between atoms: C3_3  and  O9_9 
REMARK    2  A    between atoms: C4_4  and  C8_8 
ROOT
HETATM    1  C1  UNL     1     -35.467   5.091   4.392  1.00 20.00     0.037 C 
HETATM    2  C2  UNL     1     -33.920   5.060   4.386  1.00 20.00    -0.006 C 
HETATM    3  C3  UNL     1     -35.392   6.542   3.865  1.00 20.00     0.127 C 
HETATM    4  C4  UNL     1     -33.966   6.202   3.307  1.00 20.00    -0.015 C 
HETATM    5  C5  UNL     1     -33.276   3.728   4.052  1.00 20.00     0.011 C 
HETATM    6  C6  UNL     1     -33.943   5.758   1.842  1.00 20.00     0.018 C 
ENDROOT
BRANCH   4   7
HETATM    7  C8  UNL     1     -32.939   7.307   3.553  1.00 20.00     0.007 C 
HETATM    8  C7  UNL     1     -32.319   7.775   2.278  1.00 20.00     0.006 C 
ENDBRANCH   4   7
BRANCH   3   9
HETATM    9  O9  UNL     1     -36.389   6.923   2.900  1.00 20.00    -0.395 OA
HETATM   10  H25 UNL     1     -36.139   6.484   2.077  1.00 20.00     0.210 HD
ENDBRANCH   3   9
TORSDOF 2
ENDMDL
MODEL 6
REMARK VINA RESULT:       1.0      2.470      3.161
REMARK  2 active torsions:
REMARK  status: ('A' for Active; 'I' for Inactive)
REMARK    1  A    between atoms: C3_3  and  O9_9 
REMARK    2  A    between atoms: C4_4  and  C8_8 
ROOT
HETATM    1  C1  UNL     1     -34.688   7.396   4.457  1.00 20.00     0.037 C 
HETATM    2  C2  UNL     1     -33.598   7.570   3.373  1.00 20.00    -0.006 C 
HETATM    3  C3  UNL     1     -35.214   6.177   3.664  1.00 20.00     0.127 C 
HETATM    4  C4  UNL     1     -33.784   6.046   3.034  1.00 20.00    -0.015 C 
HETATM    5  C5  UNL     1     -32.252   8.082   3.850  1.00 20.00     0.011 C 
HETATM    6  C6  UNL     1     -32.854   5.068   3.759  1.00 20.00     0.018 C 
ENDROOT
BRANCH   4   7
HETATM    7  C8  UNL     1     -33.805   5.759   1.533  1.00 20.00     0.007 C 
HETATM    8  C7  UNL     1     -32.456   5.364   1.029  1.00 20.00     0.006 C 
ENDBRANCH   4   7
BRANCH   3   9
HETATM    9  O9  UNL     1     -35.680   5.061   4.444  1.00 20.00    -0.395 OA
HETATM   10  H25 UNL     1     -36.182   4.505   3.834  1.00 20.00     0.210 HD
ENDBRANCH   3   9
TORSDOF 2
ENDMDL
MODEL 7
REMARK VINA RESULT:       1.1      1.454      3.470
REMARK  2 active torsions:
REMARK  status: ('A' for Active; 'I' for Inactive)
REMARK    1  A    between atoms: C3_3  and  O9_9 
REMARK    2  A    between atoms: C4_4  and  C8_8 
ROOT
HETATM    1  C1  UNL     1     -32.532   7.723   2.323  1.00 20.00     0.037 C 
HETATM    2  C2  UNL     1     -32.874   7.308   3.774  1.00 20.00    -0.006 C 
HETATM    3  C3  UNL     1     -32.984   6.316   1.867  1.00 20.00     0.127 C 
HETATM    4  C4  UNL     1     -33.854   6.239   3.169  1.00 20.00    -0.015 C 
HETATM    5  C5  UNL     1     -33.411   8.403   4.677  1.00 20.00     0.011 C 
HETATM    6  C6  UNL     1     -35.312   6.673   2.990  1.00 20.00     0.018 C 
ENDROOT
BRANCH   4   7
HETATM    7  C8  UNL     1     -33.777   4.884   3.871  1.00 20.00     0.007 C 
HETATM    8  C7  UNL     1     -35.019   4.595   4.648  1.00 20.00     0.006 C 
ENDBRANCH   4   7
BRANCH   3   9
HETATM    9  O9  UNL     1     -33.689   6.248   0.614  1.00 20.00    -0.395 OA
HETATM   10  H25 UNL     1     -33.636   7.134   0.234  1.00 20.00     0.210 HD
ENDBRANCH   3   9
TORSDOF 2
ENDMDL
MODEL 8
REMARK VINA RESULT:       1.1      2.596      3.622
REMARK  2 active torsions:
REMARK  status: ('A' for Active; 'I' for Inactive)
REMARK    1  A    between atoms: C3_3  and  O9_9 
REMARK    2  A    between atoms: C4_4  and  C8_8 
ROOT
HETATM    1  C1  UNL     1     -33.823   4.427   3.291  1.00 20.00     0.037 C 
HETATM    2  C2  UNL     1     -33.211   5.796   2.912  1.00 20.00    -0.006 C 
HETATM    3  C3  UNL     1     -34.483   5.114   4.508  1.00 20.00     0.127 C 
HETATM    4  C4  UNL     1     -34.374   6.469   3.728  1.00 20.00    -0.015 C 
HETATM    5  C5  UNL     1     -33.063   6.079   1.429  1.00 20.00     0.011 C 
HETATM    6  C6  UNL     1     -35.627   6.854   2.937  1.00 20.00     0.018 C 
ENDROOT
BRANCH   4   7
HETATM    7  C8  UNL     1     -33.905   7.635   4.598  1.00 20.00     0.007 C 
HETATM    8  C7  UNL     1     -32.717   8.321   4.006  1.00 20.00     0.006 C 
ENDBRANCH   4   7
BRANCH   3   9
HETATM    9  O9  UNL     1     -35.809   4.671   4.849  1.00 20.00    -0.395 OA
HETATM   10  H25 UNL     1     -35.700   4.060   5.589  1.00 20.00     0.210 HD
ENDBRANCH   3   9
TORSDOF 2
ENDMDL
MODEL 9
REMARK VINA RESULT:       1.2      1.114      3.049
REMARK  2 active torsions:
REMARK  status: ('A' for Active; 'I' for Inactive)
REMARK    1  A    between atoms: C3_3  and  O9_9 
REMARK    2  A    between atoms: C4_4  and  C8_8 
ROOT
HETATM    1  C1  UNL     1     -31.161   7.447   0.988  1.00 20.00     0.037 C 
HETATM    2  C2  UNL     1     -32.140   8.445   1.651  1.00 20.00    -0.006 C 
HETATM    3  C3  UNL     1     -31.678   6.366   1.964  1.00 20.00     0.127 C 
HETATM    4  C4  UNL     1     -32.995   7.206   2.102  1.00 20.00    -0.015 C 
HETATM    5  C5  UNL     1     -32.749   9.495   0.741  1.00 20.00     0.011 C 
HETATM    6  C6  UNL     1     -34.127   6.779   1.163  1.00 20.00     0.018 C 
ENDROOT
BRANCH   4   7
HETATM    7  C8  UNL     1     -33.499   7.312   3.541  1.00 20.00     0.007 C 
HETATM    8  C7  UNL     1     -34.790   6.583   3.727  1.00 20.00     0.006 C 
ENDBRANCH   4   7
BRANCH   3   9
HETATM    9  O9  UNL     1     -31.814   5.036   1.430  1.00 20.00    -0.395 OA
HETATM   10  H25 UNL     1     -30.918   4.677   1.391  1.00 20.00     0.210 HD
ENDBRANCH   3   9
TORSDOF 2
ENDMDL
