MODEL 1
REMARK VINA RESULT:       1.6      0.000      0.000
REMARK  1 active torsions:
REMARK  status: ('A' for Active; 'I' for Inactive)
REMARK    1  A    between atoms: C5_5  and  C10_10 
ROOT
HETATM    1  C1  UNL     1     -32.108   7.862   3.191  1.00 20.00     0.019 C 
HETATM    2  C2  UNL     1     -35.401   5.867   4.049  1.00 20.00     0.018 A 
HETATM    3  C3  UNL     1     -31.891   7.614   1.703  1.00 20.00     0.075 C 
HETATM    4  C4  UNL     1     -34.124   6.038   1.835  1.00 20.00     0.084 C 
HETATM    5  C5  UNL     1     -34.078   5.213   4.333  1.00 20.00     0.010 A 
HETATM    6  C6  UNL     1     -34.161   6.362   3.319  1.00 20.00    -0.020 A 
HETATM    7  C7  UNL     1     -33.577   7.762   3.687  1.00 20.00    -0.038 C 
HETATM    8  C8  UNL     1     -34.444   8.878   3.059  1.00 20.00     0.015 C 
HETATM    9  C9  UNL     1     -33.540   8.049   5.209  1.00 20.00     0.015 C 
HETATM   10  S11 UNL     1     -32.427   5.951   1.227  1.00 20.00    -0.168 SA
ENDROOT
BRANCH   5  11
HETATM   11  C10 UNL     1     -33.856   3.790   3.949  1.00 20.00     0.120 C 
HETATM   12 CL12 UNL     1     -32.861   2.942   5.165  1.00 20.00    -0.130 Cl
ENDBRANCH   5  11
TORSDOF 1
ENDMDL
MODEL 2
REMARK VINA RESULT:       4.3      2.103      3.463
REMARK  1 active torsions:
REMARK  status: ('A' for Active; 'I' for Inactive)
REMARK    1  A    between atoms: C5_5  and  C10_10 
ROOT
HETATM    1  C1  UNL     1     -35.399   6.491   4.020  1.00 20.00     0.019 C 
HETATM    2  C2  UNL     1     -32.055   6.974   1.985  1.00 20.00     0.018 A 
HETATM    3  C3  UNL     1     -35.194   5.187   4.783  1.00 20.00     0.075 C 
HETATM    4  C4  UNL     1     -32.770   5.053   3.521  1.00 20.00     0.084 C 
HETATM    5  C5  UNL     1     -33.232   6.357   1.283  1.00 20.00     0.010 A 
HETATM    6  C6  UNL     1     -33.161   6.341   2.816  1.00 20.00    -0.020 A 
HETATM    7  C7  UNL     1     -34.106   7.267   3.644  1.00 20.00    -0.038 C 
HETATM    8  C8  UNL     1     -33.379   7.765   4.914  1.00 20.00     0.015 C 
HETATM    9  C9  UNL     1     -34.569   8.536   2.886  1.00 20.00     0.015 C 
HETATM   10  S11 UNL     1     -34.211   4.009   3.822  1.00 20.00    -0.168 SA
ENDROOT
BRANCH   5  11
HETATM   11  C10 UNL     1     -33.041   5.145   0.437  1.00 20.00     0.120 C 
HETATM   12 CL12 UNL     1     -31.329   4.637   0.415  1.00 20.00    -0.130 Cl
ENDBRANCH   5  11
TORSDOF 1
ENDMDL
MODEL 3
REMARK VINA RESULT:       4.6      1.244      1.767
REMARK  1 active torsions:
REMARK  status: ('A' for Active; 'I' for Inactive)
REMARK    1  A    between atoms: C5_5  and  C10_10 
ROOT
HETATM    1  C1  UNL     1     -31.304   6.673   1.937  1.00 20.00     0.019 C 
HETATM    2  C2  UNL     1     -34.868   7.624   3.336  1.00 20.00     0.018 A 
HETATM    3  C3  UNL     1     -31.595   5.822   0.706  1.00 20.00     0.075 C 
HETATM    4  C4  UNL     1     -34.237   6.147   1.340  1.00 20.00     0.084 C 
HETATM    5  C5  UNL     1     -34.150   6.456   3.951  1.00 20.00     0.010 A 
HETATM    6  C6  UNL     1     -33.762   6.938   2.548  1.00 20.00    -0.020 A 
HETATM    7  C7  UNL     1     -32.411   7.690   2.334  1.00 20.00    -0.038 C 
HETATM    8  C8  UNL     1     -32.575   8.773   1.243  1.00 20.00     0.015 C 
HETATM    9  C9  UNL     1     -31.891   8.424   3.596  1.00 20.00     0.015 C 
HETATM   10  S11 UNL     1     -33.085   4.819   0.935  1.00 20.00    -0.168 SA
ENDROOT
BRANCH   5  11
HETATM   11  C10 UNL     1     -34.885   5.186   4.212  1.00 20.00     0.120 C 
HETATM   12 CL12 UNL     1     -33.763   3.801   4.316  1.00 20.00    -0.130 Cl
ENDBRANCH   5  11
TORSDOF 1
ENDMDL
