MODEL 1
REMARK VINA RESULT:      -1.6      0.000      0.000
REMARK  2 active torsions:
REMARK  status: ('A' for Active; 'I' for Inactive)
REMARK    1  A    between atoms: C3_3  and  C7_7 
REMARK    2  A    between atoms: C4_4  and  O8_8 
ROOT
HETATM    1  C1  UNL     1     -35.148   6.352   4.160  1.00 20.00     0.037 C 
HETATM    2  C2  UNL     1     -34.272   7.593   3.867  1.00 20.00    -0.010 C 
HETATM    3  C3  UNL     1     -33.768   6.875   2.580  1.00 20.00     0.018 C 
HETATM    4  C4  UNL     1     -34.310   5.539   3.152  1.00 20.00     0.122 C 
HETATM    5  C5  UNL     1     -33.278   7.957   4.959  1.00 20.00     0.010 C 
ENDROOT
BRANCH   3   6
HETATM    6  C7  UNL     1     -32.296   6.952   2.214  1.00 20.00     0.003 C 
HETATM    7  C6  UNL     1     -31.982   8.183   1.427  1.00 20.00     0.005 C 
ENDBRANCH   3   6
BRANCH   4   8
HETATM    8  O8  UNL     1     -33.359   4.613   3.714  1.00 20.00    -0.395 OA
HETATM    9  H22 UNL     1     -33.377   4.763   4.668  1.00 20.00     0.210 HD
ENDBRANCH   4   8
TORSDOF 2
ENDMDL
MODEL 2
REMARK VINA RESULT:      -1.2      0.788      1.014
REMARK  2 active torsions:
REMARK  status: ('A' for Active; 'I' for Inactive)
REMARK    1  A    between atoms: C3_3  and  C7_7 
REMARK    2  A    between atoms: C4_4  and  O8_8 
ROOT
HETATM    1  C1  UNL     1     -35.275   6.178   4.303  1.00 20.00     0.037 C 
HETATM    2  C2  UNL     1     -34.410   7.354   3.790  1.00 20.00    -0.010 C 
HETATM    3  C3  UNL     1     -33.942   6.439   2.620  1.00 20.00     0.018 C 
HETATM    4  C4  UNL     1     -34.465   5.212   3.413  1.00 20.00     0.122 C 
HETATM    5  C5  UNL     1     -33.384   7.884   4.781  1.00 20.00     0.010 C 
ENDROOT
BRANCH   3   6
HETATM    6  C7  UNL     1     -32.482   6.452   2.203  1.00 20.00     0.003 C 
HETATM    7  C6  UNL     1     -32.230   5.557   1.033  1.00 20.00     0.005 C 
ENDBRANCH   3   6
BRANCH   4   8
HETATM    8  O8  UNL     1     -33.497   4.385   4.086  1.00 20.00    -0.395 OA
HETATM    9  H22 UNL     1     -32.635   4.774   3.889  1.00 20.00     0.210 HD
ENDBRANCH   4   8
TORSDOF 2
ENDMDL
MODEL 3
REMARK VINA RESULT:      -1.1      1.789      3.643
REMARK  2 active torsions:
REMARK  status: ('A' for Active; 'I' for Inactive)
REMARK    1  A    between atoms: C3_3  and  C7_7 
REMARK    2  A    between atoms: C4_4  and  O8_8 
ROOT
HETATM    1  C1  UNL     1     -31.899   7.959   1.213  1.00 20.00     0.037 C 
HETATM    2  C2  UNL     1     -32.671   6.626   1.356  1.00 20.00    -0.010 C 
HETATM    3  C3  UNL     1     -33.532   7.298   2.467  1.00 20.00     0.018 C 
HETATM    4  C4  UNL     1     -32.462   8.416   2.575  1.00 20.00     0.122 C 
HETATM    5  C5  UNL     1     -31.816   5.416   1.701  1.00 20.00     0.010 C 
ENDROOT
BRANCH   3   6
HETATM    6  C7  UNL     1     -33.874   6.511   3.720  1.00 20.00     0.003 C 
HETATM    7  C6  UNL     1     -35.351   6.371   3.903  1.00 20.00     0.005 C 
ENDBRANCH   3   6
BRANCH   4   8
HETATM    8  O8  UNL     1     -31.550   8.368   3.690  1.00 20.00    -0.395 OA
HETATM    9  H22 UNL     1     -30.763   8.852   3.408  1.00 20.00     0.210 HD
ENDBRANCH   4   8
TORSDOF 2
ENDMDL
MODEL 4
REMARK VINA RESULT:      -1.0      1.343      1.670
REMARK  2 active torsions:
REMARK  status: ('A' for Active; 'I' for Inactive)
REMARK    1  A    between atoms: C3_3  and  C7_7 
REMARK    2  A    between atoms: C4_4  and  O8_8 
ROOT
HETATM    1  C1  UNL     1     -33.937   5.984   2.997  1.00 20.00     0.037 C 
HETATM    2  C2  UNL     1     -33.732   7.501   3.221  1.00 20.00    -0.010 C 
HETATM    3  C3  UNL     1     -33.203   7.598   1.759  1.00 20.00     0.018 C 
HETATM    4  C4  UNL     1     -33.022   6.058   1.756  1.00 20.00     0.122 C 
HETATM    5  C5  UNL     1     -32.812   7.867   4.376  1.00 20.00     0.010 C 
ENDROOT
BRANCH   3   6
HETATM    6  C7  UNL     1     -31.990   8.462   1.464  1.00 20.00     0.003 C 
HETATM    7  C6  UNL     1     -32.303   9.544   0.481  1.00 20.00     0.005 C 
ENDBRANCH   3   6
BRANCH   4   8
HETATM    8  O8  UNL     1     -31.688   5.538   1.916  1.00 20.00    -0.395 OA
HETATM    9  H22 UNL     1     -31.732   4.610   1.651  1.00 20.00     0.210 HD
ENDBRANCH   4   8
TORSDOF 2
ENDMDL
MODEL 5
REMARK VINA RESULT:      -1.0      1.730      3.205
REMARK  2 active torsions:
REMARK  status: ('A' for Active; 'I' for Inactive)
REMARK    1  A    between atoms: C3_3  and  C7_7 
REMARK    2  A    between atoms: C4_4  and  O8_8 
ROOT
HETATM    1  C1  UNL     1     -33.397   7.345   2.707  1.00 20.00     0.037 C 
HETATM    2  C2  UNL     1     -34.193   6.653   3.839  1.00 20.00    -0.010 C 
HETATM    3  C3  UNL     1     -33.296   5.396   3.636  1.00 20.00     0.018 C 
HETATM    4  C4  UNL     1     -32.856   5.970   2.264  1.00 20.00     0.122 C 
HETATM    5  C5  UNL     1     -35.692   6.548   3.605  1.00 20.00     0.010 C 
ENDROOT
BRANCH   3   6
HETATM    6  C7  UNL     1     -33.932   4.017   3.664  1.00 20.00     0.003 C 
HETATM    7  C6  UNL     1     -33.298   3.132   4.688  1.00 20.00     0.005 C 
ENDBRANCH   3   6
BRANCH   4   8
HETATM    8  O8  UNL     1     -33.447   5.404   1.078  1.00 20.00    -0.395 OA
HETATM    9  H22 UNL     1     -34.403   5.459   1.208  1.00 20.00     0.210 HD
ENDBRANCH   4   8
TORSDOF 2
ENDMDL
MODEL 6
REMARK VINA RESULT:      -0.9      1.540      3.302
REMARK  2 active torsions:
REMARK  status: ('A' for Active; 'I' for Inactive)
REMARK    1  A    between atoms: C3_3  and  C7_7 
REMARK    2  A    between atoms: C4_4  and  O8_8 
ROOT
HETATM    1  C1  UNL     1     -31.438   6.752   1.230  1.00 20.00     0.037 C 
HETATM    2  C2  UNL     1     -31.976   7.993   1.981  1.00 20.00    -0.010 C 
HETATM    3  C3  UNL     1     -32.879   7.038   2.817  1.00 20.00     0.018 C 
HETATM    4  C4  UNL     1     -32.633   5.931   1.758  1.00 20.00     0.122 C 
HETATM    5  C5  UNL     1     -32.622   9.053   1.101  1.00 20.00     0.010 C 
ENDROOT
BRANCH   3   6
HETATM    6  C7  UNL     1     -34.313   7.439   3.113  1.00 20.00     0.003 C 
HETATM    7  C6  UNL     1     -34.993   6.455   4.009  1.00 20.00     0.005 C 
ENDBRANCH   3   6
BRANCH   4   8
HETATM    8  O8  UNL     1     -33.687   5.659   0.814  1.00 20.00    -0.395 OA
HETATM    9  H22 UNL     1     -33.943   6.516   0.451  1.00 20.00     0.210 HD
ENDBRANCH   4   8
TORSDOF 2
ENDMDL
MODEL 7
REMARK VINA RESULT:      -0.4      2.304      3.124
REMARK  2 active torsions:
REMARK  status: ('A' for Active; 'I' for Inactive)
REMARK    1  A    between atoms: C3_3  and  C7_7 
REMARK    2  A    between atoms: C4_4  and  O8_8 
ROOT
HETATM    1  C1  UNL     1     -32.333   8.492   3.342  1.00 20.00     0.037 C 
HETATM    2  C2  UNL     1     -33.066   7.134   3.447  1.00 20.00    -0.010 C 
HETATM    3  C3  UNL     1     -32.280   6.666   2.185  1.00 20.00     0.018 C 
HETATM    4  C4  UNL     1     -31.931   8.149   1.892  1.00 20.00     0.122 C 
HETATM    5  C5  UNL     1     -34.584   7.211   3.396  1.00 20.00     0.010 C 
ENDROOT
BRANCH   3   6
HETATM    6  C7  UNL     1     -33.004   5.876   1.109  1.00 20.00     0.003 C 
HETATM    7  C6  UNL     1     -32.180   4.733   0.609  1.00 20.00     0.005 C 
ENDBRANCH   3   6
BRANCH   4   8
HETATM    8  O8  UNL     1     -32.668   8.819   0.851  1.00 20.00    -0.395 OA
HETATM    9  H22 UNL     1     -33.030   9.618   1.256  1.00 20.00     0.210 HD
ENDBRANCH   4   8
TORSDOF 2
ENDMDL
MODEL 8
REMARK VINA RESULT:       0.2      1.625      2.440
REMARK  2 active torsions:
REMARK  status: ('A' for Active; 'I' for Inactive)
REMARK    1  A    between atoms: C3_3  and  C7_7 
REMARK    2  A    between atoms: C4_4  and  O8_8 
ROOT
HETATM    1  C1  UNL     1     -34.207   4.875   3.676  1.00 20.00     0.037 C 
HETATM    2  C2  UNL     1     -33.088   5.410   2.750  1.00 20.00    -0.010 C 
HETATM    3  C3  UNL     1     -33.285   6.812   3.400  1.00 20.00     0.018 C 
HETATM    4  C4  UNL     1     -34.649   6.327   3.958  1.00 20.00     0.122 C 
HETATM    5  C5  UNL     1     -33.341   5.234   1.261  1.00 20.00     0.010 C 
ENDROOT
BRANCH   3   6
HETATM    6  C7  UNL     1     -33.271   8.048   2.519  1.00 20.00     0.003 C 
HETATM    7  C6  UNL     1     -31.920   8.297   1.930  1.00 20.00     0.005 C 
ENDBRANCH   3   6
BRANCH   4   8
HETATM    8  O8  UNL     1     -35.844   6.771   3.288  1.00 20.00    -0.395 OA
HETATM    9  H22 UNL     1     -35.561   7.071   2.414  1.00 20.00     0.210 HD
ENDBRANCH   4   8
TORSDOF 2
ENDMDL
MODEL 9
REMARK VINA RESULT:       0.3      1.701      2.812
REMARK  2 active torsions:
REMARK  status: ('A' for Active; 'I' for Inactive)
REMARK    1  A    between atoms: C3_3  and  C7_7 
REMARK    2  A    between atoms: C4_4  and  O8_8 
ROOT
HETATM    1  C1  UNL     1     -33.163   5.489   2.972  1.00 20.00     0.037 C 
HETATM    2  C2  UNL     1     -32.659   5.898   1.568  1.00 20.00    -0.010 C 
HETATM    3  C3  UNL     1     -32.322   7.304   2.150  1.00 20.00     0.018 C 
HETATM    4  C4  UNL     1     -33.223   6.979   3.371  1.00 20.00     0.122 C 
HETATM    5  C5  UNL     1     -33.684   5.778   0.451  1.00 20.00     0.010 C 
ENDROOT
BRANCH   3   6
HETATM    6  C7  UNL     1     -32.643   8.543   1.334  1.00 20.00     0.003 C 
HETATM    7  C6  UNL     1     -31.491   8.958   0.476  1.00 20.00     0.005 C 
ENDBRANCH   3   6
BRANCH   4   8
HETATM    8  O8  UNL     1     -34.534   7.575   3.415  1.00 20.00    -0.395 OA
HETATM    9  H22 UNL     1     -34.541   8.249   2.723  1.00 20.00     0.210 HD
ENDBRANCH   4   8
TORSDOF 2
ENDMDL
