MODEL 1
REMARK VINA RESULT:      -2.0      0.000      0.000
REMARK  2 active torsions:
REMARK  status: ('A' for Active; 'I' for Inactive)
REMARK    1  A    between atoms: C5_5  and  C6_6 
REMARK    2  A    between atoms: C7_7  and  C8_8 
ROOT
HETATM    1  C4  UNL     1     -32.357   6.681   1.657  1.00 20.00     0.011 A 
HETATM    2  C6  UNL     1     -31.994   8.106   1.961  1.00 20.00    -0.005 A 
HETATM    3  C7  UNL     1     -33.339   7.577   2.366  1.00 20.00     0.000 A 
ENDROOT
BRANCH   2   4
HETATM    4  C5  UNL     1     -31.821   9.155   0.882  1.00 20.00    -0.010 C 
HETATM    5  C2  UNL     1     -32.729  10.408   0.978  1.00 20.00     0.005 C 
HETATM    6  C1  UNL     1     -32.803  10.382  -0.563  1.00 20.00     0.001 C 
HETATM    7  C3  UNL     1     -32.505   8.871  -0.480  1.00 20.00     0.005 C 
ENDBRANCH   2   4
BRANCH   3   8
HETATM    8  C8  UNL     1     -33.648   7.357   3.806  1.00 20.00     0.090 C 
HETATM    9 BR9  UNL     1     -35.194   6.181   4.002  1.00 20.00    -0.096 Br
ENDBRANCH   3   8
TORSDOF 2
ENDMDL
MODEL 2
REMARK VINA RESULT:      -1.8      2.337      4.563
REMARK  2 active torsions:
REMARK  status: ('A' for Active; 'I' for Inactive)
REMARK    1  A    between atoms: C5_5  and  C6_6 
REMARK    2  A    between atoms: C7_7  and  C8_8 
ROOT
HETATM    1  C4  UNL     1     -31.906   6.107   1.461  1.00 20.00     0.011 A 
HETATM    2  C6  UNL     1     -33.172   6.778   1.912  1.00 20.00    -0.005 A 
HETATM    3  C7  UNL     1     -31.937   7.597   1.674  1.00 20.00     0.000 A 
ENDROOT
BRANCH   2   4
HETATM    4  C5  UNL     1     -33.763   6.571   3.291  1.00 20.00    -0.010 C 
HETATM    5  C2  UNL     1     -34.099   5.111   3.691  1.00 20.00     0.005 C 
HETATM    6  C1  UNL     1     -35.336   5.675   4.422  1.00 20.00     0.001 C 
HETATM    7  C3  UNL     1     -35.275   6.871   3.451  1.00 20.00     0.005 C 
ENDBRANCH   2   4
BRANCH   3   8
HETATM    8  C8  UNL     1     -31.872   8.522   0.509  1.00 20.00     0.090 C 
HETATM    9 BR9  UNL     1     -32.740  10.219   0.934  1.00 20.00    -0.096 Br
ENDBRANCH   3   8
TORSDOF 2
ENDMDL
MODEL 3
REMARK VINA RESULT:      -1.4      2.658      4.750
REMARK  2 active torsions:
REMARK  status: ('A' for Active; 'I' for Inactive)
REMARK    1  A    between atoms: C5_5  and  C6_6 
REMARK    2  A    between atoms: C7_7  and  C8_8 
ROOT
HETATM    1  C4  UNL     1     -32.356   8.020   3.334  1.00 20.00     0.011 A 
HETATM    2  C6  UNL     1     -32.789   6.821   2.541  1.00 20.00    -0.005 A 
HETATM    3  C7  UNL     1     -32.824   8.184   1.912  1.00 20.00     0.000 A 
ENDROOT
BRANCH   2   4
HETATM    4  C5  UNL     1     -34.045   6.037   2.861  1.00 20.00    -0.010 C 
HETATM    5  C2  UNL     1     -34.948   6.601   3.989  1.00 20.00     0.005 C 
HETATM    6  C1  UNL     1     -35.222   5.138   4.399  1.00 20.00     0.001 C 
HETATM    7  C3  UNL     1     -33.870   4.778   3.749  1.00 20.00     0.005 C 
ENDBRANCH   2   4
BRANCH   3   8
HETATM    8  C8  UNL     1     -31.852   8.531   0.839  1.00 20.00     0.090 C 
HETATM    9 BR9  UNL     1     -32.471  10.087  -0.165  1.00 20.00    -0.096 Br
ENDBRANCH   3   8
TORSDOF 2
ENDMDL
MODEL 4
REMARK VINA RESULT:      -1.2      2.354      3.369
REMARK  2 active torsions:
REMARK  status: ('A' for Active; 'I' for Inactive)
REMARK    1  A    between atoms: C5_5  and  C6_6 
REMARK    2  A    between atoms: C7_7  and  C8_8 
ROOT
HETATM    1  C4  UNL     1     -34.661   6.905   4.085  1.00 20.00     0.011 A 
HETATM    2  C6  UNL     1     -34.309   6.330   2.743  1.00 20.00    -0.005 A 
HETATM    3  C7  UNL     1     -33.883   5.619   3.994  1.00 20.00     0.000 A 
ENDROOT
BRANCH   2   4
HETATM    4  C5  UNL     1     -33.324   6.990   1.802  1.00 20.00    -0.010 C 
HETATM    5  C2  UNL     1     -32.029   6.197   1.483  1.00 20.00     0.005 C 
HETATM    6  C1  UNL     1     -31.288   7.551   1.485  1.00 20.00     0.001 C 
HETATM    7  C3  UNL     1     -32.403   8.078   2.411  1.00 20.00     0.005 C 
ENDBRANCH   2   4
BRANCH   3   8
HETATM    8  C8  UNL     1     -34.523   4.328   4.370  1.00 20.00     0.090 C 
HETATM    9 BR9  UNL     1     -33.167   2.957   4.676  1.00 20.00    -0.096 Br
ENDBRANCH   3   8
TORSDOF 2
ENDMDL
MODEL 5
REMARK VINA RESULT:      -0.9      1.795      2.734
REMARK  2 active torsions:
REMARK  status: ('A' for Active; 'I' for Inactive)
REMARK    1  A    between atoms: C5_5  and  C6_6 
REMARK    2  A    between atoms: C7_7  and  C8_8 
ROOT
HETATM    1  C4  UNL     1     -34.688   7.270   4.050  1.00 20.00     0.011 A 
HETATM    2  C6  UNL     1     -33.838   6.843   2.888  1.00 20.00    -0.005 A 
HETATM    3  C7  UNL     1     -33.906   5.985   4.118  1.00 20.00     0.000 A 
ENDROOT
BRANCH   2   4
HETATM    4  C5  UNL     1     -32.583   7.582   2.476  1.00 20.00    -0.010 C 
HETATM    5  C2  UNL     1     -32.773   8.823   1.565  1.00 20.00     0.005 C 
HETATM    6  C1  UNL     1     -31.471   8.406   0.850  1.00 20.00     0.001 C 
HETATM    7  C3  UNL     1     -31.762   6.964   1.315  1.00 20.00     0.005 C 
ENDBRANCH   2   4
BRANCH   3   8
HETATM    8  C8  UNL     1     -34.613   4.675   4.072  1.00 20.00     0.090 C 
HETATM    9 BR9  UNL     1     -33.394   3.224   4.543  1.00 20.00    -0.096 Br
ENDBRANCH   3   8
TORSDOF 2
ENDMDL
MODEL 6
REMARK VINA RESULT:      -0.9      0.653      1.108
REMARK  2 active torsions:
REMARK  status: ('A' for Active; 'I' for Inactive)
REMARK    1  A    between atoms: C5_5  and  C6_6 
REMARK    2  A    between atoms: C7_7  and  C8_8 
ROOT
HETATM    1  C4  UNL     1     -31.970   6.630   1.690  1.00 20.00     0.011 A 
HETATM    2  C6  UNL     1     -32.305   8.090   1.780  1.00 20.00    -0.005 A 
HETATM    3  C7  UNL     1     -33.283   7.068   2.281  1.00 20.00     0.000 A 
ENDROOT
BRANCH   2   4
HETATM    4  C5  UNL     1     -32.571   8.947   0.561  1.00 20.00    -0.010 C 
HETATM    5  C2  UNL     1     -31.335   9.370  -0.275  1.00 20.00     0.005 C 
HETATM    6  C1  UNL     1     -32.043  10.723  -0.500  1.00 20.00     0.001 C 
HETATM    7  C3  UNL     1     -32.810  10.458   0.812  1.00 20.00     0.005 C 
ENDBRANCH   2   4
BRANCH   3   8
HETATM    8  C8  UNL     1     -33.530   6.929   3.743  1.00 20.00     0.090 C 
HETATM    9 BR9  UNL     1     -35.286   6.139   4.067  1.00 20.00    -0.096 Br
ENDBRANCH   3   8
TORSDOF 2
ENDMDL
MODEL 7
REMARK VINA RESULT:      -0.6      3.234      5.723
REMARK  2 active torsions:
REMARK  status: ('A' for Active; 'I' for Inactive)
REMARK    1  A    between atoms: C5_5  and  C6_6 
REMARK    2  A    between atoms: C7_7  and  C8_8 
ROOT
HETATM    1  C4  UNL     1     -35.456   6.491   3.708  1.00 20.00     0.011 A 
HETATM    2  C6  UNL     1     -34.381   5.728   4.426  1.00 20.00    -0.005 A 
HETATM    3  C7  UNL     1     -34.041   6.517   3.195  1.00 20.00     0.000 A 
ENDROOT
BRANCH   2   4
HETATM    4  C5  UNL     1     -34.336   4.215   4.464  1.00 20.00    -0.010 C 
HETATM    5  C2  UNL     1     -33.354   3.573   5.478  1.00 20.00     0.005 C 
HETATM    6  C1  UNL     1     -33.088   2.483   4.419  1.00 20.00     0.001 C 
HETATM    7  C3  UNL     1     -33.509   3.516   3.354  1.00 20.00     0.005 C 
ENDBRANCH   2   4
BRANCH   3   8
HETATM    8  C8  UNL     1     -33.226   7.758   3.310  1.00 20.00     0.090 C 
HETATM    9 BR9  UNL     1     -31.995   7.909   1.802  1.00 20.00    -0.096 Br
ENDBRANCH   3   8
TORSDOF 2
ENDMDL
MODEL 8
REMARK VINA RESULT:       0.1      2.951      5.261
REMARK  2 active torsions:
REMARK  status: ('A' for Active; 'I' for Inactive)
REMARK    1  A    between atoms: C5_5  and  C6_6 
REMARK    2  A    between atoms: C7_7  and  C8_8 
ROOT
HETATM    1  C4  UNL     1     -34.023   7.606   3.324  1.00 20.00     0.011 A 
HETATM    2  C6  UNL     1     -33.106   6.418   3.366  1.00 20.00    -0.005 A 
HETATM    3  C7  UNL     1     -33.128   7.301   2.152  1.00 20.00     0.000 A 
ENDROOT
BRANCH   2   4
HETATM    4  C5  UNL     1     -33.612   4.991   3.348  1.00 20.00    -0.010 C 
HETATM    5  C2  UNL     1     -34.543   4.569   4.514  1.00 20.00     0.005 C 
HETATM    6  C1  UNL     1     -33.854   3.189   4.467  1.00 20.00     0.001 C 
HETATM    7  C3  UNL     1     -32.632   3.900   3.851  1.00 20.00     0.005 C 
ENDBRANCH   2   4
BRANCH   3   8
HETATM    8  C8  UNL     1     -31.964   8.178   1.850  1.00 20.00     0.090 C 
HETATM    9 BR9  UNL     1     -32.429   9.479   0.469  1.00 20.00    -0.096 Br
ENDBRANCH   3   8
TORSDOF 2
ENDMDL
MODEL 9
REMARK VINA RESULT:       0.4      1.930      2.240
REMARK  2 active torsions:
REMARK  status: ('A' for Active; 'I' for Inactive)
REMARK    1  A    between atoms: C5_5  and  C6_6 
REMARK    2  A    between atoms: C7_7  and  C8_8 
ROOT
HETATM    1  C4  UNL     1     -32.659   7.681   2.958  1.00 20.00     0.011 A 
HETATM    2  C6  UNL     1     -32.839   8.024   1.508  1.00 20.00    -0.005 A 
HETATM    3  C7  UNL     1     -32.100   6.775   1.894  1.00 20.00     0.000 A 
ENDROOT
BRANCH   2   4
HETATM    4  C5  UNL     1     -32.156   9.207   0.855  1.00 20.00    -0.010 C 
HETATM    5  C2  UNL     1     -32.805  10.597   1.083  1.00 20.00     0.005 C 
HETATM    6  C1  UNL     1     -32.409  10.938  -0.369  1.00 20.00     0.001 C 
HETATM    7  C3  UNL     1     -32.433   9.423  -0.655  1.00 20.00     0.005 C 
ENDBRANCH   2   4
BRANCH   3   8
HETATM    8  C8  UNL     1     -32.715   5.442   1.646  1.00 20.00     0.090 C 
HETATM    9 BR9  UNL     1     -31.597   4.386   0.443  1.00 20.00    -0.096 Br
ENDBRANCH   3   8
TORSDOF 2
ENDMDL
