MODEL 1
REMARK VINA RESULT:       1.7      0.000      0.000
REMARK  2 active torsions:
REMARK  status: ('A' for Active; 'I' for Inactive)
REMARK    1  A    between atoms: C7_7  and  C10_10 
REMARK    2  A    between atoms: C7_7  and  C11_11 
ROOT
HETATM    1  C1  UNL     1     -33.269   5.272   3.066  1.00 20.00     0.140 C 
HETATM    2  C2  UNL     1     -31.210   6.988   1.547  1.00 20.00     0.001 C 
HETATM    3  C3  UNL     1     -31.835   5.740   0.940  1.00 20.00     0.013 C 
HETATM    4  C4  UNL     1     -32.375   7.964   1.634  1.00 20.00     0.007 C 
HETATM    5  C5  UNL     1     -33.214   5.665   1.577  1.00 20.00     0.061 C 
HETATM    6  C6  UNL     1     -33.596   7.111   1.999  1.00 20.00     0.013 C 
HETATM    7  C7  UNL     1     -33.884   6.639   3.478  1.00 20.00     0.025 C 
HETATM    8  O12 UNL     1     -32.955   4.272   3.677  1.00 20.00    -0.297 OA
ENDROOT
BRANCH   7   9
HETATM    9  C10 UNL     1     -35.377   6.545   3.799  1.00 20.00     0.013 C 
HETATM   10  C8  UNL     1     -35.685   5.349   4.636  1.00 20.00     0.006 C 
ENDBRANCH   7   9
BRANCH   7  11
HETATM   11  C11 UNL     1     -33.128   7.350   4.597  1.00 20.00     0.013 C 
HETATM   12  C9  UNL     1     -33.936   8.455   5.195  1.00 20.00     0.006 C 
ENDBRANCH   7  11
TORSDOF 2
ENDMDL
MODEL 2
REMARK VINA RESULT:       2.1      1.536      3.882
REMARK  2 active torsions:
REMARK  status: ('A' for Active; 'I' for Inactive)
REMARK    1  A    between atoms: C7_7  and  C10_10 
REMARK    2  A    between atoms: C7_7  and  C11_11 
ROOT
HETATM    1  C1  UNL     1     -33.010   6.230   1.626  1.00 20.00     0.140 C 
HETATM    2  C2  UNL     1     -35.199   6.807   3.717  1.00 20.00     0.001 C 
HETATM    3  C3  UNL     1     -34.411   5.504   3.700  1.00 20.00     0.013 C 
HETATM    4  C4  UNL     1     -34.158   7.847   4.109  1.00 20.00     0.007 C 
HETATM    5  C5  UNL     1     -33.057   5.893   3.129  1.00 20.00     0.061 C 
HETATM    6  C6  UNL     1     -32.861   7.407   3.421  1.00 20.00     0.013 C 
HETATM    7  C7  UNL     1     -32.574   7.698   1.895  1.00 20.00     0.025 C 
HETATM    8  O12 UNL     1     -33.228   5.588   0.620  1.00 20.00    -0.297 OA
ENDROOT
BRANCH   7   9
HETATM    9  C10 UNL     1     -31.093   7.940   1.599  1.00 20.00     0.013 C 
HETATM   10  C8  UNL     1     -30.875   8.343   0.179  1.00 20.00     0.006 C 
ENDBRANCH   7   9
BRANCH   7  11
HETATM   11  C11 UNL     1     -33.447   8.743   1.208  1.00 20.00     0.013 C 
HETATM   12  C9  UNL     1     -32.726  10.042   1.040  1.00 20.00     0.006 C 
ENDBRANCH   7  11
TORSDOF 2
ENDMDL
MODEL 3
REMARK VINA RESULT:       2.8      1.527      3.916
REMARK  2 active torsions:
REMARK  status: ('A' for Active; 'I' for Inactive)
REMARK    1  A    between atoms: C7_7  and  C10_10 
REMARK    2  A    between atoms: C7_7  and  C11_11 
ROOT
HETATM    1  C1  UNL     1     -33.241   7.772   3.828  1.00 20.00     0.140 C 
HETATM    2  C2  UNL     1     -33.864   4.757   3.704  1.00 20.00     0.001 C 
HETATM    3  C3  UNL     1     -34.776   5.748   4.413  1.00 20.00     0.013 C 
HETATM    4  C4  UNL     1     -34.004   5.131   2.234  1.00 20.00     0.007 C 
HETATM    5  C5  UNL     1     -34.588   7.046   3.643  1.00 20.00     0.061 C 
HETATM    6  C6  UNL     1     -34.123   6.659   2.211  1.00 20.00     0.013 C 
HETATM    7  C7  UNL     1     -32.863   7.605   2.329  1.00 20.00     0.025 C 
HETATM    8  O12 UNL     1     -32.692   8.282   4.782  1.00 20.00    -0.297 OA
ENDROOT
BRANCH   7   9
HETATM    9  C10 UNL     1     -33.010   8.903   1.533  1.00 20.00     0.013 C 
HETATM   10  C8  UNL     1     -31.846   9.126   0.627  1.00 20.00     0.006 C 
ENDBRANCH   7   9
BRANCH   7  11
HETATM   11  C11 UNL     1     -31.493   6.975   2.099  1.00 20.00     0.013 C 
HETATM   12  C9  UNL     1     -31.561   5.845   1.122  1.00 20.00     0.006 C 
ENDBRANCH   7  11
TORSDOF 2
ENDMDL
MODEL 4
REMARK VINA RESULT:       3.0      1.810      3.293
REMARK  2 active torsions:
REMARK  status: ('A' for Active; 'I' for Inactive)
REMARK    1  A    between atoms: C7_7  and  C10_10 
REMARK    2  A    between atoms: C7_7  and  C11_11 
ROOT
HETATM    1  C1  UNL     1     -33.545   7.308   2.990  1.00 20.00     0.140 C 
HETATM    2  C2  UNL     1     -32.509   9.145   0.744  1.00 20.00     0.001 C 
HETATM    3  C3  UNL     1     -32.299   9.463   2.217  1.00 20.00     0.013 C 
HETATM    4  C4  UNL     1     -31.643   7.914   0.517  1.00 20.00     0.007 C 
HETATM    5  C5  UNL     1     -32.227   8.100   2.887  1.00 20.00     0.061 C 
HETATM    6  C6  UNL     1     -31.764   7.087   1.803  1.00 20.00     0.013 C 
HETATM    7  C7  UNL     1     -33.007   6.156   2.093  1.00 20.00     0.025 C 
HETATM    8  O12 UNL     1     -34.597   7.509   3.558  1.00 20.00    -0.297 OA
ENDROOT
BRANCH   7   9
HETATM    9  C10 UNL     1     -32.644   4.903   2.893  1.00 20.00     0.013 C 
HETATM   10  C8  UNL     1     -33.817   4.376   3.648  1.00 20.00     0.006 C 
ENDBRANCH   7   9
BRANCH   7  11
HETATM   11  C11 UNL     1     -33.910   5.811   0.914  1.00 20.00     0.013 C 
HETATM   12  C9  UNL     1     -33.387   4.645   0.139  1.00 20.00     0.006 C 
ENDBRANCH   7  11
TORSDOF 2
ENDMDL
MODEL 5
REMARK VINA RESULT:       3.0      1.669      3.660
REMARK  2 active torsions:
REMARK  status: ('A' for Active; 'I' for Inactive)
REMARK    1  A    between atoms: C7_7  and  C10_10 
REMARK    2  A    between atoms: C7_7  and  C11_11 
ROOT
HETATM    1  C1  UNL     1     -33.398   7.791   3.824  1.00 20.00     0.140 C 
HETATM    2  C2  UNL     1     -33.411   4.747   3.346  1.00 20.00     0.001 C 
HETATM    3  C3  UNL     1     -34.556   5.466   4.044  1.00 20.00     0.013 C 
HETATM    4  C4  UNL     1     -33.493   5.254   1.912  1.00 20.00     0.007 C 
HETATM    5  C5  UNL     1     -34.557   6.856   3.427  1.00 20.00     0.061 C 
HETATM    6  C6  UNL     1     -33.903   6.728   2.023  1.00 20.00     0.013 C 
HETATM    7  C7  UNL     1     -32.866   7.869   2.365  1.00 20.00     0.025 C 
HETATM    8  O12 UNL     1     -33.044   8.280   4.876  1.00 20.00    -0.297 OA
ENDROOT
BRANCH   7   9
HETATM    9  C10 UNL     1     -33.192   9.200   1.685  1.00 20.00     0.013 C 
HETATM   10  C8  UNL     1     -32.418   9.375   0.422  1.00 20.00     0.006 C 
ENDBRANCH   7   9
BRANCH   7  11
HETATM   11  C11 UNL     1     -31.385   7.531   2.224  1.00 20.00     0.013 C 
HETATM   12  C9  UNL     1     -30.518   8.560   2.874  1.00 20.00     0.006 C 
ENDBRANCH   7  11
TORSDOF 2
ENDMDL
MODEL 6
REMARK VINA RESULT:       3.3      1.540      3.729
REMARK  2 active torsions:
REMARK  status: ('A' for Active; 'I' for Inactive)
REMARK    1  A    between atoms: C7_7  and  C10_10 
REMARK    2  A    between atoms: C7_7  and  C11_11 
ROOT
HETATM    1  C1  UNL     1     -32.470   7.139   2.237  1.00 20.00     0.140 C 
HETATM    2  C2  UNL     1     -34.049   7.539   4.852  1.00 20.00     0.001 C 
HETATM    3  C3  UNL     1     -33.914   8.637   3.807  1.00 20.00     0.013 C 
HETATM    4  C4  UNL     1     -34.915   6.494   4.162  1.00 20.00     0.007 C 
HETATM    5  C5  UNL     1     -33.793   7.887   2.490  1.00 20.00     0.061 C 
HETATM    6  C6  UNL     1     -34.475   6.504   2.693  1.00 20.00     0.013 C 
HETATM    7  C7  UNL     1     -33.176   5.754   2.196  1.00 20.00     0.025 C 
HETATM    8  O12 UNL     1     -31.318   7.500   2.114  1.00 20.00    -0.297 OA
ENDROOT
BRANCH   7   9
HETATM    9  C10 UNL     1     -33.310   5.199   0.777  1.00 20.00     0.013 C 
HETATM   10  C8  UNL     1     -32.079   4.471   0.353  1.00 20.00     0.006 C 
ENDBRANCH   7   9
BRANCH   7  11
HETATM   11  C11 UNL     1     -32.568   4.717   3.134  1.00 20.00     0.013 C 
HETATM   12  C9  UNL     1     -33.609   3.809   3.705  1.00 20.00     0.006 C 
ENDBRANCH   7  11
TORSDOF 2
ENDMDL
MODEL 7
REMARK VINA RESULT:       3.3      1.701      2.882
REMARK  2 active torsions:
REMARK  status: ('A' for Active; 'I' for Inactive)
REMARK    1  A    between atoms: C7_7  and  C10_10 
REMARK    2  A    between atoms: C7_7  and  C11_11 
ROOT
HETATM    1  C1  UNL     1     -32.541   7.848   1.923  1.00 20.00     0.140 C 
HETATM    2  C2  UNL     1     -33.391   5.123   0.762  1.00 20.00     0.001 C 
HETATM    3  C3  UNL     1     -32.006   5.711   0.530  1.00 20.00     0.013 C 
HETATM    4  C4  UNL     1     -33.398   4.805   2.252  1.00 20.00     0.007 C 
HETATM    5  C5  UNL     1     -31.738   6.541   1.776  1.00 20.00     0.061 C 
HETATM    6  C6  UNL     1     -32.608   5.939   2.915  1.00 20.00     0.013 C 
HETATM    7  C7  UNL     1     -33.250   7.351   3.215  1.00 20.00     0.025 C 
HETATM    8  O12 UNL     1     -32.593   8.872   1.276  1.00 20.00    -0.297 OA
ENDROOT
BRANCH   7   9
HETATM    9  C10 UNL     1     -32.697   8.004   4.483  1.00 20.00     0.013 C 
HETATM   10  C8  UNL     1     -33.791   8.462   5.388  1.00 20.00     0.006 C 
ENDBRANCH   7   9
BRANCH   7  11
HETATM   11  C11 UNL     1     -34.771   7.450   3.169  1.00 20.00     0.013 C 
HETATM   12  C9  UNL     1     -35.421   6.357   3.955  1.00 20.00     0.006 C 
ENDBRANCH   7  11
TORSDOF 2
ENDMDL
MODEL 8
REMARK VINA RESULT:       3.6      1.418      2.266
REMARK  2 active torsions:
REMARK  status: ('A' for Active; 'I' for Inactive)
REMARK    1  A    between atoms: C7_7  and  C10_10 
REMARK    2  A    between atoms: C7_7  and  C11_11 
ROOT
HETATM    1  C1  UNL     1     -33.372   6.191   1.757  1.00 20.00     0.140 C 
HETATM    2  C2  UNL     1     -31.183   8.059   2.857  1.00 20.00     0.001 C 
HETATM    3  C3  UNL     1     -31.915   8.342   1.554  1.00 20.00     0.013 C 
HETATM    4  C4  UNL     1     -32.260   8.238   3.918  1.00 20.00     0.007 C 
HETATM    5  C5  UNL     1     -33.292   7.730   1.757  1.00 20.00     0.061 C 
HETATM    6  C6  UNL     1     -33.547   7.691   3.290  1.00 20.00     0.013 C 
HETATM    7  C7  UNL     1     -33.865   6.145   3.231  1.00 20.00     0.025 C 
HETATM    8  O12 UNL     1     -33.141   5.343   0.921  1.00 20.00    -0.297 OA
ENDROOT
BRANCH   7   9
HETATM    9  C10 UNL     1     -35.359   5.835   3.346  1.00 20.00     0.013 C 
HETATM   10  C8  UNL     1     -35.733   5.441   4.736  1.00 20.00     0.006 C 
ENDBRANCH   7   9
BRANCH   7  11
HETATM   11  C11 UNL     1     -33.046   5.229   4.134  1.00 20.00     0.013 C 
HETATM   12  C9  UNL     1     -33.536   3.818   4.082  1.00 20.00     0.006 C 
ENDBRANCH   7  11
TORSDOF 2
ENDMDL
MODEL 9
REMARK VINA RESULT:       3.6      2.100      3.848
REMARK  2 active torsions:
REMARK  status: ('A' for Active; 'I' for Inactive)
REMARK    1  A    between atoms: C7_7  and  C10_10 
REMARK    2  A    between atoms: C7_7  and  C11_11 
ROOT
HETATM    1  C1  UNL     1     -33.153   7.255   2.592  1.00 20.00     0.140 C 
HETATM    2  C2  UNL     1     -32.693   9.657   0.717  1.00 20.00     0.001 C 
HETATM    3  C3  UNL     1     -32.216   9.649   2.162  1.00 20.00     0.013 C 
HETATM    4  C4  UNL     1     -31.816   8.609   0.046  1.00 20.00     0.007 C 
HETATM    5  C5  UNL     1     -31.931   8.184   2.454  1.00 20.00     0.061 C 
HETATM    6  C6  UNL     1     -31.631   7.502   1.090  1.00 20.00     0.013 C 
HETATM    7  C7  UNL     1     -32.734   6.403   1.360  1.00 20.00     0.025 C 
HETATM    8  O12 UNL     1     -34.082   7.209   3.370  1.00 20.00    -0.297 OA
ENDROOT
BRANCH   7   9
HETATM    9  C10 UNL     1     -32.146   5.046   1.751  1.00 20.00     0.013 C 
HETATM   10  C8  UNL     1     -31.245   4.512   0.689  1.00 20.00     0.006 C 
ENDBRANCH   7   9
BRANCH   7  11
HETATM   11  C11 UNL     1     -33.830   6.243   0.312  1.00 20.00     0.013 C 
HETATM   12  C9  UNL     1     -34.030   4.811  -0.066  1.00 20.00     0.006 C 
ENDBRANCH   7  11
TORSDOF 2
ENDMDL
