MODEL 1
REMARK VINA RESULT:      -1.3      0.000      0.000
REMARK  1 active torsions:
REMARK  status: ('A' for Active; 'I' for Inactive)
REMARK    1  A    between atoms: C5_5  and  C7_7 
ROOT
HETATM    1  C1  UNL     1     -33.310   7.857   3.914  1.00 20.00     0.038 C 
HETATM    2  C2  UNL     1     -35.371   6.292   3.646  1.00 20.00     0.018 A 
HETATM    3  C3  UNL     1     -32.112   8.058   3.003  1.00 20.00     0.168 C 
HETATM    4  C4  UNL     1     -33.364   6.423   1.975  1.00 20.00     0.177 C 
HETATM    5  C5  UNL     1     -34.284   5.453   4.256  1.00 20.00     0.007 A 
HETATM    6  C6  UNL     1     -33.923   6.616   3.352  1.00 20.00    -0.012 A 
HETATM    7  O8  UNL     1     -32.544   7.578   1.720  1.00 20.00    -0.390 OA
ENDROOT
BRANCH   5   8
HETATM    8  C7  UNL     1     -34.119   4.034   3.831  1.00 20.00     0.090 C 
HETATM    9 BR9  UNL     1     -32.971   3.076   5.086  1.00 20.00    -0.096 Br
ENDBRANCH   5   8
TORSDOF 1
ENDMDL
MODEL 2
REMARK VINA RESULT:      -0.8      3.343      4.386
REMARK  1 active torsions:
REMARK  status: ('A' for Active; 'I' for Inactive)
REMARK    1  A    between atoms: C5_5  and  C7_7 
ROOT
HETATM    1  C1  UNL     1     -33.963   7.675   4.062  1.00 20.00     0.038 C 
HETATM    2  C2  UNL     1     -31.589   8.155   3.113  1.00 20.00     0.018 A 
HETATM    3  C3  UNL     1     -34.912   6.523   3.781  1.00 20.00     0.168 C 
HETATM    4  C4  UNL     1     -33.093   6.130   2.425  1.00 20.00     0.177 C 
HETATM    5  C5  UNL     1     -32.560   8.700   2.106  1.00 20.00     0.007 A 
HETATM    6  C6  UNL     1     -32.954   7.518   2.971  1.00 20.00    -0.012 A 
HETATM    7  O8  UNL     1     -34.076   5.481   3.254  1.00 20.00    -0.390 OA
ENDROOT
BRANCH   5   8
HETATM    8  C7  UNL     1     -32.273   8.559   0.650  1.00 20.00     0.090 C 
HETATM    9 BR9  UNL     1     -32.594  10.248  -0.274  1.00 20.00    -0.096 Br
ENDBRANCH   5   8
TORSDOF 1
ENDMDL
MODEL 3
REMARK VINA RESULT:      -0.3      2.980      4.074
REMARK  1 active torsions:
REMARK  status: ('A' for Active; 'I' for Inactive)
REMARK    1  A    between atoms: C5_5  and  C7_7 
ROOT
HETATM    1  C1  UNL     1     -33.701   4.657   3.138  1.00 20.00     0.038 C 
HETATM    2  C2  UNL     1     -33.390   6.275   1.125  1.00 20.00     0.018 A 
HETATM    3  C3  UNL     1     -34.450   4.857   4.443  1.00 20.00     0.168 C 
HETATM    4  C4  UNL     1     -34.666   6.860   3.330  1.00 20.00     0.177 C 
HETATM    5  C5  UNL     1     -32.326   6.637   2.122  1.00 20.00     0.007 A 
HETATM    6  C6  UNL     1     -33.640   6.049   2.599  1.00 20.00    -0.012 A 
HETATM    7  O8  UNL     1     -35.366   5.931   4.179  1.00 20.00    -0.390 OA
ENDROOT
BRANCH   5   8
HETATM    8  C7  UNL     1     -31.969   8.068   2.336  1.00 20.00     0.090 C 
HETATM    9 BR9  UNL     1     -32.241   9.090   0.696  1.00 20.00    -0.096 Br
ENDBRANCH   5   8
TORSDOF 1
ENDMDL
MODEL 4
REMARK VINA RESULT:      -0.2      3.154      4.095
REMARK  1 active torsions:
REMARK  status: ('A' for Active; 'I' for Inactive)
REMARK    1  A    between atoms: C5_5  and  C7_7 
ROOT
HETATM    1  C1  UNL     1     -34.925   7.211   4.181  1.00 20.00     0.038 C 
HETATM    2  C2  UNL     1     -32.466   8.064   4.168  1.00 20.00     0.018 A 
HETATM    3  C3  UNL     1     -35.493   5.868   3.762  1.00 20.00     0.168 C 
HETATM    4  C4  UNL     1     -33.239   5.715   3.320  1.00 20.00     0.177 C 
HETATM    5  C5  UNL     1     -32.996   8.292   2.781  1.00 20.00     0.007 A 
HETATM    6  C6  UNL     1     -33.541   7.151   3.620  1.00 20.00    -0.012 A 
HETATM    7  O8  UNL     1     -34.374   4.969   3.799  1.00 20.00    -0.390 OA
ENDROOT
BRANCH   5   8
HETATM    8  C7  UNL     1     -32.110   8.062   1.605  1.00 20.00     0.090 C 
HETATM    9 BR9  UNL     1     -32.278   9.528   0.328  1.00 20.00    -0.096 Br
ENDBRANCH   5   8
TORSDOF 1
ENDMDL
MODEL 5
REMARK VINA RESULT:       0.2      2.715      3.879
REMARK  1 active torsions:
REMARK  status: ('A' for Active; 'I' for Inactive)
REMARK    1  A    between atoms: C5_5  and  C7_7 
ROOT
HETATM    1  C1  UNL     1     -32.033   8.634  -0.097  1.00 20.00     0.038 C 
HETATM    2  C2  UNL     1     -31.323   8.032   2.332  1.00 20.00     0.018 A 
HETATM    3  C3  UNL     1     -32.744   9.865  -0.629  1.00 20.00     0.168 C 
HETATM    4  C4  UNL     1     -32.621  10.195   1.646  1.00 20.00     0.177 C 
HETATM    5  C5  UNL     1     -32.760   7.614   2.200  1.00 20.00     0.007 A 
HETATM    6  C6  UNL     1     -32.232   8.773   1.377  1.00 20.00    -0.012 A 
HETATM    7  O8  UNL     1     -32.538  10.870   0.377  1.00 20.00    -0.390 OA
ENDROOT
BRANCH   5   8
HETATM    8  C7  UNL     1     -33.695   7.810   3.343  1.00 20.00     0.090 C 
HETATM    9 BR9  UNL     1     -34.667   6.160   3.720  1.00 20.00    -0.096 Br
ENDBRANCH   5   8
TORSDOF 1
ENDMDL
MODEL 6
REMARK VINA RESULT:       0.8      2.138      3.025
REMARK  1 active torsions:
REMARK  status: ('A' for Active; 'I' for Inactive)
REMARK    1  A    between atoms: C5_5  and  C7_7 
ROOT
HETATM    1  C1  UNL     1     -32.695   7.888   0.218  1.00 20.00     0.038 C 
HETATM    2  C2  UNL     1     -31.950   5.625   1.262  1.00 20.00     0.018 A 
HETATM    3  C3  UNL     1     -32.563   9.301   0.757  1.00 20.00     0.168 C 
HETATM    4  C4  UNL     1     -31.692   7.959   2.411  1.00 20.00     0.177 C 
HETATM    5  C5  UNL     1     -33.297   5.934   1.851  1.00 20.00     0.007 A 
HETATM    6  C6  UNL     1     -32.381   7.065   1.425  1.00 20.00    -0.012 A 
HETATM    7  O8  UNL     1     -31.521   9.222   1.742  1.00 20.00    -0.390 OA
ENDROOT
BRANCH   5   8
HETATM    8  C7  UNL     1     -33.567   5.625   3.283  1.00 20.00     0.090 C 
HETATM    9 BR9  UNL     1     -35.211   6.497   3.871  1.00 20.00    -0.096 Br
ENDBRANCH   5   8
TORSDOF 1
ENDMDL
MODEL 7
REMARK VINA RESULT:       1.5      2.510      3.761
REMARK  1 active torsions:
REMARK  status: ('A' for Active; 'I' for Inactive)
REMARK    1  A    between atoms: C5_5  and  C7_7 
ROOT
HETATM    1  C1  UNL     1     -33.441   4.260   3.398  1.00 20.00     0.038 C 
HETATM    2  C2  UNL     1     -33.514   5.955   1.425  1.00 20.00     0.018 A 
HETATM    3  C3  UNL     1     -34.250   4.221   4.681  1.00 20.00     0.168 C 
HETATM    4  C4  UNL     1     -34.959   6.125   3.597  1.00 20.00     0.177 C 
HETATM    5  C5  UNL     1     -32.611   6.559   2.462  1.00 20.00     0.007 A 
HETATM    6  C6  UNL     1     -33.735   5.633   2.886  1.00 20.00    -0.012 A 
HETATM    7  O8  UNL     1     -35.410   5.023   4.406  1.00 20.00    -0.390 OA
ENDROOT
BRANCH   5   8
HETATM    8  C7  UNL     1     -32.652   8.027   2.714  1.00 20.00     0.090 C 
HETATM    9 BR9  UNL     1     -32.817   8.387   4.625  1.00 20.00    -0.096 Br
ENDBRANCH   5   8
TORSDOF 1
ENDMDL
MODEL 8
REMARK VINA RESULT:       1.5      2.304      3.254
REMARK  1 active torsions:
REMARK  status: ('A' for Active; 'I' for Inactive)
REMARK    1  A    between atoms: C5_5  and  C7_7 
ROOT
HETATM    1  C1  UNL     1     -31.542   5.677   1.565  1.00 20.00     0.038 C 
HETATM    2  C2  UNL     1     -32.245   8.146   1.984  1.00 20.00     0.018 A 
HETATM    3  C3  UNL     1     -32.312   4.540   0.919  1.00 20.00     0.168 C 
HETATM    4  C4  UNL     1     -33.775   6.317   0.914  1.00 20.00     0.177 C 
HETATM    5  C5  UNL     1     -32.791   7.354   3.138  1.00 20.00     0.007 A 
HETATM    6  C6  UNL     1     -32.615   6.694   1.784  1.00 20.00    -0.012 A 
HETATM    7  O8  UNL     1     -33.334   5.185   0.142  1.00 20.00    -0.390 OA
ENDROOT
BRANCH   5   8
HETATM    8  C7  UNL     1     -34.134   7.685   3.693  1.00 20.00     0.090 C 
HETATM    9 BR9  UNL     1     -35.117   6.054   4.118  1.00 20.00    -0.096 Br
ENDBRANCH   5   8
TORSDOF 1
ENDMDL
MODEL 9
REMARK VINA RESULT:       1.6      2.425      3.409
REMARK  1 active torsions:
REMARK  status: ('A' for Active; 'I' for Inactive)
REMARK    1  A    between atoms: C5_5  and  C7_7 
ROOT
HETATM    1  C1  UNL     1     -34.503   7.121   3.559  1.00 20.00     0.038 C 
HETATM    2  C2  UNL     1     -32.236   6.578   2.402  1.00 20.00     0.018 A 
HETATM    3  C3  UNL     1     -35.509   6.194   4.217  1.00 20.00     0.168 C 
HETATM    4  C4  UNL     1     -33.865   4.799   3.411  1.00 20.00     0.177 C 
HETATM    5  C5  UNL     1     -33.298   6.369   1.361  1.00 20.00     0.007 A 
HETATM    6  C6  UNL     1     -33.626   6.157   2.826  1.00 20.00    -0.012 A 
HETATM    7  O8  UNL     1     -34.767   5.001   4.514  1.00 20.00    -0.390 OA
ENDROOT
BRANCH   5   8
HETATM    8  C7  UNL     1     -33.179   5.236   0.400  1.00 20.00     0.090 C 
HETATM    9 BR9  UNL     1     -31.401   4.439   0.502  1.00 20.00    -0.096 Br
ENDBRANCH   5   8
TORSDOF 1
ENDMDL
