MODEL 1
REMARK VINA RESULT:       1.1      0.000      0.000
REMARK  2 active torsions:
REMARK  status: ('A' for Active; 'I' for Inactive)
REMARK    1  A    between atoms: C3_3  and  C9_9 
REMARK    2  A    between atoms: C4_4  and  C10_10 
ROOT
HETATM    1  C1  UNL     1     -35.107   5.535   4.256  1.00 20.00     0.131 C 
HETATM    2  C2  UNL     1     -35.028   6.583   3.131  1.00 20.00     0.084 C 
HETATM    3  C3  UNL     1     -33.629   5.124   4.056  1.00 20.00     0.060 C 
HETATM    4  C4  UNL     1     -33.484   6.426   3.193  1.00 20.00     0.011 C 
HETATM    5  O11 UNL     1     -35.990   5.170   5.003  1.00 20.00    -0.298 OA
ENDROOT
BRANCH   4   6
HETATM    6  C10 UNL     1     -32.777   6.347   1.851  1.00 20.00    -0.047 C 
HETATM    7  C6  UNL     1     -33.787   5.995   0.741  1.00 20.00     0.015 C 
HETATM    8  C7  UNL     1     -31.684   5.262   1.892  1.00 20.00     0.015 C 
HETATM    9  C8  UNL     1     -32.122   7.701   1.518  1.00 20.00     0.015 C 
ENDBRANCH   4   6
BRANCH   3  10
HETATM   10  C9  UNL     1     -33.439   3.763   3.409  1.00 20.00     0.008 C 
HETATM   11  C5  UNL     1     -33.153   2.697   4.419  1.00 20.00     0.006 C 
ENDBRANCH   3  10
TORSDOF 2
ENDMDL
MODEL 2
REMARK VINA RESULT:       1.2      2.516      4.018
REMARK  2 active torsions:
REMARK  status: ('A' for Active; 'I' for Inactive)
REMARK    1  A    between atoms: C3_3  and  C9_9 
REMARK    2  A    between atoms: C4_4  and  C10_10 
ROOT
HETATM    1  C1  UNL     1     -31.899   7.914   1.433  1.00 20.00     0.131 C 
HETATM    2  C2  UNL     1     -32.495   8.444   2.749  1.00 20.00     0.084 C 
HETATM    3  C3  UNL     1     -32.911   6.745   1.378  1.00 20.00     0.060 C 
HETATM    4  C4  UNL     1     -33.709   7.510   2.492  1.00 20.00     0.011 C 
HETATM    5  O11 UNL     1     -30.987   8.273   0.720  1.00 20.00    -0.298 OA
ENDROOT
BRANCH   4   6
HETATM    6  C10 UNL     1     -34.213   6.739   3.699  1.00 20.00    -0.047 C 
HETATM    7  C6  UNL     1     -33.550   5.350   3.755  1.00 20.00     0.015 C 
HETATM    8  C7  UNL     1     -35.741   6.560   3.612  1.00 20.00     0.015 C 
HETATM    9  C8  UNL     1     -33.875   7.505   4.993  1.00 20.00     0.015 C 
ENDBRANCH   4   6
BRANCH   3  10
HETATM   10  C9  UNL     1     -32.312   5.382   1.679  1.00 20.00     0.008 C 
HETATM   11  C5  UNL     1     -32.158   4.552   0.443  1.00 20.00     0.006 C 
ENDBRANCH   3  10
TORSDOF 2
ENDMDL
MODEL 3
REMARK VINA RESULT:       1.4      1.847      3.407
REMARK  2 active torsions:
REMARK  status: ('A' for Active; 'I' for Inactive)
REMARK    1  A    between atoms: C3_3  and  C9_9 
REMARK    2  A    between atoms: C4_4  and  C10_10 
ROOT
HETATM    1  C1  UNL     1     -33.427   5.678   2.800  1.00 20.00     0.131 C 
HETATM    2  C2  UNL     1     -32.505   5.912   1.589  1.00 20.00     0.084 C 
HETATM    3  C3  UNL     1     -33.709   7.192   2.950  1.00 20.00     0.060 C 
HETATM    4  C4  UNL     1     -33.079   7.354   1.522  1.00 20.00     0.011 C 
HETATM    5  O11 UNL     1     -33.786   4.690   3.403  1.00 20.00    -0.298 OA
ENDROOT
BRANCH   4   6
HETATM    6  C10 UNL     1     -32.061   8.455   1.285  1.00 20.00    -0.047 C 
HETATM    7  C6  UNL     1     -31.070   8.523   2.462  1.00 20.00     0.015 C 
HETATM    8  C7  UNL     1     -32.775   9.815   1.155  1.00 20.00     0.015 C 
HETATM    9  C8  UNL     1     -31.277   8.180  -0.012  1.00 20.00     0.015 C 
ENDBRANCH   4   6
BRANCH   3  10
HETATM   10  C9  UNL     1     -33.040   7.839   4.149  1.00 20.00     0.008 C 
HETATM   11  C5  UNL     1     -34.024   8.183   5.223  1.00 20.00     0.006 C 
ENDBRANCH   3  10
TORSDOF 2
ENDMDL
MODEL 4
REMARK VINA RESULT:       1.5      2.682      3.979
REMARK  2 active torsions:
REMARK  status: ('A' for Active; 'I' for Inactive)
REMARK    1  A    between atoms: C3_3  and  C9_9 
REMARK    2  A    between atoms: C4_4  and  C10_10 
ROOT
HETATM    1  C1  UNL     1     -32.418   9.030   1.311  1.00 20.00     0.131 C 
HETATM    2  C2  UNL     1     -32.117   7.913   0.295  1.00 20.00     0.084 C 
HETATM    3  C3  UNL     1     -32.510   8.021   2.480  1.00 20.00     0.060 C 
HETATM    4  C4  UNL     1     -31.850   6.981   1.509  1.00 20.00     0.011 C 
HETATM    5  O11 UNL     1     -32.540  10.233   1.224  1.00 20.00    -0.298 OA
ENDROOT
BRANCH   4   6
HETATM    6  C10 UNL     1     -32.440   5.586   1.409  1.00 20.00    -0.047 C 
HETATM    7  C6  UNL     1     -33.599   5.573   0.394  1.00 20.00     0.015 C 
HETATM    8  C7  UNL     1     -32.976   5.139   2.783  1.00 20.00     0.015 C 
HETATM    9  C8  UNL     1     -31.362   4.587   0.948  1.00 20.00     0.015 C 
ENDBRANCH   4   6
BRANCH   3  10
HETATM   10  C9  UNL     1     -33.919   7.785   2.995  1.00 20.00     0.008 C 
HETATM   11  C5  UNL     1     -33.986   7.837   4.490  1.00 20.00     0.006 C 
ENDBRANCH   3  10
TORSDOF 2
ENDMDL
MODEL 5
REMARK VINA RESULT:       1.6      2.334      4.282
REMARK  2 active torsions:
REMARK  status: ('A' for Active; 'I' for Inactive)
REMARK    1  A    between atoms: C3_3  and  C9_9 
REMARK    2  A    between atoms: C4_4  and  C10_10 
ROOT
HETATM    1  C1  UNL     1     -32.354   5.452   1.309  1.00 20.00     0.131 C 
HETATM    2  C2  UNL     1     -33.497   4.823   2.127  1.00 20.00     0.084 C 
HETATM    3  C3  UNL     1     -32.357   6.731   2.181  1.00 20.00     0.060 C 
HETATM    4  C4  UNL     1     -33.241   5.922   3.194  1.00 20.00     0.011 C 
HETATM    5  O11 UNL     1     -31.709   5.087   0.350  1.00 20.00    -0.298 OA
ENDROOT
BRANCH   4   6
HETATM    6  C10 UNL     1     -34.483   6.575   3.775  1.00 20.00    -0.047 C 
HETATM    7  C6  UNL     1     -35.388   7.092   2.641  1.00 20.00     0.015 C 
HETATM    8  C7  UNL     1     -34.084   7.761   4.675  1.00 20.00     0.015 C 
HETATM    9  C8  UNL     1     -35.272   5.555   4.618  1.00 20.00     0.015 C 
ENDBRANCH   4   6
BRANCH   3  10
HETATM   10  C9  UNL     1     -32.927   7.958   1.493  1.00 20.00     0.008 C 
HETATM   11  C5  UNL     1     -31.858   8.927   1.097  1.00 20.00     0.006 C 
ENDBRANCH   3  10
TORSDOF 2
ENDMDL
