MODEL 1
REMARK VINA RESULT:       2.1      0.000      0.000
REMARK  1 active torsions:
REMARK  status: ('A' for Active; 'I' for Inactive)
REMARK    1  A    between atoms: C5_5  and  C10_10 
ROOT
HETATM    1  C1  UNL     1     -31.888   6.394   1.759  1.00 20.00     0.036 C 
HETATM    2  C2  UNL     1     -31.373   8.769   2.651  1.00 20.00     0.016 A 
HETATM    3  C3  UNL     1     -33.187   7.256   3.721  1.00 20.00     0.047 C 
HETATM    4  C4  UNL     1     -33.093   5.533   1.406  1.00 20.00     0.169 C 
HETATM    5  C5  UNL     1     -32.612   8.941   1.816  1.00 20.00     0.009 A 
HETATM    6  C6  UNL     1     -32.346   7.617   2.516  1.00 20.00    -0.031 A 
HETATM    7  C7  UNL     1     -34.334   6.298   3.335  1.00 20.00     0.054 C 
HETATM    8  C8  UNL     1     -34.931   5.696   4.615  1.00 20.00     0.045 C 
HETATM    9  C9  UNL     1     -35.457   7.014   2.571  1.00 20.00     0.045 C 
HETATM   10  O11 UNL     1     -33.828   5.183   2.581  1.00 20.00    -0.381 OA
ENDROOT
BRANCH   5  11
HETATM   11  C10 UNL     1     -32.505   9.111   0.340  1.00 20.00     0.120 C 
HETATM   12 CL12 UNL     1     -32.393  10.837  -0.106  1.00 20.00    -0.130 Cl
ENDBRANCH   5  11
TORSDOF 1
ENDMDL
MODEL 2
REMARK VINA RESULT:       4.0      2.845      4.430
REMARK  1 active torsions:
REMARK  status: ('A' for Active; 'I' for Inactive)
REMARK    1  A    between atoms: C5_5  and  C10_10 
ROOT
HETATM    1  C1  UNL     1     -33.351   5.517   1.686  1.00 20.00     0.036 C 
HETATM    2  C2  UNL     1     -35.064   6.157   3.518  1.00 20.00     0.016 A 
HETATM    3  C3  UNL     1     -33.667   7.937   2.253  1.00 20.00     0.047 C 
HETATM    4  C4  UNL     1     -31.924   5.853   1.277  1.00 20.00     0.169 C 
HETATM    5  C5  UNL     1     -33.732   6.217   4.211  1.00 20.00     0.009 A 
HETATM    6  C6  UNL     1     -33.825   6.507   2.721  1.00 20.00    -0.031 A 
HETATM    7  C7  UNL     1     -32.233   8.204   1.749  1.00 20.00     0.054 C 
HETATM    8  C8  UNL     1     -32.215   9.531   0.977  1.00 20.00     0.045 C 
HETATM    9  C9  UNL     1     -31.221   8.304   2.900  1.00 20.00     0.045 C 
HETATM   10  O11 UNL     1     -31.835   7.198   0.801  1.00 20.00    -0.381 OA
ENDROOT
BRANCH   5  11
HETATM   11  C10 UNL     1     -33.112   4.977   4.756  1.00 20.00     0.120 C 
HETATM   12 CL12 UNL     1     -34.046   3.528   4.289  1.00 20.00    -0.130 Cl
ENDBRANCH   5  11
TORSDOF 1
ENDMDL
MODEL 3
REMARK VINA RESULT:       4.3      1.906      3.131
REMARK  1 active torsions:
REMARK  status: ('A' for Active; 'I' for Inactive)
REMARK    1  A    between atoms: C5_5  and  C10_10 
ROOT
HETATM    1  C1  UNL     1     -34.791   6.093   2.805  1.00 20.00     0.036 C 
HETATM    2  C2  UNL     1     -33.010   5.998   0.929  1.00 20.00     0.016 A 
HETATM    3  C3  UNL     1     -33.283   4.097   2.670  1.00 20.00     0.047 C 
HETATM    4  C4  UNL     1     -34.899   5.844   4.303  1.00 20.00     0.169 C 
HETATM    5  C5  UNL     1     -32.248   6.432   2.151  1.00 20.00     0.009 A 
HETATM    6  C6  UNL     1     -33.478   5.550   2.298  1.00 20.00    -0.031 A 
HETATM    7  C7  UNL     1     -33.505   3.873   4.181  1.00 20.00     0.054 C 
HETATM    8  C8  UNL     1     -33.640   2.367   4.447  1.00 20.00     0.045 C 
HETATM    9  C9  UNL     1     -32.340   4.407   5.026  1.00 20.00     0.045 C 
HETATM   10  O11 UNL     1     -34.753   4.454   4.599  1.00 20.00    -0.381 OA
ENDROOT
BRANCH   5  11
HETATM   11  C10 UNL     1     -32.228   7.867   2.553  1.00 20.00     0.120 C 
HETATM   12 CL12 UNL     1     -32.188   8.939   1.126  1.00 20.00    -0.130 Cl
ENDBRANCH   5  11
TORSDOF 1
ENDMDL
MODEL 4
REMARK VINA RESULT:       4.3      2.572      3.999
REMARK  1 active torsions:
REMARK  status: ('A' for Active; 'I' for Inactive)
REMARK    1  A    between atoms: C5_5  and  C10_10 
ROOT
HETATM    1  C1  UNL     1     -33.605   5.493   2.752  1.00 20.00     0.036 C 
HETATM    2  C2  UNL     1     -32.150   4.473   0.870  1.00 20.00     0.016 A 
HETATM    3  C3  UNL     1     -31.599   6.764   1.953  1.00 20.00     0.047 C 
HETATM    4  C4  UNL     1     -34.237   6.827   3.124  1.00 20.00     0.169 C 
HETATM    5  C5  UNL     1     -33.012   5.488   0.171  1.00 20.00     0.009 A 
HETATM    6  C6  UNL     1     -32.621   5.697   1.626  1.00 20.00    -0.031 A 
HETATM    7  C7  UNL     1     -32.281   8.065   2.426  1.00 20.00     0.054 C 
HETATM    8  C8  UNL     1     -31.224   8.977   3.065  1.00 20.00     0.045 C 
HETATM    9  C9  UNL     1     -32.939   8.830   1.269  1.00 20.00     0.045 C 
HETATM   10  O11 UNL     1     -33.234   7.786   3.466  1.00 20.00    -0.381 OA
ENDROOT
BRANCH   5  11
HETATM   11  C10 UNL     1     -34.395   5.134  -0.252  1.00 20.00     0.120 C 
HETATM   12 CL12 UNL     1     -34.497   3.428  -0.769  1.00 20.00    -0.130 Cl
ENDBRANCH   5  11
TORSDOF 1
ENDMDL
MODEL 5
REMARK VINA RESULT:       4.5      2.424      4.049
REMARK  1 active torsions:
REMARK  status: ('A' for Active; 'I' for Inactive)
REMARK    1  A    between atoms: C5_5  and  C10_10 
ROOT
HETATM    1  C1  UNL     1     -33.395   7.547   3.643  1.00 20.00     0.036 C 
HETATM    2  C2  UNL     1     -35.008   5.757   4.589  1.00 20.00     0.016 A 
HETATM    3  C3  UNL     1     -33.200   5.188   2.820  1.00 20.00     0.047 C 
HETATM    4  C4  UNL     1     -32.845   8.005   2.300  1.00 20.00     0.169 C 
HETATM    5  C5  UNL     1     -35.595   6.125   3.254  1.00 20.00     0.009 A 
HETATM    6  C6  UNL     1     -34.093   6.219   3.475  1.00 20.00    -0.031 A 
HETATM    7  C7  UNL     1     -32.581   5.734   1.516  1.00 20.00     0.054 C 
HETATM    8  C8  UNL     1     -31.437   4.806   1.081  1.00 20.00     0.045 C 
HETATM    9  C9  UNL     1     -33.603   5.805   0.372  1.00 20.00     0.045 C 
HETATM   10  O11 UNL     1     -31.974   7.018   1.744  1.00 20.00    -0.381 OA
ENDROOT
BRANCH   5  11
HETATM   11  C10 UNL     1     -36.470   7.323   3.123  1.00 20.00     0.120 C 
HETATM   12 CL12 UNL     1     -37.917   6.963   2.140  1.00 20.00    -0.130 Cl
ENDBRANCH   5  11
TORSDOF 1
ENDMDL
MODEL 6
REMARK VINA RESULT:       4.7      2.776      4.517
REMARK  1 active torsions:
REMARK  status: ('A' for Active; 'I' for Inactive)
REMARK    1  A    between atoms: C5_5  and  C10_10 
ROOT
HETATM    1  C1  UNL     1     -31.342   7.324   2.251  1.00 20.00     0.036 C 
HETATM    2  C2  UNL     1     -33.196   5.671   1.526  1.00 20.00     0.016 A 
HETATM    3  C3  UNL     1     -32.763   7.896   0.268  1.00 20.00     0.047 C 
HETATM    4  C4  UNL     1     -31.158   8.817   2.483  1.00 20.00     0.169 C 
HETATM    5  C5  UNL     1     -33.924   6.738   2.296  1.00 20.00     0.009 A 
HETATM    6  C6  UNL     1     -32.650   7.082   1.539  1.00 20.00    -0.031 A 
HETATM    7  C7  UNL     1     -32.465   9.387   0.532  1.00 20.00     0.054 C 
HETATM    8  C8  UNL     1     -32.252  10.097  -0.813  1.00 20.00     0.045 C 
HETATM    9  C9  UNL     1     -33.616  10.089   1.268  1.00 20.00     0.045 C 
HETATM   10  O11 UNL     1     -31.228   9.536   1.250  1.00 20.00    -0.381 OA
ENDROOT
BRANCH   5  11
HETATM   11  C10 UNL     1     -33.990   6.678   3.783  1.00 20.00     0.120 C 
HETATM   12 CL12 UNL     1     -35.472   5.847   4.332  1.00 20.00    -0.130 Cl
ENDBRANCH   5  11
TORSDOF 1
ENDMDL
MODEL 7
REMARK VINA RESULT:       4.8      2.593      3.251
REMARK  1 active torsions:
REMARK  status: ('A' for Active; 'I' for Inactive)
REMARK    1  A    between atoms: C5_5  and  C10_10 
ROOT
HETATM    1  C1  UNL     1     -32.826   4.377   3.001  1.00 20.00     0.036 C 
HETATM    2  C2  UNL     1     -31.750   5.624   1.004  1.00 20.00     0.016 A 
HETATM    3  C3  UNL     1     -33.024   6.872   2.886  1.00 20.00     0.047 C 
HETATM    4  C4  UNL     1     -34.136   4.361   3.777  1.00 20.00     0.169 C 
HETATM    5  C5  UNL     1     -33.209   5.539   0.653  1.00 20.00     0.009 A 
HETATM    6  C6  UNL     1     -32.782   5.595   2.111  1.00 20.00    -0.031 A 
HETATM    7  C7  UNL     1     -34.305   6.772   3.740  1.00 20.00     0.054 C 
HETATM    8  C8  UNL     1     -34.320   7.927   4.752  1.00 20.00     0.045 C 
HETATM    9  C9  UNL     1     -35.580   6.863   2.889  1.00 20.00     0.045 C 
HETATM   10  O11 UNL     1     -34.296   5.568   4.526  1.00 20.00    -0.381 OA
ENDROOT
BRANCH   5  11
HETATM   11  C10 UNL     1     -33.758   4.309   0.017  1.00 20.00     0.120 C 
HETATM   12 CL12 UNL     1     -35.130   4.694  -1.059  1.00 20.00    -0.130 Cl
ENDBRANCH   5  11
TORSDOF 1
ENDMDL
MODEL 8
REMARK VINA RESULT:       4.8      3.041      4.586
REMARK  1 active torsions:
REMARK  status: ('A' for Active; 'I' for Inactive)
REMARK    1  A    between atoms: C5_5  and  C10_10 
ROOT
HETATM    1  C1  UNL     1     -34.572   5.848   1.569  1.00 20.00     0.036 C 
HETATM    2  C2  UNL     1     -35.157   6.064   4.081  1.00 20.00     0.016 A 
HETATM    3  C3  UNL     1     -33.518   7.689   2.902  1.00 20.00     0.047 C 
HETATM    4  C4  UNL     1     -33.346   5.870   0.667  1.00 20.00     0.169 C 
HETATM    5  C5  UNL     1     -33.821   5.375   4.064  1.00 20.00     0.009 A 
HETATM    6  C6  UNL     1     -34.194   6.336   2.946  1.00 20.00    -0.031 A 
HETATM    7  C7  UNL     1     -32.346   7.695   1.897  1.00 20.00     0.054 C 
HETATM    8  C8  UNL     1     -31.924   9.148   1.634  1.00 20.00     0.045 C 
HETATM    9  C9  UNL     1     -31.124   6.928   2.423  1.00 20.00     0.045 C 
HETATM   10  O11 UNL     1     -32.770   7.177   0.624  1.00 20.00    -0.381 OA
ENDROOT
BRANCH   5  11
HETATM   11  C10 UNL     1     -33.739   3.900   3.869  1.00 20.00     0.120 C 
HETATM   12 CL12 UNL     1     -32.883   3.115   5.225  1.00 20.00    -0.130 Cl
ENDBRANCH   5  11
TORSDOF 1
ENDMDL
