MODEL 1
REMARK VINA RESULT:      -0.7      0.000      0.000
REMARK  1 active torsions:
REMARK  status: ('A' for Active; 'I' for Inactive)
REMARK    1  A    between atoms: C4_4  and  C10_10 
ROOT
HETATM    1  C1  UNL     1     -33.037   5.389   1.693  1.00 20.00     0.006 C 
HETATM    2  C2  UNL     1     -32.127   6.541   1.252  1.00 20.00     0.009 C 
HETATM    3  C3  UNL     1     -33.778   7.870   2.651  1.00 20.00     0.013 C 
HETATM    4  C4  UNL     1     -33.289   5.401   3.203  1.00 20.00    -0.001 C 
HETATM    5  C5  UNL     1     -34.000   6.709   3.648  1.00 20.00    -0.013 C 
HETATM    6  C6  UNL     1     -32.389   7.882   1.983  1.00 20.00    -0.047 C 
HETATM    7  C7  UNL     1     -35.505   6.569   3.902  1.00 20.00     0.010 C 
HETATM    8  C8  UNL     1     -31.289   8.151   3.030  1.00 20.00     0.015 C 
HETATM    9  C9  UNL     1     -32.340   9.034   0.959  1.00 20.00     0.015 C 
ENDROOT
BRANCH   4  10
HETATM   10  C10 UNL     1     -33.982   4.111   3.644  1.00 20.00     0.090 C 
HETATM   11 BR11 UNL     1     -32.844   3.170   4.897  1.00 20.00    -0.096 Br
ENDBRANCH   4  10
TORSDOF 1
ENDMDL
MODEL 2
REMARK VINA RESULT:       0.3      2.672      4.332
REMARK  1 active torsions:
REMARK  status: ('A' for Active; 'I' for Inactive)
REMARK    1  A    between atoms: C4_4  and  C10_10 
ROOT
HETATM    1  C1  UNL     1     -32.604   6.200   1.831  1.00 20.00     0.006 C 
HETATM    2  C2  UNL     1     -33.817   5.415   2.341  1.00 20.00     0.009 C 
HETATM    3  C3  UNL     1     -33.588   7.061   4.263  1.00 20.00     0.013 C 
HETATM    4  C4  UNL     1     -32.832   7.713   1.887  1.00 20.00    -0.001 C 
HETATM    5  C5  UNL     1     -33.078   8.194   3.344  1.00 20.00    -0.013 C 
HETATM    6  C6  UNL     1     -34.520   6.047   3.569  1.00 20.00    -0.047 C 
HETATM    7  C7  UNL     1     -31.868   8.855   4.016  1.00 20.00     0.010 C 
HETATM    8  C8  UNL     1     -35.838   6.728   3.146  1.00 20.00     0.015 C 
HETATM    9  C9  UNL     1     -34.880   4.934   4.574  1.00 20.00     0.015 C 
ENDROOT
BRANCH   4  10
HETATM   10  C10 UNL     1     -31.719   8.454   1.144  1.00 20.00     0.090 C 
HETATM   11 BR11 UNL     1     -32.478   9.961   0.193  1.00 20.00    -0.096 Br
ENDBRANCH   4  10
TORSDOF 1
ENDMDL
