MODEL 1
REMARK VINA RESULT:      -1.7      0.000      0.000
REMARK  2 active torsions:
REMARK  status: ('A' for Active; 'I' for Inactive)
REMARK    1  A    between atoms: C4_4  and  C6_6 
REMARK    2  A    between atoms: C7_7  and  C8_8 
ROOT
HETATM    1  C1  UNL     1     -34.807   6.684   3.787  1.00 20.00     0.034 A 
HETATM    2  C2  UNL     1     -35.635   5.821   4.467  1.00 20.00     0.142 A 
HETATM    3  C3  UNL     1     -33.970   4.616   3.742  1.00 20.00     0.148 A 
HETATM    4  C4  UNL     1     -33.725   5.902   3.317  1.00 20.00    -0.029 A 
HETATM    5  O9  UNL     1     -35.133   4.559   4.444  1.00 20.00    -0.334 OA
ENDROOT
BRANCH   4   6
HETATM    6  C6  UNL     1     -32.541   6.378   2.510  1.00 20.00     0.026 A 
HETATM    7  C5  UNL     1     -32.397   5.976   1.057  1.00 20.00     0.016 A 
HETATM    8  C7  UNL     1     -32.739   7.394   1.404  1.00 20.00     0.005 A 
BRANCH   8   9
HETATM    9  C8  UNL     1     -31.738   8.478   1.198  1.00 20.00     0.090 C 
HETATM   10 BR10 UNL     1     -32.513   9.936   0.159  1.00 20.00    -0.096 Br
ENDBRANCH   8   9
ENDBRANCH   4   6
TORSDOF 2
ENDMDL
MODEL 2
REMARK VINA RESULT:      -1.2      0.639      1.184
REMARK  2 active torsions:
REMARK  status: ('A' for Active; 'I' for Inactive)
REMARK    1  A    between atoms: C4_4  and  C6_6 
REMARK    2  A    between atoms: C7_7  and  C8_8 
ROOT
HETATM    1  C1  UNL     1     -33.997   4.777   3.748  1.00 20.00     0.034 A 
HETATM    2  C2  UNL     1     -35.183   4.856   4.441  1.00 20.00     0.142 A 
HETATM    3  C3  UNL     1     -34.733   6.883   3.779  1.00 20.00     0.148 A 
HETATM    4  C4  UNL     1     -33.705   6.093   3.318  1.00 20.00    -0.029 A 
HETATM    5  O9  UNL     1     -35.638   6.136   4.465  1.00 20.00    -0.334 OA
ENDROOT
BRANCH   4   6
HETATM    6  C6  UNL     1     -32.507   6.545   2.517  1.00 20.00     0.026 A 
HETATM    7  C5  UNL     1     -32.306   6.051   1.100  1.00 20.00     0.016 A 
HETATM    8  C7  UNL     1     -32.693   7.481   1.340  1.00 20.00     0.005 A 
BRANCH   8   9
HETATM    9  C8  UNL     1     -31.711   8.573   1.093  1.00 20.00     0.090 C 
HETATM   10 BR10 UNL     1     -32.527  10.001   0.042  1.00 20.00    -0.096 Br
ENDBRANCH   8   9
ENDBRANCH   4   6
TORSDOF 2
ENDMDL
MODEL 3
REMARK VINA RESULT:      -1.0      0.959      1.664
REMARK  2 active torsions:
REMARK  status: ('A' for Active; 'I' for Inactive)
REMARK    1  A    between atoms: C4_4  and  C6_6 
REMARK    2  A    between atoms: C7_7  and  C8_8 
ROOT
HETATM    1  C1  UNL     1     -33.397   5.076   3.343  1.00 20.00     0.034 A 
HETATM    2  C2  UNL     1     -34.244   4.309   4.109  1.00 20.00     0.142 A 
HETATM    3  C3  UNL     1     -35.158   6.283   3.987  1.00 20.00     0.148 A 
HETATM    4  C4  UNL     1     -33.991   6.357   3.262  1.00 20.00    -0.029 A 
HETATM    5  O9  UNL     1     -35.320   5.038   4.506  1.00 20.00    -0.334 OA
ENDROOT
BRANCH   4   6
HETATM    6  C6  UNL     1     -33.454   7.566   2.533  1.00 20.00     0.026 A 
HETATM    7  C5  UNL     1     -32.335   8.387   3.136  1.00 20.00     0.016 A 
HETATM    8  C7  UNL     1     -32.063   7.532   1.935  1.00 20.00     0.005 A 
BRANCH   8   9
HETATM    9  C8  UNL     1     -31.804   8.162   0.610  1.00 20.00     0.090 C 
HETATM   10 BR10 UNL     1     -32.511   9.981   0.569  1.00 20.00    -0.096 Br
ENDBRANCH   8   9
ENDBRANCH   4   6
TORSDOF 2
ENDMDL
MODEL 4
REMARK VINA RESULT:      -0.7      3.369      4.871
REMARK  2 active torsions:
REMARK  status: ('A' for Active; 'I' for Inactive)
REMARK    1  A    between atoms: C4_4  and  C6_6 
REMARK    2  A    between atoms: C7_7  and  C8_8 
ROOT
HETATM    1  C1  UNL     1     -32.365   6.532   1.673  1.00 20.00     0.034 A 
HETATM    2  C2  UNL     1     -31.735   7.479   0.900  1.00 20.00     0.142 A 
HETATM    3  C3  UNL     1     -32.708   8.567   2.518  1.00 20.00     0.148 A 
HETATM    4  C4  UNL     1     -32.996   7.238   2.725  1.00 20.00    -0.029 A 
HETATM    5  O9  UNL     1     -31.939   8.722   1.408  1.00 20.00    -0.334 OA
ENDROOT
BRANCH   4   6
HETATM    6  C6  UNL     1     -33.823   6.655   3.846  1.00 20.00     0.026 A 
HETATM    7  C5  UNL     1     -35.332   6.609   3.738  1.00 20.00     0.016 A 
HETATM    8  C7  UNL     1     -34.543   5.337   3.648  1.00 20.00     0.005 A 
BRANCH   8   9
HETATM    9  C8  UNL     1     -34.598   4.343   4.756  1.00 20.00     0.090 C 
HETATM   10 BR10 UNL     1     -33.210   2.990   4.529  1.00 20.00    -0.096 Br
ENDBRANCH   8   9
ENDBRANCH   4   6
TORSDOF 2
ENDMDL
MODEL 5
REMARK VINA RESULT:      -0.7      3.287      4.744
REMARK  2 active torsions:
REMARK  status: ('A' for Active; 'I' for Inactive)
REMARK    1  A    between atoms: C4_4  and  C6_6 
REMARK    2  A    between atoms: C7_7  and  C8_8 
ROOT
HETATM    1  C1  UNL     1     -32.597   8.569   2.496  1.00 20.00     0.034 A 
HETATM    2  C2  UNL     1     -31.825   8.598   1.358  1.00 20.00     0.142 A 
HETATM    3  C3  UNL     1     -32.370   6.511   1.667  1.00 20.00     0.148 A 
HETATM    4  C4  UNL     1     -32.952   7.214   2.697  1.00 20.00    -0.029 A 
HETATM    5  O9  UNL     1     -31.682   7.348   0.846  1.00 20.00    -0.334 OA
ENDROOT
BRANCH   4   6
HETATM    6  C6  UNL     1     -33.795   6.649   3.815  1.00 20.00     0.026 A 
HETATM    7  C5  UNL     1     -35.303   6.613   3.690  1.00 20.00     0.016 A 
HETATM    8  C7  UNL     1     -34.523   5.334   3.624  1.00 20.00     0.005 A 
BRANCH   8   9
HETATM    9  C8  UNL     1     -34.597   4.353   4.742  1.00 20.00     0.090 C 
HETATM   10 BR10 UNL     1     -33.213   2.990   4.548  1.00 20.00    -0.096 Br
ENDBRANCH   8   9
ENDBRANCH   4   6
TORSDOF 2
ENDMDL
MODEL 6
REMARK VINA RESULT:      -0.7      1.237      1.672
REMARK  2 active torsions:
REMARK  status: ('A' for Active; 'I' for Inactive)
REMARK    1  A    between atoms: C4_4  and  C6_6 
REMARK    2  A    between atoms: C7_7  and  C8_8 
ROOT
HETATM    1  C1  UNL     1     -33.706   5.698   2.847  1.00 20.00     0.034 A 
HETATM    2  C2  UNL     1     -34.838   5.341   3.544  1.00 20.00     0.142 A 
HETATM    3  C3  UNL     1     -34.474   7.438   4.012  1.00 20.00     0.148 A 
HETATM    4  C4  UNL     1     -33.471   7.060   3.150  1.00 20.00    -0.029 A 
HETATM    5  O9  UNL     1     -35.311   6.396   4.257  1.00 20.00    -0.334 OA
ENDROOT
BRANCH   4   6
HETATM    6  C6  UNL     1     -32.345   7.925   2.636  1.00 20.00     0.026 A 
HETATM    7  C5  UNL     1     -31.360   7.377   1.626  1.00 20.00     0.016 A 
HETATM    8  C7  UNL     1     -32.359   8.412   1.202  1.00 20.00     0.005 A 
BRANCH   8   9
HETATM    9  C8  UNL     1     -31.912   9.795   0.878  1.00 20.00     0.090 C 
HETATM   10 BR10 UNL     1     -32.859  10.471  -0.689  1.00 20.00    -0.096 Br
ENDBRANCH   8   9
ENDBRANCH   4   6
TORSDOF 2
ENDMDL
MODEL 7
REMARK VINA RESULT:      -0.1      3.613      5.206
REMARK  2 active torsions:
REMARK  status: ('A' for Active; 'I' for Inactive)
REMARK    1  A    between atoms: C4_4  and  C6_6 
REMARK    2  A    between atoms: C7_7  and  C8_8 
ROOT
HETATM    1  C1  UNL     1     -32.556  10.364   1.086  1.00 20.00     0.034 A 
HETATM    2  C2  UNL     1     -32.752  10.962  -0.137  1.00 20.00     0.142 A 
HETATM    3  C3  UNL     1     -32.572   8.826  -0.530  1.00 20.00     0.148 A 
HETATM    4  C4  UNL     1     -32.441   8.977   0.831  1.00 20.00    -0.029 A 
HETATM    5  O9  UNL     1     -32.763  10.032  -1.128  1.00 20.00    -0.334 OA
ENDROOT
BRANCH   4   6
HETATM    6  C6  UNL     1     -32.214   7.881   1.845  1.00 20.00     0.026 A 
HETATM    7  C5  UNL     1     -32.020   8.221   3.307  1.00 20.00     0.016 A 
HETATM    8  C7  UNL     1     -33.290   7.558   2.862  1.00 20.00     0.005 A 
BRANCH   8   9
HETATM    9  C8  UNL     1     -33.564   6.141   3.234  1.00 20.00     0.090 C 
HETATM   10 BR10 UNL     1     -35.315   5.985   4.082  1.00 20.00    -0.096 Br
ENDBRANCH   8   9
ENDBRANCH   4   6
TORSDOF 2
ENDMDL
MODEL 8
REMARK VINA RESULT:       0.0      3.644      5.089
REMARK  2 active torsions:
REMARK  status: ('A' for Active; 'I' for Inactive)
REMARK    1  A    between atoms: C4_4  and  C6_6 
REMARK    2  A    between atoms: C7_7  and  C8_8 
ROOT
HETATM    1  C1  UNL     1     -32.960   9.947   1.356  1.00 20.00     0.034 A 
HETATM    2  C2  UNL     1     -32.617  10.581   0.185  1.00 20.00     0.142 A 
HETATM    3  C3  UNL     1     -31.624   8.642   0.136  1.00 20.00     0.148 A 
HETATM    4  C4  UNL     1     -32.316   8.687   1.325  1.00 20.00    -0.029 A 
HETATM    5  O9  UNL     1     -31.803   9.793  -0.565  1.00 20.00    -0.334 OA
ENDROOT
BRANCH   4   6
HETATM    6  C6  UNL     1     -32.371   7.609   2.381  1.00 20.00     0.026 A 
HETATM    7  C5  UNL     1     -33.445   7.640   3.447  1.00 20.00     0.016 A 
HETATM    8  C7  UNL     1     -33.498   6.597   2.371  1.00 20.00     0.005 A 
BRANCH   8   9
HETATM    9  C8  UNL     1     -33.223   5.170   2.696  1.00 20.00     0.090 C 
HETATM   10 BR10 UNL     1     -34.346   4.578   4.178  1.00 20.00    -0.096 Br
ENDBRANCH   8   9
ENDBRANCH   4   6
TORSDOF 2
ENDMDL
MODEL 9
REMARK VINA RESULT:       0.1      3.611      5.184
REMARK  2 active torsions:
REMARK  status: ('A' for Active; 'I' for Inactive)
REMARK    1  A    between atoms: C4_4  and  C6_6 
REMARK    2  A    between atoms: C7_7  and  C8_8 
ROOT
HETATM    1  C1  UNL     1     -31.779   8.780   0.026  1.00 20.00     0.034 A 
HETATM    2  C2  UNL     1     -32.023  10.029  -0.496  1.00 20.00     0.142 A 
HETATM    3  C3  UNL     1     -32.896  10.026   1.500  1.00 20.00     0.148 A 
HETATM    4  C4  UNL     1     -32.345   8.778   1.322  1.00 20.00    -0.029 A 
HETATM    5  O9  UNL     1     -32.703  10.795   0.395  1.00 20.00    -0.334 OA
ENDROOT
BRANCH   4   6
HETATM    6  C6  UNL     1     -32.350   7.638   2.313  1.00 20.00     0.026 A 
HETATM    7  C5  UNL     1     -33.377   7.596   3.424  1.00 20.00     0.016 A 
HETATM    8  C7  UNL     1     -33.471   6.619   2.289  1.00 20.00     0.005 A 
BRANCH   8   9
HETATM    9  C8  UNL     1     -33.174   5.177   2.515  1.00 20.00     0.090 C 
HETATM   10 BR10 UNL     1     -34.185   4.504   4.044  1.00 20.00    -0.096 Br
ENDBRANCH   8   9
ENDBRANCH   4   6
TORSDOF 2
ENDMDL
