MODEL 1
REMARK VINA RESULT:      -1.1      0.000      0.000
REMARK  4 active torsions:
REMARK  status: ('A' for Active; 'I' for Inactive)
REMARK    1  A    between atoms: C4_4  and  C6_6 
REMARK    2  A    between atoms: C5_5  and  C8_8 
REMARK    3  A    between atoms: C6_6  and  C9_9 
REMARK    4  A    between atoms: C9_9  and  O10_10 
ROOT
HETATM    1  C3  UNL     1     -31.244   7.967   2.311  1.00 20.00     0.019 A 
HETATM    2  C5  UNL     1     -32.145   8.294   1.156  1.00 20.00     0.011 A 
HETATM    3  C6  UNL     1     -32.615   7.315   2.231  1.00 20.00    -0.010 A 
ENDROOT
BRANCH   3   4
HETATM    4  C4  UNL     1     -32.742   5.824   1.879  1.00 20.00    -0.004 A 
HETATM    5  C1  UNL     1     -33.195   5.346   0.527  1.00 20.00     0.006 A 
HETATM    6  C2  UNL     1     -31.776   5.120   0.966  1.00 20.00     0.006 A 
ENDBRANCH   3   4
BRANCH   3   7
HETATM    7  C9  UNL     1     -33.643   7.777   3.234  1.00 20.00     0.177 C 
BRANCH   7   8
HETATM    8  O10 UNL     1     -34.043   6.673   4.035  1.00 20.00    -0.395 OA
HETATM    9  C7  UNL     1     -35.435   6.414   3.909  1.00 20.00     0.201 C 
ENDBRANCH   7   8
ENDBRANCH   3   7
BRANCH   2  10
HETATM   10  C8  UNL     1     -32.712   9.664   1.003  1.00 20.00     0.120 C 
HETATM   11 CL11 UNL     1     -32.815  10.134  -0.716  1.00 20.00    -0.130 Cl
ENDBRANCH   2  10
TORSDOF 4
ENDMDL
MODEL 2
REMARK VINA RESULT:      -0.1      2.332      3.800
REMARK  4 active torsions:
REMARK  status: ('A' for Active; 'I' for Inactive)
REMARK    1  A    between atoms: C4_4  and  C6_6 
REMARK    2  A    between atoms: C5_5  and  C8_8 
REMARK    3  A    between atoms: C6_6  and  C9_9 
REMARK    4  A    between atoms: C9_9  and  O10_10 
ROOT
HETATM    1  C3  UNL     1     -31.852   8.694   3.261  1.00 20.00     0.019 A 
HETATM    2  C5  UNL     1     -33.280   8.230   3.280  1.00 20.00     0.011 A 
HETATM    3  C6  UNL     1     -32.412   7.965   2.050  1.00 20.00    -0.010 A 
ENDROOT
BRANCH   3   4
HETATM    4  C4  UNL     1     -32.703   8.735   0.752  1.00 20.00    -0.004 A 
HETATM    5  C1  UNL     1     -32.597  10.232   0.655  1.00 20.00     0.006 A 
HETATM    6  C2  UNL     1     -31.619   9.360  -0.082  1.00 20.00     0.006 A 
ENDBRANCH   3   4
BRANCH   3   7
HETATM    7  C9  UNL     1     -31.904   6.565   1.809  1.00 20.00     0.177 C 
BRANCH   7   8
HETATM    8  O10 UNL     1     -32.920   5.803   1.170  1.00 20.00    -0.395 OA
HETATM    9  C7  UNL     1     -32.384   4.653   0.528  1.00 20.00     0.201 C 
ENDBRANCH   7   8
ENDBRANCH   3   7
BRANCH   2  10
HETATM   10  C8  UNL     1     -33.712   7.152   4.214  1.00 20.00     0.120 C 
HETATM   11 CL11 UNL     1     -35.311   6.503   3.757  1.00 20.00    -0.130 Cl
ENDBRANCH   2  10
TORSDOF 4
ENDMDL
MODEL 3
REMARK VINA RESULT:      -0.0      2.301      4.013
REMARK  4 active torsions:
REMARK  status: ('A' for Active; 'I' for Inactive)
REMARK    1  A    between atoms: C4_4  and  C6_6 
REMARK    2  A    between atoms: C5_5  and  C8_8 
REMARK    3  A    between atoms: C6_6  and  C9_9 
REMARK    4  A    between atoms: C9_9  and  O10_10 
ROOT
HETATM    1  C3  UNL     1     -32.482   5.343   2.690  1.00 20.00     0.019 A 
HETATM    2  C5  UNL     1     -33.400   5.458   1.507  1.00 20.00     0.011 A 
HETATM    3  C6  UNL     1     -32.961   6.718   2.252  1.00 20.00    -0.010 A 
ENDROOT
BRANCH   3   4
HETATM    4  C4  UNL     1     -33.992   7.482   3.098  1.00 20.00    -0.004 A 
HETATM    5  C1  UNL     1     -34.955   6.790   4.023  1.00 20.00     0.006 A 
HETATM    6  C2  UNL     1     -33.858   7.649   4.586  1.00 20.00     0.006 A 
ENDBRANCH   3   4
BRANCH   3   7
HETATM    7  C9  UNL     1     -31.934   7.619   1.611  1.00 20.00     0.177 C 
BRANCH   7   8
HETATM    8  O10 UNL     1     -32.434   8.950   1.583  1.00 20.00    -0.395 OA
HETATM    9  C7  UNL     1     -32.301   9.530   0.292  1.00 20.00     0.201 C 
ENDBRANCH   7   8
ENDBRANCH   3   7
BRANCH   2  10
HETATM   10  C8  UNL     1     -32.918   5.116   0.139  1.00 20.00     0.120 C 
HETATM   11 CL11 UNL     1     -31.377   4.217   0.203  1.00 20.00    -0.130 Cl
ENDBRANCH   2  10
TORSDOF 4
ENDMDL
MODEL 4
REMARK VINA RESULT:       0.5      3.081      4.151
REMARK  4 active torsions:
REMARK  status: ('A' for Active; 'I' for Inactive)
REMARK    1  A    between atoms: C4_4  and  C6_6 
REMARK    2  A    between atoms: C5_5  and  C8_8 
REMARK    3  A    between atoms: C6_6  and  C9_9 
REMARK    4  A    between atoms: C9_9  and  O10_10 
ROOT
HETATM    1  C3  UNL     1     -33.734   5.350   1.747  1.00 20.00     0.019 A 
HETATM    2  C5  UNL     1     -33.159   5.005   3.090  1.00 20.00     0.011 A 
HETATM    3  C6  UNL     1     -33.501   6.458   2.762  1.00 20.00    -0.010 A 
ENDROOT
BRANCH   3   4
HETATM    4  C4  UNL     1     -32.360   7.466   2.557  1.00 20.00    -0.004 A 
HETATM    5  C1  UNL     1     -31.391   7.373   1.410  1.00 20.00     0.006 A 
HETATM    6  C2  UNL     1     -32.378   8.504   1.470  1.00 20.00     0.006 A 
ENDBRANCH   3   4
BRANCH   3   7
HETATM    7  C9  UNL     1     -34.731   7.072   3.385  1.00 20.00     0.177 C 
BRANCH   7   8
HETATM    8  O10 UNL     1     -34.359   8.253   4.083  1.00 20.00    -0.395 OA
HETATM    9  C7  UNL     1     -33.577   7.956   5.233  1.00 20.00     0.201 C 
ENDBRANCH   7   8
ENDBRANCH   3   7
BRANCH   2  10
HETATM   10  C8  UNL     1     -33.940   4.187   4.060  1.00 20.00     0.120 C 
HETATM   11 CL11 UNL     1     -32.930   2.911   4.793  1.00 20.00    -0.130 Cl
ENDBRANCH   2  10
TORSDOF 4
ENDMDL
MODEL 5
REMARK VINA RESULT:       0.5      2.921      4.137
REMARK  4 active torsions:
REMARK  status: ('A' for Active; 'I' for Inactive)
REMARK    1  A    between atoms: C4_4  and  C6_6 
REMARK    2  A    between atoms: C5_5  and  C8_8 
REMARK    3  A    between atoms: C6_6  and  C9_9 
REMARK    4  A    between atoms: C9_9  and  O10_10 
ROOT
HETATM    1  C3  UNL     1     -35.349   6.120   3.188  1.00 20.00     0.019 A 
HETATM    2  C5  UNL     1     -34.598   6.713   4.346  1.00 20.00     0.011 A 
HETATM    3  C6  UNL     1     -34.087   5.433   3.686  1.00 20.00    -0.010 A 
ENDROOT
BRANCH   3   4
HETATM    4  C4  UNL     1     -34.184   4.107   4.457  1.00 20.00    -0.004 A 
HETATM    5  C1  UNL     1     -33.463   2.861   4.022  1.00 20.00     0.006 A 
HETATM    6  C2  UNL     1     -33.052   3.564   5.285  1.00 20.00     0.006 A 
ENDBRANCH   3   4
BRANCH   3   7
HETATM    7  C9  UNL     1     -32.876   5.511   2.790  1.00 20.00     0.177 C 
BRANCH   7   8
HETATM    8  O10 UNL     1     -33.190   6.300   1.649  1.00 20.00    -0.395 OA
HETATM    9  C7  UNL     1     -32.158   7.235   1.360  1.00 20.00     0.201 C 
ENDBRANCH   7   8
ENDBRANCH   3   7
BRANCH   2  10
HETATM   10  C8  UNL     1     -33.909   8.027   4.206  1.00 20.00     0.120 C 
HETATM   11 CL11 UNL     1     -32.851   8.354   5.606  1.00 20.00    -0.130 Cl
ENDBRANCH   2  10
TORSDOF 4
ENDMDL
MODEL 6
REMARK VINA RESULT:       0.6      2.553      4.014
REMARK  4 active torsions:
REMARK  status: ('A' for Active; 'I' for Inactive)
REMARK    1  A    between atoms: C4_4  and  C6_6 
REMARK    2  A    between atoms: C5_5  and  C8_8 
REMARK    3  A    between atoms: C6_6  and  C9_9 
REMARK    4  A    between atoms: C9_9  and  O10_10 
ROOT
HETATM    1  C3  UNL     1     -32.894   7.244   4.030  1.00 20.00     0.019 A 
HETATM    2  C5  UNL     1     -34.114   7.786   3.341  1.00 20.00     0.011 A 
HETATM    3  C6  UNL     1     -32.908   7.344   2.513  1.00 20.00    -0.010 A 
ENDROOT
BRANCH   3   4
HETATM    4  C4  UNL     1     -32.060   8.411   1.802  1.00 20.00    -0.004 A 
HETATM    5  C1  UNL     1     -32.124   8.641   0.317  1.00 20.00     0.006 A 
HETATM    6  C2  UNL     1     -32.645   9.686   1.263  1.00 20.00     0.006 A 
ENDBRANCH   3   4
BRANCH   3   7
HETATM    7  C9  UNL     1     -32.989   6.045   1.750  1.00 20.00     0.177 C 
BRANCH   7   8
HETATM    8  O10 UNL     1     -31.673   5.563   1.509  1.00 20.00    -0.395 OA
HETATM    9  C7  UNL     1     -31.655   4.592   0.470  1.00 20.00     0.201 C 
ENDBRANCH   7   8
ENDBRANCH   3   7
BRANCH   2  10
HETATM   10  C8  UNL     1     -35.398   7.030   3.371  1.00 20.00     0.120 C 
HETATM   11 CL11 UNL     1     -35.276   5.589   4.417  1.00 20.00    -0.130 Cl
ENDBRANCH   2  10
TORSDOF 4
ENDMDL
MODEL 7
REMARK VINA RESULT:       0.7      1.695      3.179
REMARK  4 active torsions:
REMARK  status: ('A' for Active; 'I' for Inactive)
REMARK    1  A    between atoms: C4_4  and  C6_6 
REMARK    2  A    between atoms: C5_5  and  C8_8 
REMARK    3  A    between atoms: C6_6  and  C9_9 
REMARK    4  A    between atoms: C9_9  and  O10_10 
ROOT
HETATM    1  C3  UNL     1     -34.098   7.903   2.614  1.00 20.00     0.019 A 
HETATM    2  C5  UNL     1     -32.636   7.797   2.943  1.00 20.00     0.011 A 
HETATM    3  C6  UNL     1     -33.473   6.528   2.786  1.00 20.00    -0.010 A 
ENDROOT
BRANCH   3   4
HETATM    4  C4  UNL     1     -33.792   5.686   4.032  1.00 20.00    -0.004 A 
HETATM    5  C1  UNL     1     -35.185   5.233   4.371  1.00 20.00     0.006 A 
HETATM    6  C2  UNL     1     -34.148   4.227   3.957  1.00 20.00     0.006 A 
ENDBRANCH   3   4
BRANCH   3   7
HETATM    7  C9  UNL     1     -33.308   5.699   1.536  1.00 20.00     0.177 C 
BRANCH   7   8
HETATM    8  O10 UNL     1     -32.058   5.023   1.587  1.00 20.00    -0.395 OA
HETATM    9  C7  UNL     1     -31.697   4.498   0.316  1.00 20.00     0.201 C 
ENDBRANCH   7   8
ENDBRANCH   3   7
BRANCH   2  10
HETATM   10  C8  UNL     1     -31.606   8.215   1.951  1.00 20.00     0.120 C 
HETATM   11 CL11 UNL     1     -32.309   9.269   0.693  1.00 20.00    -0.130 Cl
ENDBRANCH   2  10
TORSDOF 4
ENDMDL
MODEL 8
REMARK VINA RESULT:       0.7      2.322      3.603
REMARK  4 active torsions:
REMARK  status: ('A' for Active; 'I' for Inactive)
REMARK    1  A    between atoms: C4_4  and  C6_6 
REMARK    2  A    between atoms: C5_5  and  C8_8 
REMARK    3  A    between atoms: C6_6  and  C9_9 
REMARK    4  A    between atoms: C9_9  and  O10_10 
ROOT
HETATM    1  C3  UNL     1     -33.478   6.837   0.918  1.00 20.00     0.019 A 
HETATM    2  C5  UNL     1     -32.073   6.327   1.065  1.00 20.00     0.011 A 
HETATM    3  C6  UNL     1     -32.416   7.747   1.515  1.00 20.00    -0.010 A 
ENDROOT
BRANCH   3   4
HETATM    4  C4  UNL     1     -31.875   8.937   0.707  1.00 20.00    -0.004 A 
HETATM    5  C1  UNL     1     -32.579   9.480  -0.506  1.00 20.00     0.006 A 
HETATM    6  C2  UNL     1     -32.505  10.301   0.751  1.00 20.00     0.006 A 
ENDBRANCH   3   4
BRANCH   3   7
HETATM    7  C9  UNL     1     -32.524   8.033   2.992  1.00 20.00     0.177 C 
BRANCH   7   8
HETATM    8  O10 UNL     1     -33.881   7.895   3.396  1.00 20.00    -0.395 OA
HETATM    9  C7  UNL     1     -33.987   7.636   4.790  1.00 20.00     0.201 C 
ENDBRANCH   7   8
ENDBRANCH   3   7
BRANCH   2  10
HETATM   10  C8  UNL     1     -31.764   5.226   2.020  1.00 20.00     0.120 C 
HETATM   11 CL11 UNL     1     -33.242   4.644   2.835  1.00 20.00    -0.130 Cl
ENDBRANCH   2  10
TORSDOF 4
ENDMDL
MODEL 9
REMARK VINA RESULT:       0.8      2.197      3.539
REMARK  4 active torsions:
REMARK  status: ('A' for Active; 'I' for Inactive)
REMARK    1  A    between atoms: C4_4  and  C6_6 
REMARK    2  A    between atoms: C5_5  and  C8_8 
REMARK    3  A    between atoms: C6_6  and  C9_9 
REMARK    4  A    between atoms: C9_9  and  O10_10 
ROOT
HETATM    1  C3  UNL     1     -33.399   5.911   0.460  1.00 20.00     0.019 A 
HETATM    2  C5  UNL     1     -31.971   5.668   0.856  1.00 20.00     0.011 A 
HETATM    3  C6  UNL     1     -32.909   6.406   1.811  1.00 20.00    -0.010 A 
ENDROOT
BRANCH   3   4
HETATM    4  C4  UNL     1     -32.697   7.908   2.053  1.00 20.00    -0.004 A 
HETATM    5  C1  UNL     1     -31.331   8.524   2.185  1.00 20.00     0.006 A 
HETATM    6  C2  UNL     1     -32.184   8.838   0.988  1.00 20.00     0.006 A 
ENDBRANCH   3   4
BRANCH   3   7
HETATM    7  C9  UNL     1     -33.427   5.676   3.026  1.00 20.00     0.177 C 
BRANCH   7   8
HETATM    8  O10 UNL     1     -34.173   6.581   3.831  1.00 20.00    -0.395 OA
HETATM    9  C7  UNL     1     -35.451   6.054   4.161  1.00 20.00     0.201 C 
ENDBRANCH   7   8
ENDBRANCH   3   7
BRANCH   2  10
HETATM   10  C8  UNL     1     -31.482   4.283   1.109  1.00 20.00     0.120 C 
HETATM   11 CL11 UNL     1     -30.805   3.556  -0.374  1.00 20.00    -0.130 Cl
ENDBRANCH   2  10
TORSDOF 4
ENDMDL
