MODEL 1
REMARK VINA RESULT:      -0.8      0.000      0.000
REMARK  1 active torsions:
REMARK  status: ('A' for Active; 'I' for Inactive)
REMARK    1  A    between atoms: C6_6  and  C8_8 
ROOT
HETATM    1  C1  UNL     1     -34.162   7.757   3.968  1.00 20.00     0.027 C 
HETATM    2  C2  UNL     1     -32.687   7.997   3.659  1.00 20.00     0.014 C 
HETATM    3  C3  UNL     1     -31.066   7.865   1.638  1.00 20.00     0.018 A 
HETATM    4  C4  UNL     1     -34.523   6.292   3.746  1.00 20.00     0.167 C 
HETATM    5  C5  UNL     1     -32.802   6.004   2.135  1.00 20.00     0.177 C 
HETATM    6  C6  UNL     1     -32.376   8.323   1.056  1.00 20.00     0.011 A 
HETATM    7  C7  UNL     1     -32.361   7.439   2.294  1.00 20.00    -0.014 A 
HETATM    8  O9  UNL     1     -34.202   5.891   2.411  1.00 20.00    -0.390 OA
ENDROOT
BRANCH   6   9
HETATM    9  C8  UNL     1     -32.749   9.765   1.090  1.00 20.00     0.120 C 
HETATM   10 CL10 UNL     1     -32.905  10.433  -0.558  1.00 20.00    -0.130 Cl
ENDBRANCH   6   9
TORSDOF 1
ENDMDL
MODEL 2
REMARK VINA RESULT:       0.8      2.899      4.080
REMARK  1 active torsions:
REMARK  status: ('A' for Active; 'I' for Inactive)
REMARK    1  A    between atoms: C6_6  and  C8_8 
ROOT
HETATM    1  C1  UNL     1     -32.710   5.902   1.374  1.00 20.00     0.027 C 
HETATM    2  C2  UNL     1     -32.761   5.925   2.899  1.00 20.00     0.014 C 
HETATM    3  C3  UNL     1     -33.638   7.454   4.803  1.00 20.00     0.018 A 
HETATM    4  C4  UNL     1     -31.880   7.069   0.849  1.00 20.00     0.167 C 
HETATM    5  C5  UNL     1     -32.352   8.399   2.759  1.00 20.00     0.177 C 
HETATM    6  C6  UNL     1     -34.639   7.607   3.690  1.00 20.00     0.011 A 
HETATM    7  C7  UNL     1     -33.185   7.297   3.368  1.00 20.00    -0.014 A 
HETATM    8  O9  UNL     1     -32.398   8.312   1.331  1.00 20.00    -0.390 OA
ENDROOT
BRANCH   6   9
HETATM    9  C8  UNL     1     -35.738   6.614   3.527  1.00 20.00     0.120 C 
HETATM   10 CL10 UNL     1     -35.503   5.208   4.601  1.00 20.00    -0.130 Cl
ENDBRANCH   6   9
TORSDOF 1
ENDMDL
MODEL 3
REMARK VINA RESULT:       1.3      2.382      3.378
REMARK  1 active torsions:
REMARK  status: ('A' for Active; 'I' for Inactive)
REMARK    1  A    between atoms: C6_6  and  C8_8 
ROOT
HETATM    1  C1  UNL     1     -32.881   4.395   3.269  1.00 20.00     0.027 C 
HETATM    2  C2  UNL     1     -33.597   5.545   2.566  1.00 20.00     0.014 C 
HETATM    3  C3  UNL     1     -34.983   7.651   3.178  1.00 20.00     0.018 A 
HETATM    4  C4  UNL     1     -33.876   3.542   4.048  1.00 20.00     0.167 C 
HETATM    5  C5  UNL     1     -35.375   5.362   4.331  1.00 20.00     0.177 C 
HETATM    6  C6  UNL     1     -33.956   7.531   4.271  1.00 20.00     0.011 A 
HETATM    7  C7  UNL     1     -34.460   6.284   3.561  1.00 20.00    -0.014 A 
HETATM    8  O9  UNL     1     -34.606   4.344   4.980  1.00 20.00    -0.390 OA
ENDROOT
BRANCH   6   9
HETATM    9  C8  UNL     1     -32.584   8.080   4.076  1.00 20.00     0.120 C 
HETATM   10 CL10 UNL     1     -32.238   8.357   2.346  1.00 20.00    -0.130 Cl
ENDBRANCH   6   9
TORSDOF 1
ENDMDL
MODEL 4
REMARK VINA RESULT:       1.4      3.381      4.299
REMARK  1 active torsions:
REMARK  status: ('A' for Active; 'I' for Inactive)
REMARK    1  A    between atoms: C6_6  and  C8_8 
ROOT
HETATM    1  C1  UNL     1     -34.667   7.444   4.603  1.00 20.00     0.027 C 
HETATM    2  C2  UNL     1     -34.847   6.767   3.247  1.00 20.00     0.014 C 
HETATM    3  C3  UNL     1     -33.477   5.318   1.588  1.00 20.00     0.018 A 
HETATM    4  C4  UNL     1     -33.583   8.514   4.527  1.00 20.00     0.167 C 
HETATM    5  C5  UNL     1     -32.472   7.411   2.742  1.00 20.00     0.177 C 
HETATM    6  C6  UNL     1     -33.016   4.885   2.954  1.00 20.00     0.011 A 
HETATM    7  C7  UNL     1     -33.503   6.308   2.731  1.00 20.00    -0.014 A 
HETATM    8  O9  UNL     1     -32.353   7.954   4.061  1.00 20.00    -0.390 OA
ENDROOT
BRANCH   6   9
HETATM    9  C8  UNL     1     -33.792   3.870   3.721  1.00 20.00     0.120 C 
HETATM   10 CL10 UNL     1     -32.760   3.029   4.910  1.00 20.00    -0.130 Cl
ENDBRANCH   6   9
TORSDOF 1
ENDMDL
MODEL 5
REMARK VINA RESULT:       1.5      3.231      4.564
REMARK  1 active torsions:
REMARK  status: ('A' for Active; 'I' for Inactive)
REMARK    1  A    between atoms: C6_6  and  C8_8 
ROOT
HETATM    1  C1  UNL     1     -32.426   7.878   4.169  1.00 20.00     0.027 C 
HETATM    2  C2  UNL     1     -33.908   7.568   4.364  1.00 20.00     0.014 C 
HETATM    3  C3  UNL     1     -35.667   5.839   3.561  1.00 20.00     0.018 A 
HETATM    4  C4  UNL     1     -32.141   8.230   2.712  1.00 20.00     0.167 C 
HETATM    5  C5  UNL     1     -33.978   6.942   1.933  1.00 20.00     0.177 C 
HETATM    6  C6  UNL     1     -34.382   5.063   3.672  1.00 20.00     0.011 A 
HETATM    7  C7  UNL     1     -34.348   6.547   3.342  1.00 20.00    -0.014 A 
HETATM    8  O9  UNL     1     -32.568   7.175   1.846  1.00 20.00    -0.390 OA
ENDROOT
BRANCH   6   9
HETATM    9  C8  UNL     1     -33.949   4.512   4.987  1.00 20.00     0.120 C 
HETATM   10 CL10 UNL     1     -33.158   2.923   4.795  1.00 20.00    -0.130 Cl
ENDBRANCH   6   9
TORSDOF 1
ENDMDL
MODEL 6
REMARK VINA RESULT:       1.6      2.467      3.087
REMARK  1 active torsions:
REMARK  status: ('A' for Active; 'I' for Inactive)
REMARK    1  A    between atoms: C6_6  and  C8_8 
ROOT
HETATM    1  C1  UNL     1     -34.530   7.173   4.020  1.00 20.00     0.027 C 
HETATM    2  C2  UNL     1     -34.214   7.675   2.614  1.00 20.00     0.014 C 
HETATM    3  C3  UNL     1     -32.162   7.953   1.051  1.00 20.00     0.018 A 
HETATM    4  C4  UNL     1     -33.822   8.031   5.065  1.00 20.00     0.167 C 
HETATM    5  C5  UNL     1     -32.087   8.624   3.555  1.00 20.00     0.177 C 
HETATM    6  C6  UNL     1     -31.888   6.696   1.832  1.00 20.00     0.011 A 
HETATM    7  C7  UNL     1     -32.719   7.810   2.451  1.00 20.00    -0.014 A 
HETATM    8  O9  UNL     1     -32.412   8.053   4.827  1.00 20.00    -0.390 OA
ENDROOT
BRANCH   6   9
HETATM    9  C8  UNL     1     -32.469   5.397   1.391  1.00 20.00     0.120 C 
HETATM   10 CL10 UNL     1     -31.339   4.508   0.333  1.00 20.00    -0.130 Cl
ENDBRANCH   6   9
TORSDOF 1
ENDMDL
MODEL 7
REMARK VINA RESULT:       1.8      2.732      2.982
REMARK  1 active torsions:
REMARK  status: ('A' for Active; 'I' for Inactive)
REMARK    1  A    between atoms: C6_6  and  C8_8 
ROOT
HETATM    1  C1  UNL     1     -35.353   6.411   3.657  1.00 20.00     0.027 C 
HETATM    2  C2  UNL     1     -33.977   6.861   3.173  1.00 20.00     0.014 C 
HETATM    3  C3  UNL     1     -31.960   5.904   1.852  1.00 20.00     0.018 A 
HETATM    4  C4  UNL     1     -35.221   5.260   4.648  1.00 20.00     0.167 C 
HETATM    5  C5  UNL     1     -33.163   4.545   3.704  1.00 20.00     0.177 C 
HETATM    6  C6  UNL     1     -33.172   5.278   1.217  1.00 20.00     0.011 A 
HETATM    7  C7  UNL     1     -33.197   5.662   2.688  1.00 20.00    -0.014 A 
HETATM    8  O9  UNL     1     -34.497   4.173   4.064  1.00 20.00    -0.390 OA
ENDROOT
BRANCH   6   9
HETATM    9  C8  UNL     1     -33.937   6.015   0.171  1.00 20.00     0.120 C 
HETATM   10 CL10 UNL     1     -34.849   4.892  -0.875  1.00 20.00    -0.130 Cl
ENDBRANCH   6   9
TORSDOF 1
ENDMDL
MODEL 8
REMARK VINA RESULT:       1.9      2.788      4.129
REMARK  1 active torsions:
REMARK  status: ('A' for Active; 'I' for Inactive)
REMARK    1  A    between atoms: C6_6  and  C8_8 
ROOT
HETATM    1  C1  UNL     1     -31.791   7.602   0.467  1.00 20.00     0.027 C 
HETATM    2  C2  UNL     1     -31.504   7.531   1.964  1.00 20.00     0.014 C 
HETATM    3  C3  UNL     1     -32.642   8.168   4.206  1.00 20.00     0.018 A 
HETATM    4  C4  UNL     1     -31.920   9.053   0.015  1.00 20.00     0.167 C 
HETATM    5  C5  UNL     1     -32.625   9.769   2.167  1.00 20.00     0.177 C 
HETATM    6  C6  UNL     1     -33.770   7.741   3.306  1.00 20.00     0.011 A 
HETATM    7  C7  UNL     1     -32.517   8.365   2.712  1.00 20.00    -0.014 A 
HETATM    8  O9  UNL     1     -32.931   9.727   0.769  1.00 20.00    -0.390 OA
ENDROOT
BRANCH   6   9
HETATM    9  C8  UNL     1     -34.107   6.297   3.159  1.00 20.00     0.120 C 
HETATM   10 CL10 UNL     1     -35.433   5.827   4.258  1.00 20.00    -0.130 Cl
ENDBRANCH   6   9
TORSDOF 1
ENDMDL
MODEL 9
REMARK VINA RESULT:       2.2      2.743      4.182
REMARK  1 active torsions:
REMARK  status: ('A' for Active; 'I' for Inactive)
REMARK    1  A    between atoms: C6_6  and  C8_8 
ROOT
HETATM    1  C1  UNL     1     -32.377   9.119  -0.922  1.00 20.00     0.027 C 
HETATM    2  C2  UNL     1     -31.436   8.538   0.131  1.00 20.00     0.014 C 
HETATM    3  C3  UNL     1     -31.479   7.876   2.639  1.00 20.00     0.018 A 
HETATM    4  C4  UNL     1     -32.809  10.529  -0.533  1.00 20.00     0.167 C 
HETATM    5  C5  UNL     1     -32.514  10.093   1.783  1.00 20.00     0.177 C 
HETATM    6  C6  UNL     1     -32.855   7.546   2.127  1.00 20.00     0.011 A 
HETATM    7  C7  UNL     1     -32.061   8.682   1.499  1.00 20.00    -0.014 A 
HETATM    8  O9  UNL     1     -33.417  10.531   0.762  1.00 20.00    -0.390 OA
ENDROOT
BRANCH   6   9
HETATM    9  C8  UNL     1     -33.108   6.251   1.436  1.00 20.00     0.120 C 
HETATM   10 CL10 UNL     1     -31.646   5.227   1.423  1.00 20.00    -0.130 Cl
ENDBRANCH   6   9
TORSDOF 1
ENDMDL
