MODEL 1
REMARK VINA RESULT:      -0.1      0.000      0.000
REMARK  1 active torsions:
REMARK  status: ('A' for Active; 'I' for Inactive)
REMARK    1  A    between atoms: C5_5  and  C9_9 
ROOT
HETATM    1  C1  UNL     1     -33.999   8.260   3.075  1.00 20.00     0.036 C 
HETATM    2  C2  UNL     1     -31.444   8.065   2.618  1.00 20.00     0.016 A 
HETATM    3  C3  UNL     1     -33.097   6.109   2.141  1.00 20.00     0.041 C 
HETATM    4  C4  UNL     1     -34.334   7.481   4.343  1.00 20.00     0.169 C 
HETATM    5  C5  UNL     1     -32.077   8.328   1.276  1.00 20.00     0.009 A 
HETATM    6  C6  UNL     1     -33.475   5.451   3.472  1.00 20.00     0.118 C 
HETATM    7  C7  UNL     1     -32.856   7.588   2.350  1.00 20.00    -0.031 A 
HETATM    8  C8  UNL     1     -33.840   3.986   3.275  1.00 20.00     0.039 C 
HETATM    9  O10 UNL     1     -34.617   6.115   4.033  1.00 20.00    -0.386 OA
ENDROOT
BRANCH   5  10
HETATM   10  C9  UNL     1     -32.408   9.720   0.861  1.00 20.00     0.120 C 
HETATM   11 CL11 UNL     1     -32.808   9.798  -0.877  1.00 20.00    -0.130 Cl
ENDBRANCH   5  10
TORSDOF 1
ENDMDL
MODEL 2
REMARK VINA RESULT:       0.6      2.914      4.560
REMARK  1 active torsions:
REMARK  status: ('A' for Active; 'I' for Inactive)
REMARK    1  A    between atoms: C5_5  and  C9_9 
ROOT
HETATM    1  C1  UNL     1     -33.161   5.882   2.172  1.00 20.00     0.036 C 
HETATM    2  C2  UNL     1     -33.352   7.197   4.410  1.00 20.00     0.016 A 
HETATM    3  C3  UNL     1     -33.537   8.365   2.089  1.00 20.00     0.041 C 
HETATM    4  C4  UNL     1     -31.789   6.146   1.560  1.00 20.00     0.169 C 
HETATM    5  C5  UNL     1     -34.766   7.013   3.926  1.00 20.00     0.009 A 
HETATM    6  C6  UNL     1     -32.134   8.490   1.489  1.00 20.00     0.118 C 
HETATM    7  C7  UNL     1     -33.629   7.107   2.924  1.00 20.00    -0.031 A 
HETATM    8  C8  UNL     1     -32.045   9.683   0.547  1.00 20.00     0.039 C 
HETATM    9  O10 UNL     1     -31.823   7.311   0.732  1.00 20.00    -0.386 OA
ENDROOT
BRANCH   5  10
HETATM   10  C9  UNL     1     -35.494   5.742   4.197  1.00 20.00     0.120 C 
HETATM   11 CL11 UNL     1     -34.360   4.408   4.542  1.00 20.00    -0.130 Cl
ENDBRANCH   5  10
TORSDOF 1
ENDMDL
MODEL 3
REMARK VINA RESULT:       1.2      3.110      4.574
REMARK  1 active torsions:
REMARK  status: ('A' for Active; 'I' for Inactive)
REMARK    1  A    between atoms: C5_5  and  C9_9 
ROOT
HETATM    1  C1  UNL     1     -33.001   7.119   4.606  1.00 20.00     0.036 C 
HETATM    2  C2  UNL     1     -35.247   6.676   3.367  1.00 20.00     0.016 A 
HETATM    3  C3  UNL     1     -32.974   6.859   2.106  1.00 20.00     0.041 C 
HETATM    4  C4  UNL     1     -32.593   8.572   4.383  1.00 20.00     0.169 C 
HETATM    5  C5  UNL     1     -34.568   5.335   3.467  1.00 20.00     0.009 A 
HETATM    6  C6  UNL     1     -32.577   8.336   2.024  1.00 20.00     0.118 C 
HETATM    7  C7  UNL     1     -33.735   6.603   3.389  1.00 20.00    -0.031 A 
HETATM    8  C8  UNL     1     -31.707   8.602   0.803  1.00 20.00     0.039 C 
HETATM    9  O10 UNL     1     -31.819   8.699   3.188  1.00 20.00    -0.386 OA
ENDROOT
BRANCH   5  10
HETATM   10  C9  UNL     1     -34.682   4.525   4.712  1.00 20.00     0.120 C 
HETATM   11 CL11 UNL     1     -33.499   3.190   4.727  1.00 20.00    -0.130 Cl
ENDBRANCH   5  10
TORSDOF 1
ENDMDL
MODEL 4
REMARK VINA RESULT:       1.7      3.046      4.755
REMARK  1 active torsions:
REMARK  status: ('A' for Active; 'I' for Inactive)
REMARK    1  A    between atoms: C5_5  and  C9_9 
ROOT
HETATM    1  C1  UNL     1     -32.126   6.667   1.818  1.00 20.00     0.036 C 
HETATM    2  C2  UNL     1     -33.024   7.734   4.016  1.00 20.00     0.016 A 
HETATM    3  C3  UNL     1     -33.536   8.743   1.669  1.00 20.00     0.041 C 
HETATM    4  C4  UNL     1     -30.965   7.510   1.299  1.00 20.00     0.169 C 
HETATM    5  C5  UNL     1     -34.181   6.963   3.437  1.00 20.00     0.009 A 
HETATM    6  C6  UNL     1     -32.287   9.473   1.166  1.00 20.00     0.118 C 
HETATM    7  C7  UNL     1     -33.130   7.556   2.516  1.00 20.00    -0.031 A 
HETATM    8  C8  UNL     1     -32.659  10.601   0.213  1.00 20.00     0.039 C 
HETATM    9  O10 UNL     1     -31.444   8.557   0.451  1.00 20.00    -0.386 OA
ENDROOT
BRANCH   5  10
HETATM   10  C9  UNL     1     -34.303   5.497   3.678  1.00 20.00     0.120 C 
HETATM   11 CL11 UNL     1     -35.661   5.133   4.776  1.00 20.00    -0.130 Cl
ENDBRANCH   5  10
TORSDOF 1
ENDMDL
