MODEL 1
REMARK VINA RESULT:       0.8      0.000      0.000
REMARK  1 active torsions:
REMARK  status: ('A' for Active; 'I' for Inactive)
REMARK    1  A    between atoms: C1_1  and  C5_5 
ROOT
HETATM    1  C2  UNL     1     -33.149   8.236   2.332  1.00 20.00     0.013 C 
HETATM    2  C3  UNL     1     -32.103   7.236   1.830  1.00 20.00     0.009 C 
HETATM    3  C4  UNL     1     -33.484   5.329   2.775  1.00 20.00     0.013 C 
HETATM    4  C5  UNL     1     -33.919   7.716   3.552  1.00 20.00     0.051 C 
HETATM    5  C6  UNL     1     -34.540   6.337   3.260  1.00 20.00    -0.007 C 
HETATM    6  C7  UNL     1     -32.674   5.827   1.555  1.00 20.00    -0.047 C 
HETATM    7  C8  UNL     1     -35.336   5.770   4.440  1.00 20.00     0.011 C 
HETATM    8  C9  UNL     1     -31.504   4.855   1.303  1.00 20.00     0.015 C 
HETATM    9  C10 UNL     1     -33.553   5.842   0.288  1.00 20.00     0.015 C 
ENDROOT
BRANCH   4  10
HETATM   10  C1  UNL     1     -33.008   7.733   4.752  1.00 20.00     0.236 C 
HETATM   11  O11 UNL     1     -33.011   8.627   5.591  1.00 20.00    -0.306 OA
ENDBRANCH   4  10
TORSDOF 1
ENDMDL
MODEL 2
REMARK VINA RESULT:       0.9      1.884      3.304
REMARK  1 active torsions:
REMARK  status: ('A' for Active; 'I' for Inactive)
REMARK    1  A    between atoms: C1_1  and  C5_5 
ROOT
HETATM    1  C2  UNL     1     -34.402   6.947   3.276  1.00 20.00     0.013 C 
HETATM    2  C3  UNL     1     -33.176   7.794   3.630  1.00 20.00     0.009 C 
HETATM    3  C4  UNL     1     -31.871   6.669   1.767  1.00 20.00     0.013 C 
HETATM    4  C5  UNL     1     -34.024   5.610   2.625  1.00 20.00     0.051 C 
HETATM    5  C6  UNL     1     -33.111   5.835   1.405  1.00 20.00    -0.007 C 
HETATM    6  C7  UNL     1     -32.213   8.018   2.443  1.00 20.00    -0.047 C 
HETATM    7  C8  UNL     1     -32.710   4.535   0.703  1.00 20.00     0.011 C 
HETATM    8  C9  UNL     1     -30.912   8.656   2.969  1.00 20.00     0.015 C 
HETATM    9  C10 UNL     1     -32.836   8.994   1.424  1.00 20.00     0.015 C 
ENDROOT
BRANCH   4  10
HETATM   10  C1  UNL     1     -33.429   4.706   3.673  1.00 20.00     0.236 C 
HETATM   11  O11 UNL     1     -34.029   3.756   4.166  1.00 20.00    -0.306 OA
ENDBRANCH   4  10
TORSDOF 1
ENDMDL
MODEL 3
REMARK VINA RESULT:       1.2      1.875      3.615
REMARK  1 active torsions:
REMARK  status: ('A' for Active; 'I' for Inactive)
REMARK    1  A    between atoms: C1_1  and  C5_5 
ROOT
HETATM    1  C2  UNL     1     -32.485   7.994   3.644  1.00 20.00     0.013 C 
HETATM    2  C3  UNL     1     -33.987   7.768   3.842  1.00 20.00     0.009 C 
HETATM    3  C4  UNL     1     -33.930   5.915   2.111  1.00 20.00     0.013 C 
HETATM    4  C5  UNL     1     -32.011   7.586   2.243  1.00 20.00     0.051 C 
HETATM    5  C6  UNL     1     -32.418   6.135   1.929  1.00 20.00    -0.007 C 
HETATM    6  C7  UNL     1     -34.448   6.333   3.507  1.00 20.00    -0.047 C 
HETATM    7  C8  UNL     1     -31.959   5.664   0.546  1.00 20.00     0.011 C 
HETATM    8  C9  UNL     1     -35.989   6.293   3.499  1.00 20.00     0.015 C 
HETATM    9  C10 UNL     1     -33.959   5.346   4.586  1.00 20.00     0.015 C 
ENDROOT
BRANCH   4  10
HETATM   10  C1  UNL     1     -32.517   8.592   1.241  1.00 20.00     0.236 C 
HETATM   11  O11 UNL     1     -31.785   9.212   0.477  1.00 20.00    -0.306 OA
ENDBRANCH   4  10
TORSDOF 1
ENDMDL
MODEL 4
REMARK VINA RESULT:       1.5      1.676      3.057
REMARK  1 active torsions:
REMARK  status: ('A' for Active; 'I' for Inactive)
REMARK    1  A    between atoms: C1_1  and  C5_5 
ROOT
HETATM    1  C2  UNL     1     -32.997   5.826   2.165  1.00 20.00     0.013 C 
HETATM    2  C3  UNL     1     -32.997   6.898   1.070  1.00 20.00     0.009 C 
HETATM    3  C4  UNL     1     -32.847   8.703   2.845  1.00 20.00     0.013 C 
HETATM    4  C5  UNL     1     -33.565   6.346   3.492  1.00 20.00     0.051 C 
HETATM    5  C6  UNL     1     -32.830   7.622   3.940  1.00 20.00    -0.007 C 
HETATM    6  C7  UNL     1     -32.298   8.210   1.486  1.00 20.00    -0.047 C 
HETATM    7  C8  UNL     1     -33.345   8.181   5.269  1.00 20.00     0.011 C 
HETATM    8  C9  UNL     1     -32.576   9.285   0.417  1.00 20.00     0.015 C 
HETATM    9  C10 UNL     1     -30.771   8.006   1.559  1.00 20.00     0.015 C 
ENDROOT
BRANCH   4  10
HETATM   10  C1  UNL     1     -35.056   6.517   3.354  1.00 20.00     0.236 C 
HETATM   11  O11 UNL     1     -35.868   6.019   4.127  1.00 20.00    -0.306 OA
ENDBRANCH   4  10
TORSDOF 1
ENDMDL
MODEL 5
REMARK VINA RESULT:       2.4      2.385      3.651
REMARK  1 active torsions:
REMARK  status: ('A' for Active; 'I' for Inactive)
REMARK    1  A    between atoms: C1_1  and  C5_5 
ROOT
HETATM    1  C2  UNL     1     -31.616   5.915   1.697  1.00 20.00     0.013 C 
HETATM    2  C3  UNL     1     -31.622   7.285   1.012  1.00 20.00     0.009 C 
HETATM    3  C4  UNL     1     -33.614   7.975   2.423  1.00 20.00     0.013 C 
HETATM    4  C5  UNL     1     -33.004   5.510   2.208  1.00 20.00     0.051 C 
HETATM    5  C6  UNL     1     -33.592   6.603   3.120  1.00 20.00    -0.007 C 
HETATM    6  C7  UNL     1     -32.233   8.409   1.877  1.00 20.00    -0.047 C 
HETATM    7  C8  UNL     1     -34.974   6.249   3.674  1.00 20.00     0.011 C 
HETATM    8  C9  UNL     1     -32.415   9.667   1.005  1.00 20.00     0.015 C 
HETATM    9  C10 UNL     1     -31.282   8.774   3.034  1.00 20.00     0.015 C 
ENDROOT
BRANCH   4  10
HETATM   10  C1  UNL     1     -33.879   5.162   1.032  1.00 20.00     0.236 C 
HETATM   11  O11 UNL     1     -33.466   4.589   0.028  1.00 20.00    -0.306 OA
ENDBRANCH   4  10
TORSDOF 1
ENDMDL
MODEL 6
REMARK VINA RESULT:       2.7      2.157      4.193
REMARK  1 active torsions:
REMARK  status: ('A' for Active; 'I' for Inactive)
REMARK    1  A    between atoms: C1_1  and  C5_5 
ROOT
HETATM    1  C2  UNL     1     -33.961   5.761   2.153  1.00 20.00     0.013 C 
HETATM    2  C3  UNL     1     -33.819   6.164   3.624  1.00 20.00     0.009 C 
HETATM    3  C4  UNL     1     -32.454   8.187   2.931  1.00 20.00     0.013 C 
HETATM    4  C5  UNL     1     -32.797   6.267   1.292  1.00 20.00     0.051 C 
HETATM    5  C6  UNL     1     -32.616   7.787   1.454  1.00 20.00    -0.007 C 
HETATM    6  C7  UNL     1     -33.602   7.678   3.835  1.00 20.00    -0.047 C 
HETATM    7  C8  UNL     1     -31.474   8.354   0.606  1.00 20.00     0.011 C 
HETATM    8  C9  UNL     1     -33.225   7.928   5.308  1.00 20.00     0.015 C 
HETATM    9  C10 UNL     1     -34.904   8.452   3.546  1.00 20.00     0.015 C 
ENDROOT
BRANCH   4  10
HETATM   10  C1  UNL     1     -31.562   5.467   1.618  1.00 20.00     0.236 C 
HETATM   11  O11 UNL     1     -31.148   4.547   0.920  1.00 20.00    -0.306 OA
ENDBRANCH   4  10
TORSDOF 1
ENDMDL
MODEL 7
REMARK VINA RESULT:       2.9      2.275      3.856
REMARK  1 active torsions:
REMARK  status: ('A' for Active; 'I' for Inactive)
REMARK    1  A    between atoms: C1_1  and  C5_5 
ROOT
HETATM    1  C2  UNL     1     -31.891   6.876   1.892  1.00 20.00     0.013 C 
HETATM    2  C3  UNL     1     -32.912   7.992   2.133  1.00 20.00     0.009 C 
HETATM    3  C4  UNL     1     -34.278   6.420   3.582  1.00 20.00     0.013 C 
HETATM    4  C5  UNL     1     -32.513   5.478   2.004  1.00 20.00     0.051 C 
HETATM    5  C6  UNL     1     -33.239   5.309   3.351  1.00 20.00    -0.007 C 
HETATM    6  C7  UNL     1     -33.690   7.846   3.459  1.00 20.00    -0.047 C 
HETATM    7  C8  UNL     1     -33.870   3.925   3.527  1.00 20.00     0.011 C 
HETATM    8  C9  UNL     1     -34.847   8.864   3.475  1.00 20.00     0.015 C 
HETATM    9  C10 UNL     1     -32.772   8.160   4.658  1.00 20.00     0.015 C 
ENDROOT
BRANCH   4  10
HETATM   10  C1  UNL     1     -33.390   5.234   0.803  1.00 20.00     0.236 C 
HETATM   11  O11 UNL     1     -33.172   4.358  -0.027  1.00 20.00    -0.306 OA
ENDBRANCH   4  10
TORSDOF 1
ENDMDL
MODEL 8
REMARK VINA RESULT:       3.7      1.532      2.817
REMARK  1 active torsions:
REMARK  status: ('A' for Active; 'I' for Inactive)
REMARK    1  A    between atoms: C1_1  and  C5_5 
ROOT
HETATM    1  C2  UNL     1     -33.146   5.373   3.643  1.00 20.00     0.013 C 
HETATM    2  C3  UNL     1     -33.582   4.654   2.363  1.00 20.00     0.009 C 
HETATM    3  C4  UNL     1     -32.919   6.689   1.001  1.00 20.00     0.013 C 
HETATM    4  C5  UNL     1     -33.244   6.899   3.519  1.00 20.00     0.051 C 
HETATM    5  C6  UNL     1     -32.466   7.399   2.288  1.00 20.00    -0.007 C 
HETATM    6  C7  UNL     1     -32.852   5.146   1.094  1.00 20.00    -0.047 C 
HETATM    7  C8  UNL     1     -32.515   8.921   2.120  1.00 20.00     0.011 C 
HETATM    8  C9  UNL     1     -33.541   4.542  -0.145  1.00 20.00     0.015 C 
HETATM    9  C10 UNL     1     -31.387   4.666   1.098  1.00 20.00     0.015 C 
ENDROOT
BRANCH   4  10
HETATM   10  C1  UNL     1     -34.696   7.301   3.528  1.00 20.00     0.236 C 
HETATM   11  O11 UNL     1     -35.600   6.561   3.903  1.00 20.00    -0.306 OA
ENDBRANCH   4  10
TORSDOF 1
ENDMDL
