MODEL 1
REMARK VINA RESULT:       0.2      0.000      0.000
REMARK  0 active torsions:
REMARK  status: ('A' for Active; 'I' for Inactive)
ROOT
HETATM    1  C1  UNL     1     -35.046   5.015   4.293  1.00 20.00     0.006 C 
HETATM    2  C2  UNL     1     -33.549   5.289   4.073  1.00 20.00     0.038 C 
HETATM    3  C3  UNL     1     -35.315   6.472   3.881  1.00 20.00     0.038 C 
HETATM    4  C4  UNL     1     -31.657   6.484   1.622  1.00 20.00     0.042 C 
HETATM    5  C5  UNL     1     -33.179   7.758   3.236  1.00 20.00     0.053 C 
HETATM    6  C6  UNL     1     -32.873   5.777   1.022  1.00 20.00     0.170 C 
HETATM    7  C7  UNL     1     -32.008   7.826   2.251  1.00 20.00     0.062 C 
HETATM    8  C8  UNL     1     -33.963   6.448   3.106  1.00 20.00     0.062 C 
HETATM    9  O9  UNL     1     -34.083   6.083   1.711  1.00 20.00    -0.380 OA
HETATM   10 BR10 UNL     1     -32.420   9.114   0.820  1.00 20.00    -0.091 Br
ENDROOT
TORSDOF 0
ENDMDL
MODEL 2
REMARK VINA RESULT:       1.5      1.814      3.380
REMARK  0 active torsions:
REMARK  status: ('A' for Active; 'I' for Inactive)
ROOT
HETATM    1  C1  UNL     1     -32.602   4.612   0.424  1.00 20.00     0.006 C 
HETATM    2  C2  UNL     1     -33.785   5.506   0.833  1.00 20.00     0.038 C 
HETATM    3  C3  UNL     1     -31.699   5.514   1.283  1.00 20.00     0.038 C 
HETATM    4  C4  UNL     1     -35.102   6.603   3.674  1.00 20.00     0.042 C 
HETATM    5  C5  UNL     1     -32.984   7.398   2.480  1.00 20.00     0.053 C 
HETATM    6  C6  UNL     1     -34.464   5.233   3.909  1.00 20.00     0.170 C 
HETATM    7  C7  UNL     1     -34.071   7.712   3.512  1.00 20.00     0.062 C 
HETATM    8  C8  UNL     1     -32.965   5.913   2.101  1.00 20.00     0.062 C 
HETATM    9  O9  UNL     1     -33.193   5.102   3.278  1.00 20.00    -0.380 OA
HETATM   10 BR10 UNL     1     -33.239   8.072   5.260  1.00 20.00    -0.091 Br
ENDROOT
TORSDOF 0
ENDMDL
MODEL 3
REMARK VINA RESULT:       2.7      2.312      3.770
REMARK  0 active torsions:
REMARK  status: ('A' for Active; 'I' for Inactive)
ROOT
HETATM    1  C1  UNL     1     -31.432   9.195   1.232  1.00 20.00     0.006 C 
HETATM    2  C2  UNL     1     -32.735   8.422   0.967  1.00 20.00     0.038 C 
HETATM    3  C3  UNL     1     -31.476   8.661   2.673  1.00 20.00     0.038 C 
HETATM    4  C4  UNL     1     -33.797   5.300   1.333  1.00 20.00     0.042 C 
HETATM    5  C5  UNL     1     -33.475   7.101   3.121  1.00 20.00     0.053 C 
HETATM    6  C6  UNL     1     -32.293   5.292   1.059  1.00 20.00     0.170 C 
HETATM    7  C7  UNL     1     -34.136   5.773   2.740  1.00 20.00     0.062 C 
HETATM    8  C8  UNL     1     -32.349   7.479   2.153  1.00 20.00     0.062 C 
HETATM    9  O9  UNL     1     -31.595   6.298   1.790  1.00 20.00    -0.380 OA
HETATM   10 BR10 UNL     1     -33.610   4.379   4.027  1.00 20.00    -0.091 Br
ENDROOT
TORSDOF 0
ENDMDL
MODEL 4
REMARK VINA RESULT:       3.1      1.489      2.354
REMARK  0 active torsions:
REMARK  status: ('A' for Active; 'I' for Inactive)
ROOT
HETATM    1  C1  UNL     1     -35.370   4.925   4.681  1.00 20.00     0.006 C 
HETATM    2  C2  UNL     1     -35.506   6.124   3.727  1.00 20.00     0.038 C 
HETATM    3  C3  UNL     1     -34.057   4.574   3.961  1.00 20.00     0.038 C 
HETATM    4  C4  UNL     1     -33.616   8.691   2.807  1.00 20.00     0.042 C 
HETATM    5  C5  UNL     1     -33.441   6.240   2.097  1.00 20.00     0.053 C 
HETATM    6  C6  UNL     1     -33.278   8.306   4.247  1.00 20.00     0.170 C 
HETATM    7  C7  UNL     1     -33.076   7.695   1.789  1.00 20.00     0.062 C 
HETATM    8  C8  UNL     1     -33.955   6.068   3.530  1.00 20.00     0.062 C 
HETATM    9  O9  UNL     1     -33.182   6.896   4.432  1.00 20.00    -0.380 OA
HETATM   10 BR10 UNL     1     -31.119   7.880   1.690  1.00 20.00    -0.091 Br
ENDROOT
TORSDOF 0
ENDMDL
