MODEL 1
REMARK VINA RESULT:      -2.0      0.000      0.000
REMARK  2 active torsions:
REMARK  status: ('A' for Active; 'I' for Inactive)
REMARK    1  A    between atoms: C2_2  and  C7_7 
REMARK    2  A    between atoms: C3_3  and  C8_8 
ROOT
HETATM    1  C1  UNL     1     -31.323   7.789   2.335  1.00 20.00     0.016 A 
HETATM    2  C2  UNL     1     -32.224   8.213   1.210  1.00 20.00     0.009 A 
HETATM    3  C3  UNL     1     -32.731   7.220   2.255  1.00 20.00    -0.036 A 
HETATM    4  C4  UNL     1     -32.886   5.786   1.823  1.00 20.00     0.016 C 
ENDROOT
BRANCH   3   5
HETATM    5  C8  UNL     1     -33.732   7.660   3.290  1.00 20.00    -0.014 C 
HETATM    6  C5  UNL     1     -34.708   6.528   3.639  1.00 20.00     0.010 C 
HETATM    7  C6  UNL     1     -33.035   8.158   4.564  1.00 20.00     0.010 C 
ENDBRANCH   3   5
BRANCH   2   8
HETATM    8  C7  UNL     1     -32.716   9.617   1.130  1.00 20.00     0.120 C 
HETATM    9 CL9  UNL     1     -32.821  10.171  -0.564  1.00 20.00    -0.130 Cl
ENDBRANCH   2   8
TORSDOF 2
ENDMDL
MODEL 2
REMARK VINA RESULT:      -0.1      1.406      1.983
REMARK  2 active torsions:
REMARK  status: ('A' for Active; 'I' for Inactive)
REMARK    1  A    between atoms: C2_2  and  C7_7 
REMARK    2  A    between atoms: C3_3  and  C8_8 
ROOT
HETATM    1  C1  UNL     1     -31.538   5.692   1.598  1.00 20.00     0.016 A 
HETATM    2  C2  UNL     1     -32.231   6.965   1.202  1.00 20.00     0.009 A 
HETATM    3  C3  UNL     1     -33.042   5.811   1.788  1.00 20.00    -0.036 A 
HETATM    4  C4  UNL     1     -33.933   5.047   0.845  1.00 20.00     0.016 C 
ENDROOT
BRANCH   3   5
HETATM    5  C8  UNL     1     -33.573   5.901   3.194  1.00 20.00    -0.014 C 
HETATM    6  C5  UNL     1     -34.830   6.780   3.261  1.00 20.00     0.010 C 
HETATM    7  C6  UNL     1     -33.881   4.510   3.765  1.00 20.00     0.010 C 
ENDBRANCH   3   5
BRANCH   2   8
HETATM    8  C7  UNL     1     -31.970   8.227   1.950  1.00 20.00     0.120 C 
HETATM    9 CL9  UNL     1     -32.315   9.660   0.943  1.00 20.00    -0.130 Cl
ENDBRANCH   2   8
TORSDOF 2
ENDMDL
MODEL 3
REMARK VINA RESULT:      -0.1      2.204      3.367
REMARK  2 active torsions:
REMARK  status: ('A' for Active; 'I' for Inactive)
REMARK    1  A    between atoms: C2_2  and  C7_7 
REMARK    2  A    between atoms: C3_3  and  C8_8 
ROOT
HETATM    1  C1  UNL     1     -34.769   7.229   2.804  1.00 20.00     0.016 A 
HETATM    2  C2  UNL     1     -34.080   7.561   4.098  1.00 20.00     0.009 A 
HETATM    3  C3  UNL     1     -34.430   6.109   3.775  1.00 20.00    -0.036 A 
HETATM    4  C4  UNL     1     -35.559   5.485   4.550  1.00 20.00     0.016 C 
ENDROOT
BRANCH   3   5
HETATM    5  C8  UNL     1     -33.344   5.140   3.387  1.00 20.00    -0.014 C 
HETATM    6  C5  UNL     1     -33.643   3.728   3.909  1.00 20.00     0.010 C 
HETATM    7  C6  UNL     1     -33.150   5.100   1.865  1.00 20.00     0.010 C 
ENDBRANCH   3   5
BRANCH   2   8
HETATM    8  C7  UNL     1     -32.679   8.070   4.093  1.00 20.00     0.120 C 
HETATM    9 CL9  UNL     1     -32.086   8.318   2.428  1.00 20.00    -0.130 Cl
ENDBRANCH   2   8
TORSDOF 2
ENDMDL
MODEL 4
REMARK VINA RESULT:       0.2      2.675      3.853
REMARK  2 active torsions:
REMARK  status: ('A' for Active; 'I' for Inactive)
REMARK    1  A    between atoms: C2_2  and  C7_7 
REMARK    2  A    between atoms: C3_3  and  C8_8 
ROOT
HETATM    1  C1  UNL     1     -33.848   6.098   1.139  1.00 20.00     0.016 A 
HETATM    2  C2  UNL     1     -33.556   5.920   2.602  1.00 20.00     0.009 A 
HETATM    3  C3  UNL     1     -32.531   6.607   1.701  1.00 20.00    -0.036 A 
HETATM    4  C4  UNL     1     -31.280   5.837   1.370  1.00 20.00     0.016 C 
ENDROOT
BRANCH   3   5
HETATM    5  C8  UNL     1     -32.328   8.096   1.791  1.00 20.00    -0.014 C 
HETATM    6  C5  UNL     1     -31.238   8.451   2.812  1.00 20.00     0.010 C 
HETATM    7  C6  UNL     1     -31.971   8.695   0.423  1.00 20.00     0.010 C 
ENDBRANCH   3   5
BRANCH   2   8
HETATM    8  C7  UNL     1     -34.353   6.657   3.622  1.00 20.00     0.120 C 
HETATM    9 CL9  UNL     1     -35.516   5.577   4.439  1.00 20.00    -0.130 Cl
ENDBRANCH   2   8
TORSDOF 2
ENDMDL
MODEL 5
REMARK VINA RESULT:       0.2      2.644      3.904
REMARK  2 active torsions:
REMARK  status: ('A' for Active; 'I' for Inactive)
REMARK    1  A    between atoms: C2_2  and  C7_7 
REMARK    2  A    between atoms: C3_3  and  C8_8 
ROOT
HETATM    1  C1  UNL     1     -32.906   7.151   3.987  1.00 20.00     0.016 A 
HETATM    2  C2  UNL     1     -34.252   7.457   3.394  1.00 20.00     0.009 A 
HETATM    3  C3  UNL     1     -33.077   7.125   2.476  1.00 20.00    -0.036 A 
HETATM    4  C4  UNL     1     -32.484   8.258   1.681  1.00 20.00     0.016 C 
ENDROOT
BRANCH   3   5
HETATM    5  C8  UNL     1     -33.019   5.792   1.779  1.00 20.00    -0.014 C 
HETATM    6  C5  UNL     1     -33.696   5.851   0.403  1.00 20.00     0.010 C 
HETATM    7  C6  UNL     1     -31.572   5.305   1.625  1.00 20.00     0.010 C 
ENDBRANCH   3   5
BRANCH   2   8
HETATM    8  C7  UNL     1     -35.396   6.525   3.607  1.00 20.00     0.120 C 
HETATM    9 CL9  UNL     1     -34.870   5.035   4.438  1.00 20.00    -0.130 Cl
ENDBRANCH   2   8
TORSDOF 2
ENDMDL
MODEL 6
REMARK VINA RESULT:       0.4      3.372      4.697
REMARK  2 active torsions:
REMARK  status: ('A' for Active; 'I' for Inactive)
REMARK    1  A    between atoms: C2_2  and  C7_7 
REMARK    2  A    between atoms: C3_3  and  C8_8 
ROOT
HETATM    1  C1  UNL     1     -35.113   5.349   4.936  1.00 20.00     0.016 A 
HETATM    2  C2  UNL     1     -34.597   4.726   3.669  1.00 20.00     0.009 A 
HETATM    3  C3  UNL     1     -34.739   6.245   3.765  1.00 20.00    -0.036 A 
HETATM    4  C4  UNL     1     -35.856   6.882   2.982  1.00 20.00     0.016 C 
ENDROOT
BRANCH   3   5
HETATM    5  C8  UNL     1     -33.513   7.109   3.899  1.00 20.00    -0.014 C 
HETATM    6  C5  UNL     1     -33.063   7.654   2.536  1.00 20.00     0.010 C 
HETATM    7  C6  UNL     1     -33.754   8.273   4.869  1.00 20.00     0.010 C 
ENDBRANCH   3   5
BRANCH   2   8
HETATM    8  C7  UNL     1     -33.274   4.041   3.655  1.00 20.00     0.120 C 
HETATM    9 CL9  UNL     1     -33.171   2.806   4.939  1.00 20.00    -0.130 Cl
ENDBRANCH   2   8
TORSDOF 2
ENDMDL
MODEL 7
REMARK VINA RESULT:       0.4      3.213      4.074
REMARK  2 active torsions:
REMARK  status: ('A' for Active; 'I' for Inactive)
REMARK    1  A    between atoms: C2_2  and  C7_7 
REMARK    2  A    between atoms: C3_3  and  C8_8 
ROOT
HETATM    1  C1  UNL     1     -33.777   5.457   1.729  1.00 20.00     0.016 A 
HETATM    2  C2  UNL     1     -33.086   5.042   2.997  1.00 20.00     0.009 A 
HETATM    3  C3  UNL     1     -33.271   6.526   2.685  1.00 20.00    -0.036 A 
HETATM    4  C4  UNL     1     -32.044   7.302   2.285  1.00 20.00     0.016 C 
ENDROOT
BRANCH   3   5
HETATM    5  C8  UNL     1     -34.288   7.335   3.445  1.00 20.00    -0.014 C 
HETATM    6  C5  UNL     1     -35.499   6.480   3.840  1.00 20.00     0.010 C 
HETATM    7  C6  UNL     1     -33.671   7.972   4.697  1.00 20.00     0.010 C 
ENDBRANCH   3   5
BRANCH   2   8
HETATM    8  C7  UNL     1     -33.847   4.346   4.074  1.00 20.00     0.120 C 
HETATM    9 CL9  UNL     1     -32.959   2.918   4.673  1.00 20.00    -0.130 Cl
ENDBRANCH   2   8
TORSDOF 2
ENDMDL
MODEL 8
REMARK VINA RESULT:       0.6      1.291      2.419
REMARK  2 active torsions:
REMARK  status: ('A' for Active; 'I' for Inactive)
REMARK    1  A    between atoms: C2_2  and  C7_7 
REMARK    2  A    between atoms: C3_3  and  C8_8 
ROOT
HETATM    1  C1  UNL     1     -33.832   8.900   2.906  1.00 20.00     0.016 A 
HETATM    2  C2  UNL     1     -32.469   8.274   2.807  1.00 20.00     0.009 A 
HETATM    3  C3  UNL     1     -33.539   7.627   3.684  1.00 20.00    -0.036 A 
HETATM    4  C4  UNL     1     -33.365   7.738   5.176  1.00 20.00     0.016 C 
ENDROOT
BRANCH   3   5
HETATM    5  C8  UNL     1     -34.210   6.354   3.239  1.00 20.00    -0.014 C 
HETATM    6  C5  UNL     1     -33.318   5.132   3.498  1.00 20.00     0.010 C 
HETATM    7  C6  UNL     1     -35.565   6.165   3.935  1.00 20.00     0.010 C 
ENDBRANCH   3   5
BRANCH   2   8
HETATM    8  C7  UNL     1     -32.011   7.674   1.522  1.00 20.00     0.120 C 
HETATM    9 CL9  UNL     1     -31.936   8.899   0.225  1.00 20.00    -0.130 Cl
ENDBRANCH   2   8
TORSDOF 2
ENDMDL
MODEL 9
REMARK VINA RESULT:       0.7      1.967      2.927
REMARK  2 active torsions:
REMARK  status: ('A' for Active; 'I' for Inactive)
REMARK    1  A    between atoms: C2_2  and  C7_7 
REMARK    2  A    between atoms: C3_3  and  C8_8 
ROOT
HETATM    1  C1  UNL     1     -33.284   7.820   1.817  1.00 20.00     0.016 A 
HETATM    2  C2  UNL     1     -32.155   6.888   2.154  1.00 20.00     0.009 A 
HETATM    3  C3  UNL     1     -33.323   7.048   3.127  1.00 20.00    -0.036 A 
HETATM    4  C4  UNL     1     -33.059   7.808   4.399  1.00 20.00     0.016 C 
ENDROOT
BRANCH   3   5
HETATM    5  C8  UNL     1     -34.340   5.947   3.270  1.00 20.00    -0.014 C 
HETATM    6  C5  UNL     1     -33.748   4.731   3.996  1.00 20.00     0.010 C 
HETATM    7  C6  UNL     1     -35.591   6.436   4.013  1.00 20.00     0.010 C 
ENDBRANCH   3   5
BRANCH   2   8
HETATM    8  C7  UNL     1     -31.939   5.649   1.354  1.00 20.00     0.120 C 
HETATM    9 CL9  UNL     1     -33.340   5.306   0.302  1.00 20.00    -0.130 Cl
ENDBRANCH   2   8
TORSDOF 2
ENDMDL
