MODEL 1
REMARK VINA RESULT:      -2.3      0.000      0.000
REMARK  2 active torsions:
REMARK  status: ('A' for Active; 'I' for Inactive)
REMARK    1  A    between atoms: C5_5  and  C6_6 
REMARK    2  A    between atoms: C7_7  and  C8_8 
ROOT
HETATM    1  C4  UNL     1     -34.274   7.480   4.234  1.00 20.00     0.011 A 
HETATM    2  C6  UNL     1     -33.580   6.575   3.258  1.00 20.00    -0.005 A 
HETATM    3  C7  UNL     1     -34.981   6.261   3.702  1.00 20.00     0.004 A 
ENDROOT
BRANCH   2   4
HETATM    4  C5  UNL     1     -33.246   7.001   1.836  1.00 20.00    -0.010 C 
HETATM    5  C2  UNL     1     -31.973   6.370   1.219  1.00 20.00     0.005 C 
HETATM    6  C1  UNL     1     -31.200   7.629   1.659  1.00 20.00     0.001 C 
HETATM    7  C3  UNL     1     -32.548   8.375   1.685  1.00 20.00     0.005 C 
ENDBRANCH   2   4
BRANCH   3   8
HETATM    8  C8  UNL     1     -35.235   5.094   4.589  1.00 20.00     0.119 C 
HETATM    9 CL9  UNL     1     -33.995   3.828   4.366  1.00 20.00    -0.130 Cl
ENDBRANCH   3   8
TORSDOF 2
ENDMDL
MODEL 2
REMARK VINA RESULT:      -1.7      0.937      1.247
REMARK  2 active torsions:
REMARK  status: ('A' for Active; 'I' for Inactive)
REMARK    1  A    between atoms: C5_5  and  C6_6 
REMARK    2  A    between atoms: C7_7  and  C8_8 
ROOT
HETATM    1  C4  UNL     1     -35.275   6.466   3.958  1.00 20.00     0.011 A 
HETATM    2  C6  UNL     1     -33.861   6.373   3.460  1.00 20.00    -0.005 A 
HETATM    3  C7  UNL     1     -34.639   5.118   3.736  1.00 20.00     0.004 A 
ENDROOT
BRANCH   2   4
HETATM    4  C5  UNL     1     -33.454   6.795   2.056  1.00 20.00    -0.010 C 
HETATM    5  C2  UNL     1     -33.131   5.646   1.069  1.00 20.00     0.005 C 
HETATM    6  C1  UNL     1     -31.644   5.822   1.433  1.00 20.00     0.001 C 
HETATM    7  C3  UNL     1     -31.986   7.256   1.885  1.00 20.00     0.005 C 
ENDBRANCH   2   4
BRANCH   3   8
HETATM    8  C8  UNL     1     -34.278   4.258   4.896  1.00 20.00     0.119 C 
HETATM    9 CL9  UNL     1     -33.180   2.937   4.407  1.00 20.00    -0.130 Cl
ENDBRANCH   3   8
TORSDOF 2
ENDMDL
MODEL 3
REMARK VINA RESULT:      -1.5      1.358      2.500
REMARK  2 active torsions:
REMARK  status: ('A' for Active; 'I' for Inactive)
REMARK    1  A    between atoms: C5_5  and  C6_6 
REMARK    2  A    between atoms: C7_7  and  C8_8 
ROOT
HETATM    1  C4  UNL     1     -32.719   6.121   1.697  1.00 20.00     0.011 A 
HETATM    2  C6  UNL     1     -33.101   7.573   1.687  1.00 20.00    -0.005 A 
HETATM    3  C7  UNL     1     -33.172   6.791   2.968  1.00 20.00     0.004 A 
ENDROOT
BRANCH   2   4
HETATM    4  C5  UNL     1     -32.090   8.687   1.461  1.00 20.00    -0.010 C 
HETATM    5  C2  UNL     1     -32.680  10.092   1.181  1.00 20.00     0.005 C 
HETATM    6  C1  UNL     1     -32.526   9.799  -0.324  1.00 20.00     0.001 C 
HETATM    7  C3  UNL     1     -31.457   8.754   0.049  1.00 20.00     0.005 C 
ENDBRANCH   2   4
BRANCH   3   8
HETATM    8  C8  UNL     1     -34.495   6.457   3.562  1.00 20.00     0.119 C 
HETATM    9 CL9  UNL     1     -34.521   4.783   4.185  1.00 20.00    -0.130 Cl
ENDBRANCH   3   8
TORSDOF 2
ENDMDL
MODEL 4
REMARK VINA RESULT:      -0.8      2.901      4.492
REMARK  2 active torsions:
REMARK  status: ('A' for Active; 'I' for Inactive)
REMARK    1  A    between atoms: C5_5  and  C6_6 
REMARK    2  A    between atoms: C7_7  and  C8_8 
ROOT
HETATM    1  C4  UNL     1     -31.743   7.354   1.434  1.00 20.00     0.011 A 
HETATM    2  C6  UNL     1     -32.170   7.975   2.733  1.00 20.00    -0.005 A 
HETATM    3  C7  UNL     1     -32.772   8.455   1.443  1.00 20.00     0.004 A 
ENDROOT
BRANCH   2   4
HETATM    4  C5  UNL     1     -32.972   7.219   3.781  1.00 20.00    -0.010 C 
HETATM    5  C2  UNL     1     -33.867   6.070   3.254  1.00 20.00     0.005 C 
HETATM    6  C1  UNL     1     -35.043   7.066   3.233  1.00 20.00     0.001 C 
HETATM    7  C3  UNL     1     -34.271   7.907   4.269  1.00 20.00     0.005 C 
ENDBRANCH   2   4
BRANCH   3   8
HETATM    8  C8  UNL     1     -32.430   9.805   0.920  1.00 20.00     0.119 C 
HETATM    9 CL9  UNL     1     -32.847   9.955  -0.810  1.00 20.00    -0.130 Cl
ENDBRANCH   3   8
TORSDOF 2
ENDMDL
MODEL 5
REMARK VINA RESULT:      -0.8      2.595      4.496
REMARK  2 active torsions:
REMARK  status: ('A' for Active; 'I' for Inactive)
REMARK    1  A    between atoms: C5_5  and  C6_6 
REMARK    2  A    between atoms: C7_7  and  C8_8 
ROOT
HETATM    1  C4  UNL     1     -32.010   5.807   1.478  1.00 20.00     0.011 A 
HETATM    2  C6  UNL     1     -32.944   6.292   2.548  1.00 20.00    -0.005 A 
HETATM    3  C7  UNL     1     -32.650   7.166   1.363  1.00 20.00     0.004 A 
ENDROOT
BRANCH   2   4
HETATM    4  C5  UNL     1     -34.311   5.669   2.790  1.00 20.00    -0.010 C 
HETATM    5  C2  UNL     1     -35.395   6.615   3.365  1.00 20.00     0.005 C 
HETATM    6  C1  UNL     1     -35.033   6.092   4.768  1.00 20.00     0.001 C 
HETATM    7  C3  UNL     1     -34.457   4.835   4.087  1.00 20.00     0.005 C 
ENDBRANCH   2   4
BRANCH   3   8
HETATM    8  C8  UNL     1     -31.831   8.397   1.532  1.00 20.00     0.119 C 
HETATM    9 CL9  UNL     1     -32.291   9.648   0.343  1.00 20.00    -0.130 Cl
ENDBRANCH   3   8
TORSDOF 2
ENDMDL
MODEL 6
REMARK VINA RESULT:      -0.7      2.078      3.992
REMARK  2 active torsions:
REMARK  status: ('A' for Active; 'I' for Inactive)
REMARK    1  A    between atoms: C5_5  and  C6_6 
REMARK    2  A    between atoms: C7_7  and  C8_8 
ROOT
HETATM    1  C4  UNL     1     -32.049   6.904   1.396  1.00 20.00     0.011 A 
HETATM    2  C6  UNL     1     -33.227   6.227   2.034  1.00 20.00    -0.005 A 
HETATM    3  C7  UNL     1     -32.119   5.400   1.447  1.00 20.00     0.004 A 
ENDROOT
BRANCH   2   4
HETATM    4  C5  UNL     1     -33.500   6.290   3.530  1.00 20.00    -0.010 C 
HETATM    5  C2  UNL     1     -34.544   5.281   4.072  1.00 20.00     0.005 C 
HETATM    6  C1  UNL     1     -35.605   6.391   3.944  1.00 20.00     0.001 C 
HETATM    7  C3  UNL     1     -34.455   7.416   3.999  1.00 20.00     0.005 C 
ENDBRANCH   2   4
BRANCH   3   8
HETATM    8  C8  UNL     1     -32.355   4.617   0.203  1.00 20.00     0.119 C 
HETATM    9 CL9  UNL     1     -30.897   3.702  -0.272  1.00 20.00    -0.130 Cl
ENDBRANCH   3   8
TORSDOF 2
ENDMDL
MODEL 7
REMARK VINA RESULT:      -0.3      2.365      3.218
REMARK  2 active torsions:
REMARK  status: ('A' for Active; 'I' for Inactive)
REMARK    1  A    between atoms: C5_5  and  C6_6 
REMARK    2  A    between atoms: C7_7  and  C8_8 
ROOT
HETATM    1  C4  UNL     1     -32.788   7.909   2.989  1.00 20.00     0.011 A 
HETATM    2  C6  UNL     1     -31.799   7.936   1.861  1.00 20.00    -0.005 A 
HETATM    3  C7  UNL     1     -33.096   7.196   1.699  1.00 20.00     0.004 A 
ENDROOT
BRANCH   2   4
HETATM    4  C5  UNL     1     -31.474   9.201   1.082  1.00 20.00    -0.010 C 
HETATM    5  C2  UNL     1     -32.648  10.190   0.871  1.00 20.00     0.005 C 
HETATM    6  C1  UNL     1     -32.883   9.537  -0.504  1.00 20.00     0.001 C 
HETATM    7  C3  UNL     1     -31.419   9.055  -0.459  1.00 20.00     0.005 C 
ENDBRANCH   2   4
BRANCH   3   8
HETATM    8  C8  UNL     1     -33.102   5.708   1.647  1.00 20.00     0.119 C 
HETATM    9 CL9  UNL     1     -31.584   5.078   0.947  1.00 20.00    -0.130 Cl
ENDBRANCH   3   8
TORSDOF 2
ENDMDL
MODEL 8
REMARK VINA RESULT:      -0.2      2.632      4.523
REMARK  2 active torsions:
REMARK  status: ('A' for Active; 'I' for Inactive)
REMARK    1  A    between atoms: C5_5  and  C6_6 
REMARK    2  A    between atoms: C7_7  and  C8_8 
ROOT
HETATM    1  C4  UNL     1     -32.210   5.527   1.185  1.00 20.00     0.011 A 
HETATM    2  C6  UNL     1     -32.765   5.489   2.579  1.00 20.00    -0.005 A 
HETATM    3  C7  UNL     1     -32.946   6.720   1.738  1.00 20.00     0.004 A 
ENDROOT
BRANCH   2   4
HETATM    4  C5  UNL     1     -33.926   4.589   2.977  1.00 20.00    -0.010 C 
HETATM    5  C2  UNL     1     -34.737   5.037   4.219  1.00 20.00     0.005 C 
HETATM    6  C1  UNL     1     -33.861   4.094   5.066  1.00 20.00     0.001 C 
HETATM    7  C3  UNL     1     -33.554   3.313   3.773  1.00 20.00     0.005 C 
ENDBRANCH   2   4
BRANCH   3   8
HETATM    8  C8  UNL     1     -32.207   7.967   2.077  1.00 20.00     0.119 C 
HETATM    9 CL9  UNL     1     -32.300   9.156   0.748  1.00 20.00    -0.130 Cl
ENDBRANCH   3   8
TORSDOF 2
ENDMDL
MODEL 9
REMARK VINA RESULT:       0.3      3.277      4.383
REMARK  2 active torsions:
REMARK  status: ('A' for Active; 'I' for Inactive)
REMARK    1  A    between atoms: C5_5  and  C6_6 
REMARK    2  A    between atoms: C7_7  and  C8_8 
ROOT
HETATM    1  C4  UNL     1     -31.381   8.021   2.229  1.00 20.00     0.011 A 
HETATM    2  C6  UNL     1     -32.861   7.787   2.135  1.00 20.00    -0.005 A 
HETATM    3  C7  UNL     1     -32.146   8.499   1.022  1.00 20.00     0.004 A 
ENDROOT
BRANCH   2   4
HETATM    4  C5  UNL     1     -33.466   6.402   1.967  1.00 20.00    -0.010 C 
HETATM    5  C2  UNL     1     -32.726   5.246   2.686  1.00 20.00     0.005 C 
HETATM    6  C1  UNL     1     -31.991   4.963   1.361  1.00 20.00     0.001 C 
HETATM    7  C3  UNL     1     -33.147   5.678   0.635  1.00 20.00     0.005 C 
ENDBRANCH   2   4
BRANCH   3   8
HETATM    8  C8  UNL     1     -32.370   9.954   0.804  1.00 20.00     0.119 C 
HETATM    9 CL9  UNL     1     -32.997  10.274  -0.837  1.00 20.00    -0.130 Cl
ENDBRANCH   3   8
TORSDOF 2
ENDMDL
