MODEL 1
REMARK VINA RESULT:      -0.9      0.000      0.000
REMARK  2 active torsions:
REMARK  status: ('A' for Active; 'I' for Inactive)
REMARK    1  A    between atoms: C4_4  and  C6_6 
REMARK    2  A    between atoms: C7_7  and  C8_8 
ROOT
HETATM    1  C1  UNL     1     -32.378  10.068   1.348  1.00 20.00     0.034 A 
HETATM    2  C2  UNL     1     -32.808  10.814   0.274  1.00 20.00     0.142 A 
HETATM    3  C3  UNL     1     -32.625   8.765  -0.446  1.00 20.00     0.148 A 
HETATM    4  C4  UNL     1     -32.259   8.737   0.879  1.00 20.00    -0.029 A 
HETATM    5  O9  UNL     1     -32.961  10.027  -0.822  1.00 20.00    -0.334 OA
ENDROOT
BRANCH   4   6
HETATM    6  C6  UNL     1     -31.811   7.507   1.686  1.00 20.00     0.026 A 
HETATM    7  C5  UNL     1     -32.566   6.209   1.504  1.00 20.00     0.016 A 
HETATM    8  C7  UNL     1     -32.681   6.955   2.800  1.00 20.00     0.005 A 
BRANCH   8   9
HETATM    9  C8  UNL     1     -33.976   7.583   3.190  1.00 20.00     0.090 C 
HETATM   10 BR10 UNL     1     -35.162   6.255   3.989  1.00 20.00    -0.096 Br
ENDBRANCH   8   9
ENDBRANCH   4   6
TORSDOF 2
ENDMDL
MODEL 2
REMARK VINA RESULT:      -0.7      3.395      4.650
REMARK  2 active torsions:
REMARK  status: ('A' for Active; 'I' for Inactive)
REMARK    1  A    between atoms: C4_4  and  C6_6 
REMARK    2  A    between atoms: C7_7  and  C8_8 
ROOT
HETATM    1  C1  UNL     1     -34.541   6.786   3.218  1.00 20.00     0.034 A 
HETATM    2  C2  UNL     1     -35.199   6.360   4.348  1.00 20.00     0.142 A 
HETATM    3  C3  UNL     1     -34.137   4.621   3.574  1.00 20.00     0.148 A 
HETATM    4  C4  UNL     1     -33.851   5.657   2.715  1.00 20.00    -0.029 A 
HETATM    5  O9  UNL     1     -34.956   5.042   4.572  1.00 20.00    -0.334 OA
ENDROOT
BRANCH   4   6
HETATM    6  C6  UNL     1     -32.964   5.596   1.460  1.00 20.00     0.026 A 
HETATM    7  C5  UNL     1     -31.462   5.549   1.639  1.00 20.00     0.016 A 
HETATM    8  C7  UNL     1     -32.099   6.780   1.068  1.00 20.00     0.005 A 
BRANCH   8   9
HETATM    9  C8  UNL     1     -32.090   8.055   1.841  1.00 20.00     0.090 C 
HETATM   10 BR10 UNL     1     -32.284   9.581   0.639  1.00 20.00    -0.096 Br
ENDBRANCH   8   9
ENDBRANCH   4   6
TORSDOF 2
ENDMDL
MODEL 3
REMARK VINA RESULT:      -0.7      0.676      1.196
REMARK  2 active torsions:
REMARK  status: ('A' for Active; 'I' for Inactive)
REMARK    1  A    between atoms: C4_4  and  C6_6 
REMARK    2  A    between atoms: C7_7  and  C8_8 
ROOT
HETATM    1  C1  UNL     1     -32.413   8.921  -0.346  1.00 20.00     0.034 A 
HETATM    2  C2  UNL     1     -32.695  10.263  -0.456  1.00 20.00     0.142 A 
HETATM    3  C3  UNL     1     -32.377   9.883   1.667  1.00 20.00     0.148 A 
HETATM    4  C4  UNL     1     -32.206   8.675   1.033  1.00 20.00    -0.029 A 
HETATM    5  O9  UNL     1     -32.674  10.856   0.766  1.00 20.00    -0.334 OA
ENDROOT
BRANCH   4   6
HETATM    6  C6  UNL     1     -31.862   7.328   1.692  1.00 20.00     0.026 A 
HETATM    7  C5  UNL     1     -32.741   6.133   1.394  1.00 20.00     0.016 A 
HETATM    8  C7  UNL     1     -32.761   6.741   2.765  1.00 20.00     0.005 A 
BRANCH   8   9
HETATM    9  C8  UNL     1     -33.983   7.441   3.255  1.00 20.00     0.090 C 
HETATM   10 BR10 UNL     1     -35.236   6.160   4.030  1.00 20.00    -0.096 Br
ENDBRANCH   8   9
ENDBRANCH   4   6
TORSDOF 2
ENDMDL
MODEL 4
REMARK VINA RESULT:      -0.3      3.050      4.423
REMARK  2 active torsions:
REMARK  status: ('A' for Active; 'I' for Inactive)
REMARK    1  A    between atoms: C4_4  and  C6_6 
REMARK    2  A    between atoms: C7_7  and  C8_8 
ROOT
HETATM    1  C1  UNL     1     -34.330   5.975   2.968  1.00 20.00     0.034 A 
HETATM    2  C2  UNL     1     -35.115   6.334   4.040  1.00 20.00     0.142 A 
HETATM    3  C3  UNL     1     -33.524   7.820   3.930  1.00 20.00     0.148 A 
HETATM    4  C4  UNL     1     -33.297   6.941   2.897  1.00 20.00    -0.029 A 
HETATM    5  O9  UNL     1     -34.631   7.458   4.630  1.00 20.00    -0.334 OA
ENDROOT
BRANCH   4   6
HETATM    6  C6  UNL     1     -32.150   6.996   1.874  1.00 20.00     0.026 A 
HETATM    7  C5  UNL     1     -30.975   7.908   2.155  1.00 20.00     0.016 A 
HETATM    8  C7  UNL     1     -31.919   8.242   1.039  1.00 20.00     0.005 A 
BRANCH   8   9
HETATM    9  C8  UNL     1     -32.797   9.444   1.136  1.00 20.00     0.090 C 
HETATM   10 BR10 UNL     1     -32.759  10.450  -0.536  1.00 20.00    -0.096 Br
ENDBRANCH   8   9
ENDBRANCH   4   6
TORSDOF 2
ENDMDL
MODEL 5
REMARK VINA RESULT:      -0.1      2.638      3.715
REMARK  2 active torsions:
REMARK  status: ('A' for Active; 'I' for Inactive)
REMARK    1  A    between atoms: C4_4  and  C6_6 
REMARK    2  A    between atoms: C7_7  and  C8_8 
ROOT
HETATM    1  C1  UNL     1     -32.637   6.260   1.548  1.00 20.00     0.034 A 
HETATM    2  C2  UNL     1     -31.647   7.212   1.477  1.00 20.00     0.142 A 
HETATM    3  C3  UNL     1     -32.991   7.852   3.070  1.00 20.00     0.148 A 
HETATM    4  C4  UNL     1     -33.510   6.675   2.583  1.00 20.00    -0.029 A 
HETATM    5  O9  UNL     1     -31.855   8.186   2.402  1.00 20.00    -0.334 OA
ENDROOT
BRANCH   4   6
HETATM    6  C6  UNL     1     -34.782   5.959   3.066  1.00 20.00     0.026 A 
HETATM    7  C5  UNL     1     -35.249   6.194   4.485  1.00 20.00     0.016 A 
HETATM    8  C7  UNL     1     -34.701   4.853   4.101  1.00 20.00     0.005 A 
BRANCH   8   9
HETATM    9  C8  UNL     1     -33.404   4.384   4.669  1.00 20.00     0.090 C 
HETATM   10 BR10 UNL     1     -33.248   2.445   4.498  1.00 20.00    -0.096 Br
ENDBRANCH   8   9
ENDBRANCH   4   6
TORSDOF 2
ENDMDL
MODEL 6
REMARK VINA RESULT:      -0.0      2.557      3.554
REMARK  2 active torsions:
REMARK  status: ('A' for Active; 'I' for Inactive)
REMARK    1  A    between atoms: C4_4  and  C6_6 
REMARK    2  A    between atoms: C7_7  and  C8_8 
ROOT
HETATM    1  C1  UNL     1     -32.950   7.836   2.952  1.00 20.00     0.034 A 
HETATM    2  C2  UNL     1     -31.807   8.031   2.212  1.00 20.00     0.142 A 
HETATM    3  C3  UNL     1     -32.637   6.127   1.553  1.00 20.00     0.148 A 
HETATM    4  C4  UNL     1     -33.490   6.599   2.523  1.00 20.00    -0.029 A 
HETATM    5  O9  UNL     1     -31.610   6.994   1.357  1.00 20.00    -0.334 OA
ENDROOT
BRANCH   4   6
HETATM    6  C6  UNL     1     -34.769   5.918   3.039  1.00 20.00     0.026 A 
HETATM    7  C5  UNL     1     -35.221   6.207   4.453  1.00 20.00     0.016 A 
HETATM    8  C7  UNL     1     -34.695   4.845   4.109  1.00 20.00     0.005 A 
BRANCH   8   9
HETATM    9  C8  UNL     1     -33.401   4.376   4.683  1.00 20.00     0.090 C 
HETATM   10 BR10 UNL     1     -33.254   2.436   4.531  1.00 20.00    -0.096 Br
ENDBRANCH   8   9
ENDBRANCH   4   6
TORSDOF 2
ENDMDL
MODEL 7
REMARK VINA RESULT:       0.2      3.322      4.891
REMARK  2 active torsions:
REMARK  status: ('A' for Active; 'I' for Inactive)
REMARK    1  A    between atoms: C4_4  and  C6_6 
REMARK    2  A    between atoms: C7_7  and  C8_8 
ROOT
HETATM    1  C1  UNL     1     -34.072   4.356   3.794  1.00 20.00     0.034 A 
HETATM    2  C2  UNL     1     -34.896   4.818   4.794  1.00 20.00     0.142 A 
HETATM    3  C3  UNL     1     -34.683   6.462   3.379  1.00 20.00     0.148 A 
HETATM    4  C4  UNL     1     -33.934   5.424   2.874  1.00 20.00    -0.029 A 
HETATM    5  O9  UNL     1     -35.273   6.100   4.548  1.00 20.00    -0.334 OA
ENDROOT
BRANCH   4   6
HETATM    6  C6  UNL     1     -33.112   5.428   1.574  1.00 20.00     0.026 A 
HETATM    7  C5  UNL     1     -31.607   5.545   1.672  1.00 20.00     0.016 A 
HETATM    8  C7  UNL     1     -32.402   6.687   1.113  1.00 20.00     0.005 A 
BRANCH   8   9
HETATM    9  C8  UNL     1     -32.489   7.974   1.860  1.00 20.00     0.090 C 
HETATM   10 BR10 UNL     1     -32.055   9.472   0.687  1.00 20.00    -0.096 Br
ENDBRANCH   8   9
ENDBRANCH   4   6
TORSDOF 2
ENDMDL
MODEL 8
REMARK VINA RESULT:       0.7      1.645      2.415
REMARK  2 active torsions:
REMARK  status: ('A' for Active; 'I' for Inactive)
REMARK    1  A    between atoms: C4_4  and  C6_6 
REMARK    2  A    between atoms: C7_7  and  C8_8 
ROOT
HETATM    1  C1  UNL     1     -32.883   9.424   1.223  1.00 20.00     0.034 A 
HETATM    2  C2  UNL     1     -31.799   9.172   0.415  1.00 20.00     0.142 A 
HETATM    3  C3  UNL     1     -31.787   7.621   1.945  1.00 20.00     0.148 A 
HETATM    4  C4  UNL     1     -32.875   8.416   2.217  1.00 20.00    -0.029 A 
HETATM    5  O9  UNL     1     -31.127   8.074   0.848  1.00 20.00    -0.334 OA
ENDROOT
BRANCH   4   6
HETATM    6  C6  UNL     1     -33.878   8.244   3.371  1.00 20.00     0.026 A 
HETATM    7  C5  UNL     1     -33.398   7.607   4.656  1.00 20.00     0.016 A 
HETATM    8  C7  UNL     1     -34.359   6.863   3.777  1.00 20.00     0.005 A 
BRANCH   8   9
HETATM    9  C8  UNL     1     -33.922   5.625   3.071  1.00 20.00     0.090 C 
HETATM   10 BR10 UNL     1     -34.036   4.085   4.266  1.00 20.00    -0.096 Br
ENDBRANCH   8   9
ENDBRANCH   4   6
TORSDOF 2
ENDMDL
MODEL 9
REMARK VINA RESULT:       0.9      1.507      2.430
REMARK  2 active torsions:
REMARK  status: ('A' for Active; 'I' for Inactive)
REMARK    1  A    between atoms: C4_4  and  C6_6 
REMARK    2  A    between atoms: C7_7  and  C8_8 
ROOT
HETATM    1  C1  UNL     1     -31.807   7.621   1.872  1.00 20.00     0.034 A 
HETATM    2  C2  UNL     1     -31.228   8.185   0.759  1.00 20.00     0.142 A 
HETATM    3  C3  UNL     1     -32.940   9.440   1.251  1.00 20.00     0.148 A 
HETATM    4  C4  UNL     1     -32.919   8.437   2.192  1.00 20.00    -0.029 A 
HETATM    5  O9  UNL     1     -31.912   9.294   0.375  1.00 20.00    -0.334 OA
ENDROOT
BRANCH   4   6
HETATM    6  C6  UNL     1     -33.908   8.242   3.354  1.00 20.00     0.026 A 
HETATM    7  C5  UNL     1     -33.401   7.619   4.636  1.00 20.00     0.016 A 
HETATM    8  C7  UNL     1     -34.349   6.849   3.766  1.00 20.00     0.005 A 
BRANCH   8   9
HETATM    9  C8  UNL     1     -33.887   5.621   3.059  1.00 20.00     0.090 C 
HETATM   10 BR10 UNL     1     -33.969   4.078   4.251  1.00 20.00    -0.096 Br
ENDBRANCH   8   9
ENDBRANCH   4   6
TORSDOF 2
ENDMDL
