MODEL 1
REMARK VINA RESULT:      -1.9      0.000      0.000
REMARK  3 active torsions:
REMARK  status: ('A' for Active; 'I' for Inactive)
REMARK    1  A    between atoms: C2_2  and  C6_6 
REMARK    2  A    between atoms: C3_3  and  C7_7 
REMARK    3  A    between atoms: C7_7  and  C8_8 
ROOT
HETATM    1  C1  UNL     1     -33.683   5.514   2.007  1.00 20.00     0.016 A 
HETATM    2  C2  UNL     1     -33.252   5.103   3.386  1.00 20.00     0.008 A 
HETATM    3  C3  UNL     1     -33.763   6.521   3.142  1.00 20.00    -0.039 A 
HETATM    4  C4  UNL     1     -35.126   6.925   3.637  1.00 20.00     0.015 C 
ENDROOT
BRANCH   3   5
HETATM    5  C7  UNL     1     -32.747   7.633   3.169  1.00 20.00     0.009 C 
BRANCH   5   6
HETATM    6  C8  UNL     1     -31.963   7.726   1.855  1.00 20.00    -0.004 C 
HETATM    7  C5  UNL     1     -32.324   8.972   1.063  1.00 20.00     0.005 C 
ENDBRANCH   5   6
ENDBRANCH   3   5
BRANCH   2   8
HETATM    8  C6  UNL     1     -34.031   4.085   4.145  1.00 20.00     0.120 C 
HETATM    9 CL9  UNL     1     -32.954   2.883   4.910  1.00 20.00    -0.130 Cl
ENDBRANCH   2   8
TORSDOF 3
ENDMDL
MODEL 2
REMARK VINA RESULT:      -1.8      3.203      4.810
REMARK  3 active torsions:
REMARK  status: ('A' for Active; 'I' for Inactive)
REMARK    1  A    between atoms: C2_2  and  C6_6 
REMARK    2  A    between atoms: C3_3  and  C7_7 
REMARK    3  A    between atoms: C7_7  and  C8_8 
ROOT
HETATM    1  C1  UNL     1     -31.416   7.244   1.723  1.00 20.00     0.016 A 
HETATM    2  C2  UNL     1     -32.492   8.136   1.175  1.00 20.00     0.008 A 
HETATM    3  C3  UNL     1     -32.649   7.525   2.566  1.00 20.00    -0.039 A 
HETATM    4  C4  UNL     1     -32.491   8.387   3.789  1.00 20.00     0.015 C 
ENDROOT
BRANCH   3   5
HETATM    5  C7  UNL     1     -33.661   6.420   2.721  1.00 20.00     0.009 C 
BRANCH   5   6
HETATM    6  C8  UNL     1     -34.720   6.756   3.778  1.00 20.00    -0.004 C 
HETATM    7  C5  UNL     1     -35.327   5.506   4.394  1.00 20.00     0.005 C 
ENDBRANCH   5   6
ENDBRANCH   3   5
BRANCH   2   8
HETATM    8  C6  UNL     1     -32.228   9.586   0.957  1.00 20.00     0.120 C 
HETATM    9 CL9  UNL     1     -32.846  10.126  -0.629  1.00 20.00    -0.130 Cl
ENDBRANCH   2   8
TORSDOF 3
ENDMDL
MODEL 3
REMARK VINA RESULT:      -1.7      1.700      2.332
REMARK  3 active torsions:
REMARK  status: ('A' for Active; 'I' for Inactive)
REMARK    1  A    between atoms: C2_2  and  C6_6 
REMARK    2  A    between atoms: C3_3  and  C7_7 
REMARK    3  A    between atoms: C7_7  and  C8_8 
ROOT
HETATM    1  C1  UNL     1     -33.042   7.170   4.287  1.00 20.00     0.016 A 
HETATM    2  C2  UNL     1     -34.343   7.525   3.625  1.00 20.00     0.008 A 
HETATM    3  C3  UNL     1     -33.070   7.414   2.787  1.00 20.00    -0.039 A 
HETATM    4  C4  UNL     1     -32.872   6.234   1.873  1.00 20.00     0.015 C 
ENDROOT
BRANCH   3   5
HETATM    5  C7  UNL     1     -32.473   8.696   2.271  1.00 20.00     0.009 C 
BRANCH   5   6
HETATM    6  C8  UNL     1     -32.121   8.607   0.782  1.00 20.00    -0.004 C 
HETATM    7  C5  UNL     1     -32.483   9.880   0.034  1.00 20.00     0.005 C 
ENDBRANCH   5   6
ENDBRANCH   3   5
BRANCH   2   8
HETATM    8  C6  UNL     1     -35.445   6.526   3.551  1.00 20.00     0.120 C 
HETATM    9 CL9  UNL     1     -35.037   5.043   4.460  1.00 20.00    -0.130 Cl
ENDBRANCH   2   8
TORSDOF 3
ENDMDL
MODEL 4
REMARK VINA RESULT:      -1.6      0.906      1.297
REMARK  3 active torsions:
REMARK  status: ('A' for Active; 'I' for Inactive)
REMARK    1  A    between atoms: C2_2  and  C6_6 
REMARK    2  A    between atoms: C3_3  and  C7_7 
REMARK    3  A    between atoms: C7_7  and  C8_8 
ROOT
HETATM    1  C1  UNL     1     -35.381   6.481   3.356  1.00 20.00     0.016 A 
HETATM    2  C2  UNL     1     -34.453   5.309   3.506  1.00 20.00     0.008 A 
HETATM    3  C3  UNL     1     -33.880   6.711   3.302  1.00 20.00    -0.039 A 
HETATM    4  C4  UNL     1     -33.231   7.433   4.453  1.00 20.00     0.015 C 
ENDROOT
BRANCH   3   5
HETATM    5  C7  UNL     1     -33.262   7.013   1.963  1.00 20.00     0.009 C 
BRANCH   5   6
HETATM    6  C8  UNL     1     -32.108   8.017   2.076  1.00 20.00    -0.004 C 
HETATM    7  C5  UNL     1     -32.118   9.025   0.939  1.00 20.00     0.005 C 
ENDBRANCH   5   6
ENDBRANCH   3   5
BRANCH   2   8
HETATM    8  C6  UNL     1     -34.363   4.583   4.803  1.00 20.00     0.120 C 
HETATM    9 CL9  UNL     1     -33.364   3.110   4.652  1.00 20.00    -0.130 Cl
ENDBRANCH   2   8
TORSDOF 3
ENDMDL
MODEL 5
REMARK VINA RESULT:      -1.3      2.326      4.141
REMARK  3 active torsions:
REMARK  status: ('A' for Active; 'I' for Inactive)
REMARK    1  A    between atoms: C2_2  and  C6_6 
REMARK    2  A    between atoms: C3_3  and  C7_7 
REMARK    3  A    between atoms: C7_7  and  C8_8 
ROOT
HETATM    1  C1  UNL     1     -34.093   7.552   4.623  1.00 20.00     0.016 A 
HETATM    2  C2  UNL     1     -33.413   6.937   3.432  1.00 20.00     0.008 A 
HETATM    3  C3  UNL     1     -34.780   6.419   3.877  1.00 20.00    -0.039 A 
HETATM    4  C4  UNL     1     -36.008   6.744   3.069  1.00 20.00     0.015 C 
ENDROOT
BRANCH   3   5
HETATM    5  C7  UNL     1     -34.821   5.066   4.537  1.00 20.00     0.009 C 
BRANCH   5   6
HETATM    6  C8  UNL     1     -33.944   4.043   3.805  1.00 20.00    -0.004 C 
HETATM    7  C5  UNL     1     -33.303   3.053   4.763  1.00 20.00     0.005 C 
ENDBRANCH   5   6
ENDBRANCH   3   5
BRANCH   2   8
HETATM    8  C6  UNL     1     -33.219   7.729   2.186  1.00 20.00     0.120 C 
HETATM    9 CL9  UNL     1     -31.525   7.650   1.626  1.00 20.00    -0.130 Cl
ENDBRANCH   2   8
TORSDOF 3
ENDMDL
MODEL 6
REMARK VINA RESULT:      -1.3      2.022      2.976
REMARK  3 active torsions:
REMARK  status: ('A' for Active; 'I' for Inactive)
REMARK    1  A    between atoms: C2_2  and  C6_6 
REMARK    2  A    between atoms: C3_3  and  C7_7 
REMARK    3  A    between atoms: C7_7  and  C8_8 
ROOT
HETATM    1  C1  UNL     1     -31.966   8.062   2.919  1.00 20.00     0.016 A 
HETATM    2  C2  UNL     1     -33.395   7.599   2.893  1.00 20.00     0.008 A 
HETATM    3  C3  UNL     1     -32.486   7.321   1.697  1.00 20.00    -0.039 A 
HETATM    4  C4  UNL     1     -31.979   5.926   1.445  1.00 20.00     0.015 C 
ENDROOT
BRANCH   3   5
HETATM    5  C7  UNL     1     -32.735   8.118   0.444  1.00 20.00     0.009 C 
BRANCH   5   6
HETATM    6  C8  UNL     1     -31.857   9.374   0.379  1.00 20.00    -0.004 C 
HETATM    7  C5  UNL     1     -32.686  10.642   0.257  1.00 20.00     0.005 C 
ENDBRANCH   5   6
ENDBRANCH   3   5
BRANCH   2   8
HETATM    8  C6  UNL     1     -33.855   6.528   3.821  1.00 20.00     0.120 C 
HETATM    9 CL9  UNL     1     -35.635   6.382   3.810  1.00 20.00    -0.130 Cl
ENDBRANCH   2   8
TORSDOF 3
ENDMDL
MODEL 7
REMARK VINA RESULT:      -1.2      2.497      4.314
REMARK  3 active torsions:
REMARK  status: ('A' for Active; 'I' for Inactive)
REMARK    1  A    between atoms: C2_2  and  C6_6 
REMARK    2  A    between atoms: C3_3  and  C7_7 
REMARK    3  A    between atoms: C7_7  and  C8_8 
ROOT
HETATM    1  C1  UNL     1     -35.669   6.536   3.339  1.00 20.00     0.016 A 
HETATM    2  C2  UNL     1     -34.610   7.059   4.269  1.00 20.00     0.008 A 
HETATM    3  C3  UNL     1     -34.418   5.707   3.584  1.00 20.00    -0.039 A 
HETATM    4  C4  UNL     1     -33.429   5.567   2.458  1.00 20.00     0.015 C 
ENDROOT
BRANCH   3   5
HETATM    5  C7  UNL     1     -34.547   4.476   4.443  1.00 20.00     0.009 C 
BRANCH   5   6
HETATM    6  C8  UNL     1     -33.557   3.381   4.029  1.00 20.00    -0.004 C 
HETATM    7  C5  UNL     1     -32.843   2.776   5.227  1.00 20.00     0.005 C 
ENDBRANCH   5   6
ENDBRANCH   3   5
BRANCH   2   8
HETATM    8  C6  UNL     1     -33.819   8.266   3.902  1.00 20.00     0.120 C 
HETATM    9 CL9  UNL     1     -32.494   8.550   5.065  1.00 20.00    -0.130 Cl
ENDBRANCH   2   8
TORSDOF 3
ENDMDL
MODEL 8
REMARK VINA RESULT:      -1.0      2.617      4.464
REMARK  3 active torsions:
REMARK  status: ('A' for Active; 'I' for Inactive)
REMARK    1  A    between atoms: C2_2  and  C6_6 
REMARK    2  A    between atoms: C3_3  and  C7_7 
REMARK    3  A    between atoms: C7_7  and  C8_8 
ROOT
HETATM    1  C1  UNL     1     -34.260   7.593   2.709  1.00 20.00     0.016 A 
HETATM    2  C2  UNL     1     -32.820   7.562   3.136  1.00 20.00     0.008 A 
HETATM    3  C3  UNL     1     -33.564   6.253   2.880  1.00 20.00    -0.039 A 
HETATM    4  C4  UNL     1     -33.265   5.447   1.644  1.00 20.00     0.015 C 
ENDROOT
BRANCH   3   5
HETATM    5  C7  UNL     1     -33.925   5.420   4.082  1.00 20.00     0.009 C 
BRANCH   5   6
HETATM    6  C8  UNL     1     -33.916   3.920   3.765  1.00 20.00    -0.004 C 
HETATM    7  C5  UNL     1     -33.185   3.118   4.829  1.00 20.00     0.005 C 
ENDBRANCH   5   6
ENDBRANCH   3   5
BRANCH   2   8
HETATM    8  C6  UNL     1     -31.755   8.074   2.229  1.00 20.00     0.120 C 
HETATM    9 CL9  UNL     1     -32.435   9.158   0.982  1.00 20.00    -0.130 Cl
ENDBRANCH   2   8
TORSDOF 3
ENDMDL
MODEL 9
REMARK VINA RESULT:      -0.5      2.914      4.663
REMARK  3 active torsions:
REMARK  status: ('A' for Active; 'I' for Inactive)
REMARK    1  A    between atoms: C2_2  and  C6_6 
REMARK    2  A    between atoms: C3_3  and  C7_7 
REMARK    3  A    between atoms: C7_7  and  C8_8 
ROOT
HETATM    1  C1  UNL     1     -33.434   7.581   2.501  1.00 20.00     0.016 A 
HETATM    2  C2  UNL     1     -32.027   7.495   1.982  1.00 20.00     0.008 A 
HETATM    3  C3  UNL     1     -32.955   6.287   1.861  1.00 20.00    -0.039 A 
HETATM    4  C4  UNL     1     -33.524   5.907   0.520  1.00 20.00     0.015 C 
ENDROOT
BRANCH   3   5
HETATM    5  C7  UNL     1     -32.680   5.115   2.765  1.00 20.00     0.009 C 
BRANCH   5   6
HETATM    6  C8  UNL     1     -33.905   4.739   3.607  1.00 20.00    -0.004 C 
HETATM    7  C5  UNL     1     -33.677   3.468   4.409  1.00 20.00     0.005 C 
ENDBRANCH   5   6
ENDBRANCH   3   5
BRANCH   2   8
HETATM    8  C6  UNL     1     -31.608   8.309   0.807  1.00 20.00     0.120 C 
HETATM    9 CL9  UNL     1     -32.605   9.783   0.653  1.00 20.00    -0.130 Cl
ENDBRANCH   2   8
TORSDOF 3
ENDMDL
