MODEL 1
REMARK VINA RESULT:      -0.2      0.000      0.000
REMARK  2 active torsions:
REMARK  status: ('A' for Active; 'I' for Inactive)
REMARK    1  A    between atoms: C4_4  and  C8_8 
REMARK    2  A    between atoms: C8_8  and  O9_9 
ROOT
HETATM    1  C1  UNL     1     -30.806   8.385   1.702  1.00 20.00     0.018 A 
HETATM    2  C2  UNL     1     -32.945   7.790   3.054  1.00 20.00     0.025 C 
HETATM    3  C3  UNL     1     -31.941   6.053   1.587  1.00 20.00     0.084 C 
HETATM    4  C4  UNL     1     -31.935   8.501   0.715  1.00 20.00     0.019 A 
HETATM    5  C5  UNL     1     -34.175   6.913   2.850  1.00 20.00     0.044 C 
HETATM    6  C6  UNL     1     -32.039   7.527   1.879  1.00 20.00    -0.025 A 
HETATM    7  C7  UNL     1     -34.968   6.702   4.127  1.00 20.00     0.021 C 
HETATM    8  S10 UNL     1     -33.498   5.346   2.219  1.00 20.00    -0.164 SA
ENDROOT
BRANCH   4   9
HETATM    9  C8  UNL     1     -32.734   9.756   0.634  1.00 20.00     0.169 C 
BRANCH   9  10
HETATM   10  O9  UNL     1     -33.032  10.057  -0.729  1.00 20.00    -0.400 OA
HETATM   11  H24 UNL     1     -33.956  10.349  -0.750  1.00 20.00     0.209 HD
ENDBRANCH   9  10
ENDBRANCH   4   9
TORSDOF 2
ENDMDL
MODEL 2
REMARK VINA RESULT:       0.7      2.901      4.185
REMARK  2 active torsions:
REMARK  status: ('A' for Active; 'I' for Inactive)
REMARK    1  A    between atoms: C4_4  and  C8_8 
REMARK    2  A    between atoms: C8_8  and  O9_9 
ROOT
HETATM    1  C1  UNL     1     -33.753   7.401   4.786  1.00 20.00     0.018 A 
HETATM    2  C2  UNL     1     -32.841   5.892   2.875  1.00 20.00     0.025 C 
HETATM    3  C3  UNL     1     -32.526   8.351   2.704  1.00 20.00     0.084 C 
HETATM    4  C4  UNL     1     -34.776   7.502   3.688  1.00 20.00     0.019 A 
HETATM    5  C5  UNL     1     -32.665   6.003   1.365  1.00 20.00     0.044 C 
HETATM    6  C6  UNL     1     -33.317   7.242   3.346  1.00 20.00    -0.025 A 
HETATM    7  C7  UNL     1     -31.778   4.913   0.792  1.00 20.00     0.021 C 
HETATM    8  S10 UNL     1     -31.932   7.652   1.129  1.00 20.00    -0.164 SA
ENDROOT
BRANCH   4   9
HETATM    9  C8  UNL     1     -35.837   6.465   3.555  1.00 20.00     0.169 C 
BRANCH   9  10
HETATM   10  O9  UNL     1     -35.662   5.460   4.554  1.00 20.00    -0.400 OA
HETATM   11  H24 UNL     1     -34.728   5.205   4.526  1.00 20.00     0.209 HD
ENDBRANCH   9  10
ENDBRANCH   4   9
TORSDOF 2
ENDMDL
MODEL 3
REMARK VINA RESULT:       1.1      2.313      3.969
REMARK  2 active torsions:
REMARK  status: ('A' for Active; 'I' for Inactive)
REMARK    1  A    between atoms: C4_4  and  C8_8 
REMARK    2  A    between atoms: C8_8  and  O9_9 
ROOT
HETATM    1  C1  UNL     1     -35.257   6.778   3.606  1.00 20.00     0.018 A 
HETATM    2  C2  UNL     1     -33.520   7.967   2.079  1.00 20.00     0.025 C 
HETATM    3  C3  UNL     1     -33.343   5.508   2.395  1.00 20.00     0.084 C 
HETATM    4  C4  UNL     1     -34.028   6.930   4.460  1.00 20.00     0.019 A 
HETATM    5  C5  UNL     1     -32.047   7.790   1.733  1.00 20.00     0.044 C 
HETATM    6  C6  UNL     1     -33.894   6.795   2.950  1.00 20.00    -0.025 A 
HETATM    7  C7  UNL     1     -31.623   8.602   0.523  1.00 20.00     0.021 C 
HETATM    8  S10 UNL     1     -31.878   6.004   1.430  1.00 20.00    -0.164 SA
ENDROOT
BRANCH   4   9
HETATM    9  C8  UNL     1     -33.774   8.206   5.185  1.00 20.00     0.169 C 
BRANCH   9  10
HETATM   10  O9  UNL     1     -32.369   8.443   5.276  1.00 20.00    -0.400 OA
HETATM   11  H24 UNL     1     -32.254   9.404   5.312  1.00 20.00     0.209 HD
ENDBRANCH   9  10
ENDBRANCH   4   9
TORSDOF 2
ENDMDL
MODEL 4
REMARK VINA RESULT:       2.3      2.472      3.016
REMARK  2 active torsions:
REMARK  status: ('A' for Active; 'I' for Inactive)
REMARK    1  A    between atoms: C4_4  and  C8_8 
REMARK    2  A    between atoms: C8_8  and  O9_9 
ROOT
HETATM    1  C1  UNL     1     -32.121   8.140   0.931  1.00 20.00     0.018 A 
HETATM    2  C2  UNL     1     -34.023   7.068   2.342  1.00 20.00     0.025 C 
HETATM    3  C3  UNL     1     -32.332   8.474   3.497  1.00 20.00     0.084 C 
HETATM    4  C4  UNL     1     -31.494   6.936   1.578  1.00 20.00     0.019 A 
HETATM    5  C5  UNL     1     -34.176   6.510   3.751  1.00 20.00     0.044 C 
HETATM    6  C6  UNL     1     -32.640   7.660   2.268  1.00 20.00    -0.025 A 
HETATM    7  C7  UNL     1     -35.625   6.291   4.146  1.00 20.00     0.021 C 
HETATM    8  S10 UNL     1     -33.379   7.760   4.807  1.00 20.00    -0.164 SA
ENDROOT
BRANCH   4   9
HETATM    9  C8  UNL     1     -31.643   5.589   0.957  1.00 20.00     0.169 C 
BRANCH   9  10
HETATM   10  O9  UNL     1     -30.944   4.616   1.733  1.00 20.00    -0.400 OA
HETATM   11  H24 UNL     1     -31.037   4.884   2.659  1.00 20.00     0.209 HD
ENDBRANCH   9  10
ENDBRANCH   4   9
TORSDOF 2
ENDMDL
MODEL 5
REMARK VINA RESULT:       2.4      2.743      4.054
REMARK  2 active torsions:
REMARK  status: ('A' for Active; 'I' for Inactive)
REMARK    1  A    between atoms: C4_4  and  C8_8 
REMARK    2  A    between atoms: C8_8  and  O9_9 
ROOT
HETATM    1  C1  UNL     1     -33.538   5.419   1.965  1.00 20.00     0.018 A 
HETATM    2  C2  UNL     1     -33.382   7.830   1.003  1.00 20.00     0.025 C 
HETATM    3  C3  UNL     1     -31.302   6.728   1.798  1.00 20.00     0.084 C 
HETATM    4  C4  UNL     1     -33.470   6.316   3.171  1.00 20.00     0.019 A 
HETATM    5  C5  UNL     1     -32.542   9.074   1.265  1.00 20.00     0.044 C 
HETATM    6  C6  UNL     1     -32.806   6.740   1.869  1.00 20.00    -0.025 A 
HETATM    7  C7  UNL     1     -32.677  10.119   0.173  1.00 20.00     0.021 C 
HETATM    8  S10 UNL     1     -30.839   8.439   1.372  1.00 20.00    -0.164 SA
ENDROOT
BRANCH   4   9
HETATM    9  C8  UNL     1     -34.706   6.960   3.697  1.00 20.00     0.169 C 
BRANCH   9  10
HETATM   10  O9  UNL     1     -35.604   5.963   4.184  1.00 20.00    -0.400 OA
HETATM   11  H24 UNL     1     -35.482   5.184   3.621  1.00 20.00     0.209 HD
ENDBRANCH   9  10
ENDBRANCH   4   9
TORSDOF 2
ENDMDL
MODEL 6
REMARK VINA RESULT:       2.4      3.002      4.098
REMARK  2 active torsions:
REMARK  status: ('A' for Active; 'I' for Inactive)
REMARK    1  A    between atoms: C4_4  and  C8_8 
REMARK    2  A    between atoms: C8_8  and  O9_9 
ROOT
HETATM    1  C1  UNL     1     -35.625   6.635   3.794  1.00 20.00     0.018 A 
HETATM    2  C2  UNL     1     -33.692   6.003   2.173  1.00 20.00     0.025 C 
HETATM    3  C3  UNL     1     -34.224   4.464   4.050  1.00 20.00     0.084 C 
HETATM    4  C4  UNL     1     -34.365   7.015   4.523  1.00 20.00     0.019 A 
HETATM    5  C5  UNL     1     -32.353   5.284   2.276  1.00 20.00     0.044 C 
HETATM    6  C6  UNL     1     -34.349   5.869   3.522  1.00 20.00    -0.025 A 
HETATM    7  C7  UNL     1     -31.769   4.926   0.921  1.00 20.00     0.021 C 
HETATM    8  S10 UNL     1     -32.727   3.795   3.254  1.00 20.00    -0.164 SA
ENDROOT
BRANCH   4   9
HETATM    9  C8  UNL     1     -33.715   8.329   4.260  1.00 20.00     0.169 C 
BRANCH   9  10
HETATM   10  O9  UNL     1     -32.469   8.403   4.953  1.00 20.00    -0.400 OA
HETATM   11  H24 UNL     1     -32.536   7.795   5.704  1.00 20.00     0.209 HD
ENDBRANCH   9  10
ENDBRANCH   4   9
TORSDOF 2
ENDMDL
