MODEL 1
REMARK VINA RESULT:       0.5      0.000      0.000
REMARK  1 active torsions:
REMARK  status: ('A' for Active; 'I' for Inactive)
REMARK    1  A    between atoms: C6_6  and  C8_8 
ROOT
HETATM    1  C1  UNL     1     -33.925   4.142   3.494  1.00 20.00     0.011 C 
HETATM    2  C2  UNL     1     -32.705   4.994   3.150  1.00 20.00     0.011 C 
HETATM    3  C3  UNL     1     -33.391   6.491   1.133  1.00 20.00     0.017 A 
HETATM    4  C4  UNL     1     -34.812   4.784   4.552  1.00 20.00     0.074 C 
HETATM    5  C5  UNL     1     -33.890   7.198   3.585  1.00 20.00     0.083 C 
HETATM    6  C6  UNL     1     -32.097   7.024   1.683  1.00 20.00     0.009 A 
HETATM    7  C7  UNL     1     -33.100   6.356   2.615  1.00 20.00    -0.027 A 
HETATM    8  S9  UNL     1     -35.460   6.389   3.997  1.00 20.00    -0.168 SA
ENDROOT
BRANCH   6   9
HETATM    9  C8  UNL     1     -31.831   8.490   1.690  1.00 20.00     0.120 C 
HETATM   10 CL10 UNL     1     -32.306   9.242   0.142  1.00 20.00    -0.130 Cl
ENDBRANCH   6   9
TORSDOF 1
ENDMDL
MODEL 2
REMARK VINA RESULT:       0.6      1.460      2.259
REMARK  1 active torsions:
REMARK  status: ('A' for Active; 'I' for Inactive)
REMARK    1  A    between atoms: C6_6  and  C8_8 
ROOT
HETATM    1  C1  UNL     1     -34.378   6.908   4.440  1.00 20.00     0.011 C 
HETATM    2  C2  UNL     1     -34.195   7.968   3.357  1.00 20.00     0.011 C 
HETATM    3  C3  UNL     1     -31.638   8.108   2.881  1.00 20.00     0.017 A 
HETATM    4  C4  UNL     1     -34.629   5.519   3.868  1.00 20.00     0.074 C 
HETATM    5  C5  UNL     1     -33.151   6.356   1.695  1.00 20.00     0.083 C 
HETATM    6  C6  UNL     1     -32.352   8.849   1.785  1.00 20.00     0.009 A 
HETATM    7  C7  UNL     1     -33.020   7.654   2.452  1.00 20.00    -0.027 A 
HETATM    8  S9  UNL     1     -33.238   4.956   2.845  1.00 20.00    -0.168 SA
ENDROOT
BRANCH   6   9
HETATM    9  C8  UNL     1     -31.829   8.815   0.390  1.00 20.00     0.120 C 
HETATM   10 CL10 UNL     1     -32.721   9.947  -0.664  1.00 20.00    -0.130 Cl
ENDBRANCH   6   9
TORSDOF 1
ENDMDL
MODEL 3
REMARK VINA RESULT:       0.8      2.859      4.414
REMARK  1 active torsions:
REMARK  status: ('A' for Active; 'I' for Inactive)
REMARK    1  A    between atoms: C6_6  and  C8_8 
ROOT
HETATM    1  C1  UNL     1     -32.502   8.600   2.683  1.00 20.00     0.011 C 
HETATM    2  C2  UNL     1     -32.928   7.696   3.838  1.00 20.00     0.011 C 
HETATM    3  C3  UNL     1     -35.306   6.812   3.247  1.00 20.00     0.017 A 
HETATM    4  C4  UNL     1     -31.720   7.853   1.609  1.00 20.00     0.074 C 
HETATM    5  C5  UNL     1     -33.159   5.629   2.380  1.00 20.00     0.083 C 
HETATM    6  C6  UNL     1     -34.785   5.999   4.400  1.00 20.00     0.009 A 
HETATM    7  C7  UNL     1     -33.815   6.561   3.368  1.00 20.00    -0.027 A 
HETATM    8  S9  UNL     1     -32.710   6.522   0.866  1.00 20.00    -0.168 SA
ENDROOT
BRANCH   6   9
HETATM    9  C8  UNL     1     -35.113   4.550   4.505  1.00 20.00     0.120 C 
HETATM   10 CL10 UNL     1     -33.649   3.576   4.817  1.00 20.00    -0.130 Cl
ENDBRANCH   6   9
TORSDOF 1
ENDMDL
MODEL 4
REMARK VINA RESULT:       2.6      2.617      3.151
REMARK  1 active torsions:
REMARK  status: ('A' for Active; 'I' for Inactive)
REMARK    1  A    between atoms: C6_6  and  C8_8 
ROOT
HETATM    1  C1  UNL     1     -34.595   6.508   3.616  1.00 20.00     0.011 C 
HETATM    2  C2  UNL     1     -33.643   5.407   3.151  1.00 20.00     0.011 C 
HETATM    3  C3  UNL     1     -33.498   5.601   0.558  1.00 20.00     0.017 A 
HETATM    4  C4  UNL     1     -33.872   7.801   3.971  1.00 20.00     0.074 C 
HETATM    5  C5  UNL     1     -31.981   7.026   2.117  1.00 20.00     0.083 C 
HETATM    6  C6  UNL     1     -32.396   4.686   1.014  1.00 20.00     0.009 A 
HETATM    7  C7  UNL     1     -32.864   5.819   1.918  1.00 20.00    -0.027 A 
HETATM    8  S9  UNL     1     -32.979   8.480   2.542  1.00 20.00    -0.168 SA
ENDROOT
BRANCH   6   9
HETATM    9  C8  UNL     1     -31.078   4.692   0.318  1.00 20.00     0.120 C 
HETATM   10 CL10 UNL     1     -30.896   3.262  -0.736  1.00 20.00    -0.130 Cl
ENDBRANCH   6   9
TORSDOF 1
ENDMDL
MODEL 5
REMARK VINA RESULT:       2.7      3.202      4.636
REMARK  1 active torsions:
REMARK  status: ('A' for Active; 'I' for Inactive)
REMARK    1  A    between atoms: C6_6  and  C8_8 
ROOT
HETATM    1  C1  UNL     1     -31.085   8.490   0.200  1.00 20.00     0.011 C 
HETATM    2  C2  UNL     1     -31.916   7.544   1.064  1.00 20.00     0.011 C 
HETATM    3  C3  UNL     1     -31.873   8.516   3.480  1.00 20.00     0.017 A 
HETATM    4  C4  UNL     1     -31.925   9.579  -0.456  1.00 20.00     0.074 C 
HETATM    5  C5  UNL     1     -33.605   9.324   1.717  1.00 20.00     0.083 C 
HETATM    6  C6  UNL     1     -32.938   7.456   3.428  1.00 20.00     0.009 A 
HETATM    7  C7  UNL     1     -32.625   8.278   2.185  1.00 20.00    -0.027 A 
HETATM    8  S9  UNL     1     -32.751  10.622   0.781  1.00 20.00    -0.168 SA
ENDROOT
BRANCH   6   9
HETATM    9  C8  UNL     1     -34.195   7.616   4.213  1.00 20.00     0.120 C 
HETATM   10 CL10 UNL     1     -35.280   6.216   3.989  1.00 20.00    -0.130 Cl
ENDBRANCH   6   9
TORSDOF 1
ENDMDL
MODEL 6
REMARK VINA RESULT:       2.9      1.022      1.022
REMARK  1 active torsions:
REMARK  status: ('A' for Active; 'I' for Inactive)
REMARK    1  A    between atoms: C6_6  and  C8_8 
ROOT
HETATM    1  C1  UNL     1     -33.993   3.980   3.399  1.00 20.00     0.011 C 
HETATM    2  C2  UNL     1     -32.775   4.732   2.866  1.00 20.00     0.011 C 
HETATM    3  C3  UNL     1     -33.663   6.401   1.074  1.00 20.00     0.017 A 
HETATM    4  C4  UNL     1     -34.600   4.640   4.630  1.00 20.00     0.074 C 
HETATM    5  C5  UNL     1     -33.628   7.008   3.603  1.00 20.00     0.083 C 
HETATM    6  C6  UNL     1     -32.243   6.778   1.391  1.00 20.00     0.009 A 
HETATM    7  C7  UNL     1     -33.120   6.154   2.468  1.00 20.00    -0.027 A 
HETATM    8  S9  UNL     1     -35.171   6.327   4.270  1.00 20.00    -0.168 SA
ENDROOT
BRANCH   6   9
HETATM    9  C8  UNL     1     -31.831   8.210   1.406  1.00 20.00     0.120 C 
HETATM   10 CL10 UNL     1     -31.499   8.772   3.068  1.00 20.00    -0.130 Cl
ENDBRANCH   6   9
TORSDOF 1
ENDMDL
MODEL 7
REMARK VINA RESULT:       3.3      2.077      3.175
REMARK  1 active torsions:
REMARK  status: ('A' for Active; 'I' for Inactive)
REMARK    1  A    between atoms: C6_6  and  C8_8 
ROOT
HETATM    1  C1  UNL     1     -32.415   8.180   3.265  1.00 20.00     0.011 C 
HETATM    2  C2  UNL     1     -32.467   7.626   1.843  1.00 20.00     0.011 C 
HETATM    3  C3  UNL     1     -31.821   5.108   2.007  1.00 20.00     0.017 A 
HETATM    4  C4  UNL     1     -33.760   8.106   3.976  1.00 20.00     0.074 C 
HETATM    5  C5  UNL     1     -34.265   5.914   2.379  1.00 20.00     0.083 C 
HETATM    6  C6  UNL     1     -32.392   5.349   0.637  1.00 20.00     0.009 A 
HETATM    7  C7  UNL     1     -32.887   6.170   1.821  1.00 20.00    -0.027 A 
HETATM    8  S9  UNL     1     -34.341   6.390   4.128  1.00 20.00    -0.168 SA
ENDROOT
BRANCH   6   9
HETATM    9  C8  UNL     1     -33.215   4.301  -0.029  1.00 20.00     0.120 C 
HETATM   10 CL10 UNL     1     -34.634   5.014  -0.846  1.00 20.00    -0.130 Cl
ENDBRANCH   6   9
TORSDOF 1
ENDMDL
MODEL 8
REMARK VINA RESULT:       3.5      2.397      3.280
REMARK  1 active torsions:
REMARK  status: ('A' for Active; 'I' for Inactive)
REMARK    1  A    between atoms: C6_6  and  C8_8 
ROOT
HETATM    1  C1  UNL     1     -32.927   8.017   3.435  1.00 20.00     0.011 C 
HETATM    2  C2  UNL     1     -32.650   7.556   2.005  1.00 20.00     0.011 C 
HETATM    3  C3  UNL     1     -31.443   5.255   2.189  1.00 20.00     0.017 A 
HETATM    4  C4  UNL     1     -34.297   7.584   3.939  1.00 20.00     0.074 C 
HETATM    5  C5  UNL     1     -34.037   5.439   2.223  1.00 20.00     0.083 C 
HETATM    6  C6  UNL     1     -31.865   5.441   0.758  1.00 20.00     0.009 A 
HETATM    7  C7  UNL     1     -32.700   6.046   1.880  1.00 20.00    -0.027 A 
HETATM    8  S9  UNL     1     -34.462   5.774   3.954  1.00 20.00    -0.168 SA
ENDROOT
BRANCH   6   9
HETATM    9  C8  UNL     1     -32.313   4.273  -0.051  1.00 20.00     0.120 C 
HETATM   10 CL10 UNL     1     -30.922   3.362  -0.699  1.00 20.00    -0.130 Cl
ENDBRANCH   6   9
TORSDOF 1
ENDMDL
MODEL 9
REMARK VINA RESULT:       3.5      2.889      4.318
REMARK  1 active torsions:
REMARK  status: ('A' for Active; 'I' for Inactive)
REMARK    1  A    between atoms: C6_6  and  C8_8 
ROOT
HETATM    1  C1  UNL     1     -32.274   7.708   0.508  1.00 20.00     0.011 C 
HETATM    2  C2  UNL     1     -33.336   6.694   0.927  1.00 20.00     0.011 C 
HETATM    3  C3  UNL     1     -32.177   5.046   2.578  1.00 20.00     0.017 A 
HETATM    4  C4  UNL     1     -32.260   8.947   1.394  1.00 20.00     0.074 C 
HETATM    5  C5  UNL     1     -33.201   7.294   3.391  1.00 20.00     0.083 C 
HETATM    6  C6  UNL     1     -33.660   4.819   2.665  1.00 20.00     0.009 A 
HETATM    7  C7  UNL     1     -33.123   6.208   2.347  1.00 20.00    -0.027 A 
HETATM    8  S9  UNL     1     -31.898   8.527   3.124  1.00 20.00    -0.168 SA
ENDROOT
BRANCH   6   9
HETATM    9  C8  UNL     1     -34.290   4.469   3.969  1.00 20.00     0.120 C 
HETATM   10 CL10 UNL     1     -33.432   3.119   4.763  1.00 20.00    -0.130 Cl
ENDBRANCH   6   9
TORSDOF 1
ENDMDL
