MODEL 1
REMARK VINA RESULT:       0.2      0.000      0.000
REMARK  1 active torsions:
REMARK  status: ('A' for Active; 'I' for Inactive)
REMARK    1  A    between atoms: C1_1  and  C5_5 
ROOT
HETATM    1  C2  UNL     1     -33.383   8.321   3.286  1.00 20.00     0.013 C 
HETATM    2  C3  UNL     1     -34.057   7.441   4.335  1.00 20.00     0.009 C 
HETATM    3  C4  UNL     1     -33.838   5.444   2.810  1.00 20.00     0.013 C 
HETATM    4  C5  UNL     1     -32.444   7.518   2.381  1.00 20.00     0.059 C 
HETATM    5  C6  UNL     1     -33.149   6.310   1.739  1.00 20.00    -0.007 C 
HETATM    6  C7  UNL     1     -34.797   6.230   3.731  1.00 20.00    -0.047 C 
HETATM    7  C9  UNL     1     -32.164   5.444   0.943  1.00 20.00     0.011 C 
HETATM    8  C10 UNL     1     -35.263   5.307   4.873  1.00 20.00     0.015 C 
HETATM    9  C11 UNL     1     -36.047   6.686   2.953  1.00 20.00     0.015 C 
ENDROOT
BRANCH   4  10
HETATM   10  C1  UNL     1     -31.918   8.450   1.328  1.00 20.00     0.127 C 
HETATM   11  C8  UNL     1     -32.761   9.655   1.010  1.00 20.00     0.091 C 
HETATM   12  O12 UNL     1     -30.851   8.239   0.754  1.00 20.00    -0.298 OA
ENDBRANCH   4  10
TORSDOF 1
ENDMDL
MODEL 2
REMARK VINA RESULT:       1.0      1.987      4.602
REMARK  1 active torsions:
REMARK  status: ('A' for Active; 'I' for Inactive)
REMARK    1  A    between atoms: C1_1  and  C5_5 
ROOT
HETATM    1  C2  UNL     1     -33.348   6.073   1.768  1.00 20.00     0.013 C 
HETATM    2  C3  UNL     1     -32.115   6.690   1.112  1.00 20.00     0.009 C 
HETATM    3  C4  UNL     1     -32.072   8.492   2.877  1.00 20.00     0.013 C 
HETATM    4  C5  UNL     1     -33.413   6.375   3.267  1.00 20.00     0.059 C 
HETATM    5  C6  UNL     1     -33.311   7.883   3.560  1.00 20.00    -0.007 C 
HETATM    6  C7  UNL     1     -31.988   8.207   1.361  1.00 20.00    -0.047 C 
HETATM    7  C9  UNL     1     -33.246   8.158   5.068  1.00 20.00     0.011 C 
HETATM    8  C10 UNL     1     -30.621   8.687   0.837  1.00 20.00     0.015 C 
HETATM    9  C11 UNL     1     -33.083   8.980   0.600  1.00 20.00     0.015 C 
ENDROOT
BRANCH   4  10
HETATM   10  C1  UNL     1     -34.705   5.817   3.789  1.00 20.00     0.127 C 
HETATM   11  C8  UNL     1     -34.642   4.467   4.450  1.00 20.00     0.091 C 
HETATM   12  O12 UNL     1     -35.764   6.434   3.681  1.00 20.00    -0.298 OA
ENDBRANCH   4  10
TORSDOF 1
ENDMDL
MODEL 3
REMARK VINA RESULT:       1.2      2.259      4.237
REMARK  1 active torsions:
REMARK  status: ('A' for Active; 'I' for Inactive)
REMARK    1  A    between atoms: C1_1  and  C5_5 
ROOT
HETATM    1  C2  UNL     1     -33.992   7.273   3.759  1.00 20.00     0.013 C 
HETATM    2  C3  UNL     1     -33.655   8.473   2.879  1.00 20.00     0.009 C 
HETATM    3  C4  UNL     1     -32.529   6.945   1.218  1.00 20.00     0.013 C 
HETATM    4  C5  UNL     1     -34.114   5.981   2.948  1.00 20.00     0.059 C 
HETATM    5  C6  UNL     1     -32.866   5.718   2.086  1.00 20.00    -0.007 C 
HETATM    6  C7  UNL     1     -32.394   8.260   2.016  1.00 20.00    -0.047 C 
HETATM    7  C9  UNL     1     -33.056   4.493   1.182  1.00 20.00     0.011 C 
HETATM    8  C10 UNL     1     -32.260   9.434   1.027  1.00 20.00     0.015 C 
HETATM    9  C11 UNL     1     -31.128   8.236   2.894  1.00 20.00     0.015 C 
ENDROOT
BRANCH   4  10
HETATM   10  C1  UNL     1     -34.342   4.855   3.914  1.00 20.00     0.127 C 
HETATM   11  C8  UNL     1     -33.235   3.844   4.049  1.00 20.00     0.091 C 
HETATM   12  O12 UNL     1     -35.382   4.763   4.563  1.00 20.00    -0.298 OA
ENDBRANCH   4  10
TORSDOF 1
ENDMDL
MODEL 4
REMARK VINA RESULT:       3.0      1.862      3.958
REMARK  1 active torsions:
REMARK  status: ('A' for Active; 'I' for Inactive)
REMARK    1  A    between atoms: C1_1  and  C5_5 
ROOT
HETATM    1  C2  UNL     1     -33.554   5.096   3.169  1.00 20.00     0.013 C 
HETATM    2  C3  UNL     1     -32.572   4.301   2.312  1.00 20.00     0.009 C 
HETATM    3  C4  UNL     1     -31.907   6.413   1.104  1.00 20.00     0.013 C 
HETATM    4  C5  UNL     1     -33.128   6.558   3.323  1.00 20.00     0.059 C 
HETATM    5  C6  UNL     1     -32.884   7.238   1.963  1.00 20.00    -0.007 C 
HETATM    6  C7  UNL     1     -32.319   4.935   0.928  1.00 20.00    -0.047 C 
HETATM    7  C9  UNL     1     -32.334   8.659   2.136  1.00 20.00     0.011 C 
HETATM    8  C10 UNL     1     -31.174   4.176   0.232  1.00 20.00     0.015 C 
HETATM    9  C11 UNL     1     -33.572   4.822   0.037  1.00 20.00     0.015 C 
ENDROOT
BRANCH   4  10
HETATM   10  C1  UNL     1     -34.206   7.269   4.088  1.00 20.00     0.127 C 
HETATM   11  C8  UNL     1     -35.608   6.749   3.924  1.00 20.00     0.091 C 
HETATM   12  O12 UNL     1     -33.955   8.229   4.814  1.00 20.00    -0.298 OA
ENDBRANCH   4  10
TORSDOF 1
ENDMDL
