MODEL 1
REMARK VINA RESULT:      -2.1      0.000      0.000
REMARK  3 active torsions:
REMARK  status: ('A' for Active; 'I' for Inactive)
REMARK    1  A    between atoms: C2_2  and  C7_7 
REMARK    2  A    between atoms: C3_3  and  C9_9 
REMARK    3  A    between atoms: C8_8  and  C9_9 
ROOT
HETATM    1  C1  UNL     1     -31.150   8.049   2.277  1.00 20.00     0.016 A 
HETATM    2  C2  UNL     1     -31.990   8.361   1.072  1.00 20.00     0.009 A 
HETATM    3  C3  UNL     1     -32.386   7.211   1.996  1.00 20.00    -0.036 A 
HETATM    4  C4  UNL     1     -32.185   5.812   1.477  1.00 20.00     0.016 C 
ENDROOT
BRANCH   3   5
HETATM    5  C9  UNL     1     -33.566   7.358   2.918  1.00 20.00    -0.010 C 
HETATM    6  C6  UNL     1     -33.145   8.030   4.236  1.00 20.00     0.011 C 
BRANCH   5   7
HETATM    7  C8  UNL     1     -34.258   6.013   3.249  1.00 20.00     0.000 C 
HETATM    8  C5  UNL     1     -35.433   6.162   4.204  1.00 20.00     0.005 C 
ENDBRANCH   5   7
ENDBRANCH   3   5
BRANCH   2   9
HETATM    9  C7  UNL     1     -32.757   9.637   1.000  1.00 20.00     0.120 C 
HETATM   10 CL10 UNL     1     -32.883  10.222  -0.682  1.00 20.00    -0.130 Cl
ENDBRANCH   2   9
TORSDOF 3
ENDMDL
MODEL 2
REMARK VINA RESULT:      -0.6      2.258      3.531
REMARK  3 active torsions:
REMARK  status: ('A' for Active; 'I' for Inactive)
REMARK    1  A    between atoms: C2_2  and  C7_7 
REMARK    2  A    between atoms: C3_3  and  C9_9 
REMARK    3  A    between atoms: C8_8  and  C9_9 
ROOT
HETATM    1  C1  UNL     1     -34.693   7.291   2.787  1.00 20.00     0.016 A 
HETATM    2  C2  UNL     1     -34.036   7.592   4.104  1.00 20.00     0.009 A 
HETATM    3  C3  UNL     1     -34.441   6.158   3.768  1.00 20.00    -0.036 A 
HETATM    4  C4  UNL     1     -35.625   5.588   4.504  1.00 20.00     0.016 C 
ENDROOT
BRANCH   3   5
HETATM    5  C9  UNL     1     -33.389   5.140   3.420  1.00 20.00    -0.010 C 
HETATM    6  C6  UNL     1     -33.074   5.178   1.914  1.00 20.00     0.011 C 
BRANCH   5   7
HETATM    7  C8  UNL     1     -33.783   3.694   3.805  1.00 20.00     0.000 C 
HETATM    8  C5  UNL     1     -32.928   3.116   4.924  1.00 20.00     0.005 C 
ENDBRANCH   5   7
ENDBRANCH   3   5
BRANCH   2   9
HETATM    9  C7  UNL     1     -32.615   8.037   4.150  1.00 20.00     0.120 C 
HETATM   10 CL10 UNL     1     -31.976   8.332   2.509  1.00 20.00    -0.130 Cl
ENDBRANCH   2   9
TORSDOF 3
ENDMDL
MODEL 3
REMARK VINA RESULT:      -0.5      1.286      2.138
REMARK  3 active torsions:
REMARK  status: ('A' for Active; 'I' for Inactive)
REMARK    1  A    between atoms: C2_2  and  C7_7 
REMARK    2  A    between atoms: C3_3  and  C9_9 
REMARK    3  A    between atoms: C8_8  and  C9_9 
ROOT
HETATM    1  C1  UNL     1     -31.487   5.551   1.411  1.00 20.00     0.016 A 
HETATM    2  C2  UNL     1     -32.178   6.847   1.099  1.00 20.00     0.009 A 
HETATM    3  C3  UNL     1     -32.974   5.689   1.696  1.00 20.00    -0.036 A 
HETATM    4  C4  UNL     1     -33.935   4.972   0.784  1.00 20.00     0.016 C 
ENDROOT
BRANCH   3   5
HETATM    5  C9  UNL     1     -33.418   5.742   3.133  1.00 20.00    -0.010 C 
HETATM    6  C6  UNL     1     -33.813   4.340   3.631  1.00 20.00     0.011 C 
BRANCH   5   7
HETATM    7  C8  UNL     1     -34.606   6.704   3.373  1.00 20.00     0.000 C 
HETATM    8  C5  UNL     1     -34.292   7.808   4.372  1.00 20.00     0.005 C 
ENDBRANCH   5   7
ENDBRANCH   3   5
BRANCH   2   9
HETATM    9  C7  UNL     1     -31.848   8.079   1.870  1.00 20.00     0.120 C 
HETATM   10 CL10 UNL     1     -32.268   9.550   0.949  1.00 20.00    -0.130 Cl
ENDBRANCH   2   9
TORSDOF 3
ENDMDL
MODEL 4
REMARK VINA RESULT:      -0.2      3.164      4.846
REMARK  3 active torsions:
REMARK  status: ('A' for Active; 'I' for Inactive)
REMARK    1  A    between atoms: C2_2  and  C7_7 
REMARK    2  A    between atoms: C3_3  and  C9_9 
REMARK    3  A    between atoms: C8_8  and  C9_9 
ROOT
HETATM    1  C1  UNL     1     -35.096   5.426   4.962  1.00 20.00     0.016 A 
HETATM    2  C2  UNL     1     -34.641   4.749   3.701  1.00 20.00     0.009 A 
HETATM    3  C3  UNL     1     -34.779   6.270   3.739  1.00 20.00    -0.036 A 
HETATM    4  C4  UNL     1     -35.933   6.874   2.982  1.00 20.00     0.016 C 
ENDROOT
BRANCH   3   5
HETATM    5  C9  UNL     1     -33.551   7.138   3.776  1.00 20.00    -0.010 C 
HETATM    6  C6  UNL     1     -33.658   8.182   4.901  1.00 20.00     0.011 C 
BRANCH   5   7
HETATM    7  C8  UNL     1     -33.281   7.877   2.442  1.00 20.00     0.000 C 
HETATM    8  C5  UNL     1     -31.898   7.598   1.871  1.00 20.00     0.005 C 
ENDBRANCH   5   7
ENDBRANCH   3   5
BRANCH   2   9
HETATM    9  C7  UNL     1     -33.319   4.063   3.652  1.00 20.00     0.120 C 
HETATM   10 CL10 UNL     1     -33.163   2.865   4.967  1.00 20.00    -0.130 Cl
ENDBRANCH   2   9
TORSDOF 3
ENDMDL
MODEL 5
REMARK VINA RESULT:      -0.1      2.183      4.026
REMARK  3 active torsions:
REMARK  status: ('A' for Active; 'I' for Inactive)
REMARK    1  A    between atoms: C2_2  and  C7_7 
REMARK    2  A    between atoms: C3_3  and  C9_9 
REMARK    3  A    between atoms: C8_8  and  C9_9 
ROOT
HETATM    1  C1  UNL     1     -35.465   6.272   3.542  1.00 20.00     0.016 A 
HETATM    2  C2  UNL     1     -34.340   6.823   4.370  1.00 20.00     0.009 A 
HETATM    3  C3  UNL     1     -34.035   5.872   3.215  1.00 20.00    -0.036 A 
HETATM    4  C4  UNL     1     -33.596   4.476   3.572  1.00 20.00     0.016 C 
ENDROOT
BRANCH   3   5
HETATM    5  C9  UNL     1     -33.425   6.399   1.945  1.00 20.00    -0.010 C 
HETATM    6  C6  UNL     1     -33.183   5.257   0.943  1.00 20.00     0.011 C 
BRANCH   5   7
HETATM    7  C8  UNL     1     -32.089   7.148   2.171  1.00 20.00     0.000 C 
HETATM    8  C5  UNL     1     -31.950   8.399   1.316  1.00 20.00     0.005 C 
ENDBRANCH   5   7
ENDBRANCH   3   5
BRANCH   2   9
HETATM    9  C7  UNL     1     -34.015   8.277   4.322  1.00 20.00     0.120 C 
HETATM   10 CL10 UNL     1     -32.560   8.646   5.290  1.00 20.00    -0.130 Cl
ENDBRANCH   2   9
TORSDOF 3
ENDMDL
MODEL 6
REMARK VINA RESULT:      -0.1      1.305      2.502
REMARK  3 active torsions:
REMARK  status: ('A' for Active; 'I' for Inactive)
REMARK    1  A    between atoms: C2_2  and  C7_7 
REMARK    2  A    between atoms: C3_3  and  C9_9 
REMARK    3  A    between atoms: C8_8  and  C9_9 
ROOT
HETATM    1  C1  UNL     1     -33.852   8.891   2.908  1.00 20.00     0.016 A 
HETATM    2  C2  UNL     1     -32.481   8.285   2.818  1.00 20.00     0.009 A 
HETATM    3  C3  UNL     1     -33.548   7.621   3.686  1.00 20.00    -0.036 A 
HETATM    4  C4  UNL     1     -33.387   7.733   5.179  1.00 20.00     0.016 C 
ENDROOT
BRANCH   3   5
HETATM    5  C9  UNL     1     -34.197   6.341   3.235  1.00 20.00    -0.010 C 
HETATM    6  C6  UNL     1     -35.515   6.104   3.993  1.00 20.00     0.011 C 
BRANCH   5   7
HETATM    7  C8  UNL     1     -33.293   5.098   3.417  1.00 20.00     0.000 C 
HETATM    8  C5  UNL     1     -33.954   3.988   4.222  1.00 20.00     0.005 C 
ENDBRANCH   5   7
ENDBRANCH   3   5
BRANCH   2   9
HETATM    9  C7  UNL     1     -32.003   7.693   1.537  1.00 20.00     0.120 C 
HETATM   10 CL10 UNL     1     -31.965   8.914   0.234  1.00 20.00    -0.130 Cl
ENDBRANCH   2   9
TORSDOF 3
ENDMDL
MODEL 7
REMARK VINA RESULT:       0.3      2.015      2.649
REMARK  3 active torsions:
REMARK  status: ('A' for Active; 'I' for Inactive)
REMARK    1  A    between atoms: C2_2  and  C7_7 
REMARK    2  A    between atoms: C3_3  and  C9_9 
REMARK    3  A    between atoms: C8_8  and  C9_9 
ROOT
HETATM    1  C1  UNL     1     -32.563   8.382   1.212  1.00 20.00     0.016 A 
HETATM    2  C2  UNL     1     -31.975   7.051   1.585  1.00 20.00     0.009 A 
HETATM    3  C3  UNL     1     -32.472   7.995   2.679  1.00 20.00    -0.036 A 
HETATM    4  C4  UNL     1     -31.429   8.679   3.523  1.00 20.00     0.016 C 
ENDROOT
BRANCH   3   5
HETATM    5  C9  UNL     1     -33.751   7.692   3.412  1.00 20.00    -0.010 C 
HETATM    6  C6  UNL     1     -33.690   8.228   4.853  1.00 20.00     0.011 C 
BRANCH   5   7
HETATM    7  C8  UNL     1     -34.086   6.182   3.462  1.00 20.00     0.000 C 
HETATM    8  C5  UNL     1     -35.391   5.880   4.183  1.00 20.00     0.005 C 
ENDBRANCH   5   7
ENDBRANCH   3   5
BRANCH   2   9
HETATM    9  C7  UNL     1     -32.683   5.790   1.228  1.00 20.00     0.120 C 
HETATM   10 CL10 UNL     1     -31.563   4.602   0.506  1.00 20.00    -0.130 Cl
ENDBRANCH   2   9
TORSDOF 3
ENDMDL
MODEL 8
REMARK VINA RESULT:       0.4      1.922      3.038
REMARK  3 active torsions:
REMARK  status: ('A' for Active; 'I' for Inactive)
REMARK    1  A    between atoms: C2_2  and  C7_7 
REMARK    2  A    between atoms: C3_3  and  C9_9 
REMARK    3  A    between atoms: C8_8  and  C9_9 
ROOT
HETATM    1  C1  UNL     1     -33.338   7.838   1.910  1.00 20.00     0.016 A 
HETATM    2  C2  UNL     1     -32.238   6.896   2.311  1.00 20.00     0.009 A 
HETATM    3  C3  UNL     1     -33.447   7.086   3.226  1.00 20.00    -0.036 A 
HETATM    4  C4  UNL     1     -33.230   7.860   4.499  1.00 20.00     0.016 C 
ENDROOT
BRANCH   3   5
HETATM    5  C9  UNL     1     -34.484   6.001   3.339  1.00 20.00    -0.010 C 
HETATM    6  C6  UNL     1     -35.889   6.608   3.491  1.00 20.00     0.011 C 
BRANCH   5   7
HETATM    7  C8  UNL     1     -34.234   5.034   4.522  1.00 20.00     0.000 C 
HETATM    8  C5  UNL     1     -33.718   3.671   4.083  1.00 20.00     0.005 C 
ENDBRANCH   5   7
ENDBRANCH   3   5
BRANCH   2   9
HETATM    9  C7  UNL     1     -32.003   5.644   1.539  1.00 20.00     0.120 C 
HETATM   10 CL10 UNL     1     -33.317   5.350   0.367  1.00 20.00    -0.130 Cl
ENDBRANCH   2   9
TORSDOF 3
ENDMDL
MODEL 9
REMARK VINA RESULT:       0.5      2.407      3.901
REMARK  3 active torsions:
REMARK  status: ('A' for Active; 'I' for Inactive)
REMARK    1  A    between atoms: C2_2  and  C7_7 
REMARK    2  A    between atoms: C3_3  and  C9_9 
REMARK    3  A    between atoms: C8_8  and  C9_9 
ROOT
HETATM    1  C1  UNL     1     -33.729   6.128   1.031  1.00 20.00     0.016 A 
HETATM    2  C2  UNL     1     -33.449   5.983   2.499  1.00 20.00     0.009 A 
HETATM    3  C3  UNL     1     -32.330   6.411   1.552  1.00 20.00    -0.036 A 
HETATM    4  C4  UNL     1     -31.252   5.400   1.260  1.00 20.00     0.016 C 
ENDROOT
BRANCH   3   5
HETATM    5  C9  UNL     1     -31.848   7.837   1.550  1.00 20.00    -0.010 C 
HETATM    6  C6  UNL     1     -31.483   8.288   2.975  1.00 20.00     0.011 C 
BRANCH   5   7
HETATM    7  C8  UNL     1     -32.880   8.832   0.967  1.00 20.00     0.000 C 
HETATM    8  C5  UNL     1     -32.264   9.845   0.013  1.00 20.00     0.005 C 
ENDBRANCH   5   7
ENDBRANCH   3   5
BRANCH   2   9
HETATM    9  C7  UNL     1     -34.074   6.916   3.479  1.00 20.00     0.120 C 
HETATM   10 CL10 UNL     1     -35.505   6.178   4.251  1.00 20.00    -0.130 Cl
ENDBRANCH   2   9
TORSDOF 3
ENDMDL
