MODEL 1
REMARK VINA RESULT:      -0.2      0.000      0.000
REMARK  3 active torsions:
REMARK  status: ('A' for Active; 'I' for Inactive)
REMARK    1  A    between atoms: C2_2  and  C10_10 
REMARK    2  A    between atoms: C3_3  and  C9_9 
REMARK    3  A    between atoms: C4_4  and  O11_11 
ROOT
HETATM    1  C1  UNL     1     -33.921   7.026   3.800  1.00 20.00     0.038 C 
HETATM    2  C2  UNL     1     -32.965   5.990   3.166  1.00 20.00     0.002 C 
HETATM    3  C3  UNL     1     -34.051   4.906   3.428  1.00 20.00     0.019 C 
HETATM    4  C4  UNL     1     -35.092   6.053   3.550  1.00 20.00     0.123 C 
ENDROOT
BRANCH   2   5
HETATM    5  C10 UNL     1     -32.611   6.226   1.706  1.00 20.00    -0.047 C 
HETATM    6  C6  UNL     1     -33.873   6.112   0.827  1.00 20.00     0.015 C 
HETATM    7  C7  UNL     1     -31.581   5.181   1.233  1.00 20.00     0.015 C 
HETATM    8  C8  UNL     1     -32.008   7.634   1.526  1.00 20.00     0.015 C 
ENDBRANCH   2   5
BRANCH   3   9
HETATM    9  C9  UNL     1     -33.816   4.044   4.661  1.00 20.00     0.003 C 
HETATM   10  C5  UNL     1     -33.201   2.723   4.316  1.00 20.00     0.005 C 
ENDBRANCH   3   9
BRANCH   4  11
HETATM   11  O11 UNL     1     -36.061   5.946   4.607  1.00 20.00    -0.395 OA
HETATM   12  H31 UNL     1     -36.851   5.570   4.199  1.00 20.00     0.210 HD
ENDBRANCH   4  11
TORSDOF 3
ENDMDL
MODEL 2
REMARK VINA RESULT:      -0.2      0.009      1.310
REMARK  3 active torsions:
REMARK  status: ('A' for Active; 'I' for Inactive)
REMARK    1  A    between atoms: C2_2  and  C10_10 
REMARK    2  A    between atoms: C3_3  and  C9_9 
REMARK    3  A    between atoms: C4_4  and  O11_11 
ROOT
HETATM    1  C1  UNL     1     -33.916   7.027   3.806  1.00 20.00     0.038 C 
HETATM    2  C2  UNL     1     -32.965   5.987   3.172  1.00 20.00     0.002 C 
HETATM    3  C3  UNL     1     -34.055   4.908   3.434  1.00 20.00     0.019 C 
HETATM    4  C4  UNL     1     -35.092   6.059   3.556  1.00 20.00     0.123 C 
ENDROOT
BRANCH   2   5
HETATM    5  C10 UNL     1     -32.610   6.221   1.711  1.00 20.00    -0.047 C 
HETATM    6  C6  UNL     1     -31.578   5.177   1.240  1.00 20.00     0.015 C 
HETATM    7  C7  UNL     1     -32.009   7.629   1.530  1.00 20.00     0.015 C 
HETATM    8  C8  UNL     1     -33.871   6.102   0.832  1.00 20.00     0.015 C 
ENDBRANCH   2   5
BRANCH   3   9
HETATM    9  C9  UNL     1     -33.823   4.046   4.668  1.00 20.00     0.003 C 
HETATM   10  C5  UNL     1     -33.202   2.727   4.325  1.00 20.00     0.005 C 
ENDBRANCH   3   9
BRANCH   4  11
HETATM   11  O11 UNL     1     -36.060   5.957   4.614  1.00 20.00    -0.395 OA
HETATM   12  H31 UNL     1     -36.854   6.396   4.283  1.00 20.00     0.210 HD
ENDBRANCH   4  11
TORSDOF 3
ENDMDL
MODEL 3
REMARK VINA RESULT:       1.0      1.686      2.767
REMARK  3 active torsions:
REMARK  status: ('A' for Active; 'I' for Inactive)
REMARK    1  A    between atoms: C2_2  and  C10_10 
REMARK    2  A    between atoms: C3_3  and  C9_9 
REMARK    3  A    between atoms: C4_4  and  O11_11 
ROOT
HETATM    1  C1  UNL     1     -33.130   5.618   1.580  1.00 20.00     0.038 C 
HETATM    2  C2  UNL     1     -33.424   7.086   1.968  1.00 20.00     0.002 C 
HETATM    3  C3  UNL     1     -33.793   6.580   3.393  1.00 20.00     0.019 C 
HETATM    4  C4  UNL     1     -33.002   5.280   3.080  1.00 20.00     0.123 C 
ENDROOT
BRANCH   2   5
HETATM    5  C10 UNL     1     -32.239   8.037   1.895  1.00 20.00    -0.047 C 
HETATM    6  C6  UNL     1     -30.991   7.292   1.378  1.00 20.00     0.015 C 
HETATM    7  C7  UNL     1     -31.931   8.611   3.292  1.00 20.00     0.015 C 
HETATM    8  C8  UNL     1     -32.552   9.203   0.937  1.00 20.00     0.015 C 
ENDBRANCH   2   5
BRANCH   3   9
HETATM    9  C9  UNL     1     -35.286   6.440   3.659  1.00 20.00     0.003 C 
HETATM   10  C5  UNL     1     -35.574   5.451   4.746  1.00 20.00     0.005 C 
ENDBRANCH   3   9
BRANCH   4  11
HETATM   11  O11 UNL     1     -33.593   4.038   3.500  1.00 20.00    -0.395 OA
HETATM   12  H31 UNL     1     -32.858   3.488   3.799  1.00 20.00     0.210 HD
ENDBRANCH   4  11
TORSDOF 3
ENDMDL
MODEL 4
REMARK VINA RESULT:       1.0      1.685      2.617
REMARK  3 active torsions:
REMARK  status: ('A' for Active; 'I' for Inactive)
REMARK    1  A    between atoms: C2_2  and  C10_10 
REMARK    2  A    between atoms: C3_3  and  C9_9 
REMARK    3  A    between atoms: C4_4  and  O11_11 
ROOT
HETATM    1  C1  UNL     1     -33.130   5.619   1.579  1.00 20.00     0.038 C 
HETATM    2  C2  UNL     1     -33.422   7.088   1.965  1.00 20.00     0.002 C 
HETATM    3  C3  UNL     1     -33.795   6.585   3.389  1.00 20.00     0.019 C 
HETATM    4  C4  UNL     1     -33.005   5.283   3.079  1.00 20.00     0.123 C 
ENDROOT
BRANCH   2   5
HETATM    5  C10 UNL     1     -32.235   8.037   1.892  1.00 20.00    -0.047 C 
HETATM    6  C6  UNL     1     -32.545   9.203   0.932  1.00 20.00     0.015 C 
HETATM    7  C7  UNL     1     -30.988   7.290   1.380  1.00 20.00     0.015 C 
HETATM    8  C8  UNL     1     -31.930   8.614   3.289  1.00 20.00     0.015 C 
ENDBRANCH   2   5
BRANCH   3   9
HETATM    9  C9  UNL     1     -35.289   6.447   3.652  1.00 20.00     0.003 C 
HETATM   10  C5  UNL     1     -35.580   5.462   4.742  1.00 20.00     0.005 C 
ENDBRANCH   3   9
BRANCH   4  11
HETATM   11  O11 UNL     1     -33.600   4.043   3.499  1.00 20.00    -0.395 OA
HETATM   12  H31 UNL     1     -34.535   4.111   3.268  1.00 20.00     0.210 HD
ENDBRANCH   4  11
TORSDOF 3
ENDMDL
MODEL 5
REMARK VINA RESULT:       1.0      1.688      2.853
REMARK  3 active torsions:
REMARK  status: ('A' for Active; 'I' for Inactive)
REMARK    1  A    between atoms: C2_2  and  C10_10 
REMARK    2  A    between atoms: C3_3  and  C9_9 
REMARK    3  A    between atoms: C4_4  and  O11_11 
ROOT
HETATM    1  C1  UNL     1     -33.126   5.620   1.579  1.00 20.00     0.038 C 
HETATM    2  C2  UNL     1     -33.423   7.086   1.968  1.00 20.00     0.002 C 
HETATM    3  C3  UNL     1     -33.791   6.579   3.393  1.00 20.00     0.019 C 
HETATM    4  C4  UNL     1     -32.997   5.280   3.078  1.00 20.00     0.123 C 
ENDROOT
BRANCH   2   5
HETATM    5  C10 UNL     1     -32.239   8.040   1.896  1.00 20.00    -0.047 C 
HETATM    6  C6  UNL     1     -31.931   8.611   3.295  1.00 20.00     0.015 C 
HETATM    7  C7  UNL     1     -32.556   9.208   0.941  1.00 20.00     0.015 C 
HETATM    8  C8  UNL     1     -30.991   7.299   1.377  1.00 20.00     0.015 C 
ENDBRANCH   2   5
BRANCH   3   9
HETATM    9  C9  UNL     1     -35.284   6.436   3.658  1.00 20.00     0.003 C 
HETATM   10  C5  UNL     1     -35.570   5.446   4.745  1.00 20.00     0.005 C 
ENDBRANCH   3   9
BRANCH   4  11
HETATM   11  O11 UNL     1     -33.587   4.037   3.497  1.00 20.00    -0.395 OA
HETATM   12  H31 UNL     1     -32.867   3.528   3.893  1.00 20.00     0.210 HD
ENDBRANCH   4  11
TORSDOF 3
ENDMDL
MODEL 6
REMARK VINA RESULT:       1.1      2.177      4.153
REMARK  3 active torsions:
REMARK  status: ('A' for Active; 'I' for Inactive)
REMARK    1  A    between atoms: C2_2  and  C10_10 
REMARK    2  A    between atoms: C3_3  and  C9_9 
REMARK    3  A    between atoms: C4_4  and  O11_11 
ROOT
HETATM    1  C1  UNL     1     -33.335   7.505   3.416  1.00 20.00     0.038 C 
HETATM    2  C2  UNL     1     -33.299   7.146   1.913  1.00 20.00     0.002 C 
HETATM    3  C3  UNL     1     -32.060   8.078   1.774  1.00 20.00     0.019 C 
HETATM    4  C4  UNL     1     -31.865   7.960   3.312  1.00 20.00     0.123 C 
ENDROOT
BRANCH   2   5
HETATM    5  C10 UNL     1     -33.058   5.679   1.591  1.00 20.00    -0.047 C 
HETATM    6  C6  UNL     1     -33.852   5.274   0.332  1.00 20.00     0.015 C 
HETATM    7  C7  UNL     1     -33.511   4.795   2.770  1.00 20.00     0.015 C 
HETATM    8  C8  UNL     1     -31.558   5.431   1.331  1.00 20.00     0.015 C 
ENDBRANCH   2   5
BRANCH   3   9
HETATM    9  C9  UNL     1     -32.356   9.462   1.214  1.00 20.00     0.003 C 
HETATM   10  C5  UNL     1     -32.306   9.486  -0.283  1.00 20.00     0.005 C 
ENDBRANCH   3   9
BRANCH   4  11
HETATM   11  O11 UNL     1     -31.525   9.164   4.021  1.00 20.00    -0.395 OA
HETATM   12  H31 UNL     1     -32.145   9.835   3.705  1.00 20.00     0.210 HD
ENDBRANCH   4  11
TORSDOF 3
ENDMDL
MODEL 7
REMARK VINA RESULT:       1.2      2.187      4.333
REMARK  3 active torsions:
REMARK  status: ('A' for Active; 'I' for Inactive)
REMARK    1  A    between atoms: C2_2  and  C10_10 
REMARK    2  A    between atoms: C3_3  and  C9_9 
REMARK    3  A    between atoms: C4_4  and  O11_11 
ROOT
HETATM    1  C1  UNL     1     -32.790   5.090   2.782  1.00 20.00     0.038 C 
HETATM    2  C2  UNL     1     -33.161   6.517   3.247  1.00 20.00     0.002 C 
HETATM    3  C3  UNL     1     -33.079   6.967   1.759  1.00 20.00     0.019 C 
HETATM    4  C4  UNL     1     -33.232   5.474   1.355  1.00 20.00     0.123 C 
ENDROOT
BRANCH   2   5
HETATM    5  C10 UNL     1     -34.525   6.663   3.904  1.00 20.00    -0.047 C 
HETATM    6  C6  UNL     1     -35.564   7.146   2.872  1.00 20.00     0.015 C 
HETATM    7  C7  UNL     1     -34.454   7.688   5.053  1.00 20.00     0.015 C 
HETATM    8  C8  UNL     1     -34.988   5.308   4.475  1.00 20.00     0.015 C 
ENDBRANCH   2   5
BRANCH   3   9
HETATM    9  C9  UNL     1     -31.784   7.666   1.369  1.00 20.00     0.003 C 
HETATM   10  C5  UNL     1     -32.031   9.023   0.787  1.00 20.00     0.005 C 
ENDBRANCH   3   9
BRANCH   4  11
HETATM   11  O11 UNL     1     -32.395   4.999   0.286  1.00 20.00    -0.395 OA
HETATM   12  H31 UNL     1     -31.568   4.727   0.705  1.00 20.00     0.210 HD
ENDBRANCH   4  11
TORSDOF 3
ENDMDL
MODEL 8
REMARK VINA RESULT:       1.4      2.266      3.923
REMARK  3 active torsions:
REMARK  status: ('A' for Active; 'I' for Inactive)
REMARK    1  A    between atoms: C2_2  and  C10_10 
REMARK    2  A    between atoms: C3_3  and  C9_9 
REMARK    3  A    between atoms: C4_4  and  O11_11 
ROOT
HETATM    1  C1  UNL     1     -33.368   8.002   1.906  1.00 20.00     0.038 C 
HETATM    2  C2  UNL     1     -33.892   6.586   2.237  1.00 20.00     0.002 C 
HETATM    3  C3  UNL     1     -32.474   6.040   1.901  1.00 20.00     0.019 C 
HETATM    4  C4  UNL     1     -31.928   7.482   2.099  1.00 20.00     0.123 C 
ENDROOT
BRANCH   2   5
HETATM    5  C10 UNL     1     -34.355   6.373   3.671  1.00 20.00    -0.047 C 
HETATM    6  C6  UNL     1     -33.809   7.494   4.578  1.00 20.00     0.015 C 
HETATM    7  C7  UNL     1     -33.846   5.016   4.197  1.00 20.00     0.015 C 
HETATM    8  C8  UNL     1     -35.895   6.386   3.739  1.00 20.00     0.015 C 
ENDBRANCH   2   5
BRANCH   3   9
HETATM    9  C9  UNL     1     -32.333   5.427   0.514  1.00 20.00     0.003 C 
HETATM   10  C5  UNL     1     -31.371   4.279   0.502  1.00 20.00     0.005 C 
ENDBRANCH   3   9
BRANCH   4  11
HETATM   11  O11 UNL     1     -30.956   7.949   1.149  1.00 20.00    -0.395 OA
HETATM   12  H31 UNL     1     -30.096   7.697   1.511  1.00 20.00     0.210 HD
ENDBRANCH   4  11
TORSDOF 3
ENDMDL
MODEL 9
REMARK VINA RESULT:       1.6      0.684      1.474
REMARK  3 active torsions:
REMARK  status: ('A' for Active; 'I' for Inactive)
REMARK    1  A    between atoms: C2_2  and  C10_10 
REMARK    2  A    between atoms: C3_3  and  C9_9 
REMARK    3  A    between atoms: C4_4  and  O11_11 
ROOT
HETATM    1  C1  UNL     1     -33.112   7.205   3.447  1.00 20.00     0.038 C 
HETATM    2  C2  UNL     1     -32.649   5.873   2.815  1.00 20.00     0.002 C 
HETATM    3  C3  UNL     1     -33.980   5.236   3.308  1.00 20.00     0.019 C 
HETATM    4  C4  UNL     1     -34.560   6.673   3.434  1.00 20.00     0.123 C 
ENDROOT
BRANCH   2   5
HETATM    5  C10 UNL     1     -32.449   5.893   1.307  1.00 20.00    -0.047 C 
HETATM    6  C6  UNL     1     -31.850   7.245   0.868  1.00 20.00     0.015 C 
HETATM    7  C7  UNL     1     -33.799   5.692   0.590  1.00 20.00     0.015 C 
HETATM    8  C8  UNL     1     -31.488   4.765   0.882  1.00 20.00     0.015 C 
ENDBRANCH   2   5
BRANCH   3   9
HETATM    9  C9  UNL     1     -33.866   4.417   4.587  1.00 20.00     0.003 C 
HETATM   10  C5  UNL     1     -33.128   3.133   4.368  1.00 20.00     0.005 C 
ENDBRANCH   3   9
BRANCH   4  11
HETATM   11  O11 UNL     1     -35.348   6.959   4.602  1.00 20.00    -0.395 OA
HETATM   12  H31 UNL     1     -35.563   6.100   4.988  1.00 20.00     0.210 HD
ENDBRANCH   4  11
TORSDOF 3
ENDMDL
