MODEL 1
REMARK VINA RESULT:      -0.2      0.000      0.000
REMARK  2 active torsions:
REMARK  status: ('A' for Active; 'I' for Inactive)
REMARK    1  A    between atoms: C4_4  and  C7_7 
REMARK    2  A    between atoms: C6_6  and  C9_9 
ROOT
HETATM    1  C5  UNL     1     -31.409   7.931   2.501  1.00 20.00     0.021 A 
HETATM    2  C6  UNL     1     -32.493   8.362   1.557  1.00 20.00     0.009 A 
HETATM    3  C7  UNL     1     -32.367   6.888   1.943  1.00 20.00    -0.012 A 
HETATM    4  C8  UNL     1     -31.836   5.885   0.960  1.00 20.00     0.021 C 
ENDROOT
BRANCH   3   5
HETATM    5  C4  UNL     1     -33.455   6.353   2.916  1.00 20.00    -0.043 A 
HETATM    6  C1  UNL     1     -34.442   7.174   3.536  1.00 20.00     0.015 A 
HETATM    7  C2  UNL     1     -35.282   6.448   4.351  1.00 20.00     0.050 A 
HETATM    8  S10 UNL     1     -34.882   4.783   4.367  1.00 20.00    -0.113 SA
HETATM    9  C3  UNL     1     -33.580   5.030   3.281  1.00 20.00     0.057 A 
ENDBRANCH   3   5
BRANCH   2  10
HETATM   10  C9  UNL     1     -32.149   8.867   0.197  1.00 20.00     0.090 C 
HETATM   11 BR11 UNL     1     -32.727  10.719  -0.009  1.00 20.00    -0.096 Br
ENDBRANCH   2  10
TORSDOF 2
ENDMDL
MODEL 2
REMARK VINA RESULT:       0.2      0.606      1.235
REMARK  2 active torsions:
REMARK  status: ('A' for Active; 'I' for Inactive)
REMARK    1  A    between atoms: C4_4  and  C7_7 
REMARK    2  A    between atoms: C6_6  and  C9_9 
ROOT
HETATM    1  C5  UNL     1     -31.359   7.792   2.486  1.00 20.00     0.021 A 
HETATM    2  C6  UNL     1     -32.450   8.264   1.571  1.00 20.00     0.009 A 
HETATM    3  C7  UNL     1     -32.336   6.778   1.909  1.00 20.00    -0.012 A 
HETATM    4  C8  UNL     1     -31.829   5.800   0.888  1.00 20.00     0.021 C 
ENDROOT
BRANCH   3   5
HETATM    5  C4  UNL     1     -33.418   6.225   2.879  1.00 20.00    -0.043 A 
HETATM    6  C1  UNL     1     -33.490   4.866   3.300  1.00 20.00     0.015 A 
HETATM    7  C2  UNL     1     -34.545   4.645   4.158  1.00 20.00     0.050 A 
HETATM    8  S10 UNL     1     -35.443   6.072   4.454  1.00 20.00    -0.113 SA
HETATM    9  C3  UNL     1     -34.421   6.992   3.432  1.00 20.00     0.057 A 
ENDBRANCH   3   5
BRANCH   2  10
HETATM   10  C9  UNL     1     -32.117   8.808   0.222  1.00 20.00     0.090 C 
HETATM   11 BR11 UNL     1     -32.727  10.655   0.062  1.00 20.00    -0.096 Br
ENDBRANCH   2  10
TORSDOF 2
ENDMDL
MODEL 3
REMARK VINA RESULT:       1.8      3.449      4.956
REMARK  2 active torsions:
REMARK  status: ('A' for Active; 'I' for Inactive)
REMARK    1  A    between atoms: C4_4  and  C7_7 
REMARK    2  A    between atoms: C6_6  and  C9_9 
ROOT
HETATM    1  C5  UNL     1     -32.766   6.125   2.537  1.00 20.00     0.021 A 
HETATM    2  C6  UNL     1     -34.124   6.749   2.661  1.00 20.00     0.009 A 
HETATM    3  C7  UNL     1     -32.876   7.618   2.810  1.00 20.00    -0.012 A 
HETATM    4  C8  UNL     1     -32.459   8.130   4.159  1.00 20.00     0.021 C 
ENDROOT
BRANCH   3   5
HETATM    5  C4  UNL     1     -32.572   8.567   1.616  1.00 20.00    -0.043 A 
HETATM    6  C1  UNL     1     -31.707   8.233   0.534  1.00 20.00     0.015 A 
HETATM    7  C2  UNL     1     -31.614   9.253  -0.388  1.00 20.00     0.050 A 
HETATM    8  S10 UNL     1     -32.566  10.606   0.052  1.00 20.00    -0.113 SA
HETATM    9  C3  UNL     1     -33.107   9.830   1.480  1.00 20.00     0.057 A 
ENDBRANCH   3   5
BRANCH   2  10
HETATM   10  C9  UNL     1     -35.006   6.409   3.814  1.00 20.00     0.090 C 
HETATM   11 BR11 UNL     1     -34.630   4.603   4.451  1.00 20.00    -0.096 Br
ENDBRANCH   2  10
TORSDOF 2
ENDMDL
MODEL 4
REMARK VINA RESULT:       1.9      3.470      4.847
REMARK  2 active torsions:
REMARK  status: ('A' for Active; 'I' for Inactive)
REMARK    1  A    between atoms: C4_4  and  C7_7 
REMARK    2  A    between atoms: C6_6  and  C9_9 
ROOT
HETATM    1  C5  UNL     1     -32.485   6.260   2.299  1.00 20.00     0.021 A 
HETATM    2  C6  UNL     1     -33.872   6.794   2.502  1.00 20.00     0.009 A 
HETATM    3  C7  UNL     1     -32.675   7.738   2.608  1.00 20.00    -0.012 A 
HETATM    4  C8  UNL     1     -32.224   8.251   3.945  1.00 20.00     0.021 C 
ENDROOT
BRANCH   3   5
HETATM    5  C4  UNL     1     -32.492   8.726   1.421  1.00 20.00    -0.043 A 
HETATM    6  C1  UNL     1     -33.000  10.057   1.407  1.00 20.00     0.015 A 
HETATM    7  C2  UNL     1     -32.697  10.715   0.236  1.00 20.00     0.050 A 
HETATM    8  S10 UNL     1     -31.804   9.729  -0.843  1.00 20.00    -0.113 SA
HETATM    9  C3  UNL     1     -31.820   8.417   0.258  1.00 20.00     0.057 A 
ENDBRANCH   3   5
BRANCH   2  10
HETATM   10  C9  UNL     1     -34.672   6.377   3.690  1.00 20.00     0.090 C 
HETATM   11 BR11 UNL     1     -34.283   4.523   4.158  1.00 20.00    -0.096 Br
ENDBRANCH   2  10
TORSDOF 2
ENDMDL
MODEL 5
REMARK VINA RESULT:       2.3      1.312      2.161
REMARK  2 active torsions:
REMARK  status: ('A' for Active; 'I' for Inactive)
REMARK    1  A    between atoms: C4_4  and  C7_7 
REMARK    2  A    between atoms: C6_6  and  C9_9 
ROOT
HETATM    1  C5  UNL     1     -33.533   6.791   1.188  1.00 20.00     0.021 A 
HETATM    2  C6  UNL     1     -32.242   7.003   1.922  1.00 20.00     0.009 A 
HETATM    3  C7  UNL     1     -33.544   6.858   2.709  1.00 20.00    -0.012 A 
HETATM    4  C8  UNL     1     -34.175   8.052   3.366  1.00 20.00     0.021 C 
ENDROOT
BRANCH   3   5
HETATM    5  C4  UNL     1     -33.727   5.510   3.463  1.00 20.00    -0.043 A 
HETATM    6  C1  UNL     1     -34.814   5.229   4.339  1.00 20.00     0.015 A 
HETATM    7  C2  UNL     1     -34.733   3.963   4.876  1.00 20.00     0.050 A 
HETATM    8  S10 UNL     1     -33.350   3.118   4.323  1.00 20.00    -0.113 SA
HETATM    9  C3  UNL     1     -32.855   4.447   3.362  1.00 20.00     0.057 A 
ENDBRANCH   3   5
BRANCH   2  10
HETATM   10  C9  UNL     1     -31.515   8.300   1.806  1.00 20.00     0.090 C 
HETATM   11 BR11 UNL     1     -32.253   9.368   0.349  1.00 20.00    -0.096 Br
ENDBRANCH   2  10
TORSDOF 2
ENDMDL
MODEL 6
REMARK VINA RESULT:       2.7      1.145      1.619
REMARK  2 active torsions:
REMARK  status: ('A' for Active; 'I' for Inactive)
REMARK    1  A    between atoms: C4_4  and  C7_7 
REMARK    2  A    between atoms: C6_6  and  C9_9 
ROOT
HETATM    1  C5  UNL     1     -33.843   8.951   2.253  1.00 20.00     0.021 A 
HETATM    2  C6  UNL     1     -32.922   8.106   1.423  1.00 20.00     0.009 A 
HETATM    3  C7  UNL     1     -32.961   7.919   2.940  1.00 20.00    -0.012 A 
HETATM    4  C8  UNL     1     -31.829   8.405   3.798  1.00 20.00     0.021 C 
ENDROOT
BRANCH   3   5
HETATM    5  C4  UNL     1     -33.665   6.625   3.439  1.00 20.00    -0.043 A 
HETATM    6  C1  UNL     1     -34.958   6.602   4.037  1.00 20.00     0.015 A 
HETATM    7  C2  UNL     1     -35.344   5.327   4.388  1.00 20.00     0.050 A 
HETATM    8  S10 UNL     1     -34.150   4.163   3.995  1.00 20.00    -0.113 SA
HETATM    9  C3  UNL     1     -33.112   5.365   3.354  1.00 20.00     0.057 A 
ENDBRANCH   3   5
BRANCH   2  10
HETATM   10  C9  UNL     1     -31.761   8.725   0.722  1.00 20.00     0.090 C 
HETATM   11 BR11 UNL     1     -32.324  10.318  -0.255  1.00 20.00    -0.096 Br
ENDBRANCH   2  10
TORSDOF 2
ENDMDL
