MODEL 1
REMARK VINA RESULT:       0.2      0.000      0.000
REMARK  2 active torsions:
REMARK  status: ('A' for Active; 'I' for Inactive)
REMARK    1  A    between atoms: C4_4  and  C6_6 
REMARK    2  A    between atoms: C7_7  and  C8_8 
ROOT
HETATM    1  C1  UNL     1     -34.500   6.793   3.078  1.00 20.00     0.015 A 
HETATM    2  C2  UNL     1     -35.208   6.543   4.233  1.00 20.00     0.050 A 
HETATM    3  C3  UNL     1     -33.966   4.564   3.465  1.00 20.00     0.057 A 
HETATM    4  C4  UNL     1     -33.780   5.647   2.633  1.00 20.00    -0.047 A 
HETATM    5  S9  UNL     1     -35.003   4.932   4.776  1.00 20.00    -0.113 SA
ENDROOT
BRANCH   4   6
HETATM    6  C6  UNL     1     -32.899   5.622   1.372  1.00 20.00     0.024 A 
HETATM    7  C5  UNL     1     -31.397   5.575   1.543  1.00 20.00     0.016 A 
HETATM    8  C7  UNL     1     -32.040   6.820   1.008  1.00 20.00     0.004 A 
BRANCH   8   9
HETATM    9  C8  UNL     1     -32.031   8.073   1.815  1.00 20.00     0.090 C 
HETATM   10 BR10 UNL     1     -32.292   9.626   0.662  1.00 20.00    -0.096 Br
ENDBRANCH   8   9
ENDBRANCH   4   6
TORSDOF 2
ENDMDL
MODEL 2
REMARK VINA RESULT:       0.2      1.252      1.570
REMARK  2 active torsions:
REMARK  status: ('A' for Active; 'I' for Inactive)
REMARK    1  A    between atoms: C4_4  and  C6_6 
REMARK    2  A    between atoms: C7_7  and  C8_8 
ROOT
HETATM    1  C1  UNL     1     -33.403   7.804   3.728  1.00 20.00     0.015 A 
HETATM    2  C2  UNL     1     -34.460   7.466   4.545  1.00 20.00     0.050 A 
HETATM    3  C3  UNL     1     -34.061   5.775   2.804  1.00 20.00     0.057 A 
HETATM    4  C4  UNL     1     -33.172   6.824   2.720  1.00 20.00    -0.047 A 
HETATM    5  S9  UNL     1     -35.167   5.973   4.095  1.00 20.00    -0.113 SA
ENDROOT
BRANCH   4   6
HETATM    6  C6  UNL     1     -32.060   6.927   1.661  1.00 20.00     0.024 A 
HETATM    7  C5  UNL     1     -30.874   7.822   1.949  1.00 20.00     0.016 A 
HETATM    8  C7  UNL     1     -31.854   8.213   0.883  1.00 20.00     0.004 A 
BRANCH   8   9
HETATM    9  C8  UNL     1     -32.723   9.410   1.068  1.00 20.00     0.090 C 
HETATM   10 BR10 UNL     1     -32.754  10.488  -0.559  1.00 20.00    -0.096 Br
ENDBRANCH   8   9
ENDBRANCH   4   6
TORSDOF 2
ENDMDL
MODEL 3
REMARK VINA RESULT:       0.4      3.374      4.629
REMARK  2 active torsions:
REMARK  status: ('A' for Active; 'I' for Inactive)
REMARK    1  A    between atoms: C4_4  and  C6_6 
REMARK    2  A    between atoms: C7_7  and  C8_8 
ROOT
HETATM    1  C1  UNL     1     -32.445   8.648  -0.315  1.00 20.00     0.015 A 
HETATM    2  C2  UNL     1     -32.695   9.964  -0.638  1.00 20.00     0.050 A 
HETATM    3  C3  UNL     1     -32.277   9.665   1.768  1.00 20.00     0.057 A 
HETATM    4  C4  UNL     1     -32.203   8.475   1.078  1.00 20.00    -0.047 A 
HETATM    5  S9  UNL     1     -32.636  10.983   0.737  1.00 20.00    -0.113 SA
ENDROOT
BRANCH   4   6
HETATM    6  C6  UNL     1     -31.896   7.117   1.734  1.00 20.00     0.024 A 
HETATM    7  C5  UNL     1     -32.778   5.936   1.393  1.00 20.00     0.016 A 
HETATM    8  C7  UNL     1     -32.837   6.530   2.769  1.00 20.00     0.004 A 
BRANCH   8   9
HETATM    9  C8  UNL     1     -34.067   7.238   3.227  1.00 20.00     0.090 C 
HETATM   10 BR10 UNL     1     -35.280   5.992   4.113  1.00 20.00    -0.096 Br
ENDBRANCH   8   9
ENDBRANCH   4   6
TORSDOF 2
ENDMDL
MODEL 4
REMARK VINA RESULT:       0.4      3.247      4.620
REMARK  2 active torsions:
REMARK  status: ('A' for Active; 'I' for Inactive)
REMARK    1  A    between atoms: C4_4  and  C6_6 
REMARK    2  A    between atoms: C7_7  and  C8_8 
ROOT
HETATM    1  C1  UNL     1     -32.816   6.081   1.551  1.00 20.00     0.015 A 
HETATM    2  C2  UNL     1     -31.757   6.913   1.258  1.00 20.00     0.050 A 
HETATM    3  C3  UNL     1     -33.135   7.783   3.101  1.00 20.00     0.057 A 
HETATM    4  C4  UNL     1     -33.614   6.585   2.618  1.00 20.00    -0.047 A 
HETATM    5  S9  UNL     1     -31.728   8.294   2.269  1.00 20.00    -0.113 SA
ENDROOT
BRANCH   4   6
HETATM    6  C6  UNL     1     -34.864   5.874   3.165  1.00 20.00     0.024 A 
HETATM    7  C5  UNL     1     -35.260   6.121   4.605  1.00 20.00     0.016 A 
HETATM    8  C7  UNL     1     -34.732   4.775   4.204  1.00 20.00     0.004 A 
BRANCH   8   9
HETATM    9  C8  UNL     1     -33.411   4.308   4.713  1.00 20.00     0.090 C 
HETATM   10 BR10 UNL     1     -33.260   2.370   4.534  1.00 20.00    -0.096 Br
ENDBRANCH   8   9
ENDBRANCH   4   6
TORSDOF 2
ENDMDL
MODEL 5
REMARK VINA RESULT:       0.5      3.458      4.617
REMARK  2 active torsions:
REMARK  status: ('A' for Active; 'I' for Inactive)
REMARK    1  A    between atoms: C4_4  and  C6_6 
REMARK    2  A    between atoms: C7_7  and  C8_8 
ROOT
HETATM    1  C1  UNL     1     -32.421   9.807   1.748  1.00 20.00     0.015 A 
HETATM    2  C2  UNL     1     -32.708  10.848   0.892  1.00 20.00     0.050 A 
HETATM    3  C3  UNL     1     -32.333   8.736  -0.312  1.00 20.00     0.057 A 
HETATM    4  C4  UNL     1     -32.204   8.584   1.050  1.00 20.00    -0.047 A 
HETATM    5  S9  UNL     1     -32.716  10.348  -0.745  1.00 20.00    -0.113 SA
ENDROOT
BRANCH   4   6
HETATM    6  C6  UNL     1     -31.865   7.251   1.740  1.00 20.00     0.024 A 
HETATM    7  C5  UNL     1     -32.725   6.044   1.436  1.00 20.00     0.016 A 
HETATM    8  C7  UNL     1     -32.789   6.673   2.796  1.00 20.00     0.004 A 
BRANCH   8   9
HETATM    9  C8  UNL     1     -34.030   7.367   3.242  1.00 20.00     0.090 C 
HETATM   10 BR10 UNL     1     -35.256   6.101   4.079  1.00 20.00    -0.096 Br
ENDBRANCH   8   9
ENDBRANCH   4   6
TORSDOF 2
ENDMDL
MODEL 6
REMARK VINA RESULT:       0.5      3.297      4.528
REMARK  2 active torsions:
REMARK  status: ('A' for Active; 'I' for Inactive)
REMARK    1  A    between atoms: C4_4  and  C6_6 
REMARK    2  A    between atoms: C7_7  and  C8_8 
ROOT
HETATM    1  C1  UNL     1     -33.231   7.831   3.546  1.00 20.00     0.015 A 
HETATM    2  C2  UNL     1     -32.133   8.402   2.940  1.00 20.00     0.050 A 
HETATM    3  C3  UNL     1     -32.947   6.433   1.711  1.00 20.00     0.057 A 
HETATM    4  C4  UNL     1     -33.702   6.691   2.834  1.00 20.00    -0.047 A 
HETATM    5  S9  UNL     1     -31.676   7.564   1.519  1.00 20.00    -0.113 SA
ENDROOT
BRANCH   4   6
HETATM    6  C6  UNL     1     -34.914   5.847   3.269  1.00 20.00     0.024 A 
HETATM    7  C5  UNL     1     -35.366   5.928   4.711  1.00 20.00     0.016 A 
HETATM    8  C7  UNL     1     -34.734   4.665   4.204  1.00 20.00     0.004 A 
BRANCH   8   9
HETATM    9  C8  UNL     1     -33.398   4.241   4.711  1.00 20.00     0.090 C 
HETATM   10 BR10 UNL     1     -33.191   2.307   4.550  1.00 20.00    -0.096 Br
ENDBRANCH   8   9
ENDBRANCH   4   6
TORSDOF 2
ENDMDL
MODEL 7
REMARK VINA RESULT:       1.5      3.368      4.810
REMARK  2 active torsions:
REMARK  status: ('A' for Active; 'I' for Inactive)
REMARK    1  A    between atoms: C4_4  and  C6_6 
REMARK    2  A    between atoms: C7_7  and  C8_8 
ROOT
HETATM    1  C1  UNL     1     -31.968   7.726   1.902  1.00 20.00     0.015 A 
HETATM    2  C2  UNL     1     -31.347   8.172   0.755  1.00 20.00     0.050 A 
HETATM    3  C3  UNL     1     -33.195   9.644   1.439  1.00 20.00     0.057 A 
HETATM    4  C4  UNL     1     -33.038   8.578   2.297  1.00 20.00    -0.047 A 
HETATM    5  S9  UNL     1     -32.054   9.614   0.162  1.00 20.00    -0.113 SA
ENDROOT
BRANCH   4   6
HETATM    6  C6  UNL     1     -33.915   8.336   3.538  1.00 20.00     0.024 A 
HETATM    7  C5  UNL     1     -33.302   7.628   4.726  1.00 20.00     0.016 A 
HETATM    8  C7  UNL     1     -34.351   6.931   3.911  1.00 20.00     0.004 A 
BRANCH   8   9
HETATM    9  C8  UNL     1     -33.993   5.737   3.094  1.00 20.00     0.090 C 
HETATM   10 BR10 UNL     1     -33.976   4.132   4.203  1.00 20.00    -0.096 Br
ENDBRANCH   8   9
ENDBRANCH   4   6
TORSDOF 2
ENDMDL
MODEL 8
REMARK VINA RESULT:       1.7      3.310      4.676
REMARK  2 active torsions:
REMARK  status: ('A' for Active; 'I' for Inactive)
REMARK    1  A    between atoms: C4_4  and  C6_6 
REMARK    2  A    between atoms: C7_7  and  C8_8 
ROOT
HETATM    1  C1  UNL     1     -33.163   9.748   1.359  1.00 20.00     0.015 A 
HETATM    2  C2  UNL     1     -32.253   9.725   0.324  1.00 20.00     0.050 A 
HETATM    3  C3  UNL     1     -31.991   7.798   1.830  1.00 20.00     0.057 A 
HETATM    4  C4  UNL     1     -33.010   8.632   2.231  1.00 20.00    -0.047 A 
HETATM    5  S9  UNL     1     -31.223   8.360   0.407  1.00 20.00    -0.113 SA
ENDROOT
BRANCH   4   6
HETATM    6  C6  UNL     1     -33.884   8.390   3.474  1.00 20.00     0.024 A 
HETATM    7  C5  UNL     1     -33.261   7.700   4.668  1.00 20.00     0.016 A 
HETATM    8  C7  UNL     1     -34.301   6.982   3.860  1.00 20.00     0.004 A 
BRANCH   8   9
HETATM    9  C8  UNL     1     -33.927   5.786   3.053  1.00 20.00     0.090 C 
HETATM   10 BR10 UNL     1     -33.976   4.178   4.157  1.00 20.00    -0.096 Br
ENDBRANCH   8   9
ENDBRANCH   4   6
TORSDOF 2
ENDMDL
MODEL 9
REMARK VINA RESULT:       1.8      1.746      1.877
REMARK  2 active torsions:
REMARK  status: ('A' for Active; 'I' for Inactive)
REMARK    1  A    between atoms: C4_4  and  C6_6 
REMARK    2  A    between atoms: C7_7  and  C8_8 
ROOT
HETATM    1  C1  UNL     1     -34.969   6.059   3.670  1.00 20.00     0.015 A 
HETATM    2  C2  UNL     1     -35.138   5.025   4.565  1.00 20.00     0.050 A 
HETATM    3  C3  UNL     1     -33.129   4.729   3.177  1.00 20.00     0.057 A 
HETATM    4  C4  UNL     1     -33.806   5.887   2.867  1.00 20.00    -0.047 A 
HETATM    5  S9  UNL     1     -33.895   3.855   4.434  1.00 20.00    -0.113 SA
ENDROOT
BRANCH   4   6
HETATM    6  C6  UNL     1     -33.359   6.880   1.779  1.00 20.00     0.024 A 
HETATM    7  C5  UNL     1     -31.932   6.809   1.281  1.00 20.00     0.016 A 
HETATM    8  C7  UNL     1     -32.370   7.984   2.103  1.00 20.00     0.004 A 
BRANCH   8   9
HETATM    9  C8  UNL     1     -31.816   8.187   3.472  1.00 20.00     0.090 C 
HETATM   10 BR10 UNL     1     -33.258   8.482   4.753  1.00 20.00    -0.096 Br
ENDBRANCH   8   9
ENDBRANCH   4   6
TORSDOF 2
ENDMDL
