MODEL 1
REMARK VINA RESULT:      -1.5      0.000      0.000
REMARK  2 active torsions:
REMARK  status: ('A' for Active; 'I' for Inactive)
REMARK    1  A    between atoms: C4_4  and  C6_6 
REMARK    2  A    between atoms: C5_5  and  C8_8 
ROOT
HETATM    1  C3  UNL     1     -31.776   6.777   1.855  1.00 20.00     0.016 A 
HETATM    2  C5  UNL     1     -32.618   7.866   1.255  1.00 20.00     0.009 A 
HETATM    3  C6  UNL     1     -32.951   7.330   2.646  1.00 20.00    -0.035 A 
HETATM    4  C7  UNL     1     -32.617   8.177   3.850  1.00 20.00     0.016 C 
ENDROOT
BRANCH   3   5
HETATM    5  C4  UNL     1     -34.222   6.486   2.835  1.00 20.00    -0.006 A 
HETATM    6  C1  UNL     1     -34.279   5.304   3.763  1.00 20.00     0.006 A 
HETATM    7  C2  UNL     1     -35.058   6.548   4.083  1.00 20.00     0.006 A 
ENDBRANCH   3   5
BRANCH   2   8
HETATM    8  C8  UNL     1     -32.044   9.222   1.026  1.00 20.00     0.120 C 
HETATM    9 CL9  UNL     1     -32.766   9.994  -0.413  1.00 20.00    -0.130 Cl
ENDBRANCH   2   8
TORSDOF 2
ENDMDL
MODEL 2
REMARK VINA RESULT:      -1.3      2.979      4.447
REMARK  2 active torsions:
REMARK  status: ('A' for Active; 'I' for Inactive)
REMARK    1  A    between atoms: C4_4  and  C6_6 
REMARK    2  A    between atoms: C5_5  and  C8_8 
ROOT
HETATM    1  C3  UNL     1     -35.530   6.553   3.437  1.00 20.00     0.016 A 
HETATM    2  C5  UNL     1     -34.493   5.470   3.539  1.00 20.00     0.009 A 
HETATM    3  C6  UNL     1     -34.059   6.934   3.499  1.00 20.00    -0.035 A 
HETATM    4  C7  UNL     1     -33.582   7.587   4.774  1.00 20.00     0.016 C 
ENDROOT
BRANCH   3   5
HETATM    5  C4  UNL     1     -33.346   7.467   2.245  1.00 20.00    -0.006 A 
HETATM    6  C1  UNL     1     -31.920   7.943   2.264  1.00 20.00     0.006 A 
HETATM    7  C2  UNL     1     -32.282   6.687   1.524  1.00 20.00     0.006 A 
ENDBRANCH   3   5
BRANCH   2   8
HETATM    8  C8  UNL     1     -34.397   4.631   4.766  1.00 20.00     0.120 C 
HETATM    9 CL9  UNL     1     -33.412   3.171   4.476  1.00 20.00    -0.130 Cl
ENDBRANCH   2   8
TORSDOF 2
ENDMDL
MODEL 3
REMARK VINA RESULT:      -1.0      2.342      4.309
REMARK  2 active torsions:
REMARK  status: ('A' for Active; 'I' for Inactive)
REMARK    1  A    between atoms: C4_4  and  C6_6 
REMARK    2  A    between atoms: C5_5  and  C8_8 
ROOT
HETATM    1  C3  UNL     1     -32.241   8.369   3.227  1.00 20.00     0.016 A 
HETATM    2  C5  UNL     1     -33.538   7.663   2.952  1.00 20.00     0.009 A 
HETATM    3  C6  UNL     1     -32.570   7.946   1.804  1.00 20.00    -0.035 A 
HETATM    4  C7  UNL     1     -31.764   6.803   1.235  1.00 20.00     0.016 C 
ENDROOT
BRANCH   3   5
HETATM    5  C4  UNL     1     -32.949   9.001   0.751  1.00 20.00    -0.006 A 
HETATM    6  C1  UNL     1     -32.432  10.411   0.795  1.00 20.00     0.006 A 
HETATM    7  C2  UNL     1     -31.986   9.481  -0.298  1.00 20.00     0.006 A 
ENDBRANCH   3   5
BRANCH   2   8
HETATM    8  C8  UNL     1     -33.780   6.294   3.489  1.00 20.00     0.120 C 
HETATM    9 CL9  UNL     1     -35.449   6.124   4.097  1.00 20.00    -0.130 Cl
ENDBRANCH   2   8
TORSDOF 2
ENDMDL
MODEL 4
REMARK VINA RESULT:      -0.7      1.376      2.093
REMARK  2 active torsions:
REMARK  status: ('A' for Active; 'I' for Inactive)
REMARK    1  A    between atoms: C4_4  and  C6_6 
REMARK    2  A    between atoms: C5_5  and  C8_8 
ROOT
HETATM    1  C3  UNL     1     -31.230   7.971   2.248  1.00 20.00     0.016 A 
HETATM    2  C5  UNL     1     -32.200   8.344   1.163  1.00 20.00     0.009 A 
HETATM    3  C6  UNL     1     -32.637   7.398   2.280  1.00 20.00    -0.035 A 
HETATM    4  C7  UNL     1     -33.556   7.921   3.357  1.00 20.00     0.016 C 
ENDROOT
BRANCH   3   5
HETATM    5  C4  UNL     1     -32.875   5.915   1.952  1.00 20.00    -0.006 A 
HETATM    6  C1  UNL     1     -33.231   5.438   0.571  1.00 20.00     0.006 A 
HETATM    7  C2  UNL     1     -31.895   5.091   1.164  1.00 20.00     0.006 A 
ENDBRANCH   3   5
BRANCH   2   8
HETATM    8  C8  UNL     1     -32.698   9.743   1.045  1.00 20.00     0.120 C 
HETATM    9 CL9  UNL     1     -32.863  10.228  -0.665  1.00 20.00    -0.130 Cl
ENDBRANCH   2   8
TORSDOF 2
ENDMDL
MODEL 5
REMARK VINA RESULT:      -0.5      1.186      2.072
REMARK  2 active torsions:
REMARK  status: ('A' for Active; 'I' for Inactive)
REMARK    1  A    between atoms: C4_4  and  C6_6 
REMARK    2  A    between atoms: C5_5  and  C8_8 
ROOT
HETATM    1  C3  UNL     1     -34.122   7.693   2.547  1.00 20.00     0.016 A 
HETATM    2  C5  UNL     1     -32.655   7.671   2.870  1.00 20.00     0.009 A 
HETATM    3  C6  UNL     1     -33.424   6.357   2.744  1.00 20.00    -0.035 A 
HETATM    4  C7  UNL     1     -33.221   5.511   1.510  1.00 20.00     0.016 C 
ENDROOT
BRANCH   3   5
HETATM    5  C4  UNL     1     -33.691   5.524   4.009  1.00 20.00    -0.006 A 
HETATM    6  C1  UNL     1     -35.061   5.028   4.379  1.00 20.00     0.006 A 
HETATM    7  C2  UNL     1     -33.996   4.053   3.962  1.00 20.00     0.006 A 
ENDBRANCH   3   5
BRANCH   2   8
HETATM    8  C8  UNL     1     -31.655   8.123   1.863  1.00 20.00     0.120 C 
HETATM    9 CL9  UNL     1     -32.362   9.320   0.742  1.00 20.00    -0.130 Cl
ENDBRANCH   2   8
TORSDOF 2
ENDMDL
MODEL 6
REMARK VINA RESULT:      -0.4      2.637      4.184
REMARK  2 active torsions:
REMARK  status: ('A' for Active; 'I' for Inactive)
REMARK    1  A    between atoms: C4_4  and  C6_6 
REMARK    2  A    between atoms: C5_5  and  C8_8 
ROOT
HETATM    1  C3  UNL     1     -33.024   7.176   4.203  1.00 20.00     0.016 A 
HETATM    2  C5  UNL     1     -34.265   7.612   3.477  1.00 20.00     0.009 A 
HETATM    3  C6  UNL     1     -32.985   7.334   2.691  1.00 20.00    -0.035 A 
HETATM    4  C7  UNL     1     -32.890   6.064   1.881  1.00 20.00     0.016 C 
ENDROOT
BRANCH   3   5
HETATM    5  C4  UNL     1     -32.229   8.513   2.056  1.00 20.00    -0.006 A 
HETATM    6  C1  UNL     1     -31.416   8.371   0.799  1.00 20.00     0.006 A 
HETATM    7  C2  UNL     1     -32.683   9.178   0.787  1.00 20.00     0.006 A 
ENDBRANCH   3   5
BRANCH   2   8
HETATM    8  C8  UNL     1     -35.458   6.721   3.422  1.00 20.00     0.120 C 
HETATM    9 CL9  UNL     1     -35.241   5.286   4.462  1.00 20.00    -0.130 Cl
ENDBRANCH   2   8
TORSDOF 2
ENDMDL
MODEL 7
REMARK VINA RESULT:      -0.3      3.390      4.483
REMARK  2 active torsions:
REMARK  status: ('A' for Active; 'I' for Inactive)
REMARK    1  A    between atoms: C4_4  and  C6_6 
REMARK    2  A    between atoms: C5_5  and  C8_8 
ROOT
HETATM    1  C3  UNL     1     -33.705   5.736   2.314  1.00 20.00     0.016 A 
HETATM    2  C5  UNL     1     -33.467   5.242   3.712  1.00 20.00     0.009 A 
HETATM    3  C6  UNL     1     -34.352   6.466   3.480  1.00 20.00    -0.035 A 
HETATM    4  C7  UNL     1     -35.847   6.319   3.624  1.00 20.00     0.016 C 
ENDROOT
BRANCH   3   5
HETATM    5  C4  UNL     1     -33.837   7.851   3.907  1.00 20.00    -0.006 A 
HETATM    6  C1  UNL     1     -32.999   8.060   5.137  1.00 20.00     0.006 A 
HETATM    7  C2  UNL     1     -32.395   8.256   3.775  1.00 20.00     0.006 A 
ENDBRANCH   3   5
BRANCH   2   8
HETATM    8  C8  UNL     1     -34.007   3.924   4.148  1.00 20.00     0.120 C 
HETATM    9 CL9  UNL     1     -32.771   2.977   5.022  1.00 20.00    -0.130 Cl
ENDBRANCH   2   8
TORSDOF 2
ENDMDL
MODEL 8
REMARK VINA RESULT:      -0.1      2.346      4.095
REMARK  2 active torsions:
REMARK  status: ('A' for Active; 'I' for Inactive)
REMARK    1  A    between atoms: C4_4  and  C6_6 
REMARK    2  A    between atoms: C5_5  and  C8_8 
ROOT
HETATM    1  C3  UNL     1     -33.197   7.708   2.895  1.00 20.00     0.016 A 
HETATM    2  C5  UNL     1     -33.119   6.711   1.774  1.00 20.00     0.009 A 
HETATM    3  C6  UNL     1     -32.401   8.053   1.647  1.00 20.00    -0.035 A 
HETATM    4  C7  UNL     1     -30.899   8.091   1.791  1.00 20.00     0.016 C 
ENDROOT
BRANCH   3   5
HETATM    5  C4  UNL     1     -32.938   9.096   0.652  1.00 20.00    -0.006 A 
HETATM    6  C1  UNL     1     -32.704  10.571   0.818  1.00 20.00     0.006 A 
HETATM    7  C2  UNL     1     -32.049   9.830  -0.312  1.00 20.00     0.006 A 
ENDBRANCH   3   5
BRANCH   2   8
HETATM    8  C8  UNL     1     -32.397   5.421   1.960  1.00 20.00     0.120 C 
HETATM    9 CL9  UNL     1     -31.950   4.698   0.390  1.00 20.00    -0.130 Cl
ENDBRANCH   2   8
TORSDOF 2
ENDMDL
MODEL 9
REMARK VINA RESULT:      -0.0      2.743      3.756
REMARK  2 active torsions:
REMARK  status: ('A' for Active; 'I' for Inactive)
REMARK    1  A    between atoms: C4_4  and  C6_6 
REMARK    2  A    between atoms: C5_5  and  C8_8 
ROOT
HETATM    1  C3  UNL     1     -35.586   6.093   3.563  1.00 20.00     0.016 A 
HETATM    2  C5  UNL     1     -34.507   6.702   4.412  1.00 20.00     0.009 A 
HETATM    3  C6  UNL     1     -34.254   5.375   3.701  1.00 20.00    -0.035 A 
HETATM    4  C7  UNL     1     -33.362   5.361   2.482  1.00 20.00     0.016 C 
ENDROOT
BRANCH   3   5
HETATM    5  C4  UNL     1     -34.152   4.088   4.537  1.00 20.00    -0.006 A 
HETATM    6  C1  UNL     1     -33.443   2.856   4.046  1.00 20.00     0.006 A 
HETATM    7  C2  UNL     1     -32.873   3.645   5.191  1.00 20.00     0.006 A 
ENDBRANCH   3   5
BRANCH   2   8
HETATM    8  C8  UNL     1     -33.856   7.978   4.002  1.00 20.00     0.120 C 
HETATM    9 CL9  UNL     1     -32.617   8.480   5.186  1.00 20.00    -0.130 Cl
ENDBRANCH   2   8
TORSDOF 2
ENDMDL
