MODEL 1
REMARK VINA RESULT:      -1.6      0.000      0.000
REMARK  3 active torsions:
REMARK  status: ('A' for Active; 'I' for Inactive)
REMARK    1  A    between atoms: C2_2  and  C6_6 
REMARK    2  A    between atoms: C3_3  and  C7_7 
REMARK    3  A    between atoms: C6_6  and  O8_8 
ROOT
HETATM    1  C1  UNL     1     -33.659   5.454   2.187  1.00 20.00     0.017 A 
HETATM    2  C2  UNL     1     -33.273   4.995   3.564  1.00 20.00     0.018 A 
HETATM    3  C3  UNL     1     -33.965   6.346   3.379  1.00 20.00    -0.038 A 
HETATM    4  C4  UNL     1     -35.404   6.517   3.787  1.00 20.00     0.015 C 
ENDROOT
BRANCH   2   5
HETATM    5  C6  UNL     1     -33.951   3.822   4.183  1.00 20.00     0.169 C 
BRANCH   5   6
HETATM    6  O8  UNL     1     -32.996   3.021   4.880  1.00 20.00    -0.400 OA
HETATM    7  H22 UNL     1     -33.482   2.261   5.233  1.00 20.00     0.209 HD
ENDBRANCH   5   6
ENDBRANCH   2   5
BRANCH   3   8
HETATM    8  C7  UNL     1     -33.123   7.580   3.569  1.00 20.00     0.005 C 
HETATM    9  C5  UNL     1     -32.381   7.965   2.321  1.00 20.00     0.006 C 
ENDBRANCH   3   8
TORSDOF 3
ENDMDL
MODEL 2
REMARK VINA RESULT:      -1.6      2.909      3.990
REMARK  3 active torsions:
REMARK  status: ('A' for Active; 'I' for Inactive)
REMARK    1  A    between atoms: C2_2  and  C6_6 
REMARK    2  A    between atoms: C3_3  and  C7_7 
REMARK    3  A    between atoms: C6_6  and  O8_8 
ROOT
HETATM    1  C1  UNL     1     -32.827   6.031   2.692  1.00 20.00     0.017 A 
HETATM    2  C2  UNL     1     -33.085   7.312   1.951  1.00 20.00     0.018 A 
HETATM    3  C3  UNL     1     -33.616   7.137   3.373  1.00 20.00    -0.038 A 
HETATM    4  C4  UNL     1     -32.967   7.872   4.516  1.00 20.00     0.015 C 
ENDROOT
BRANCH   2   5
HETATM    5  C6  UNL     1     -31.958   8.228   1.620  1.00 20.00     0.169 C 
BRANCH   5   6
HETATM    6  O8  UNL     1     -32.408   9.247   0.726  1.00 20.00    -0.400 OA
HETATM    7  H22 UNL     1     -31.890  10.040   0.932  1.00 20.00     0.209 HD
ENDBRANCH   5   6
ENDBRANCH   2   5
BRANCH   3   8
HETATM    8  C7  UNL     1     -35.102   6.946   3.533  1.00 20.00     0.005 C 
HETATM    9  C5  UNL     1     -35.440   5.691   4.286  1.00 20.00     0.006 C 
ENDBRANCH   3   8
TORSDOF 3
ENDMDL
MODEL 3
REMARK VINA RESULT:      -1.6      3.486      4.768
REMARK  3 active torsions:
REMARK  status: ('A' for Active; 'I' for Inactive)
REMARK    1  A    between atoms: C2_2  and  C6_6 
REMARK    2  A    between atoms: C3_3  and  C7_7 
REMARK    3  A    between atoms: C6_6  and  O8_8 
ROOT
HETATM    1  C1  UNL     1     -31.482   7.294   1.503  1.00 20.00     0.017 A 
HETATM    2  C2  UNL     1     -32.562   8.240   1.062  1.00 20.00     0.018 A 
HETATM    3  C3  UNL     1     -32.553   7.712   2.497  1.00 20.00    -0.038 A 
HETATM    4  C4  UNL     1     -32.154   8.619   3.631  1.00 20.00     0.015 C 
ENDROOT
BRANCH   2   5
HETATM    5  C6  UNL     1     -32.231   9.653   0.723  1.00 20.00     0.169 C 
BRANCH   5   6
HETATM    6  O8  UNL     1     -32.802   9.994  -0.540  1.00 20.00    -0.400 OA
HETATM    7  H22 UNL     1     -33.638  10.448  -0.349  1.00 20.00     0.209 HD
ENDBRANCH   5   6
ENDBRANCH   2   5
BRANCH   3   8
HETATM    8  C7  UNL     1     -33.607   6.700   2.863  1.00 20.00     0.005 C 
HETATM    9  C5  UNL     1     -34.450   7.146   4.023  1.00 20.00     0.006 C 
ENDBRANCH   3   8
TORSDOF 3
ENDMDL
MODEL 4
REMARK VINA RESULT:      -1.6      2.138      3.642
REMARK  3 active torsions:
REMARK  status: ('A' for Active; 'I' for Inactive)
REMARK    1  A    between atoms: C2_2  and  C6_6 
REMARK    2  A    between atoms: C3_3  and  C7_7 
REMARK    3  A    between atoms: C6_6  and  O8_8 
ROOT
HETATM    1  C1  UNL     1     -35.507   6.616   3.531  1.00 20.00     0.017 A 
HETATM    2  C2  UNL     1     -34.354   6.987   4.419  1.00 20.00     0.018 A 
HETATM    3  C3  UNL     1     -34.333   5.659   3.662  1.00 20.00    -0.038 A 
HETATM    4  C4  UNL     1     -33.425   5.484   2.473  1.00 20.00     0.015 C 
ENDROOT
BRANCH   2   5
HETATM    5  C6  UNL     1     -33.468   8.131   4.062  1.00 20.00     0.169 C 
BRANCH   5   6
HETATM    6  O8  UNL     1     -32.533   8.367   5.115  1.00 20.00    -0.400 OA
HETATM    7  H22 UNL     1     -32.353   9.320   5.112  1.00 20.00     0.209 HD
ENDBRANCH   5   6
ENDBRANCH   2   5
BRANCH   3   8
HETATM    8  C7  UNL     1     -34.534   4.404   4.470  1.00 20.00     0.005 C 
HETATM    9  C5  UNL     1     -33.446   3.394   4.239  1.00 20.00     0.006 C 
ENDBRANCH   3   8
TORSDOF 3
ENDMDL
MODEL 5
REMARK VINA RESULT:      -1.5      3.420      4.871
REMARK  3 active torsions:
REMARK  status: ('A' for Active; 'I' for Inactive)
REMARK    1  A    between atoms: C2_2  and  C6_6 
REMARK    2  A    between atoms: C3_3  and  C7_7 
REMARK    3  A    between atoms: C6_6  and  O8_8 
ROOT
HETATM    1  C1  UNL     1     -31.089   7.987   1.853  1.00 20.00     0.017 A 
HETATM    2  C2  UNL     1     -32.083   8.334   0.781  1.00 20.00     0.018 A 
HETATM    3  C3  UNL     1     -32.513   7.468   1.965  1.00 20.00    -0.038 A 
HETATM    4  C4  UNL     1     -33.396   8.045   3.039  1.00 20.00     0.015 C 
ENDROOT
BRANCH   2   5
HETATM    5  C6  UNL     1     -32.539   9.741   0.606  1.00 20.00     0.169 C 
BRANCH   5   6
HETATM    6  O8  UNL     1     -32.956   9.952  -0.743  1.00 20.00    -0.400 OA
HETATM    7  H22 UNL     1     -33.905  10.148  -0.709  1.00 20.00     0.209 HD
ENDBRANCH   5   6
ENDBRANCH   2   5
BRANCH   3   8
HETATM    8  C7  UNL     1     -32.753   6.006   1.695  1.00 20.00     0.005 C 
HETATM    9  C5  UNL     1     -33.559   5.348   2.778  1.00 20.00     0.006 C 
ENDBRANCH   3   8
TORSDOF 3
ENDMDL
MODEL 6
REMARK VINA RESULT:      -1.2      1.947      3.118
REMARK  3 active torsions:
REMARK  status: ('A' for Active; 'I' for Inactive)
REMARK    1  A    between atoms: C2_2  and  C6_6 
REMARK    2  A    between atoms: C3_3  and  C7_7 
REMARK    3  A    between atoms: C6_6  and  O8_8 
ROOT
HETATM    1  C1  UNL     1     -32.449   8.070   3.783  1.00 20.00     0.017 A 
HETATM    2  C2  UNL     1     -33.764   7.603   3.229  1.00 20.00     0.018 A 
HETATM    3  C3  UNL     1     -32.623   7.960   2.277  1.00 20.00    -0.038 A 
HETATM    4  C4  UNL     1     -31.877   6.870   1.554  1.00 20.00     0.015 C 
ENDROOT
BRANCH   2   5
HETATM    5  C6  UNL     1     -34.219   6.201   3.451  1.00 20.00     0.169 C 
BRANCH   5   6
HETATM    6  O8  UNL     1     -35.489   6.201   4.103  1.00 20.00    -0.400 OA
HETATM    7  H22 UNL     1     -35.798   7.120   4.101  1.00 20.00     0.209 HD
ENDBRANCH   5   6
ENDBRANCH   2   5
BRANCH   3   8
HETATM    8  C7  UNL     1     -32.759   9.236   1.489  1.00 20.00     0.005 C 
HETATM    9  C5  UNL     1     -32.014   9.187   0.186  1.00 20.00     0.006 C 
ENDBRANCH   3   8
TORSDOF 3
ENDMDL
MODEL 7
REMARK VINA RESULT:      -1.2      1.052      1.575
REMARK  3 active torsions:
REMARK  status: ('A' for Active; 'I' for Inactive)
REMARK    1  A    between atoms: C2_2  and  C6_6 
REMARK    2  A    between atoms: C3_3  and  C7_7 
REMARK    3  A    between atoms: C6_6  and  O8_8 
ROOT
HETATM    1  C1  UNL     1     -35.476   6.760   3.430  1.00 20.00     0.017 A 
HETATM    2  C2  UNL     1     -34.505   5.614   3.467  1.00 20.00     0.018 A 
HETATM    3  C3  UNL     1     -33.984   7.051   3.469  1.00 20.00    -0.038 A 
HETATM    4  C4  UNL     1     -33.410   7.642   4.730  1.00 20.00     0.015 C 
ENDROOT
BRANCH   2   5
HETATM    5  C6  UNL     1     -34.432   4.729   4.664  1.00 20.00     0.169 C 
BRANCH   5   6
HETATM    6  O8  UNL     1     -33.892   3.460   4.297  1.00 20.00    -0.400 OA
HETATM    7  H22 UNL     1     -32.938   3.590   4.184  1.00 20.00     0.209 HD
ENDBRANCH   5   6
ENDBRANCH   2   5
BRANCH   3   8
HETATM    8  C7  UNL     1     -33.330   7.546   2.207  1.00 20.00     0.005 C 
HETATM    9  C5  UNL     1     -31.938   8.059   2.446  1.00 20.00     0.006 C 
ENDBRANCH   3   8
TORSDOF 3
ENDMDL
MODEL 8
REMARK VINA RESULT:      -1.1      1.798      2.438
REMARK  3 active torsions:
REMARK  status: ('A' for Active; 'I' for Inactive)
REMARK    1  A    between atoms: C2_2  and  C6_6 
REMARK    2  A    between atoms: C3_3  and  C7_7 
REMARK    3  A    between atoms: C6_6  and  O8_8 
ROOT
HETATM    1  C1  UNL     1     -33.381   6.902   4.458  1.00 20.00     0.017 A 
HETATM    2  C2  UNL     1     -34.655   7.200   3.721  1.00 20.00     0.018 A 
HETATM    3  C3  UNL     1     -33.343   7.075   2.948  1.00 20.00    -0.038 A 
HETATM    4  C4  UNL     1     -33.081   5.858   2.101  1.00 20.00     0.015 C 
ENDROOT
BRANCH   2   5
HETATM    5  C6  UNL     1     -35.736   6.178   3.643  1.00 20.00     0.169 C 
BRANCH   5   6
HETATM    6  O8  UNL     1     -35.526   5.174   4.636  1.00 20.00    -0.400 OA
HETATM    7  H22 UNL     1     -36.310   5.185   5.206  1.00 20.00     0.209 HD
ENDBRANCH   5   6
ENDBRANCH   2   5
BRANCH   3   8
HETATM    8  C7  UNL     1     -32.744   8.343   2.400  1.00 20.00     0.005 C 
HETATM    9  C5  UNL     1     -31.703   8.078   1.349  1.00 20.00     0.006 C 
ENDBRANCH   3   8
TORSDOF 3
ENDMDL
MODEL 9
REMARK VINA RESULT:      -0.7      2.247      3.502
REMARK  3 active torsions:
REMARK  status: ('A' for Active; 'I' for Inactive)
REMARK    1  A    between atoms: C2_2  and  C6_6 
REMARK    2  A    between atoms: C3_3  and  C7_7 
REMARK    3  A    between atoms: C6_6  and  O8_8 
ROOT
HETATM    1  C1  UNL     1     -34.023   7.558   4.504  1.00 20.00     0.017 A 
HETATM    2  C2  UNL     1     -33.397   6.822   3.354  1.00 20.00     0.018 A 
HETATM    3  C3  UNL     1     -34.804   6.448   3.820  1.00 20.00    -0.038 A 
HETATM    4  C4  UNL     1     -36.000   6.830   2.987  1.00 20.00     0.015 C 
ENDROOT
BRANCH   2   5
HETATM    5  C6  UNL     1     -33.136   7.522   2.065  1.00 20.00     0.169 C 
BRANCH   5   6
HETATM    6  O8  UNL     1     -31.738   7.780   1.927  1.00 20.00    -0.400 OA
HETATM    7  H22 UNL     1     -31.300   7.303   2.649  1.00 20.00     0.209 HD
ENDBRANCH   5   6
ENDBRANCH   2   5
BRANCH   3   8
HETATM    8  C7  UNL     1     -34.961   5.142   4.554  1.00 20.00     0.005 C 
HETATM    9  C5  UNL     1     -34.022   4.084   4.047  1.00 20.00     0.006 C 
ENDBRANCH   3   8
TORSDOF 3
ENDMDL
