MODEL 1
REMARK VINA RESULT:      -0.3      0.000      0.000
REMARK  2 active torsions:
REMARK  status: ('A' for Active; 'I' for Inactive)
REMARK    1  A    between atoms: C6_6  and  C7_7 
REMARK    2  A    between atoms: C8_8  and  C9_9 
ROOT
HETATM    1  C1  UNL     1     -33.078   4.800   4.073  1.00 20.00     0.031 C 
HETATM    2  C2  UNL     1     -34.397   6.931   3.909  1.00 20.00     0.031 C 
HETATM    3  C4  UNL     1     -34.410   4.058   4.064  1.00 20.00     0.168 C 
HETATM    4  C5  UNL     1     -35.653   6.069   3.910  1.00 20.00     0.168 C 
HETATM    5  C6  UNL     1     -33.174   6.168   3.384  1.00 20.00    -0.006 C 
HETATM    6  O10 UNL     1     -35.440   4.861   4.638  1.00 20.00    -0.391 OA
ENDROOT
BRANCH   5   7
HETATM    7  C7  UNL     1     -33.208   6.029   1.859  1.00 20.00    -0.005 A 
HETATM    8  C3  UNL     1     -31.952   5.695   1.113  1.00 20.00     0.011 A 
HETATM    9  C8  UNL     1     -32.585   7.053   0.952  1.00 20.00     0.004 A 
BRANCH   9  10
HETATM   10  C9  UNL     1     -31.893   8.270   1.459  1.00 20.00     0.119 C 
HETATM   11 CL11 UNL     1     -32.304   9.704   0.478  1.00 20.00    -0.130 Cl
ENDBRANCH   9  10
ENDBRANCH   5   7
TORSDOF 2
ENDMDL
MODEL 2
REMARK VINA RESULT:       0.5      1.105      2.111
REMARK  2 active torsions:
REMARK  status: ('A' for Active; 'I' for Inactive)
REMARK    1  A    between atoms: C6_6  and  C7_7 
REMARK    2  A    between atoms: C8_8  and  C9_9 
ROOT
HETATM    1  C1  UNL     1     -35.131   6.631   3.068  1.00 20.00     0.031 C 
HETATM    2  C2  UNL     1     -33.576   4.722   2.571  1.00 20.00     0.031 C 
HETATM    3  C4  UNL     1     -35.258   6.066   4.479  1.00 20.00     0.168 C 
HETATM    4  C5  UNL     1     -33.793   4.265   4.008  1.00 20.00     0.168 C 
HETATM    5  C6  UNL     1     -33.807   6.229   2.403  1.00 20.00    -0.006 C 
HETATM    6  O10 UNL     1     -35.084   4.650   4.475  1.00 20.00    -0.391 OA
ENDROOT
BRANCH   5   7
HETATM    7  C7  UNL     1     -32.632   7.044   2.951  1.00 20.00    -0.005 A 
HETATM    8  C3  UNL     1     -32.827   8.487   3.308  1.00 20.00     0.011 A 
HETATM    9  C8  UNL     1     -31.955   8.112   2.138  1.00 20.00     0.004 A 
BRANCH   9  10
HETATM   10  C9  UNL     1     -32.370   8.458   0.750  1.00 20.00     0.119 C 
HETATM   11 CL11 UNL     1     -32.432  10.227   0.516  1.00 20.00    -0.130 Cl
ENDBRANCH   9  10
ENDBRANCH   5   7
TORSDOF 2
ENDMDL
MODEL 3
REMARK VINA RESULT:       1.5      3.060      4.696
REMARK  2 active torsions:
REMARK  status: ('A' for Active; 'I' for Inactive)
REMARK    1  A    between atoms: C6_6  and  C7_7 
REMARK    2  A    between atoms: C8_8  and  C9_9 
ROOT
HETATM    1  C1  UNL     1     -32.445   7.991   3.272  1.00 20.00     0.031 C 
HETATM    2  C2  UNL     1     -32.167   5.893   1.921  1.00 20.00     0.031 C 
HETATM    3  C4  UNL     1     -32.551   8.744   1.951  1.00 20.00     0.168 C 
HETATM    4  C5  UNL     1     -32.288   6.764   0.676  1.00 20.00     0.168 C 
HETATM    5  C6  UNL     1     -32.863   6.521   3.135  1.00 20.00    -0.006 C 
HETATM    6  O10 UNL     1     -31.806   8.082   0.930  1.00 20.00    -0.391 OA
ENDROOT
BRANCH   5   7
HETATM    7  C7  UNL     1     -34.385   6.375   3.051  1.00 20.00    -0.005 A 
HETATM    8  C3  UNL     1     -35.245   6.871   4.173  1.00 20.00     0.011 A 
HETATM    9  C8  UNL     1     -35.139   5.392   3.903  1.00 20.00     0.004 A 
BRANCH   9  10
HETATM   10  C9  UNL     1     -34.472   4.495   4.887  1.00 20.00     0.119 C 
HETATM   11 CL11 UNL     1     -33.529   3.221   4.064  1.00 20.00    -0.130 Cl
ENDBRANCH   9  10
ENDBRANCH   5   7
TORSDOF 2
ENDMDL
MODEL 4
REMARK VINA RESULT:       1.6      3.318      4.977
REMARK  2 active torsions:
REMARK  status: ('A' for Active; 'I' for Inactive)
REMARK    1  A    between atoms: C6_6  and  C7_7 
REMARK    2  A    between atoms: C8_8  and  C9_9 
ROOT
HETATM    1  C1  UNL     1     -32.032   9.379   2.524  1.00 20.00     0.031 C 
HETATM    2  C2  UNL     1     -31.965   7.296   1.123  1.00 20.00     0.031 C 
HETATM    3  C4  UNL     1     -32.600  10.096   1.304  1.00 20.00     0.168 C 
HETATM    4  C5  UNL     1     -32.535   8.131  -0.018  1.00 20.00     0.168 C 
HETATM    5  C6  UNL     1     -32.326   7.873   2.498  1.00 20.00    -0.006 C 
HETATM    6  O10 UNL     1     -32.130   9.494   0.099  1.00 20.00    -0.391 OA
ENDROOT
BRANCH   5   7
HETATM    7  C7  UNL     1     -33.782   7.577   2.868  1.00 20.00    -0.005 A 
HETATM    8  C3  UNL     1     -34.150   7.318   4.298  1.00 20.00     0.011 A 
HETATM    9  C8  UNL     1     -34.235   6.205   3.285  1.00 20.00     0.004 A 
BRANCH   9  10
HETATM   10  C9  UNL     1     -33.312   5.040   3.370  1.00 20.00     0.119 C 
HETATM   11 CL11 UNL     1     -33.999   3.745   4.391  1.00 20.00    -0.130 Cl
ENDBRANCH   9  10
ENDBRANCH   5   7
TORSDOF 2
ENDMDL
MODEL 5
REMARK VINA RESULT:       1.6      1.430      2.502
REMARK  2 active torsions:
REMARK  status: ('A' for Active; 'I' for Inactive)
REMARK    1  A    between atoms: C6_6  and  C7_7 
REMARK    2  A    between atoms: C8_8  and  C9_9 
ROOT
HETATM    1  C1  UNL     1     -35.443   6.151   3.777  1.00 20.00     0.031 C 
HETATM    2  C2  UNL     1     -33.433   5.042   2.761  1.00 20.00     0.031 C 
HETATM    3  C4  UNL     1     -35.364   5.113   4.890  1.00 20.00     0.168 C 
HETATM    4  C5  UNL     1     -33.469   4.065   3.930  1.00 20.00     0.168 C 
HETATM    5  C6  UNL     1     -34.081   6.387   3.111  1.00 20.00    -0.006 C 
HETATM    6  O10 UNL     1     -34.802   3.894   4.407  1.00 20.00    -0.391 OA
ENDROOT
BRANCH   5   7
HETATM    7  C7  UNL     1     -33.164   7.242   3.991  1.00 20.00    -0.005 A 
HETATM    8  C3  UNL     1     -33.546   8.655   4.314  1.00 20.00     0.011 A 
HETATM    9  C8  UNL     1     -32.356   8.379   3.431  1.00 20.00     0.004 A 
BRANCH   9  10
HETATM   10  C9  UNL     1     -32.384   8.761   1.992  1.00 20.00     0.119 C 
HETATM   11 CL11 UNL     1     -31.472   7.592   0.996  1.00 20.00    -0.130 Cl
ENDBRANCH   9  10
ENDBRANCH   5   7
TORSDOF 2
ENDMDL
MODEL 6
REMARK VINA RESULT:       2.1      3.272      4.888
REMARK  2 active torsions:
REMARK  status: ('A' for Active; 'I' for Inactive)
REMARK    1  A    between atoms: C6_6  and  C7_7 
REMARK    2  A    between atoms: C8_8  and  C9_9 
ROOT
HETATM    1  C1  UNL     1     -32.186   9.346   2.328  1.00 20.00     0.031 C 
HETATM    2  C2  UNL     1     -31.339   8.358   0.181  1.00 20.00     0.031 C 
HETATM    3  C4  UNL     1     -33.027  10.293   1.478  1.00 20.00     0.168 C 
HETATM    4  C5  UNL     1     -32.226   9.361  -0.547  1.00 20.00     0.168 C 
HETATM    5  C6  UNL     1     -31.860   8.042   1.589  1.00 20.00    -0.006 C 
HETATM    6  O10 UNL     1     -32.392  10.548   0.226  1.00 20.00    -0.391 OA
ENDROOT
BRANCH   5   7
HETATM    7  C7  UNL     1     -33.068   7.102   1.544  1.00 20.00    -0.005 A 
HETATM    8  C3  UNL     1     -33.416   6.278   2.747  1.00 20.00     0.011 A 
HETATM    9  C8  UNL     1     -32.914   5.608   1.495  1.00 20.00     0.004 A 
BRANCH   9  10
HETATM   10  C9  UNL     1     -31.587   4.931   1.485  1.00 20.00     0.119 C 
HETATM   11 CL11 UNL     1     -31.332   4.030  -0.035  1.00 20.00    -0.130 Cl
ENDBRANCH   9  10
ENDBRANCH   5   7
TORSDOF 2
ENDMDL
