MODEL 1
REMARK VINA RESULT:      -2.3      0.000      0.000
REMARK  3 active torsions:
REMARK  status: ('A' for Active; 'I' for Inactive)
REMARK    1  A    between atoms: C1_1  and  C5_5 
REMARK    2  A    between atoms: C5_5  and  C7_7 
REMARK    3  A    between atoms: C6_6  and  C7_7 
ROOT
HETATM    1  C5  UNL     1     -32.112   8.168   2.086  1.00 20.00     0.274 C 
HETATM    2  F10 UNL     1     -30.939   7.492   1.906  1.00 20.00    -0.238 F 
ENDROOT
BRANCH   1   3
HETATM    3  C1  UNL     1     -32.190   9.111   0.885  1.00 20.00     0.208 C 
HETATM    4  O8  UNL     1     -31.446   8.794  -0.085  1.00 20.00    -0.646 OA
HETATM    5  O9  UNL     1     -32.993  10.079   1.003  1.00 20.00    -0.646 OA
ENDBRANCH   1   3
BRANCH   1   6
HETATM    6  C7  UNL     1     -33.252   7.141   2.172  1.00 20.00     0.029 C 
HETATM    7  C4  UNL     1     -32.819   5.847   1.465  1.00 20.00     0.014 C 
BRANCH   6   8
HETATM    8  C6  UNL     1     -33.745   6.910   3.629  1.00 20.00    -0.016 C 
HETATM    9  C2  UNL     1     -33.622   8.178   4.481  1.00 20.00     0.010 C 
HETATM   10  C3  UNL     1     -35.174   6.365   3.725  1.00 20.00     0.010 C 
ENDBRANCH   6   8
ENDBRANCH   1   6
TORSDOF 3
ENDMDL
MODEL 2
REMARK VINA RESULT:      -2.3      0.014      1.023
REMARK  3 active torsions:
REMARK  status: ('A' for Active; 'I' for Inactive)
REMARK    1  A    between atoms: C1_1  and  C5_5 
REMARK    2  A    between atoms: C5_5  and  C7_7 
REMARK    3  A    between atoms: C6_6  and  C7_7 
ROOT
HETATM    1  C5  UNL     1     -32.105   8.165   2.081  1.00 20.00     0.274 C 
HETATM    2  F10 UNL     1     -30.930   7.492   1.907  1.00 20.00    -0.238 F 
ENDROOT
BRANCH   1   3
HETATM    3  C1  UNL     1     -32.182   9.104   0.877  1.00 20.00     0.208 C 
HETATM    4  O8  UNL     1     -32.983  10.072   1.011  1.00 20.00    -0.646 OA
HETATM    5  O9  UNL     1     -31.432   8.807  -0.095  1.00 20.00    -0.646 OA
ENDBRANCH   1   3
BRANCH   1   6
HETATM    6  C7  UNL     1     -33.242   7.136   2.168  1.00 20.00     0.029 C 
HETATM    7  C4  UNL     1     -32.802   5.839   1.473  1.00 20.00     0.014 C 
BRANCH   6   8
HETATM    8  C6  UNL     1     -33.743   6.913   3.624  1.00 20.00    -0.016 C 
HETATM    9  C2  UNL     1     -33.624   8.187   4.469  1.00 20.00     0.010 C 
HETATM   10  C3  UNL     1     -35.172   6.369   3.716  1.00 20.00     0.010 C 
ENDBRANCH   6   8
ENDBRANCH   1   6
TORSDOF 3
ENDMDL
MODEL 3
REMARK VINA RESULT:      -1.3      1.486      1.912
REMARK  3 active torsions:
REMARK  status: ('A' for Active; 'I' for Inactive)
REMARK    1  A    between atoms: C1_1  and  C5_5 
REMARK    2  A    between atoms: C5_5  and  C7_7 
REMARK    3  A    between atoms: C6_6  and  C7_7 
ROOT
HETATM    1  C5  UNL     1     -33.112   7.870   2.581  1.00 20.00     0.274 C 
HETATM    2  F10 UNL     1     -32.501   7.942   3.800  1.00 20.00    -0.238 F 
ENDROOT
BRANCH   1   3
HETATM    3  C1  UNL     1     -32.018   8.268   1.590  1.00 20.00     0.208 C 
HETATM    4  O8  UNL     1     -32.389   9.073   0.689  1.00 20.00    -0.646 OA
HETATM    5  O9  UNL     1     -30.881   7.759   1.797  1.00 20.00    -0.646 OA
ENDBRANCH   1   3
BRANCH   1   6
HETATM    6  C7  UNL     1     -33.657   6.445   2.398  1.00 20.00     0.029 C 
HETATM    7  C4  UNL     1     -32.637   5.613   1.607  1.00 20.00     0.014 C 
BRANCH   6   8
HETATM    8  C6  UNL     1     -34.079   5.785   3.742  1.00 20.00    -0.016 C 
HETATM    9  C2  UNL     1     -35.500   6.187   4.154  1.00 20.00     0.010 C 
HETATM   10  C3  UNL     1     -33.954   4.258   3.754  1.00 20.00     0.010 C 
ENDBRANCH   6   8
ENDBRANCH   1   6
TORSDOF 3
ENDMDL
MODEL 4
REMARK VINA RESULT:      -1.2      3.037      4.369
REMARK  3 active torsions:
REMARK  status: ('A' for Active; 'I' for Inactive)
REMARK    1  A    between atoms: C1_1  and  C5_5 
REMARK    2  A    between atoms: C5_5  and  C7_7 
REMARK    3  A    between atoms: C6_6  and  C7_7 
ROOT
HETATM    1  C5  UNL     1     -33.838   6.766   3.725  1.00 20.00     0.274 C 
HETATM    2  F10 UNL     1     -34.124   8.004   4.225  1.00 20.00    -0.238 F 
ENDROOT
BRANCH   1   3
HETATM    3  C1  UNL     1     -35.145   5.988   3.880  1.00 20.00     0.208 C 
HETATM    4  O8  UNL     1     -36.166   6.572   3.419  1.00 20.00    -0.646 OA
HETATM    5  O9  UNL     1     -35.045   4.857   4.435  1.00 20.00    -0.646 OA
ENDBRANCH   1   3
BRANCH   1   6
HETATM    6  C7  UNL     1     -33.355   6.930   2.275  1.00 20.00     0.029 C 
HETATM    7  C4  UNL     1     -32.183   7.922   2.244  1.00 20.00     0.014 C 
BRANCH   6   8
HETATM    8  C6  UNL     1     -33.029   5.571   1.592  1.00 20.00    -0.016 C 
HETATM    9  C2  UNL     1     -33.811   5.387   0.286  1.00 20.00     0.010 C 
HETATM   10  C3  UNL     1     -31.537   5.346   1.332  1.00 20.00     0.010 C 
ENDBRANCH   6   8
ENDBRANCH   1   6
TORSDOF 3
ENDMDL
MODEL 5
REMARK VINA RESULT:      -1.2      2.242      2.965
REMARK  3 active torsions:
REMARK  status: ('A' for Active; 'I' for Inactive)
REMARK    1  A    between atoms: C1_1  and  C5_5 
REMARK    2  A    between atoms: C5_5  and  C7_7 
REMARK    3  A    between atoms: C6_6  and  C7_7 
ROOT
HETATM    1  C5  UNL     1     -33.025   6.917   1.992  1.00 20.00     0.274 C 
HETATM    2  F10 UNL     1     -31.919   7.717   2.000  1.00 20.00    -0.238 F 
ENDROOT
BRANCH   1   3
HETATM    3  C1  UNL     1     -32.608   5.709   1.153  1.00 20.00     0.208 C 
HETATM    4  O8  UNL     1     -31.463   5.248   1.423  1.00 20.00    -0.646 OA
HETATM    5  O9  UNL     1     -33.457   5.313   0.306  1.00 20.00    -0.646 OA
ENDBRANCH   1   3
BRANCH   1   6
HETATM    6  C7  UNL     1     -33.396   6.591   3.447  1.00 20.00     0.029 C 
HETATM    7  C4  UNL     1     -33.844   7.880   4.153  1.00 20.00     0.014 C 
BRANCH   6   8
HETATM    8  C6  UNL     1     -34.432   5.436   3.560  1.00 20.00    -0.016 C 
HETATM    9  C2  UNL     1     -33.799   4.154   4.112  1.00 20.00     0.010 C 
HETATM   10  C3  UNL     1     -35.674   5.791   4.384  1.00 20.00     0.010 C 
ENDBRANCH   6   8
ENDBRANCH   1   6
TORSDOF 3
ENDMDL
MODEL 6
REMARK VINA RESULT:      -1.2      1.748      2.404
REMARK  3 active torsions:
REMARK  status: ('A' for Active; 'I' for Inactive)
REMARK    1  A    between atoms: C1_1  and  C5_5 
REMARK    2  A    between atoms: C5_5  and  C7_7 
REMARK    3  A    between atoms: C6_6  and  C7_7 
ROOT
HETATM    1  C5  UNL     1     -32.610   6.591   2.090  1.00 20.00     0.274 C 
HETATM    2  F10 UNL     1     -33.546   6.407   1.112  1.00 20.00    -0.238 F 
ENDROOT
BRANCH   1   3
HETATM    3  C1  UNL     1     -32.025   7.972   1.793  1.00 20.00     0.208 C 
HETATM    4  O8  UNL     1     -31.106   8.338   2.579  1.00 20.00    -0.646 OA
HETATM    5  O9  UNL     1     -32.519   8.572   0.796  1.00 20.00    -0.646 OA
ENDBRANCH   1   3
BRANCH   1   6
HETATM    6  C7  UNL     1     -33.305   6.467   3.454  1.00 20.00     0.029 C 
HETATM    7  C4  UNL     1     -33.908   7.827   3.838  1.00 20.00     0.014 C 
BRANCH   6   8
HETATM    8  C6  UNL     1     -34.336   5.303   3.501  1.00 20.00    -0.016 C 
HETATM    9  C2  UNL     1     -33.718   4.015   4.057  1.00 20.00     0.010 C 
HETATM   10  C3  UNL     1     -35.616   5.633   4.275  1.00 20.00     0.010 C 
ENDBRANCH   6   8
ENDBRANCH   1   6
TORSDOF 3
ENDMDL
MODEL 7
REMARK VINA RESULT:      -1.1      3.092      4.474
REMARK  3 active torsions:
REMARK  status: ('A' for Active; 'I' for Inactive)
REMARK    1  A    between atoms: C1_1  and  C5_5 
REMARK    2  A    between atoms: C5_5  and  C7_7 
REMARK    3  A    between atoms: C6_6  and  C7_7 
ROOT
HETATM    1  C5  UNL     1     -34.101   5.872   3.145  1.00 20.00     0.274 C 
HETATM    2  F10 UNL     1     -33.266   5.132   3.934  1.00 20.00    -0.238 F 
ENDROOT
BRANCH   1   3
HETATM    3  C1  UNL     1     -35.451   5.801   3.860  1.00 20.00     0.208 C 
HETATM    4  O8  UNL     1     -36.309   6.634   3.451  1.00 20.00    -0.646 OA
HETATM    5  O9  UNL     1     -35.549   4.918   4.757  1.00 20.00    -0.646 OA
ENDBRANCH   1   3
BRANCH   1   6
HETATM    6  C7  UNL     1     -33.515   7.286   3.015  1.00 20.00     0.029 C 
HETATM    7  C4  UNL     1     -33.315   7.879   4.417  1.00 20.00     0.014 C 
BRANCH   6   8
HETATM    8  C6  UNL     1     -32.230   7.327   2.139  1.00 20.00    -0.016 C 
HETATM    9  C2  UNL     1     -32.122   6.100   1.227  1.00 20.00     0.010 C 
HETATM   10  C3  UNL     1     -32.084   8.602   1.304  1.00 20.00     0.010 C 
ENDBRANCH   6   8
ENDBRANCH   1   6
TORSDOF 3
ENDMDL
MODEL 8
REMARK VINA RESULT:      -0.9      3.519      4.458
REMARK  3 active torsions:
REMARK  status: ('A' for Active; 'I' for Inactive)
REMARK    1  A    between atoms: C1_1  and  C5_5 
REMARK    2  A    between atoms: C5_5  and  C7_7 
REMARK    3  A    between atoms: C6_6  and  C7_7 
ROOT
HETATM    1  C5  UNL     1     -34.234   6.312   3.713  1.00 20.00     0.274 C 
HETATM    2  F10 UNL     1     -35.389   6.707   3.100  1.00 20.00    -0.238 F 
ENDROOT
BRANCH   1   3
HETATM    3  C1  UNL     1     -34.528   4.888   4.186  1.00 20.00     0.208 C 
HETATM    4  O8  UNL     1     -35.669   4.729   4.704  1.00 20.00    -0.646 OA
HETATM    5  O9  UNL     1     -33.606   4.047   3.992  1.00 20.00    -0.646 OA
ENDBRANCH   1   3
BRANCH   1   6
HETATM    6  C7  UNL     1     -33.086   6.428   2.698  1.00 20.00     0.029 C 
HETATM    7  C4  UNL     1     -33.454   5.645   1.429  1.00 20.00     0.014 C 
BRANCH   6   8
HETATM    8  C6  UNL     1     -32.680   7.903   2.415  1.00 20.00    -0.016 C 
HETATM    9  C2  UNL     1     -32.049   8.567   3.644  1.00 20.00     0.010 C 
HETATM   10  C3  UNL     1     -31.753   8.074   1.207  1.00 20.00     0.010 C 
ENDBRANCH   6   8
ENDBRANCH   1   6
TORSDOF 3
ENDMDL
MODEL 9
REMARK VINA RESULT:      -0.8      2.382      3.942
REMARK  3 active torsions:
REMARK  status: ('A' for Active; 'I' for Inactive)
REMARK    1  A    between atoms: C1_1  and  C5_5 
REMARK    2  A    between atoms: C5_5  and  C7_7 
REMARK    3  A    between atoms: C6_6  and  C7_7 
ROOT
HETATM    1  C5  UNL     1     -33.163   6.982   1.887  1.00 20.00     0.274 C 
HETATM    2  F10 UNL     1     -32.200   6.039   1.663  1.00 20.00    -0.238 F 
ENDROOT
BRANCH   1   3
HETATM    3  C1  UNL     1     -33.798   6.562   3.213  1.00 20.00     0.208 C 
HETATM    4  O8  UNL     1     -33.834   5.315   3.411  1.00 20.00    -0.646 OA
HETATM    5  O9  UNL     1     -34.195   7.507   3.951  1.00 20.00    -0.646 OA
ENDBRANCH   1   3
BRANCH   1   6
HETATM    6  C7  UNL     1     -32.491   8.363   1.904  1.00 20.00     0.029 C 
HETATM    7  C4  UNL     1     -31.113   8.245   2.571  1.00 20.00     0.014 C 
BRANCH   6   8
HETATM    8  C6  UNL     1     -32.438   9.024   0.496  1.00 20.00    -0.016 C 
HETATM    9  C2  UNL     1     -32.736  10.527   0.560  1.00 20.00     0.010 C 
HETATM   10  C3  UNL     1     -31.121   8.794  -0.251  1.00 20.00     0.010 C 
ENDBRANCH   6   8
ENDBRANCH   1   6
TORSDOF 3
ENDMDL
