MODEL 1
REMARK VINA RESULT:      -1.2      0.000      0.000
REMARK  1 active torsions:
REMARK  status: ('A' for Active; 'I' for Inactive)
REMARK    1  A    between atoms: C6_6  and  C8_8 
ROOT
HETATM    1  C1  UNL     1     -35.452   6.323   3.989  1.00 20.00     0.027 C 
HETATM    2  C2  UNL     1     -34.186   7.080   3.590  1.00 20.00     0.014 C 
HETATM    3  C3  UNL     1     -33.386   6.275   1.252  1.00 20.00     0.018 A 
HETATM    4  C4  UNL     1     -35.100   4.971   4.599  1.00 20.00     0.167 C 
HETATM    5  C5  UNL     1     -33.065   4.832   3.389  1.00 20.00     0.177 C 
HETATM    6  C6  UNL     1     -32.152   6.778   1.951  1.00 20.00     0.011 A 
HETATM    7  C7  UNL     1     -33.293   6.186   2.760  1.00 20.00    -0.014 A 
HETATM    8  O9  UNL     1     -34.315   4.204   3.684  1.00 20.00    -0.390 OA
ENDROOT
BRANCH   6   9
HETATM    9  C8  UNL     1     -31.833   8.233   1.959  1.00 20.00     0.120 C 
HETATM   10 CL10 UNL     1     -32.294   9.004   0.416  1.00 20.00    -0.130 Cl
ENDBRANCH   6   9
TORSDOF 1
ENDMDL
MODEL 2
REMARK VINA RESULT:      -0.7      2.817      4.260
REMARK  1 active torsions:
REMARK  status: ('A' for Active; 'I' for Inactive)
REMARK    1  A    between atoms: C6_6  and  C8_8 
ROOT
HETATM    1  C1  UNL     1     -32.720   6.581   1.096  1.00 20.00     0.027 C 
HETATM    2  C2  UNL     1     -33.212   5.675   2.222  1.00 20.00     0.014 C 
HETATM    3  C3  UNL     1     -35.302   6.733   3.347  1.00 20.00     0.018 A 
HETATM    4  C4  UNL     1     -31.834   7.692   1.647  1.00 20.00     0.167 C 
HETATM    5  C5  UNL     1     -32.904   7.645   3.763  1.00 20.00     0.177 C 
HETATM    6  C6  UNL     1     -34.669   5.866   4.402  1.00 20.00     0.011 A 
HETATM    7  C7  UNL     1     -33.804   6.511   3.333  1.00 20.00    -0.014 A 
HETATM    8  O9  UNL     1     -32.540   8.446   2.634  1.00 20.00    -0.390 OA
ENDROOT
BRANCH   6   9
HETATM    9  C8  UNL     1     -34.944   4.403   4.439  1.00 20.00     0.120 C 
HETATM   10 CL10 UNL     1     -33.458   3.474   4.780  1.00 20.00    -0.130 Cl
ENDBRANCH   6   9
TORSDOF 1
ENDMDL
MODEL 3
REMARK VINA RESULT:      -0.2      1.398      2.315
REMARK  1 active torsions:
REMARK  status: ('A' for Active; 'I' for Inactive)
REMARK    1  A    between atoms: C6_6  and  C8_8 
ROOT
HETATM    1  C1  UNL     1     -33.397   5.252   2.757  1.00 20.00     0.027 C 
HETATM    2  C2  UNL     1     -33.123   6.362   1.744  1.00 20.00     0.014 C 
HETATM    3  C3  UNL     1     -31.525   8.125   2.789  1.00 20.00     0.018 A 
HETATM    4  C4  UNL     1     -34.510   5.661   3.715  1.00 20.00     0.167 C 
HETATM    5  C5  UNL     1     -34.032   7.969   3.458  1.00 20.00     0.177 C 
HETATM    6  C6  UNL     1     -32.316   8.864   1.743  1.00 20.00     0.011 A 
HETATM    7  C7  UNL     1     -32.935   7.678   2.463  1.00 20.00    -0.014 A 
HETATM    8  O9  UNL     1     -34.172   6.881   4.376  1.00 20.00    -0.390 OA
ENDROOT
BRANCH   6   9
HETATM    9  C8  UNL     1     -31.904   8.811   0.312  1.00 20.00     0.120 C 
HETATM   10 CL10 UNL     1     -32.763  10.042  -0.653  1.00 20.00    -0.130 Cl
ENDBRANCH   6   9
TORSDOF 1
ENDMDL
MODEL 4
REMARK VINA RESULT:      -0.1      1.145      2.002
REMARK  1 active torsions:
REMARK  status: ('A' for Active; 'I' for Inactive)
REMARK    1  A    between atoms: C6_6  and  C8_8 
ROOT
HETATM    1  C1  UNL     1     -33.646   4.470   3.950  1.00 20.00     0.027 C 
HETATM    2  C2  UNL     1     -33.205   5.503   2.914  1.00 20.00     0.014 C 
HETATM    3  C3  UNL     1     -32.776   7.784   4.082  1.00 20.00     0.018 A 
HETATM    4  C4  UNL     1     -35.141   4.586   4.224  1.00 20.00     0.167 C 
HETATM    5  C5  UNL     1     -35.177   6.887   3.652  1.00 20.00     0.177 C 
HETATM    6  C6  UNL     1     -33.132   8.118   2.658  1.00 20.00     0.011 A 
HETATM    7  C7  UNL     1     -33.706   6.873   3.310  1.00 20.00    -0.014 A 
HETATM    8  O9  UNL     1     -35.464   5.909   4.655  1.00 20.00    -0.390 OA
ENDROOT
BRANCH   6   9
HETATM    9  C8  UNL     1     -32.094   8.061   1.591  1.00 20.00     0.120 C 
HETATM   10 CL10 UNL     1     -32.259   9.428   0.454  1.00 20.00    -0.130 Cl
ENDBRANCH   6   9
TORSDOF 1
ENDMDL
MODEL 5
REMARK VINA RESULT:       1.1      3.173      4.699
REMARK  1 active torsions:
REMARK  status: ('A' for Active; 'I' for Inactive)
REMARK    1  A    between atoms: C6_6  and  C8_8 
ROOT
HETATM    1  C1  UNL     1     -32.660  10.483   0.734  1.00 20.00     0.027 C 
HETATM    2  C2  UNL     1     -33.410   9.546   1.678  1.00 20.00     0.014 C 
HETATM    3  C3  UNL     1     -31.745   8.496   3.375  1.00 20.00     0.018 A 
HETATM    4  C4  UNL     1     -32.023   9.700  -0.408  1.00 20.00     0.167 C 
HETATM    5  C5  UNL     1     -31.852   7.726   0.895  1.00 20.00     0.177 C 
HETATM    6  C6  UNL     1     -32.878   7.513   3.259  1.00 20.00     0.011 A 
HETATM    7  C7  UNL     1     -32.515   8.394   2.076  1.00 20.00    -0.014 A 
HETATM    8  O9  UNL     1     -31.151   8.693   0.107  1.00 20.00    -0.390 OA
ENDROOT
BRANCH   6   9
HETATM    9  C8  UNL     1     -34.125   7.706   4.052  1.00 20.00     0.120 C 
HETATM   10 CL10 UNL     1     -35.202   6.288   3.917  1.00 20.00    -0.130 Cl
ENDBRANCH   6   9
TORSDOF 1
ENDMDL
MODEL 6
REMARK VINA RESULT:       1.8      2.341      2.895
REMARK  1 active torsions:
REMARK  status: ('A' for Active; 'I' for Inactive)
REMARK    1  A    between atoms: C6_6  and  C8_8 
ROOT
HETATM    1  C1  UNL     1     -33.206   8.202   2.901  1.00 20.00     0.027 C 
HETATM    2  C2  UNL     1     -32.295   7.135   2.298  1.00 20.00     0.014 C 
HETATM    3  C3  UNL     1     -33.659   5.638   0.670  1.00 20.00     0.018 A 
HETATM    4  C4  UNL     1     -33.975   7.643   4.093  1.00 20.00     0.167 C 
HETATM    5  C5  UNL     1     -33.886   5.428   3.250  1.00 20.00     0.177 C 
HETATM    6  C6  UNL     1     -32.521   4.780   1.152  1.00 20.00     0.011 A 
HETATM    7  C7  UNL     1     -33.082   5.869   2.050  1.00 20.00    -0.014 A 
HETATM    8  O9  UNL     1     -34.727   6.493   3.703  1.00 20.00    -0.390 OA
ENDROOT
BRANCH   6   9
HETATM    9  C8  UNL     1     -31.180   4.879   0.511  1.00 20.00     0.120 C 
HETATM   10 CL10 UNL     1     -30.853   3.463  -0.527  1.00 20.00    -0.130 Cl
ENDBRANCH   6   9
TORSDOF 1
ENDMDL
