MODEL 1
REMARK VINA RESULT:       2.0      0.000      0.000
REMARK  1 active torsions:
REMARK  status: ('A' for Active; 'I' for Inactive)
REMARK    1  A    between atoms: C4_4  and  C10_10 
ROOT
HETATM    1  C1  UNL     1     -31.782   8.257   3.093  1.00 20.00     0.006 C 
HETATM    2  C2  UNL     1     -32.084   9.359   2.077  1.00 20.00     0.009 C 
HETATM    3  C3  UNL     1     -33.204   7.625   0.588  1.00 20.00     0.013 C 
HETATM    4  C4  UNL     1     -32.816   7.122   3.075  1.00 20.00    -0.001 C 
HETATM    5  C5  UNL     1     -33.001   6.535   1.659  1.00 20.00    -0.013 C 
HETATM    6  C6  UNL     1     -32.243   8.839   0.633  1.00 20.00    -0.047 C 
HETATM    7  C7  UNL     1     -31.876   5.555   1.306  1.00 20.00     0.010 C 
HETATM    8  C8  UNL     1     -30.868   8.500   0.028  1.00 20.00     0.015 C 
HETATM    9  C9  UNL     1     -32.848   9.966  -0.233  1.00 20.00     0.015 C 
ENDROOT
BRANCH   4  10
HETATM   10  C10 UNL     1     -34.156   7.589   3.657  1.00 20.00     0.090 C 
HETATM   11 BR11 UNL     1     -35.256   6.045   4.055  1.00 20.00    -0.096 Br
ENDBRANCH   4  10
TORSDOF 1
ENDMDL
MODEL 2
REMARK VINA RESULT:       2.3      1.747      3.104
REMARK  1 active torsions:
REMARK  status: ('A' for Active; 'I' for Inactive)
REMARK    1  A    between atoms: C4_4  and  C10_10 
ROOT
HETATM    1  C1  UNL     1     -33.127   5.617   1.415  1.00 20.00     0.006 C 
HETATM    2  C2  UNL     1     -31.981   6.628   1.478  1.00 20.00     0.009 C 
HETATM    3  C3  UNL     1     -32.943   7.527   3.656  1.00 20.00     0.013 C 
HETATM    4  C4  UNL     1     -33.645   5.210   2.802  1.00 20.00    -0.001 C 
HETATM    5  C5  UNL     1     -34.034   6.437   3.655  1.00 20.00    -0.013 C 
HETATM    6  C6  UNL     1     -32.322   7.897   2.286  1.00 20.00    -0.047 C 
HETATM    7  C7  UNL     1     -35.414   6.977   3.266  1.00 20.00     0.010 C 
HETATM    8  C8  UNL     1     -33.247   8.822   1.473  1.00 20.00     0.015 C 
HETATM    9  C9  UNL     1     -31.017   8.683   2.544  1.00 20.00     0.015 C 
ENDROOT
BRANCH   4  10
HETATM   10  C10 UNL     1     -32.623   4.331   3.535  1.00 20.00     0.090 C 
HETATM   11 BR11 UNL     1     -33.558   3.084   4.686  1.00 20.00    -0.096 Br
ENDBRANCH   4  10
TORSDOF 1
ENDMDL
MODEL 3
REMARK VINA RESULT:       3.1      2.240      4.166
REMARK  1 active torsions:
REMARK  status: ('A' for Active; 'I' for Inactive)
REMARK    1  A    between atoms: C4_4  and  C10_10 
ROOT
HETATM    1  C1  UNL     1     -32.092   6.377   1.715  1.00 20.00     0.006 C 
HETATM    2  C2  UNL     1     -33.516   5.930   2.044  1.00 20.00     0.009 C 
HETATM    3  C3  UNL     1     -33.898   8.150   3.229  1.00 20.00     0.013 C 
HETATM    4  C4  UNL     1     -31.958   7.900   1.566  1.00 20.00    -0.001 C 
HETATM    5  C5  UNL     1     -32.503   8.649   2.802  1.00 20.00    -0.013 C 
HETATM    6  C6  UNL     1     -34.104   6.616   3.295  1.00 20.00    -0.047 C 
HETATM    7  C7  UNL     1     -31.490   8.643   3.952  1.00 20.00     0.010 C 
HETATM    8  C8  UNL     1     -33.496   6.015   4.576  1.00 20.00     0.015 C 
HETATM    9  C9  UNL     1     -35.622   6.335   3.345  1.00 20.00     0.015 C 
ENDROOT
BRANCH   4  10
HETATM   10  C10 UNL     1     -32.640   8.388   0.281  1.00 20.00     0.090 C 
HETATM   11 BR11 UNL     1     -32.570  10.323   0.215  1.00 20.00    -0.096 Br
ENDBRANCH   4  10
TORSDOF 1
ENDMDL
MODEL 4
REMARK VINA RESULT:       3.6      2.280      3.882
REMARK  1 active torsions:
REMARK  status: ('A' for Active; 'I' for Inactive)
REMARK    1  A    between atoms: C4_4  and  C10_10 
ROOT
HETATM    1  C1  UNL     1     -31.084   7.068   1.960  1.00 20.00     0.006 C 
HETATM    2  C2  UNL     1     -31.595   5.891   1.131  1.00 20.00     0.009 C 
HETATM    3  C3  UNL     1     -33.980   6.665   1.568  1.00 20.00     0.013 C 
HETATM    4  C4  UNL     1     -32.019   8.286   1.916  1.00 20.00    -0.001 C 
HETATM    5  C5  UNL     1     -33.466   7.916   2.310  1.00 20.00    -0.013 C 
HETATM    6  C6  UNL     1     -33.025   5.447   1.504  1.00 20.00    -0.047 C 
HETATM    7  C7  UNL     1     -33.624   7.813   3.831  1.00 20.00     0.010 C 
HETATM    8  C8  UNL     1     -33.017   4.660   2.828  1.00 20.00     0.015 C 
HETATM    9  C9  UNL     1     -33.544   4.484   0.413  1.00 20.00     0.015 C 
ENDROOT
BRANCH   4  10
HETATM   10  C10 UNL     1     -31.979   8.960   0.538  1.00 20.00     0.090 C 
HETATM   11 BR11 UNL     1     -32.825  10.699   0.651  1.00 20.00    -0.096 Br
ENDBRANCH   4  10
TORSDOF 1
ENDMDL
MODEL 5
REMARK VINA RESULT:       4.0      1.520      3.265
REMARK  1 active torsions:
REMARK  status: ('A' for Active; 'I' for Inactive)
REMARK    1  A    between atoms: C4_4  and  C10_10 
ROOT
HETATM    1  C1  UNL     1     -33.989   7.561   2.864  1.00 20.00     0.006 C 
HETATM    2  C2  UNL     1     -33.471   6.134   2.690  1.00 20.00     0.009 C 
HETATM    3  C3  UNL     1     -31.553   7.041   1.285  1.00 20.00     0.013 C 
HETATM    4  C4  UNL     1     -32.872   8.615   2.824  1.00 20.00    -0.001 C 
HETATM    5  C5  UNL     1     -32.008   8.490   1.550  1.00 20.00    -0.013 C 
HETATM    6  C6  UNL     1     -32.629   5.934   1.413  1.00 20.00    -0.047 C 
HETATM    7  C7  UNL     1     -32.696   9.130   0.340  1.00 20.00     0.010 C 
HETATM    8  C8  UNL     1     -33.539   5.878   0.171  1.00 20.00     0.015 C 
HETATM    9  C9  UNL     1     -31.910   4.570   1.504  1.00 20.00     0.015 C 
ENDROOT
BRANCH   4  10
HETATM   10  C10 UNL     1     -32.005   8.546   4.088  1.00 20.00     0.090 C 
HETATM   11 BR11 UNL     1     -33.147   8.324   5.637  1.00 20.00    -0.096 Br
ENDBRANCH   4  10
TORSDOF 1
ENDMDL
MODEL 6
REMARK VINA RESULT:       4.2      2.471      4.166
REMARK  1 active torsions:
REMARK  status: ('A' for Active; 'I' for Inactive)
REMARK    1  A    between atoms: C4_4  and  C10_10 
ROOT
HETATM    1  C1  UNL     1     -32.247   5.111   3.004  1.00 20.00     0.006 C 
HETATM    2  C2  UNL     1     -33.704   5.182   3.463  1.00 20.00     0.009 C 
HETATM    3  C3  UNL     1     -33.998   7.301   2.085  1.00 20.00     0.013 C 
HETATM    4  C4  UNL     1     -32.026   5.727   1.614  1.00 20.00    -0.001 C 
HETATM    5  C5  UNL     1     -32.565   7.171   1.531  1.00 20.00    -0.013 C 
HETATM    6  C6  UNL     1     -34.290   6.608   3.440  1.00 20.00    -0.047 C 
HETATM    7  C7  UNL     1     -31.590   8.171   2.161  1.00 20.00     0.010 C 
HETATM    8  C8  UNL     1     -33.755   7.431   4.627  1.00 20.00     0.015 C 
HETATM    9  C9  UNL     1     -35.822   6.515   3.613  1.00 20.00     0.015 C 
ENDROOT
BRANCH   4  10
HETATM   10  C10 UNL     1     -32.640   4.845   0.518  1.00 20.00     0.090 C 
HETATM   11 BR11 UNL     1     -31.256   3.736  -0.262  1.00 20.00    -0.096 Br
ENDBRANCH   4  10
TORSDOF 1
ENDMDL
MODEL 7
REMARK VINA RESULT:       4.8      2.890      4.836
REMARK  1 active torsions:
REMARK  status: ('A' for Active; 'I' for Inactive)
REMARK    1  A    between atoms: C4_4  and  C10_10 
ROOT
HETATM    1  C1  UNL     1     -35.390   5.862   3.752  1.00 20.00     0.006 C 
HETATM    2  C2  UNL     1     -34.835   4.817   4.719  1.00 20.00     0.009 C 
HETATM    3  C3  UNL     1     -32.587   4.970   3.537  1.00 20.00     0.013 C 
HETATM    4  C4  UNL     1     -34.320   6.841   3.246  1.00 20.00    -0.001 C 
HETATM    5  C5  UNL     1     -33.109   6.105   2.633  1.00 20.00    -0.013 C 
HETATM    6  C6  UNL     1     -33.645   4.019   4.148  1.00 20.00    -0.047 C 
HETATM    7  C7  UNL     1     -33.402   5.640   1.202  1.00 20.00     0.010 C 
HETATM    8  C8  UNL     1     -34.135   2.978   3.123  1.00 20.00     0.015 C 
HETATM    9  C9  UNL     1     -32.979   3.234   5.300  1.00 20.00     0.015 C 
ENDROOT
BRANCH   4  10
HETATM   10  C10 UNL     1     -33.877   7.796   4.363  1.00 20.00     0.090 C 
HETATM   11 BR11 UNL     1     -32.205   8.637   3.861  1.00 20.00    -0.096 Br
ENDBRANCH   4  10
TORSDOF 1
ENDMDL
