MODEL 1
REMARK VINA RESULT:      -0.3      0.000      0.000
REMARK  1 active torsions:
REMARK  status: ('A' for Active; 'I' for Inactive)
REMARK    1  A    between atoms: C4_4  and  C8_8 
ROOT
HETATM    1  C1  UNL     1     -33.553   7.383   3.279  1.00 20.00     0.136 C 
HETATM    2  C2  UNL     1     -33.555   5.878   2.954  1.00 20.00     0.084 C 
HETATM    3  C3  UNL     1     -32.964   6.244   1.565  1.00 20.00     0.004 C 
HETATM    4  C4  UNL     1     -32.614   7.701   2.071  1.00 20.00     0.020 C 
HETATM    5  C5  UNL     1     -31.845   5.343   1.068  1.00 20.00     0.011 C 
HETATM    6  C6  UNL     1     -31.175   7.976   2.501  1.00 20.00     0.024 C 
HETATM    7  O9  UNL     1     -34.076   8.052   4.144  1.00 20.00    -0.297 OA
ENDROOT
BRANCH   4   8
HETATM    8  C8  UNL     1     -33.144   8.799   1.152  1.00 20.00     0.013 C 
HETATM    9  C7  UNL     1     -32.036   9.518   0.455  1.00 20.00     0.006 C 
ENDBRANCH   4   8
TORSDOF 1
ENDMDL
MODEL 2
REMARK VINA RESULT:       0.0      1.157      3.064
REMARK  1 active torsions:
REMARK  status: ('A' for Active; 'I' for Inactive)
REMARK    1  A    between atoms: C4_4  and  C8_8 
ROOT
HETATM    1  C1  UNL     1     -33.606   6.276   3.012  1.00 20.00     0.136 C 
HETATM    2  C2  UNL     1     -33.345   7.784   3.183  1.00 20.00     0.084 C 
HETATM    3  C3  UNL     1     -32.241   7.649   2.097  1.00 20.00     0.004 C 
HETATM    4  C4  UNL     1     -32.796   6.230   1.676  1.00 20.00     0.020 C 
HETATM    5  C5  UNL     1     -32.194   8.763   1.065  1.00 20.00     0.011 C 
HETATM    6  C6  UNL     1     -33.695   6.156   0.444  1.00 20.00     0.024 C 
HETATM    7  O9  UNL     1     -34.214   5.454   3.662  1.00 20.00    -0.297 OA
ENDROOT
BRANCH   4   8
HETATM    8  C8  UNL     1     -31.718   5.148   1.648  1.00 20.00     0.013 C 
HETATM    9  C7  UNL     1     -31.692   4.429   0.340  1.00 20.00     0.006 C 
ENDBRANCH   4   8
TORSDOF 1
ENDMDL
MODEL 3
REMARK VINA RESULT:       0.3      1.833      3.128
REMARK  1 active torsions:
REMARK  status: ('A' for Active; 'I' for Inactive)
REMARK    1  A    between atoms: C4_4  and  C8_8 
ROOT
HETATM    1  C1  UNL     1     -32.810   7.519   3.005  1.00 20.00     0.136 C 
HETATM    2  C2  UNL     1     -33.938   7.817   4.009  1.00 20.00     0.084 C 
HETATM    3  C3  UNL     1     -34.738   6.658   3.354  1.00 20.00     0.004 C 
HETATM    4  C4  UNL     1     -33.435   6.138   2.625  1.00 20.00     0.020 C 
HETATM    5  C5  UNL     1     -35.468   5.735   4.316  1.00 20.00     0.011 C 
HETATM    6  C6  UNL     1     -32.691   4.962   3.255  1.00 20.00     0.024 C 
HETATM    7  O9  UNL     1     -31.819   8.124   2.656  1.00 20.00    -0.297 OA
ENDROOT
BRANCH   4   8
HETATM    8  C8  UNL     1     -33.625   5.941   1.123  1.00 20.00     0.013 C 
HETATM    9  C7  UNL     1     -32.629   4.979   0.562  1.00 20.00     0.006 C 
ENDBRANCH   4   8
TORSDOF 1
ENDMDL
MODEL 4
REMARK VINA RESULT:       0.7      1.790      3.219
REMARK  1 active torsions:
REMARK  status: ('A' for Active; 'I' for Inactive)
REMARK    1  A    between atoms: C4_4  and  C8_8 
ROOT
HETATM    1  C1  UNL     1     -33.098   5.353   2.951  1.00 20.00     0.136 C 
HETATM    2  C2  UNL     1     -32.226   5.743   1.743  1.00 20.00     0.084 C 
HETATM    3  C3  UNL     1     -33.017   7.079   1.687  1.00 20.00     0.004 C 
HETATM    4  C4  UNL     1     -33.602   6.820   3.133  1.00 20.00     0.020 C 
HETATM    5  C5  UNL     1     -32.186   8.325   1.435  1.00 20.00     0.011 C 
HETATM    6  C6  UNL     1     -32.932   7.532   4.306  1.00 20.00     0.024 C 
HETATM    7  O9  UNL     1     -33.301   4.309   3.533  1.00 20.00    -0.297 OA
ENDROOT
BRANCH   4   8
HETATM    8  C8  UNL     1     -35.123   6.945   3.197  1.00 20.00     0.013 C 
HETATM    9  C7  UNL     1     -35.698   6.118   4.299  1.00 20.00     0.006 C 
ENDBRANCH   4   8
TORSDOF 1
ENDMDL
MODEL 5
REMARK VINA RESULT:       0.7      1.640      3.591
REMARK  1 active torsions:
REMARK  status: ('A' for Active; 'I' for Inactive)
REMARK    1  A    between atoms: C4_4  and  C8_8 
ROOT
HETATM    1  C1  UNL     1     -33.724   7.527   4.117  1.00 20.00     0.136 C 
HETATM    2  C2  UNL     1     -32.776   7.586   2.906  1.00 20.00     0.084 C 
HETATM    3  C3  UNL     1     -33.217   6.133   2.573  1.00 20.00     0.004 C 
HETATM    4  C4  UNL     1     -34.442   6.253   3.565  1.00 20.00     0.020 C 
HETATM    5  C5  UNL     1     -33.478   5.845   1.104  1.00 20.00     0.011 C 
HETATM    6  C6  UNL     1     -35.812   6.562   2.967  1.00 20.00     0.024 C 
HETATM    7  O9  UNL     1     -33.860   8.213   5.107  1.00 20.00    -0.297 OA
ENDROOT
BRANCH   4   8
HETATM    8  C8  UNL     1     -34.515   5.105   4.570  1.00 20.00     0.013 C 
HETATM    9  C7  UNL     1     -33.884   3.862   4.034  1.00 20.00     0.006 C 
ENDBRANCH   4   8
TORSDOF 1
ENDMDL
MODEL 6
REMARK VINA RESULT:       0.8      1.792      3.365
REMARK  1 active torsions:
REMARK  status: ('A' for Active; 'I' for Inactive)
REMARK    1  A    between atoms: C4_4  and  C8_8 
ROOT
HETATM    1  C1  UNL     1     -31.862   6.967   1.461  1.00 20.00     0.136 C 
HETATM    2  C2  UNL     1     -31.678   7.984   0.320  1.00 20.00     0.084 C 
HETATM    3  C3  UNL     1     -32.779   8.845   0.998  1.00 20.00     0.004 C 
HETATM    4  C4  UNL     1     -32.659   7.995   2.325  1.00 20.00     0.020 C 
HETATM    5  C5  UNL     1     -32.510  10.339   1.046  1.00 20.00     0.011 C 
HETATM    6  C6  UNL     1     -31.826   8.576   3.466  1.00 20.00     0.024 C 
HETATM    7  O9  UNL     1     -31.513   5.817   1.620  1.00 20.00    -0.297 OA
ENDROOT
BRANCH   4   8
HETATM    8  C8  UNL     1     -34.002   7.469   2.825  1.00 20.00     0.013 C 
HETATM    9  C7  UNL     1     -34.109   7.551   4.313  1.00 20.00     0.006 C 
ENDBRANCH   4   8
TORSDOF 1
ENDMDL
MODEL 7
REMARK VINA RESULT:       0.8      1.535      3.579
REMARK  1 active torsions:
REMARK  status: ('A' for Active; 'I' for Inactive)
REMARK    1  A    between atoms: C4_4  and  C8_8 
ROOT
HETATM    1  C1  UNL     1     -34.675   6.539   3.674  1.00 20.00     0.136 C 
HETATM    2  C2  UNL     1     -34.099   7.964   3.576  1.00 20.00     0.084 C 
HETATM    3  C3  UNL     1     -32.751   7.318   3.152  1.00 20.00     0.004 C 
HETATM    4  C4  UNL     1     -33.470   5.936   2.884  1.00 20.00     0.020 C 
HETATM    5  C5  UNL     1     -32.021   8.008   2.012  1.00 20.00     0.011 C 
HETATM    6  C6  UNL     1     -33.826   5.590   1.440  1.00 20.00     0.024 C 
HETATM    7  O9  UNL     1     -35.681   6.076   4.168  1.00 20.00    -0.297 OA
ENDROOT
BRANCH   4   8
HETATM    8  C8  UNL     1     -32.797   4.762   3.591  1.00 20.00     0.013 C 
HETATM    9  C7  UNL     1     -33.786   3.713   3.982  1.00 20.00     0.006 C 
ENDBRANCH   4   8
TORSDOF 1
ENDMDL
MODEL 8
REMARK VINA RESULT:       0.9      1.802      3.167
REMARK  1 active torsions:
REMARK  status: ('A' for Active; 'I' for Inactive)
REMARK    1  A    between atoms: C4_4  and  C8_8 
ROOT
HETATM    1  C1  UNL     1     -32.876   7.164   1.922  1.00 20.00     0.136 C 
HETATM    2  C2  UNL     1     -32.807   5.639   1.720  1.00 20.00     0.084 C 
HETATM    3  C3  UNL     1     -33.086   5.491   3.241  1.00 20.00     0.004 C 
HETATM    4  C4  UNL     1     -33.534   7.004   3.330  1.00 20.00     0.020 C 
HETATM    5  C5  UNL     1     -34.073   4.401   3.626  1.00 20.00     0.011 C 
HETATM    6  C6  UNL     1     -35.032   7.302   3.318  1.00 20.00     0.024 C 
HETATM    7  O9  UNL     1     -32.551   8.113   1.242  1.00 20.00    -0.297 OA
ENDROOT
BRANCH   4   8
HETATM    8  C8  UNL     1     -32.818   7.778   4.434  1.00 20.00     0.013 C 
HETATM    9  C7  UNL     1     -33.785   8.428   5.369  1.00 20.00     0.006 C 
ENDBRANCH   4   8
TORSDOF 1
ENDMDL
MODEL 9
REMARK VINA RESULT:       1.0      1.965      2.838
REMARK  1 active torsions:
REMARK  status: ('A' for Active; 'I' for Inactive)
REMARK    1  A    between atoms: C4_4  and  C8_8 
ROOT
HETATM    1  C1  UNL     1     -32.276   5.343   1.865  1.00 20.00     0.136 C 
HETATM    2  C2  UNL     1     -33.162   4.899   3.043  1.00 20.00     0.084 C 
HETATM    3  C3  UNL     1     -33.508   6.398   3.262  1.00 20.00     0.004 C 
HETATM    4  C4  UNL     1     -32.923   6.765   1.839  1.00 20.00     0.020 C 
HETATM    5  C5  UNL     1     -34.966   6.700   3.564  1.00 20.00     0.011 C 
HETATM    6  C6  UNL     1     -33.912   6.941   0.689  1.00 20.00     0.024 C 
HETATM    7  O9  UNL     1     -31.417   4.791   1.211  1.00 20.00    -0.297 OA
ENDROOT
BRANCH   4   8
HETATM    8  C8  UNL     1     -31.906   7.903   1.883  1.00 20.00     0.013 C 
HETATM    9  C7  UNL     1     -32.222   8.964   0.881  1.00 20.00     0.006 C 
ENDBRANCH   4   8
TORSDOF 1
ENDMDL
