MODEL 1
REMARK VINA RESULT:       0.7      0.000      0.000
REMARK  2 active torsions:
REMARK  status: ('A' for Active; 'I' for Inactive)
REMARK    1  A    between atoms: C5_5  and  C8_8 
REMARK    2  A    between atoms: C9_9  and  C10_10 
ROOT
HETATM    1  C1  UNL     1     -32.870   7.961   2.912  1.00 20.00     0.009 A 
HETATM    2  C2  UNL     1     -32.841   5.893   1.661  1.00 20.00     0.009 A 
HETATM    3  C3  UNL     1     -33.869   7.447   3.739  1.00 20.00     0.024 A 
HETATM    4  C4  UNL     1     -33.840   5.379   2.488  1.00 20.00     0.024 A 
HETATM    5  C5  UNL     1     -32.356   7.184   1.873  1.00 20.00    -0.053 A 
HETATM    6  C6  UNL     1     -34.354   6.156   3.527  1.00 20.00     0.034 A 
HETATM    7 CL11 UNL     1     -35.587   5.522   4.547  1.00 20.00    -0.084 Cl
ENDROOT
BRANCH   5   8
HETATM    8  C8  UNL     1     -31.288   7.732   0.991  1.00 20.00     0.024 A 
HETATM    9  C7  UNL     1     -30.792   9.138   1.227  1.00 20.00     0.016 A 
HETATM   10  C9  UNL     1     -31.586   8.829  -0.007  1.00 20.00     0.008 A 
BRANCH  10  11
HETATM   11  C10 UNL     1     -32.948   9.411  -0.184  1.00 20.00     0.119 C 
HETATM   12 CL12 UNL     1     -33.115  10.946   0.711  1.00 20.00    -0.130 Cl
ENDBRANCH  10  11
ENDBRANCH   5   8
TORSDOF 2
ENDMDL
MODEL 2
REMARK VINA RESULT:       0.7      0.032      1.395
REMARK  2 active torsions:
REMARK  status: ('A' for Active; 'I' for Inactive)
REMARK    1  A    between atoms: C5_5  and  C8_8 
REMARK    2  A    between atoms: C9_9  and  C10_10 
ROOT
HETATM    1  C1  UNL     1     -32.852   5.912   1.623  1.00 20.00     0.009 A 
HETATM    2  C2  UNL     1     -32.848   7.966   2.897  1.00 20.00     0.009 A 
HETATM    3  C3  UNL     1     -33.849   5.400   2.453  1.00 20.00     0.024 A 
HETATM    4  C4  UNL     1     -33.845   7.453   3.726  1.00 20.00     0.024 A 
HETATM    5  C5  UNL     1     -32.351   7.196   1.845  1.00 20.00    -0.053 A 
HETATM    6  C6  UNL     1     -34.346   6.169   3.504  1.00 20.00     0.034 A 
HETATM    7 CL11 UNL     1     -35.576   5.537   4.528  1.00 20.00    -0.084 Cl
ENDROOT
BRANCH   5   8
HETATM    8  C8  UNL     1     -31.287   7.744   0.959  1.00 20.00     0.024 A 
HETATM    9  C7  UNL     1     -30.787   9.149   1.195  1.00 20.00     0.016 A 
HETATM   10  C9  UNL     1     -31.589   8.844  -0.036  1.00 20.00     0.008 A 
BRANCH  10  11
HETATM   11  C10 UNL     1     -32.951   9.429  -0.204  1.00 20.00     0.119 C 
HETATM   12 CL12 UNL     1     -33.111  10.960   0.700  1.00 20.00    -0.130 Cl
ENDBRANCH  10  11
ENDBRANCH   5   8
TORSDOF 2
ENDMDL
MODEL 3
REMARK VINA RESULT:       0.9      1.975      5.360
REMARK  2 active torsions:
REMARK  status: ('A' for Active; 'I' for Inactive)
REMARK    1  A    between atoms: C5_5  and  C8_8 
REMARK    2  A    between atoms: C9_9  and  C10_10 
ROOT
HETATM    1  C1  UNL     1     -33.674   7.568   3.411  1.00 20.00     0.009 A 
HETATM    2  C2  UNL     1     -33.339   5.789   1.811  1.00 20.00     0.009 A 
HETATM    3  C3  UNL     1     -32.677   8.317   2.787  1.00 20.00     0.024 A 
HETATM    4  C4  UNL     1     -32.342   6.538   1.186  1.00 20.00     0.024 A 
HETATM    5  C5  UNL     1     -34.005   6.303   2.923  1.00 20.00    -0.053 A 
HETATM    6  C6  UNL     1     -32.011   7.803   1.674  1.00 20.00     0.034 A 
HETATM    7 CL11 UNL     1     -30.780   8.727   0.904  1.00 20.00    -0.084 Cl
ENDROOT
BRANCH   5   8
HETATM    8  C8  UNL     1     -35.071   5.503   3.589  1.00 20.00     0.024 A 
HETATM    9  C7  UNL     1     -35.202   5.563   5.092  1.00 20.00     0.016 A 
HETATM   10  C9  UNL     1     -34.728   4.299   4.438  1.00 20.00     0.008 A 
BRANCH  10  11
HETATM   11  C10 UNL     1     -33.327   3.830   4.646  1.00 20.00     0.119 C 
HETATM   12 CL12 UNL     1     -33.229   2.048   4.595  1.00 20.00    -0.130 Cl
ENDBRANCH  10  11
ENDBRANCH   5   8
TORSDOF 2
ENDMDL
MODEL 4
REMARK VINA RESULT:       2.6      2.102      2.942
REMARK  2 active torsions:
REMARK  status: ('A' for Active; 'I' for Inactive)
REMARK    1  A    between atoms: C5_5  and  C8_8 
REMARK    2  A    between atoms: C9_9  and  C10_10 
ROOT
HETATM    1  C1  UNL     1     -32.411   5.299   2.158  1.00 20.00     0.009 A 
HETATM    2  C2  UNL     1     -34.283   6.153   3.426  1.00 20.00     0.009 A 
HETATM    3  C3  UNL     1     -32.496   4.090   2.848  1.00 20.00     0.024 A 
HETATM    4  C4  UNL     1     -34.368   4.944   4.115  1.00 20.00     0.024 A 
HETATM    5  C5  UNL     1     -33.305   6.331   2.447  1.00 20.00    -0.053 A 
HETATM    6  C6  UNL     1     -33.474   3.911   3.826  1.00 20.00     0.034 A 
HETATM    7 CL11 UNL     1     -33.579   2.419   4.677  1.00 20.00    -0.084 Cl
ENDROOT
BRANCH   5   8
HETATM    8  C8  UNL     1     -33.215   7.623   1.710  1.00 20.00     0.024 A 
HETATM    9  C7  UNL     1     -31.915   7.996   1.039  1.00 20.00     0.016 A 
HETATM   10  C9  UNL     1     -32.378   8.767   2.239  1.00 20.00     0.008 A 
BRANCH  10  11
HETATM   11  C10 UNL     1     -31.617   8.687   3.519  1.00 20.00     0.119 C 
HETATM   12 CL12 UNL     1     -32.719   8.552   4.917  1.00 20.00    -0.130 Cl
ENDBRANCH  10  11
ENDBRANCH   5   8
TORSDOF 2
ENDMDL
MODEL 5
REMARK VINA RESULT:       2.7      2.097      2.733
REMARK  2 active torsions:
REMARK  status: ('A' for Active; 'I' for Inactive)
REMARK    1  A    between atoms: C5_5  and  C8_8 
REMARK    2  A    between atoms: C9_9  and  C10_10 
ROOT
HETATM    1  C1  UNL     1     -34.295   6.167   3.416  1.00 20.00     0.009 A 
HETATM    2  C2  UNL     1     -32.419   5.319   2.152  1.00 20.00     0.009 A 
HETATM    3  C3  UNL     1     -34.379   4.957   4.103  1.00 20.00     0.024 A 
HETATM    4  C4  UNL     1     -32.503   4.108   2.839  1.00 20.00     0.024 A 
HETATM    5  C5  UNL     1     -33.315   6.348   2.440  1.00 20.00    -0.053 A 
HETATM    6  C6  UNL     1     -33.484   3.927   3.815  1.00 20.00     0.034 A 
HETATM    7 CL11 UNL     1     -33.588   2.433   4.663  1.00 20.00    -0.084 Cl
ENDROOT
BRANCH   5   8
HETATM    8  C8  UNL     1     -33.224   7.642   1.706  1.00 20.00     0.024 A 
HETATM    9  C7  UNL     1     -31.925   8.014   1.032  1.00 20.00     0.016 A 
HETATM   10  C9  UNL     1     -32.382   8.782   2.236  1.00 20.00     0.008 A 
BRANCH  10  11
HETATM   11  C10 UNL     1     -31.617   8.696   3.513  1.00 20.00     0.119 C 
HETATM   12 CL12 UNL     1     -32.714   8.564   4.915  1.00 20.00    -0.130 Cl
ENDBRANCH  10  11
ENDBRANCH   5   8
TORSDOF 2
ENDMDL
MODEL 6
REMARK VINA RESULT:       2.8      1.576      1.826
REMARK  2 active torsions:
REMARK  status: ('A' for Active; 'I' for Inactive)
REMARK    1  A    between atoms: C5_5  and  C8_8 
REMARK    2  A    between atoms: C9_9  and  C10_10 
ROOT
HETATM    1  C1  UNL     1     -33.463   8.118   3.254  1.00 20.00     0.009 A 
HETATM    2  C2  UNL     1     -32.128   7.002   1.577  1.00 20.00     0.009 A 
HETATM    3  C3  UNL     1     -33.955   6.886   3.683  1.00 20.00     0.024 A 
HETATM    4  C4  UNL     1     -32.620   5.770   2.006  1.00 20.00     0.024 A 
HETATM    5  C5  UNL     1     -32.549   8.177   2.201  1.00 20.00    -0.053 A 
HETATM    6  C6  UNL     1     -33.534   5.712   3.059  1.00 20.00     0.034 A 
HETATM    7 CL11 UNL     1     -34.142   4.191   3.588  1.00 20.00    -0.084 Cl
ENDROOT
BRANCH   5   8
HETATM    8  C8  UNL     1     -32.022   9.493   1.744  1.00 20.00     0.024 A 
HETATM    9  C7  UNL     1     -32.992  10.544   1.262  1.00 20.00     0.016 A 
HETATM   10  C9  UNL     1     -32.064   9.886   0.284  1.00 20.00     0.008 A 
BRANCH  10  11
HETATM   11  C10 UNL     1     -32.610   8.992  -0.778  1.00 20.00     0.119 C 
HETATM   12 CL12 UNL     1     -31.429   8.764  -2.098  1.00 20.00    -0.130 Cl
ENDBRANCH  10  11
ENDBRANCH   5   8
TORSDOF 2
ENDMDL
MODEL 7
REMARK VINA RESULT:       2.8      1.577      2.201
REMARK  2 active torsions:
REMARK  status: ('A' for Active; 'I' for Inactive)
REMARK    1  A    between atoms: C5_5  and  C8_8 
REMARK    2  A    between atoms: C9_9  and  C10_10 
ROOT
HETATM    1  C1  UNL     1     -32.131   7.019   1.580  1.00 20.00     0.009 A 
HETATM    2  C2  UNL     1     -33.480   8.121   3.254  1.00 20.00     0.009 A 
HETATM    3  C3  UNL     1     -32.615   5.782   2.004  1.00 20.00     0.024 A 
HETATM    4  C4  UNL     1     -33.965   6.884   3.678  1.00 20.00     0.024 A 
HETATM    5  C5  UNL     1     -32.563   8.189   2.205  1.00 20.00    -0.053 A 
HETATM    6  C6  UNL     1     -33.532   5.714   3.052  1.00 20.00     0.034 A 
HETATM    7 CL11 UNL     1     -34.130   4.187   3.576  1.00 20.00    -0.084 Cl
ENDROOT
BRANCH   5   8
HETATM    8  C8  UNL     1     -32.047   9.511   1.752  1.00 20.00     0.024 A 
HETATM    9  C7  UNL     1     -33.025  10.554   1.268  1.00 20.00     0.016 A 
HETATM   10  C9  UNL     1     -32.088   9.906   0.292  1.00 20.00     0.008 A 
BRANCH  10  11
HETATM   11  C10 UNL     1     -32.621   9.009  -0.773  1.00 20.00     0.119 C 
HETATM   12 CL12 UNL     1     -31.414   8.751  -2.063  1.00 20.00    -0.130 Cl
ENDBRANCH  10  11
ENDBRANCH   5   8
TORSDOF 2
ENDMDL
MODEL 8
REMARK VINA RESULT:       2.9      1.524      2.588
REMARK  2 active torsions:
REMARK  status: ('A' for Active; 'I' for Inactive)
REMARK    1  A    between atoms: C5_5  and  C8_8 
REMARK    2  A    between atoms: C9_9  and  C10_10 
ROOT
HETATM    1  C1  UNL     1     -33.440   4.300   3.234  1.00 20.00     0.009 A 
HETATM    2  C2  UNL     1     -34.525   6.430   2.885  1.00 20.00     0.009 A 
HETATM    3  C3  UNL     1     -34.199   4.101   4.386  1.00 20.00     0.024 A 
HETATM    4  C4  UNL     1     -35.285   6.231   4.038  1.00 20.00     0.024 A 
HETATM    5  C5  UNL     1     -33.603   5.465   2.483  1.00 20.00    -0.053 A 
HETATM    6  C6  UNL     1     -35.122   5.066   4.789  1.00 20.00     0.034 A 
HETATM    7 CL11 UNL     1     -36.059   4.821   6.211  1.00 20.00    -0.084 Cl
ENDROOT
BRANCH   5   8
HETATM    8  C8  UNL     1     -32.792   5.676   1.251  1.00 20.00     0.024 A 
HETATM    9  C7  UNL     1     -31.287   5.698   1.357  1.00 20.00     0.016 A 
HETATM   10  C9  UNL     1     -32.025   6.962   1.032  1.00 20.00     0.008 A 
BRANCH  10  11
HETATM   11  C10 UNL     1     -32.044   8.089   2.008  1.00 20.00     0.119 C 
HETATM   12 CL12 UNL     1     -32.395   9.640   1.197  1.00 20.00    -0.130 Cl
ENDBRANCH  10  11
ENDBRANCH   5   8
TORSDOF 2
ENDMDL
MODEL 9
REMARK VINA RESULT:       3.1      1.498      5.031
REMARK  2 active torsions:
REMARK  status: ('A' for Active; 'I' for Inactive)
REMARK    1  A    between atoms: C5_5  and  C8_8 
REMARK    2  A    between atoms: C9_9  and  C10_10 
ROOT
HETATM    1  C1  UNL     1     -32.213   7.431   2.259  1.00 20.00     0.009 A 
HETATM    2  C2  UNL     1     -33.257   9.538   1.699  1.00 20.00     0.009 A 
HETATM    3  C3  UNL     1     -31.387   7.544   1.141  1.00 20.00     0.024 A 
HETATM    4  C4  UNL     1     -32.431   9.650   0.582  1.00 20.00     0.024 A 
HETATM    5  C5  UNL     1     -33.149   8.428   2.538  1.00 20.00    -0.053 A 
HETATM    6  C6  UNL     1     -31.496   8.653   0.302  1.00 20.00     0.034 A 
HETATM    7 CL11 UNL     1     -30.476   8.791  -1.078  1.00 20.00    -0.084 Cl
ENDROOT
BRANCH   5   8
HETATM    8  C8  UNL     1     -34.031   8.309   3.733  1.00 20.00     0.024 A 
HETATM    9  C7  UNL     1     -33.524   7.571   4.948  1.00 20.00     0.016 A 
HETATM   10  C9  UNL     1     -34.632   6.979   4.129  1.00 20.00     0.008 A 
BRANCH  10  11
HETATM   11  C10 UNL     1     -34.402   5.726   3.355  1.00 20.00     0.119 C 
HETATM   12 CL12 UNL     1     -34.296   4.309   4.436  1.00 20.00    -0.130 Cl
ENDBRANCH  10  11
ENDBRANCH   5   8
TORSDOF 2
ENDMDL
