MODEL 1
REMARK VINA RESULT:      -0.9      0.000      0.000
REMARK  1 active torsions:
REMARK  status: ('A' for Active; 'I' for Inactive)
REMARK    1  A    between atoms: C7_7  and  C11_11 
ROOT
HETATM    1  C1  UNL     1     -33.702   5.422   2.228  1.00 20.00     0.005 C 
HETATM    2  C2  UNL     1     -32.549   6.196   1.588  1.00 20.00     0.010 C 
HETATM    3  C3  UNL     1     -33.834   8.155   2.593  1.00 20.00     0.014 C 
HETATM    4  C4  UNL     1     -31.248   8.300   2.410  1.00 20.00     0.016 A 
HETATM    5  C5  UNL     1     -33.868   5.822   3.698  1.00 20.00    -0.015 C 
HETATM    6  C6  UNL     1     -34.230   7.323   3.831  1.00 20.00    -0.014 C 
HETATM    7  C7  UNL     1     -31.765   8.588   1.032  1.00 20.00     0.009 A 
HETATM    8  C8  UNL     1     -32.552   7.668   1.958  1.00 20.00    -0.035 A 
HETATM    9  C9  UNL     1     -34.915   4.939   4.379  1.00 20.00     0.010 C 
HETATM   10  C10 UNL     1     -33.616   7.908   5.110  1.00 20.00     0.010 C 
ENDROOT
BRANCH   7  11
HETATM   11  C11 UNL     1     -32.225   9.958   0.670  1.00 20.00     0.120 C 
HETATM   12 CL12 UNL     1     -32.971   9.982  -0.952  1.00 20.00    -0.130 Cl
ENDBRANCH   7  11
TORSDOF 1
ENDMDL
