MODEL 1
REMARK VINA RESULT:      -1.3      0.000      0.000
REMARK  3 active torsions:
REMARK  status: ('A' for Active; 'I' for Inactive)
REMARK    1  A    between atoms: C1_1  and  C6_6 
REMARK    2  A    between atoms: C6_6  and  C7_7 
REMARK    3  A    between atoms: C7_7  and  C8_8 
ROOT
HETATM    1  C2  UNL     1     -32.664   5.762   1.418  1.00 20.00     0.014 C 
HETATM    2  C7  UNL     1     -33.332   7.018   2.007  1.00 20.00     0.034 C 
ENDROOT
BRANCH   2   3
HETATM    3  C6  UNL     1     -32.295   8.157   2.078  1.00 20.00     0.275 C 
HETATM    4  F11 UNL     1     -31.051   7.621   2.224  1.00 20.00    -0.237 F 
BRANCH   3   5
HETATM    5  C1  UNL     1     -32.217   9.095   0.865  1.00 20.00     0.208 C 
HETATM    6  O9  UNL     1     -31.395   8.760  -0.032  1.00 20.00    -0.646 OA
HETATM    7  O10 UNL     1     -32.969  10.109   0.922  1.00 20.00    -0.646 OA
ENDBRANCH   3   5
ENDBRANCH   2   3
BRANCH   2   8
HETATM    8  C8  UNL     1     -34.065   6.748   3.378  1.00 20.00    -0.045 C 
HETATM    9  C3  UNL     1     -35.596   6.877   3.208  1.00 20.00     0.015 C 
HETATM   10  C4  UNL     1     -33.785   5.304   3.854  1.00 20.00     0.015 C 
HETATM   11  C5  UNL     1     -33.626   7.714   4.495  1.00 20.00     0.015 C 
ENDBRANCH   2   8
TORSDOF 3
ENDMDL
MODEL 2
REMARK VINA RESULT:      -1.3      0.039      1.298
REMARK  3 active torsions:
REMARK  status: ('A' for Active; 'I' for Inactive)
REMARK    1  A    between atoms: C1_1  and  C6_6 
REMARK    2  A    between atoms: C6_6  and  C7_7 
REMARK    3  A    between atoms: C7_7  and  C8_8 
ROOT
HETATM    1  C2  UNL     1     -32.642   5.750   1.393  1.00 20.00     0.014 C 
HETATM    2  C7  UNL     1     -33.323   6.998   1.985  1.00 20.00     0.034 C 
ENDROOT
BRANCH   2   3
HETATM    3  C6  UNL     1     -32.294   8.142   2.071  1.00 20.00     0.275 C 
HETATM    4  F11 UNL     1     -31.048   7.613   2.218  1.00 20.00    -0.237 F 
BRANCH   3   5
HETATM    5  C1  UNL     1     -32.216   9.091   0.867  1.00 20.00     0.208 C 
HETATM    6  O9  UNL     1     -31.385   8.772  -0.029  1.00 20.00    -0.646 OA
HETATM    7  O10 UNL     1     -32.978  10.098   0.928  1.00 20.00    -0.646 OA
ENDBRANCH   3   5
ENDBRANCH   2   3
BRANCH   2   8
HETATM    8  C8  UNL     1     -34.065   6.714   3.348  1.00 20.00    -0.045 C 
HETATM    9  C3  UNL     1     -33.758   5.283   3.844  1.00 20.00     0.015 C 
HETATM   10  C4  UNL     1     -33.558   7.686   4.439  1.00 20.00     0.015 C 
HETATM   11  C5  UNL     1     -35.594   6.866   3.245  1.00 20.00     0.015 C 
ENDBRANCH   2   8
TORSDOF 3
ENDMDL
MODEL 3
REMARK VINA RESULT:      -1.2      0.036      1.307
REMARK  3 active torsions:
REMARK  status: ('A' for Active; 'I' for Inactive)
REMARK    1  A    between atoms: C1_1  and  C6_6 
REMARK    2  A    between atoms: C6_6  and  C7_7 
REMARK    3  A    between atoms: C7_7  and  C8_8 
ROOT
HETATM    1  C2  UNL     1     -32.647   5.759   1.385  1.00 20.00     0.014 C 
HETATM    2  C7  UNL     1     -33.326   6.999   1.995  1.00 20.00     0.034 C 
ENDROOT
BRANCH   2   3
HETATM    3  C6  UNL     1     -32.299   8.146   2.081  1.00 20.00     0.275 C 
HETATM    4  F11 UNL     1     -31.053   7.621   2.244  1.00 20.00    -0.237 F 
BRANCH   3   5
HETATM    5  C1  UNL     1     -32.212   9.086   0.871  1.00 20.00     0.208 C 
HETATM    6  O9  UNL     1     -31.364   8.767  -0.009  1.00 20.00    -0.646 OA
HETATM    7  O10 UNL     1     -32.986  10.085   0.911  1.00 20.00    -0.646 OA
ENDBRANCH   3   5
ENDBRANCH   2   3
BRANCH   2   8
HETATM    8  C8  UNL     1     -34.052   6.700   3.364  1.00 20.00    -0.045 C 
HETATM    9  C3  UNL     1     -33.583   7.693   4.453  1.00 20.00     0.015 C 
HETATM   10  C4  UNL     1     -35.578   6.893   3.208  1.00 20.00     0.015 C 
HETATM   11  C5  UNL     1     -33.800   5.271   3.880  1.00 20.00     0.015 C 
ENDBRANCH   2   8
TORSDOF 3
ENDMDL
MODEL 4
REMARK VINA RESULT:       0.1      2.919      4.274
REMARK  3 active torsions:
REMARK  status: ('A' for Active; 'I' for Inactive)
REMARK    1  A    between atoms: C1_1  and  C6_6 
REMARK    2  A    between atoms: C6_6  and  C7_7 
REMARK    3  A    between atoms: C7_7  and  C8_8 
ROOT
HETATM    1  C2  UNL     1     -33.206   8.032   4.544  1.00 20.00     0.014 C 
HETATM    2  C7  UNL     1     -33.539   7.618   3.099  1.00 20.00     0.034 C 
ENDROOT
BRANCH   2   3
HETATM    3  C6  UNL     1     -34.071   6.171   3.098  1.00 20.00     0.275 C 
HETATM    4  F11 UNL     1     -33.180   5.366   3.740  1.00 20.00    -0.237 F 
BRANCH   3   5
HETATM    5  C1  UNL     1     -35.427   5.935   3.777  1.00 20.00     0.208 C 
HETATM    6  O9  UNL     1     -35.460   4.995   4.620  1.00 20.00    -0.646 OA
HETATM    7  O10 UNL     1     -36.360   6.696   3.392  1.00 20.00    -0.646 OA
ENDBRANCH   3   5
ENDBRANCH   2   3
BRANCH   2   8
HETATM    8  C8  UNL     1     -32.345   7.850   2.094  1.00 20.00    -0.045 C 
HETATM    9  C3  UNL     1     -31.075   8.294   2.856  1.00 20.00     0.015 C 
HETATM   10  C4  UNL     1     -31.996   6.529   1.371  1.00 20.00     0.015 C 
HETATM   11  C5  UNL     1     -32.656   8.914   1.025  1.00 20.00     0.015 C 
ENDBRANCH   2   8
TORSDOF 3
ENDMDL
MODEL 5
REMARK VINA RESULT:       0.1      2.925      4.287
REMARK  3 active torsions:
REMARK  status: ('A' for Active; 'I' for Inactive)
REMARK    1  A    between atoms: C1_1  and  C6_6 
REMARK    2  A    between atoms: C6_6  and  C7_7 
REMARK    3  A    between atoms: C7_7  and  C8_8 
ROOT
HETATM    1  C2  UNL     1     -33.244   8.047   4.523  1.00 20.00     0.014 C 
HETATM    2  C7  UNL     1     -33.545   7.606   3.078  1.00 20.00     0.034 C 
ENDROOT
BRANCH   2   3
HETATM    3  C6  UNL     1     -34.077   6.158   3.092  1.00 20.00     0.275 C 
HETATM    4  F11 UNL     1     -33.180   5.358   3.732  1.00 20.00    -0.237 F 
BRANCH   3   5
HETATM    5  C1  UNL     1     -35.427   5.928   3.785  1.00 20.00     0.208 C 
HETATM    6  O9  UNL     1     -35.456   4.988   4.627  1.00 20.00    -0.646 OA
HETATM    7  O10 UNL     1     -36.361   6.693   3.408  1.00 20.00    -0.646 OA
ENDBRANCH   3   5
ENDBRANCH   2   3
BRANCH   2   8
HETATM    8  C8  UNL     1     -32.328   7.819   2.097  1.00 20.00    -0.045 C 
HETATM    9  C3  UNL     1     -32.663   8.904   1.048  1.00 20.00     0.015 C 
HETATM   10  C4  UNL     1     -31.094   8.319   2.882  1.00 20.00     0.015 C 
HETATM   11  C5  UNL     1     -31.928   6.535   1.345  1.00 20.00     0.015 C 
ENDBRANCH   2   8
TORSDOF 3
ENDMDL
MODEL 6
REMARK VINA RESULT:       0.1      2.921      4.279
REMARK  3 active torsions:
REMARK  status: ('A' for Active; 'I' for Inactive)
REMARK    1  A    between atoms: C1_1  and  C6_6 
REMARK    2  A    between atoms: C6_6  and  C7_7 
REMARK    3  A    between atoms: C7_7  and  C8_8 
ROOT
HETATM    1  C2  UNL     1     -33.214   8.030   4.545  1.00 20.00     0.014 C 
HETATM    2  C7  UNL     1     -33.528   7.608   3.097  1.00 20.00     0.034 C 
ENDROOT
BRANCH   2   3
HETATM    3  C6  UNL     1     -34.066   6.163   3.097  1.00 20.00     0.275 C 
HETATM    4  F11 UNL     1     -33.175   5.354   3.735  1.00 20.00    -0.237 F 
BRANCH   3   5
HETATM    5  C1  UNL     1     -35.421   5.932   3.780  1.00 20.00     0.208 C 
HETATM    6  O9  UNL     1     -35.455   4.990   4.621  1.00 20.00    -0.646 OA
HETATM    7  O10 UNL     1     -36.351   6.698   3.400  1.00 20.00    -0.646 OA
ENDBRANCH   3   5
ENDBRANCH   2   3
BRANCH   2   8
HETATM    8  C8  UNL     1     -32.318   7.830   2.109  1.00 20.00    -0.045 C 
HETATM    9  C3  UNL     1     -32.006   6.528   1.337  1.00 20.00     0.015 C 
HETATM   10  C4  UNL     1     -32.683   8.900   1.055  1.00 20.00     0.015 C 
HETATM   11  C5  UNL     1     -31.031   8.281   2.824  1.00 20.00     0.015 C 
ENDBRANCH   2   8
TORSDOF 3
ENDMDL
MODEL 7
REMARK VINA RESULT:       0.4      2.946      4.145
REMARK  3 active torsions:
REMARK  status: ('A' for Active; 'I' for Inactive)
REMARK    1  A    between atoms: C1_1  and  C6_6 
REMARK    2  A    between atoms: C6_6  and  C7_7 
REMARK    3  A    between atoms: C7_7  and  C8_8 
ROOT
HETATM    1  C2  UNL     1     -32.386   8.121   2.432  1.00 20.00     0.014 C 
HETATM    2  C7  UNL     1     -33.433   6.994   2.376  1.00 20.00     0.034 C 
ENDROOT
BRANCH   2   3
HETATM    3  C6  UNL     1     -33.986   6.746   3.794  1.00 20.00     0.275 C 
HETATM    4  F11 UNL     1     -34.056   7.932   4.460  1.00 20.00    -0.237 F 
BRANCH   3   5
HETATM    5  C1  UNL     1     -35.383   6.118   3.889  1.00 20.00     0.208 C 
HETATM    6  O9  UNL     1     -35.466   5.075   4.595  1.00 20.00    -0.646 OA
HETATM    7  O10 UNL     1     -36.282   6.708   3.225  1.00 20.00    -0.646 OA
ENDBRANCH   3   5
ENDBRANCH   2   3
BRANCH   2   8
HETATM    8  C8  UNL     1     -32.901   5.686   1.671  1.00 20.00    -0.045 C 
HETATM    9  C3  UNL     1     -31.449   5.888   1.182  1.00 20.00     0.015 C 
HETATM   10  C4  UNL     1     -32.878   4.513   2.677  1.00 20.00     0.015 C 
HETATM   11  C5  UNL     1     -33.758   5.264   0.462  1.00 20.00     0.015 C 
ENDBRANCH   2   8
TORSDOF 3
ENDMDL
MODEL 8
REMARK VINA RESULT:       0.4      2.956      4.077
REMARK  3 active torsions:
REMARK  status: ('A' for Active; 'I' for Inactive)
REMARK    1  A    between atoms: C1_1  and  C6_6 
REMARK    2  A    between atoms: C6_6  and  C7_7 
REMARK    3  A    between atoms: C7_7  and  C8_8 
ROOT
HETATM    1  C2  UNL     1     -32.385   8.122   2.457  1.00 20.00     0.014 C 
HETATM    2  C7  UNL     1     -33.432   6.994   2.399  1.00 20.00     0.034 C 
ENDROOT
BRANCH   2   3
HETATM    3  C6  UNL     1     -33.998   6.757   3.813  1.00 20.00     0.275 C 
HETATM    4  F11 UNL     1     -34.089   7.950   4.464  1.00 20.00    -0.237 F 
BRANCH   3   5
HETATM    5  C1  UNL     1     -35.390   6.115   3.900  1.00 20.00     0.208 C 
HETATM    6  O9  UNL     1     -35.466   5.068   4.602  1.00 20.00    -0.646 OA
HETATM    7  O10 UNL     1     -36.292   6.698   3.234  1.00 20.00    -0.646 OA
ENDBRANCH   3   5
ENDBRANCH   2   3
BRANCH   2   8
HETATM    8  C8  UNL     1     -32.895   5.681   1.708  1.00 20.00    -0.045 C 
HETATM    9  C3  UNL     1     -33.770   5.316   0.487  1.00 20.00     0.015 C 
HETATM   10  C4  UNL     1     -31.460   5.909   1.180  1.00 20.00     0.015 C 
HETATM   11  C5  UNL     1     -32.870   4.469   2.657  1.00 20.00     0.015 C 
ENDBRANCH   2   8
TORSDOF 3
ENDMDL
MODEL 9
REMARK VINA RESULT:       0.7      3.280      4.289
REMARK  3 active torsions:
REMARK  status: ('A' for Active; 'I' for Inactive)
REMARK    1  A    between atoms: C1_1  and  C6_6 
REMARK    2  A    between atoms: C6_6  and  C7_7 
REMARK    3  A    between atoms: C7_7  and  C8_8 
ROOT
HETATM    1  C2  UNL     1     -33.576   5.742   1.131  1.00 20.00     0.014 C 
HETATM    2  C7  UNL     1     -32.984   6.325   2.427  1.00 20.00     0.034 C 
ENDROOT
BRANCH   2   3
HETATM    3  C6  UNL     1     -34.063   6.305   3.529  1.00 20.00     0.275 C 
HETATM    4  F11 UNL     1     -35.210   6.855   3.042  1.00 20.00    -0.237 F 
BRANCH   3   5
HETATM    5  C1  UNL     1     -34.452   4.929   4.088  1.00 20.00     0.208 C 
HETATM    6  O9  UNL     1     -33.601   4.011   3.921  1.00 20.00    -0.646 OA
HETATM    7  O10 UNL     1     -35.593   4.873   4.629  1.00 20.00    -0.646 OA
ENDBRANCH   3   5
ENDBRANCH   2   3
BRANCH   2   8
HETATM    8  C8  UNL     1     -32.318   7.741   2.225  1.00 20.00    -0.045 C 
HETATM    9  C3  UNL     1     -32.204   8.483   3.576  1.00 20.00     0.015 C 
HETATM   10  C4  UNL     1     -30.880   7.577   1.680  1.00 20.00     0.015 C 
HETATM   11  C5  UNL     1     -33.100   8.640   1.250  1.00 20.00     0.015 C 
ENDBRANCH   2   8
TORSDOF 3
ENDMDL
