MODEL 1
REMARK VINA RESULT:      -2.4      0.000      0.000
REMARK  3 active torsions:
REMARK  status: ('A' for Active; 'I' for Inactive)
REMARK    1  A    between atoms: C1_1  and  C9_9 
REMARK    2  A    between atoms: C5_5  and  C8_8 
REMARK    3  A    between atoms: C6_6  and  C9_9 
ROOT
HETATM    1  C2  UNL     1     -32.001   6.572   0.804  1.00 20.00     0.005 C 
HETATM    2  C3  UNL     1     -32.928   5.733   1.690  1.00 20.00     0.008 C 
HETATM    3  C4  UNL     1     -33.004   8.009   2.456  1.00 20.00     0.012 C 
HETATM    4  C5  UNL     1     -31.781   7.892   1.551  1.00 20.00    -0.014 C 
HETATM    5  C6  UNL     1     -33.190   6.574   2.942  1.00 20.00     0.030 C 
ENDROOT
BRANCH   5   6
HETATM    6  C9  UNL     1     -34.556   6.323   3.558  1.00 20.00     0.274 C 
HETATM    7  F12 UNL     1     -34.752   7.254   4.531  1.00 20.00    -0.238 F 
BRANCH   6   8
HETATM    8  C1  UNL     1     -34.744   4.967   4.232  1.00 20.00     0.208 C 
HETATM    9  O10 UNL     1     -33.817   4.126   4.073  1.00 20.00    -0.646 OA
HETATM   10  O11 UNL     1     -35.833   4.849   4.866  1.00 20.00    -0.646 OA
ENDBRANCH   6   8
ENDBRANCH   5   6
BRANCH   4  11
HETATM   11  C8  UNL     1     -31.607   9.083   0.625  1.00 20.00     0.000 C 
HETATM   12  C7  UNL     1     -32.761  10.033   0.711  1.00 20.00     0.005 C 
ENDBRANCH   4  11
TORSDOF 3
ENDMDL
MODEL 2
REMARK VINA RESULT:      -1.5      3.350      5.005
REMARK  3 active torsions:
REMARK  status: ('A' for Active; 'I' for Inactive)
REMARK    1  A    between atoms: C1_1  and  C9_9 
REMARK    2  A    between atoms: C5_5  and  C8_8 
REMARK    3  A    between atoms: C6_6  and  C9_9 
ROOT
HETATM    1  C2  UNL     1     -32.848   4.978   2.136  1.00 20.00     0.005 C 
HETATM    2  C3  UNL     1     -32.084   5.986   1.271  1.00 20.00     0.008 C 
HETATM    3  C4  UNL     1     -33.509   7.204   2.774  1.00 20.00     0.012 C 
HETATM    4  C5  UNL     1     -33.998   5.758   2.782  1.00 20.00    -0.014 C 
HETATM    5  C6  UNL     1     -32.834   7.314   1.409  1.00 20.00     0.030 C 
ENDROOT
BRANCH   5   6
HETATM    6  C9  UNL     1     -31.930   8.528   1.284  1.00 20.00     0.274 C 
HETATM    7  F12 UNL     1     -31.740   9.036   2.533  1.00 20.00    -0.238 F 
BRANCH   6   8
HETATM    8  C1  UNL     1     -32.470   9.679   0.441  1.00 20.00     0.208 C 
HETATM    9  O10 UNL     1     -32.599  10.790   1.024  1.00 20.00    -0.646 OA
HETATM   10  O11 UNL     1     -32.739   9.365  -0.755  1.00 20.00    -0.646 OA
ENDBRANCH   6   8
ENDBRANCH   5   6
BRANCH   4  11
HETATM   11  C8  UNL     1     -34.358   5.258   4.170  1.00 20.00     0.000 C 
HETATM   12  C7  UNL     1     -33.931   3.839   4.382  1.00 20.00     0.005 C 
ENDBRANCH   4  11
TORSDOF 3
ENDMDL
MODEL 3
REMARK VINA RESULT:      -1.2      3.164      4.910
REMARK  3 active torsions:
REMARK  status: ('A' for Active; 'I' for Inactive)
REMARK    1  A    between atoms: C1_1  and  C9_9 
REMARK    2  A    between atoms: C5_5  and  C8_8 
REMARK    3  A    between atoms: C6_6  and  C9_9 
ROOT
HETATM    1  C2  UNL     1     -32.938   4.598   2.166  1.00 20.00     0.005 C 
HETATM    2  C3  UNL     1     -32.208   5.670   1.349  1.00 20.00     0.008 C 
HETATM    3  C4  UNL     1     -33.373   6.751   3.150  1.00 20.00     0.012 C 
HETATM    4  C5  UNL     1     -33.954   5.345   3.035  1.00 20.00    -0.014 C 
HETATM    5  C6  UNL     1     -32.847   7.005   1.740  1.00 20.00     0.030 C 
ENDROOT
BRANCH   5   6
HETATM    6  C9  UNL     1     -31.883   8.176   1.662  1.00 20.00     0.274 C 
HETATM    7  F12 UNL     1     -31.781   8.715   2.908  1.00 20.00    -0.238 F 
BRANCH   6   8
HETATM    8  C1  UNL     1     -32.297   9.321   0.742  1.00 20.00     0.208 C 
HETATM    9  O10 UNL     1     -31.914   9.244  -0.458  1.00 20.00    -0.646 OA
HETATM   10  O11 UNL     1     -32.972  10.226   1.311  1.00 20.00    -0.646 OA
ENDBRANCH   6   8
ENDBRANCH   5   6
BRANCH   4  11
HETATM   11  C8  UNL     1     -34.192   4.685   4.382  1.00 20.00     0.000 C 
HETATM   12  C7  UNL     1     -33.540   3.341   4.471  1.00 20.00     0.005 C 
ENDBRANCH   4  11
TORSDOF 3
ENDMDL
MODEL 4
REMARK VINA RESULT:      -1.1      2.933      5.142
REMARK  3 active torsions:
REMARK  status: ('A' for Active; 'I' for Inactive)
REMARK    1  A    between atoms: C1_1  and  C9_9 
REMARK    2  A    between atoms: C5_5  and  C8_8 
REMARK    3  A    between atoms: C6_6  and  C9_9 
ROOT
HETATM    1  C2  UNL     1     -35.233   5.582   4.295  1.00 20.00     0.005 C 
HETATM    2  C3  UNL     1     -34.997   6.808   3.406  1.00 20.00     0.008 C 
HETATM    3  C4  UNL     1     -33.170   5.280   3.090  1.00 20.00     0.012 C 
HETATM    4  C5  UNL     1     -33.894   4.840   4.359  1.00 20.00    -0.014 C 
HETATM    5  C6  UNL     1     -33.519   6.764   3.011  1.00 20.00     0.030 C 
ENDROOT
BRANCH   5   6
HETATM    6  C9  UNL     1     -33.245   7.372   1.647  1.00 20.00     0.274 C 
HETATM    7  F12 UNL     1     -32.852   6.369   0.815  1.00 20.00    -0.238 F 
BRANCH   6   8
HETATM    8  C1  UNL     1     -32.137   8.420   1.593  1.00 20.00     0.208 C 
HETATM    9  O10 UNL     1     -32.193   9.249   0.643  1.00 20.00    -0.646 OA
HETATM   10  O11 UNL     1     -31.280   8.317   2.516  1.00 20.00    -0.646 OA
ENDBRANCH   6   8
ENDBRANCH   5   6
BRANCH   4  11
HETATM   11  C8  UNL     1     -34.046   3.333   4.468  1.00 20.00     0.000 C 
HETATM   12  C7  UNL     1     -32.811   2.683   5.007  1.00 20.00     0.005 C 
ENDBRANCH   4  11
TORSDOF 3
ENDMDL
MODEL 5
REMARK VINA RESULT:      -1.1      3.731      5.227
REMARK  3 active torsions:
REMARK  status: ('A' for Active; 'I' for Inactive)
REMARK    1  A    between atoms: C1_1  and  C9_9 
REMARK    2  A    between atoms: C5_5  and  C8_8 
REMARK    3  A    between atoms: C6_6  and  C9_9 
ROOT
HETATM    1  C2  UNL     1     -33.409   7.855   3.613  1.00 20.00     0.005 C 
HETATM    2  C3  UNL     1     -32.665   8.795   2.658  1.00 20.00     0.008 C 
HETATM    3  C4  UNL     1     -32.810   6.629   1.628  1.00 20.00     0.012 C 
HETATM    4  C5  UNL     1     -33.138   6.435   3.106  1.00 20.00    -0.014 C 
HETATM    5  C6  UNL     1     -31.953   7.893   1.647  1.00 20.00     0.030 C 
ENDROOT
BRANCH   5   6
HETATM    6  C9  UNL     1     -31.799   8.532   0.278  1.00 20.00     0.274 C 
HETATM    7  F12 UNL     1     -30.478   8.801   0.090  1.00 20.00    -0.238 F 
BRANCH   6   8
HETATM    8  C1  UNL     1     -32.529   9.857   0.074  1.00 20.00     0.208 C 
HETATM    9  O10 UNL     1     -32.206  10.801   0.847  1.00 20.00    -0.646 OA
HETATM   10  O11 UNL     1     -33.390   9.838  -0.852  1.00 20.00    -0.646 OA
ENDBRANCH   6   8
ENDBRANCH   5   6
BRANCH   4  11
HETATM   11  C8  UNL     1     -34.298   5.482   3.339  1.00 20.00     0.000 C 
HETATM   12  C7  UNL     1     -35.425   6.141   4.070  1.00 20.00     0.005 C 
ENDBRANCH   4  11
TORSDOF 3
ENDMDL
MODEL 6
REMARK VINA RESULT:      -0.6      1.543      2.126
REMARK  3 active torsions:
REMARK  status: ('A' for Active; 'I' for Inactive)
REMARK    1  A    between atoms: C1_1  and  C9_9 
REMARK    2  A    between atoms: C5_5  and  C8_8 
REMARK    3  A    between atoms: C6_6  and  C9_9 
ROOT
HETATM    1  C2  UNL     1     -32.761   8.712   2.959  1.00 20.00     0.005 C 
HETATM    2  C3  UNL     1     -33.120   7.500   3.826  1.00 20.00     0.008 C 
HETATM    3  C4  UNL     1     -32.662   6.729   1.597  1.00 20.00     0.012 C 
HETATM    4  C5  UNL     1     -32.862   8.238   1.505  1.00 20.00    -0.014 C 
HETATM    5  C6  UNL     1     -33.455   6.369   2.851  1.00 20.00     0.030 C 
ENDROOT
BRANCH   5   6
HETATM    6  C9  UNL     1     -33.122   4.991   3.395  1.00 20.00     0.274 C 
HETATM    7  F12 UNL     1     -32.867   4.175   2.336  1.00 20.00    -0.238 F 
BRANCH   6   8
HETATM    8  C1  UNL     1     -34.226   4.304   4.196  1.00 20.00     0.208 C 
HETATM    9  O10 UNL     1     -35.294   4.957   4.353  1.00 20.00    -0.646 OA
HETATM   10  O11 UNL     1     -33.920   3.153   4.619  1.00 20.00    -0.646 OA
ENDBRANCH   6   8
ENDBRANCH   5   6
BRANCH   4  11
HETATM   11  C8  UNL     1     -31.866   8.918   0.582  1.00 20.00     0.000 C 
HETATM   12  C7  UNL     1     -32.455  10.116  -0.094  1.00 20.00     0.005 C 
ENDBRANCH   4  11
TORSDOF 3
ENDMDL
MODEL 7
REMARK VINA RESULT:      -0.5      1.584      1.983
REMARK  3 active torsions:
REMARK  status: ('A' for Active; 'I' for Inactive)
REMARK    1  A    between atoms: C1_1  and  C9_9 
REMARK    2  A    between atoms: C5_5  and  C8_8 
REMARK    3  A    between atoms: C6_6  and  C9_9 
ROOT
HETATM    1  C2  UNL     1     -31.411   8.229   0.505  1.00 20.00     0.005 C 
HETATM    2  C3  UNL     1     -31.702   6.944   1.287  1.00 20.00     0.008 C 
HETATM    3  C4  UNL     1     -33.118   8.688   2.140  1.00 20.00     0.012 C 
HETATM    4  C5  UNL     1     -32.028   9.371   1.319  1.00 20.00    -0.014 C 
HETATM    5  C6  UNL     1     -32.446   7.380   2.552  1.00 20.00     0.030 C 
ENDROOT
BRANCH   5   6
HETATM    6  C9  UNL     1     -33.427   6.337   3.059  1.00 20.00     0.274 C 
HETATM    7  F12 UNL     1     -34.092   5.833   1.984  1.00 20.00    -0.238 F 
BRANCH   6   8
HETATM    8  C1  UNL     1     -34.502   6.842   4.018  1.00 20.00     0.208 C 
HETATM    9  O10 UNL     1     -34.176   7.798   4.774  1.00 20.00    -0.646 OA
HETATM   10  O11 UNL     1     -35.600   6.219   3.941  1.00 20.00    -0.646 OA
ENDBRANCH   6   8
ENDBRANCH   5   6
BRANCH   4  11
HETATM   11  C8  UNL     1     -32.552  10.507   0.458  1.00 20.00     0.000 C 
HETATM   12  C7  UNL     1     -32.879  10.053  -0.930  1.00 20.00     0.005 C 
ENDBRANCH   4  11
TORSDOF 3
ENDMDL
MODEL 8
REMARK VINA RESULT:      -0.5      1.326      2.268
REMARK  3 active torsions:
REMARK  status: ('A' for Active; 'I' for Inactive)
REMARK    1  A    between atoms: C1_1  and  C9_9 
REMARK    2  A    between atoms: C5_5  and  C8_8 
REMARK    3  A    between atoms: C6_6  and  C9_9 
ROOT
HETATM    1  C2  UNL     1     -33.145   8.187   3.917  1.00 20.00     0.005 C 
HETATM    2  C3  UNL     1     -34.107   7.217   4.612  1.00 20.00     0.008 C 
HETATM    3  C4  UNL     1     -33.587   6.340   2.437  1.00 20.00     0.012 C 
HETATM    4  C5  UNL     1     -33.154   7.803   2.434  1.00 20.00    -0.014 C 
HETATM    5  C6  UNL     1     -34.675   6.323   3.508  1.00 20.00     0.030 C 
ENDROOT
BRANCH   5   6
HETATM    6  C9  UNL     1     -35.021   4.924   3.988  1.00 20.00     0.274 C 
HETATM    7  F12 UNL     1     -35.649   5.040   5.190  1.00 20.00    -0.238 F 
BRANCH   6   8
HETATM    8  C1  UNL     1     -33.839   3.987   4.221  1.00 20.00     0.208 C 
HETATM    9  O10 UNL     1     -33.630   3.634   5.414  1.00 20.00    -0.646 OA
HETATM   10  O11 UNL     1     -33.199   3.688   3.172  1.00 20.00    -0.646 OA
ENDBRANCH   6   8
ENDBRANCH   5   6
BRANCH   4  11
HETATM   11  C8  UNL     1     -31.818   8.029   1.747  1.00 20.00     0.000 C 
HETATM   12  C7  UNL     1     -31.916   9.039   0.648  1.00 20.00     0.005 C 
ENDBRANCH   4  11
TORSDOF 3
ENDMDL
MODEL 9
REMARK VINA RESULT:       0.5      3.517      5.215
REMARK  3 active torsions:
REMARK  status: ('A' for Active; 'I' for Inactive)
REMARK    1  A    between atoms: C1_1  and  C9_9 
REMARK    2  A    between atoms: C5_5  and  C8_8 
REMARK    3  A    between atoms: C6_6  and  C9_9 
ROOT
HETATM    1  C2  UNL     1     -33.062   7.700   4.513  1.00 20.00     0.005 C 
HETATM    2  C3  UNL     1     -32.182   8.699   3.755  1.00 20.00     0.008 C 
HETATM    3  C4  UNL     1     -33.708   7.696   2.194  1.00 20.00     0.012 C 
HETATM    4  C5  UNL     1     -33.727   6.824   3.446  1.00 20.00    -0.014 C 
HETATM    5  C6  UNL     1     -32.331   8.351   2.271  1.00 20.00     0.030 C 
ENDROOT
BRANCH   5   6
HETATM    6  C9  UNL     1     -32.189   9.555   1.356  1.00 20.00     0.274 C 
HETATM    7  F12 UNL     1     -33.333  10.287   1.451  1.00 20.00    -0.238 F 
BRANCH   6   8
HETATM    8  C1  UNL     1     -32.009   9.248  -0.128  1.00 20.00     0.208 C 
HETATM    9  O10 UNL     1     -32.930   9.638  -0.898  1.00 20.00    -0.646 OA
HETATM   10  O11 UNL     1     -30.947   8.618  -0.403  1.00 20.00    -0.646 OA
ENDBRANCH   6   8
ENDBRANCH   5   6
BRANCH   4  11
HETATM   11  C8  UNL     1     -35.121   6.363   3.832  1.00 20.00     0.000 C 
HETATM   12  C7  UNL     1     -35.108   5.005   4.461  1.00 20.00     0.005 C 
ENDBRANCH   4  11
TORSDOF 3
ENDMDL
