MODEL 1
REMARK VINA RESULT:      -0.8      0.000      0.000
REMARK  1 active torsions:
REMARK  status: ('A' for Active; 'I' for Inactive)
REMARK    1  A    between atoms: C4_4  and  C9_9 
ROOT
HETATM    1  C1  UNL     1     -34.617   6.143   3.791  1.00 20.00     0.131 C 
HETATM    2  C2  UNL     1     -33.730   5.869   2.563  1.00 20.00     0.084 C 
HETATM    3  C3  UNL     1     -34.240   7.643   3.803  1.00 20.00     0.056 C 
HETATM    4  C4  UNL     1     -33.655   7.409   2.366  1.00 20.00     0.011 C 
HETATM    5  C5  UNL     1     -33.315   8.047   4.938  1.00 20.00     0.018 C 
HETATM    6  O10 UNL     1     -35.331   5.447   4.483  1.00 20.00    -0.298 OA
ENDROOT
BRANCH   4   7
HETATM    7  C9  UNL     1     -32.282   7.960   2.029  1.00 20.00    -0.047 C 
HETATM    8  C6  UNL     1     -32.402   9.060   0.956  1.00 20.00     0.015 C 
HETATM    9  C7  UNL     1     -31.377   6.836   1.490  1.00 20.00     0.015 C 
HETATM   10  C8  UNL     1     -31.630   8.563   3.288  1.00 20.00     0.015 C 
ENDBRANCH   4   7
TORSDOF 1
ENDMDL
MODEL 2
REMARK VINA RESULT:      -0.8      0.002      1.374
REMARK  1 active torsions:
REMARK  status: ('A' for Active; 'I' for Inactive)
REMARK    1  A    between atoms: C4_4  and  C9_9 
ROOT
HETATM    1  C1  UNL     1     -34.616   6.142   3.792  1.00 20.00     0.131 C 
HETATM    2  C2  UNL     1     -33.730   5.869   2.563  1.00 20.00     0.084 C 
HETATM    3  C3  UNL     1     -34.239   7.642   3.804  1.00 20.00     0.056 C 
HETATM    4  C4  UNL     1     -33.655   7.409   2.367  1.00 20.00     0.011 C 
HETATM    5  C5  UNL     1     -33.314   8.047   4.939  1.00 20.00     0.018 C 
HETATM    6  O10 UNL     1     -35.329   5.446   4.484  1.00 20.00    -0.298 OA
ENDROOT
BRANCH   4   7
HETATM    7  C9  UNL     1     -32.283   7.962   2.029  1.00 20.00    -0.047 C 
HETATM    8  C6  UNL     1     -31.630   8.563   3.289  1.00 20.00     0.015 C 
HETATM    9  C7  UNL     1     -32.404   9.064   0.958  1.00 20.00     0.015 C 
HETATM   10  C8  UNL     1     -31.378   6.839   1.488  1.00 20.00     0.015 C 
ENDBRANCH   4   7
TORSDOF 1
ENDMDL
MODEL 3
REMARK VINA RESULT:      -0.8      0.003      1.372
REMARK  1 active torsions:
REMARK  status: ('A' for Active; 'I' for Inactive)
REMARK    1  A    between atoms: C4_4  and  C9_9 
ROOT
HETATM    1  C1  UNL     1     -34.616   6.142   3.792  1.00 20.00     0.131 C 
HETATM    2  C2  UNL     1     -33.730   5.869   2.563  1.00 20.00     0.084 C 
HETATM    3  C3  UNL     1     -34.239   7.642   3.804  1.00 20.00     0.056 C 
HETATM    4  C4  UNL     1     -33.655   7.409   2.367  1.00 20.00     0.011 C 
HETATM    5  C5  UNL     1     -33.314   8.046   4.939  1.00 20.00     0.018 C 
HETATM    6  O10 UNL     1     -35.329   5.445   4.484  1.00 20.00    -0.298 OA
ENDROOT
BRANCH   4   7
HETATM    7  C9  UNL     1     -32.283   7.962   2.029  1.00 20.00    -0.047 C 
HETATM    8  C6  UNL     1     -31.379   6.838   1.487  1.00 20.00     0.015 C 
HETATM    9  C7  UNL     1     -31.630   8.563   3.290  1.00 20.00     0.015 C 
HETATM   10  C8  UNL     1     -32.405   9.063   0.959  1.00 20.00     0.015 C 
ENDBRANCH   4   7
TORSDOF 1
ENDMDL
MODEL 4
REMARK VINA RESULT:       0.2      2.273      3.937
REMARK  1 active torsions:
REMARK  status: ('A' for Active; 'I' for Inactive)
REMARK    1  A    between atoms: C4_4  and  C9_9 
ROOT
HETATM    1  C1  UNL     1     -31.894   7.868   1.384  1.00 20.00     0.131 C 
HETATM    2  C2  UNL     1     -32.417   8.381   2.738  1.00 20.00     0.084 C 
HETATM    3  C3  UNL     1     -32.969   6.758   1.323  1.00 20.00     0.056 C 
HETATM    4  C4  UNL     1     -33.688   7.521   2.490  1.00 20.00     0.011 C 
HETATM    5  C5  UNL     1     -32.434   5.355   1.554  1.00 20.00     0.018 C 
HETATM    6  O10 UNL     1     -30.986   8.205   0.653  1.00 20.00    -0.298 OA
ENDROOT
BRANCH   4   7
HETATM    7  C9  UNL     1     -34.192   6.734   3.685  1.00 20.00    -0.047 C 
HETATM    8  C6  UNL     1     -33.876   7.493   4.989  1.00 20.00     0.015 C 
HETATM    9  C7  UNL     1     -33.512   5.352   3.736  1.00 20.00     0.015 C 
HETATM   10  C8  UNL     1     -35.717   6.535   3.583  1.00 20.00     0.015 C 
ENDBRANCH   4   7
TORSDOF 1
ENDMDL
MODEL 5
REMARK VINA RESULT:       0.3      2.256      3.984
REMARK  1 active torsions:
REMARK  status: ('A' for Active; 'I' for Inactive)
REMARK    1  A    between atoms: C4_4  and  C9_9 
ROOT
HETATM    1  C1  UNL     1     -31.977   7.930   1.400  1.00 20.00     0.131 C 
HETATM    2  C2  UNL     1     -32.449   8.388   2.792  1.00 20.00     0.084 C 
HETATM    3  C3  UNL     1     -33.061   6.830   1.329  1.00 20.00     0.056 C 
HETATM    4  C4  UNL     1     -33.734   7.547   2.551  1.00 20.00     0.011 C 
HETATM    5  C5  UNL     1     -32.529   5.416   1.482  1.00 20.00     0.018 C 
HETATM    6  O10 UNL     1     -31.092   8.293   0.653  1.00 20.00    -0.298 OA
ENDROOT
BRANCH   4   7
HETATM    7  C9  UNL     1     -34.204   6.714   3.729  1.00 20.00    -0.047 C 
HETATM    8  C6  UNL     1     -35.730   6.513   3.661  1.00 20.00     0.015 C 
HETATM    9  C7  UNL     1     -33.853   7.422   5.052  1.00 20.00     0.015 C 
HETATM   10  C8  UNL     1     -33.519   5.333   3.707  1.00 20.00     0.015 C 
ENDBRANCH   4   7
TORSDOF 1
ENDMDL
MODEL 6
REMARK VINA RESULT:       0.8      1.982      3.505
REMARK  1 active torsions:
REMARK  status: ('A' for Active; 'I' for Inactive)
REMARK    1  A    between atoms: C4_4  and  C9_9 
ROOT
HETATM    1  C1  UNL     1     -32.281   5.593   1.280  1.00 20.00     0.131 C 
HETATM    2  C2  UNL     1     -33.561   5.307   2.085  1.00 20.00     0.084 C 
HETATM    3  C3  UNL     1     -31.930   6.816   2.158  1.00 20.00     0.056 C 
HETATM    4  C4  UNL     1     -33.015   6.288   3.161  1.00 20.00     0.011 C 
HETATM    5  C5  UNL     1     -32.125   8.157   1.472  1.00 20.00     0.018 C 
HETATM    6  O10 UNL     1     -31.756   5.063   0.323  1.00 20.00    -0.298 OA
ENDROOT
BRANCH   4   7
HETATM    7  C9  UNL     1     -34.027   7.262   3.735  1.00 20.00    -0.047 C 
HETATM    8  C6  UNL     1     -33.452   7.941   4.994  1.00 20.00     0.015 C 
HETATM    9  C7  UNL     1     -35.321   6.518   4.118  1.00 20.00     0.015 C 
HETATM   10  C8  UNL     1     -34.366   8.348   2.696  1.00 20.00     0.015 C 
ENDBRANCH   4   7
TORSDOF 1
ENDMDL
MODEL 7
REMARK VINA RESULT:       0.9      0.832      2.231
REMARK  1 active torsions:
REMARK  status: ('A' for Active; 'I' for Inactive)
REMARK    1  A    between atoms: C4_4  and  C9_9 
ROOT
HETATM    1  C1  UNL     1     -34.728   6.426   3.759  1.00 20.00     0.131 C 
HETATM    2  C2  UNL     1     -34.246   7.884   3.646  1.00 20.00     0.084 C 
HETATM    3  C3  UNL     1     -33.441   5.887   3.092  1.00 20.00     0.056 C 
HETATM    4  C4  UNL     1     -32.835   7.315   3.325  1.00 20.00     0.011 C 
HETATM    5  C5  UNL     1     -33.638   5.371   1.677  1.00 20.00     0.018 C 
HETATM    6  O10 UNL     1     -35.732   5.906   4.199  1.00 20.00    -0.298 OA
ENDROOT
BRANCH   4   7
HETATM    7  C9  UNL     1     -32.095   7.997   2.190  1.00 20.00    -0.047 C 
HETATM    8  C6  UNL     1     -30.887   8.781   2.740  1.00 20.00     0.015 C 
HETATM    9  C7  UNL     1     -33.033   8.977   1.459  1.00 20.00     0.015 C 
HETATM   10  C8  UNL     1     -31.588   6.947   1.182  1.00 20.00     0.015 C 
ENDBRANCH   4   7
TORSDOF 1
ENDMDL
MODEL 8
REMARK VINA RESULT:       0.9      0.834      2.147
REMARK  1 active torsions:
REMARK  status: ('A' for Active; 'I' for Inactive)
REMARK    1  A    between atoms: C4_4  and  C9_9 
ROOT
HETATM    1  C1  UNL     1     -34.732   6.438   3.754  1.00 20.00     0.131 C 
HETATM    2  C2  UNL     1     -34.245   7.894   3.637  1.00 20.00     0.084 C 
HETATM    3  C3  UNL     1     -33.445   5.893   3.092  1.00 20.00     0.056 C 
HETATM    4  C4  UNL     1     -32.836   7.320   3.322  1.00 20.00     0.011 C 
HETATM    5  C5  UNL     1     -33.640   5.373   1.678  1.00 20.00     0.018 C 
HETATM    6  O10 UNL     1     -35.739   5.922   4.193  1.00 20.00    -0.298 OA
ENDROOT
BRANCH   4   7
HETATM    7  C9  UNL     1     -32.091   7.996   2.185  1.00 20.00    -0.047 C 
HETATM    8  C6  UNL     1     -31.585   6.941   1.182  1.00 20.00     0.015 C 
HETATM    9  C7  UNL     1     -30.883   8.779   2.736  1.00 20.00     0.015 C 
HETATM   10  C8  UNL     1     -33.025   8.975   1.449  1.00 20.00     0.015 C 
ENDBRANCH   4   7
TORSDOF 1
ENDMDL
MODEL 9
REMARK VINA RESULT:       0.9      1.375      2.452
REMARK  1 active torsions:
REMARK  status: ('A' for Active; 'I' for Inactive)
REMARK    1  A    between atoms: C4_4  and  C9_9 
ROOT
HETATM    1  C1  UNL     1     -35.007   5.425   4.247  1.00 20.00     0.131 C 
HETATM    2  C2  UNL     1     -34.919   6.626   3.287  1.00 20.00     0.084 C 
HETATM    3  C3  UNL     1     -33.574   4.963   3.894  1.00 20.00     0.056 C 
HETATM    4  C4  UNL     1     -33.387   6.369   3.225  1.00 20.00     0.011 C 
HETATM    5  C5  UNL     1     -33.512   3.707   3.043  1.00 20.00     0.018 C 
HETATM    6  O10 UNL     1     -35.871   5.005   4.988  1.00 20.00    -0.298 OA
ENDROOT
BRANCH   4   7
HETATM    7  C9  UNL     1     -32.763   6.452   1.844  1.00 20.00    -0.047 C 
HETATM    8  C6  UNL     1     -32.158   7.852   1.620  1.00 20.00     0.015 C 
HETATM    9  C7  UNL     1     -33.831   6.193   0.764  1.00 20.00     0.015 C 
HETATM   10  C8  UNL     1     -31.647   5.399   1.703  1.00 20.00     0.015 C 
ENDBRANCH   4   7
TORSDOF 1
ENDMDL
