MODEL 1
REMARK VINA RESULT:       2.1      0.000      0.000
REMARK  1 active torsions:
REMARK  status: ('A' for Active; 'I' for Inactive)
REMARK    1  A    between atoms: C5_5  and  C10_10 
ROOT
HETATM    1  C1  UNL     1     -33.341   5.067   2.974  1.00 20.00     0.019 C 
HETATM    2  C2  UNL     1     -31.110   8.042   2.192  1.00 20.00     0.017 A 
HETATM    3  C3  UNL     1     -34.646   5.491   3.645  1.00 20.00     0.075 C 
HETATM    4  C4  UNL     1     -32.990   7.667   3.858  1.00 20.00     0.084 C 
HETATM    5  C5  UNL     1     -32.310   8.683   1.574  1.00 20.00     0.006 A 
HETATM    6  C6  UNL     1     -32.484   7.422   2.441  1.00 20.00    -0.020 A 
HETATM    7  C7  UNL     1     -32.836   6.014   1.839  1.00 20.00    -0.038 C 
HETATM    8  C8  UNL     1     -33.937   6.099   0.760  1.00 20.00     0.015 C 
HETATM    9  C9  UNL     1     -31.609   5.311   1.217  1.00 20.00     0.015 C 
HETATM   10  S11 UNL     1     -34.733   7.259   4.042  1.00 20.00    -0.168 SA
ENDROOT
BRANCH   5  11
HETATM   11  C10 UNL     1     -32.376   8.770   0.091  1.00 20.00     0.090 C 
HETATM   12 BR12 UNL     1     -32.815  10.589  -0.472  1.00 20.00    -0.096 Br
ENDBRANCH   5  11
TORSDOF 1
ENDMDL
MODEL 2
REMARK VINA RESULT:       2.9      2.979      4.369
REMARK  1 active torsions:
REMARK  status: ('A' for Active; 'I' for Inactive)
REMARK    1  A    between atoms: C5_5  and  C10_10 
ROOT
HETATM    1  C1  UNL     1     -32.708   7.728   1.243  1.00 20.00     0.019 C 
HETATM    2  C2  UNL     1     -35.347   5.986   3.351  1.00 20.00     0.017 A 
HETATM    3  C3  UNL     1     -31.638   8.399   2.104  1.00 20.00     0.075 C 
HETATM    4  C4  UNL     1     -33.715   7.875   3.818  1.00 20.00     0.084 C 
HETATM    5  C5  UNL     1     -34.220   5.350   4.099  1.00 20.00     0.006 A 
HETATM    6  C6  UNL     1     -33.931   6.525   3.146  1.00 20.00    -0.020 A 
HETATM    7  C7  UNL     1     -33.210   6.343   1.762  1.00 20.00    -0.038 C 
HETATM    8  C8  UNL     1     -31.994   5.397   1.858  1.00 20.00     0.015 C 
HETATM    9  C9  UNL     1     -34.155   5.800   0.667  1.00 20.00     0.015 C 
HETATM   10  S11 UNL     1     -31.977   8.335   3.885  1.00 20.00    -0.168 SA
ENDROOT
BRANCH   5  11
HETATM   11  C10 UNL     1     -33.941   3.909   3.861  1.00 20.00     0.090 C 
HETATM   12 BR12 UNL     1     -32.842   3.174   5.299  1.00 20.00    -0.096 Br
ENDBRANCH   5  11
TORSDOF 1
ENDMDL
MODEL 3
REMARK VINA RESULT:       3.6      1.660      2.957
REMARK  1 active torsions:
REMARK  status: ('A' for Active; 'I' for Inactive)
REMARK    1  A    between atoms: C5_5  and  C10_10 
ROOT
HETATM    1  C1  UNL     1     -35.155   5.274   4.182  1.00 20.00     0.019 C 
HETATM    2  C2  UNL     1     -33.511   6.514   0.988  1.00 20.00     0.017 A 
HETATM    3  C3  UNL     1     -34.275   4.271   4.927  1.00 20.00     0.075 C 
HETATM    4  C4  UNL     1     -33.207   4.428   2.405  1.00 20.00     0.084 C 
HETATM    5  C5  UNL     1     -32.289   6.776   1.809  1.00 20.00     0.006 A 
HETATM    6  C6  UNL     1     -33.436   5.935   2.401  1.00 20.00    -0.020 A 
HETATM    7  C7  UNL     1     -34.394   6.470   3.525  1.00 20.00    -0.038 C 
HETATM    8  C8  UNL     1     -33.629   7.220   4.636  1.00 20.00     0.015 C 
HETATM    9  C9  UNL     1     -35.487   7.413   2.975  1.00 20.00     0.015 C 
HETATM   10  S11 UNL     1     -32.765   3.808   4.035  1.00 20.00    -0.168 SA
ENDROOT
BRANCH   5  11
HETATM   11  C10 UNL     1     -31.949   8.187   2.134  1.00 20.00     0.090 C 
HETATM   12 BR12 UNL     1     -32.314   9.351   0.609  1.00 20.00    -0.096 Br
ENDBRANCH   5  11
TORSDOF 1
ENDMDL
