MODEL 1
REMARK VINA RESULT:       1.6      0.000      0.000
REMARK  2 active torsions:
REMARK  status: ('A' for Active; 'I' for Inactive)
REMARK    1  A    between atoms: C6_6  and  C10_10 
REMARK    2  A    between atoms: C7_7  and  C9_9 
ROOT
HETATM    1  C1  UNL     1     -33.901   7.602   4.556  1.00 20.00     0.001 C 
HETATM    2  C2  UNL     1     -35.003   6.587   4.256  1.00 20.00     0.013 C 
HETATM    3  C3  UNL     1     -33.450   8.331   3.293  1.00 20.00     0.010 C 
HETATM    4  C4  UNL     1     -34.116   6.319   1.902  1.00 20.00     0.023 C 
HETATM    5  C5  UNL     1     -31.592   6.963   2.084  1.00 20.00     0.016 A 
HETATM    6  C6  UNL     1     -34.607   5.586   3.160  1.00 20.00     0.094 C 
HETATM    7  C7  UNL     1     -32.217   7.835   1.030  1.00 20.00     0.009 A 
HETATM    8  C8  UNL     1     -33.050   7.353   2.209  1.00 20.00    -0.035 A 
ENDROOT
BRANCH   6   9
HETATM    9  C10 UNL     1     -33.580   4.569   3.664  1.00 20.00     0.391 C 
HETATM   10  F11 UNL     1     -34.206   3.479   4.136  1.00 20.00    -0.171 F 
HETATM   11  F12 UNL     1     -32.766   4.203   2.663  1.00 20.00    -0.171 F 
HETATM   12  F13 UNL     1     -32.844   5.108   4.648  1.00 20.00    -0.171 F 
ENDBRANCH   6   9
BRANCH   7  13
HETATM   13  C9  UNL     1     -31.783   9.252   0.873  1.00 20.00     0.120 C 
HETATM   14 CL14 UNL     1     -32.763  10.094  -0.359  1.00 20.00    -0.130 Cl
ENDBRANCH   7  13
TORSDOF 2
ENDMDL
MODEL 2
REMARK VINA RESULT:       1.6      0.024      1.013
REMARK  2 active torsions:
REMARK  status: ('A' for Active; 'I' for Inactive)
REMARK    1  A    between atoms: C6_6  and  C10_10 
REMARK    2  A    between atoms: C7_7  and  C9_9 
ROOT
HETATM    1  C1  UNL     1     -33.873   7.592   4.554  1.00 20.00     0.001 C 
HETATM    2  C2  UNL     1     -34.978   6.577   4.263  1.00 20.00     0.013 C 
HETATM    3  C3  UNL     1     -33.435   8.325   3.289  1.00 20.00     0.010 C 
HETATM    4  C4  UNL     1     -34.113   6.316   1.899  1.00 20.00     0.023 C 
HETATM    5  C5  UNL     1     -31.588   6.962   2.058  1.00 20.00     0.016 A 
HETATM    6  C6  UNL     1     -34.592   5.580   3.159  1.00 20.00     0.094 C 
HETATM    7  C7  UNL     1     -32.224   7.836   1.013  1.00 20.00     0.009 A 
HETATM    8  C8  UNL     1     -33.045   7.350   2.199  1.00 20.00    -0.035 A 
ENDROOT
BRANCH   6   9
HETATM    9  C10 UNL     1     -33.560   4.562   3.650  1.00 20.00     0.391 C 
HETATM   10  F11 UNL     1     -32.747   4.208   2.642  1.00 20.00    -0.171 F 
HETATM   11  F12 UNL     1     -32.823   5.092   4.637  1.00 20.00    -0.171 F 
HETATM   12  F13 UNL     1     -34.181   3.465   4.113  1.00 20.00    -0.171 F 
ENDBRANCH   6   9
BRANCH   7  13
HETATM   13  C9  UNL     1     -31.792   9.254   0.856  1.00 20.00     0.120 C 
HETATM   14 CL14 UNL     1     -32.764  10.091  -0.387  1.00 20.00    -0.130 Cl
ENDBRANCH   7  13
TORSDOF 2
ENDMDL
MODEL 3
REMARK VINA RESULT:       2.5      3.603      4.874
REMARK  2 active torsions:
REMARK  status: ('A' for Active; 'I' for Inactive)
REMARK    1  A    between atoms: C6_6  and  C10_10 
REMARK    2  A    between atoms: C7_7  and  C9_9 
ROOT
HETATM    1  C1  UNL     1     -32.112   8.829   3.916  1.00 20.00     0.001 C 
HETATM    2  C2  UNL     1     -31.075   8.773   2.795  1.00 20.00     0.013 C 
HETATM    3  C3  UNL     1     -32.739   7.460   4.170  1.00 20.00     0.010 C 
HETATM    4  C4  UNL     1     -32.306   6.822   1.755  1.00 20.00     0.023 C 
HETATM    5  C5  UNL     1     -34.769   7.097   2.577  1.00 20.00     0.016 A 
HETATM    6  C6  UNL     1     -31.639   8.181   1.494  1.00 20.00     0.094 C 
HETATM    7  C7  UNL     1     -34.299   5.724   2.971  1.00 20.00     0.009 A 
HETATM    8  C8  UNL     1     -33.304   6.873   2.894  1.00 20.00    -0.035 A 
ENDROOT
BRANCH   6   9
HETATM    9  C10 UNL     1     -32.587   9.155   0.791  1.00 20.00     0.391 C 
HETATM   10  F11 UNL     1     -33.259   8.522  -0.183  1.00 20.00    -0.171 F 
HETATM   11  F12 UNL     1     -33.467   9.657   1.671  1.00 20.00    -0.171 F 
HETATM   12  F13 UNL     1     -31.889  10.167   0.250  1.00 20.00    -0.171 F 
ENDBRANCH   6   9
BRANCH   7  13
HETATM   13  C9  UNL     1     -34.740   5.121   4.262  1.00 20.00     0.120 C 
HETATM   14 CL14 UNL     1     -33.857   3.608   4.603  1.00 20.00    -0.130 Cl
ENDBRANCH   7  13
TORSDOF 2
ENDMDL
MODEL 4
REMARK VINA RESULT:       2.5      3.603      4.875
REMARK  2 active torsions:
REMARK  status: ('A' for Active; 'I' for Inactive)
REMARK    1  A    between atoms: C6_6  and  C10_10 
REMARK    2  A    between atoms: C7_7  and  C9_9 
ROOT
HETATM    1  C1  UNL     1     -32.116   8.828   3.924  1.00 20.00     0.001 C 
HETATM    2  C2  UNL     1     -31.079   8.779   2.803  1.00 20.00     0.013 C 
HETATM    3  C3  UNL     1     -32.742   7.457   4.170  1.00 20.00     0.010 C 
HETATM    4  C4  UNL     1     -32.307   6.832   1.752  1.00 20.00     0.023 C 
HETATM    5  C5  UNL     1     -34.771   7.100   2.576  1.00 20.00     0.016 A 
HETATM    6  C6  UNL     1     -31.642   8.194   1.499  1.00 20.00     0.094 C 
HETATM    7  C7  UNL     1     -34.300   5.726   2.963  1.00 20.00     0.009 A 
HETATM    8  C8  UNL     1     -33.306   6.876   2.892  1.00 20.00    -0.035 A 
ENDROOT
BRANCH   6   9
HETATM    9  C10 UNL     1     -32.592   9.171   0.801  1.00 20.00     0.391 C 
HETATM   10  F11 UNL     1     -33.478   9.659   1.682  1.00 20.00    -0.171 F 
HETATM   11  F12 UNL     1     -31.898  10.189   0.272  1.00 20.00    -0.171 F 
HETATM   12  F13 UNL     1     -33.257   8.542  -0.181  1.00 20.00    -0.171 F 
ENDBRANCH   6   9
BRANCH   7  13
HETATM   13  C9  UNL     1     -34.740   5.115   4.250  1.00 20.00     0.120 C 
HETATM   14 CL14 UNL     1     -33.861   3.596   4.578  1.00 20.00    -0.130 Cl
ENDBRANCH   7  13
TORSDOF 2
ENDMDL
MODEL 5
REMARK VINA RESULT:       2.5      3.603      4.875
REMARK  2 active torsions:
REMARK  status: ('A' for Active; 'I' for Inactive)
REMARK    1  A    between atoms: C6_6  and  C10_10 
REMARK    2  A    between atoms: C7_7  and  C9_9 
ROOT
HETATM    1  C1  UNL     1     -32.116   8.835   3.912  1.00 20.00     0.001 C 
HETATM    2  C2  UNL     1     -31.075   8.779   2.794  1.00 20.00     0.013 C 
HETATM    3  C3  UNL     1     -32.743   7.466   4.165  1.00 20.00     0.010 C 
HETATM    4  C4  UNL     1     -32.301   6.826   1.752  1.00 20.00     0.023 C 
HETATM    5  C5  UNL     1     -34.767   7.100   2.566  1.00 20.00     0.016 A 
HETATM    6  C6  UNL     1     -31.634   8.186   1.492  1.00 20.00     0.094 C 
HETATM    7  C7  UNL     1     -34.298   5.728   2.963  1.00 20.00     0.009 A 
HETATM    8  C8  UNL     1     -33.303   6.877   2.888  1.00 20.00    -0.035 A 
ENDROOT
BRANCH   6   9
HETATM    9  C10 UNL     1     -32.581   9.158   0.785  1.00 20.00     0.391 C 
HETATM   10  F11 UNL     1     -31.883  10.167   0.241  1.00 20.00    -0.171 F 
HETATM   11  F12 UNL     1     -33.255   8.522  -0.185  1.00 20.00    -0.171 F 
HETATM   12  F13 UNL     1     -33.461   9.665   1.665  1.00 20.00    -0.171 F 
ENDBRANCH   6   9
BRANCH   7  13
HETATM   13  C9  UNL     1     -34.742   5.126   4.252  1.00 20.00     0.120 C 
HETATM   14 CL14 UNL     1     -33.850   3.620   4.603  1.00 20.00    -0.130 Cl
ENDBRANCH   7  13
TORSDOF 2
ENDMDL
MODEL 6
REMARK VINA RESULT:       2.6      1.779      2.616
REMARK  2 active torsions:
REMARK  status: ('A' for Active; 'I' for Inactive)
REMARK    1  A    between atoms: C6_6  and  C10_10 
REMARK    2  A    between atoms: C7_7  and  C9_9 
ROOT
HETATM    1  C1  UNL     1     -33.497   5.318   1.390  1.00 20.00     0.001 C 
HETATM    2  C2  UNL     1     -33.369   4.854   2.840  1.00 20.00     0.013 C 
HETATM    3  C3  UNL     1     -32.502   6.430   1.066  1.00 20.00     0.010 C 
HETATM    4  C4  UNL     1     -32.521   7.146   3.498  1.00 20.00     0.023 C 
HETATM    5  C5  UNL     1     -33.514   8.748   1.690  1.00 20.00     0.016 A 
HETATM    6  C6  UNL     1     -33.494   6.009   3.846  1.00 20.00     0.094 C 
HETATM    7  C7  UNL     1     -32.022   8.930   1.701  1.00 20.00     0.009 A 
HETATM    8  C8  UNL     1     -32.623   7.575   2.047  1.00 20.00    -0.035 A 
ENDROOT
BRANCH   6   9
HETATM    9  C10 UNL     1     -34.936   6.509   3.960  1.00 20.00     0.391 C 
HETATM   10  F11 UNL     1     -34.956   7.735   4.505  1.00 20.00    -0.171 F 
HETATM   11  F12 UNL     1     -35.502   6.564   2.745  1.00 20.00    -0.171 F 
HETATM   12  F13 UNL     1     -35.651   5.678   4.735  1.00 20.00    -0.171 F 
ENDBRANCH   6   9
BRANCH   7  13
HETATM   13  C9  UNL     1     -31.287   9.187   0.429  1.00 20.00     0.120 C 
HETATM   14 CL14 UNL     1     -32.341   9.977  -0.777  1.00 20.00    -0.130 Cl
ENDBRANCH   7  13
TORSDOF 2
ENDMDL
MODEL 7
REMARK VINA RESULT:       3.1      3.262      4.741
REMARK  2 active torsions:
REMARK  status: ('A' for Active; 'I' for Inactive)
REMARK    1  A    between atoms: C6_6  and  C10_10 
REMARK    2  A    between atoms: C7_7  and  C9_9 
ROOT
HETATM    1  C1  UNL     1     -31.651   5.184   2.137  1.00 20.00     0.001 C 
HETATM    2  C2  UNL     1     -31.799   5.730   0.717  1.00 20.00     0.013 C 
HETATM    3  C3  UNL     1     -33.007   4.996   2.812  1.00 20.00     0.010 C 
HETATM    4  C4  UNL     1     -33.970   6.851   1.376  1.00 20.00     0.023 C 
HETATM    5  C5  UNL     1     -33.754   7.215   3.953  1.00 20.00     0.016 A 
HETATM    6  C6  UNL     1     -32.620   7.027   0.663  1.00 20.00     0.094 C 
HETATM    7  C7  UNL     1     -35.014   6.434   3.700  1.00 20.00     0.009 A 
HETATM    8  C8  UNL     1     -33.820   6.272   2.769  1.00 20.00    -0.035 A 
ENDROOT
BRANCH   6   9
HETATM    9  C10 UNL     1     -31.836   8.220   1.215  1.00 20.00     0.391 C 
HETATM   10  F11 UNL     1     -32.679   9.205   1.560  1.00 20.00    -0.171 F 
HETATM   11  F12 UNL     1     -31.135   7.848   2.297  1.00 20.00    -0.171 F 
HETATM   12  F13 UNL     1     -30.986   8.681   0.284  1.00 20.00    -0.171 F 
ENDBRANCH   6   9
BRANCH   7  13
HETATM   13  C9  UNL     1     -35.445   5.374   4.654  1.00 20.00     0.120 C 
HETATM   14 CL14 UNL     1     -34.302   4.003   4.656  1.00 20.00    -0.130 Cl
ENDBRANCH   7  13
TORSDOF 2
ENDMDL
