MODEL 1
REMARK VINA RESULT:      -0.3      0.000      0.000
REMARK  3 active torsions:
REMARK  status: ('A' for Active; 'I' for Inactive)
REMARK    1  A    between atoms: C3_3  and  O10_10 
REMARK    2  A    between atoms: C4_4  and  C8_8 
REMARK    3  A    between atoms: C4_4  and  C9_9 
ROOT
HETATM    1  C1  UNL     1     -34.009   7.796   4.129  1.00 20.00     0.037 C 
HETATM    2  C2  UNL     1     -32.779   7.391   3.282  1.00 20.00    -0.005 C 
HETATM    3  C3  UNL     1     -34.834   6.716   3.397  1.00 20.00     0.127 C 
HETATM    4  C4  UNL     1     -33.489   6.015   3.014  1.00 20.00    -0.012 C 
HETATM    5  C5  UNL     1     -32.486   8.323   2.112  1.00 20.00     0.011 C 
ENDROOT
BRANCH   4   6
HETATM    6  C8  UNL     1     -33.469   5.487   1.580  1.00 20.00     0.008 C 
HETATM    7  C6  UNL     1     -32.089   5.113   1.150  1.00 20.00     0.006 C 
ENDBRANCH   4   6
BRANCH   4   8
HETATM    8  C9  UNL     1     -33.026   4.923   3.989  1.00 20.00     0.008 C 
HETATM    9  C7  UNL     1     -33.850   3.687   3.855  1.00 20.00     0.006 C 
ENDBRANCH   4   8
BRANCH   3  10
HETATM   10  O10 UNL     1     -35.751   5.963   4.210  1.00 20.00    -0.395 OA
HETATM   11  H28 UNL     1     -35.336   5.891   5.078  1.00 20.00     0.210 HD
ENDBRANCH   3  10
TORSDOF 3
ENDMDL
MODEL 2
REMARK VINA RESULT:       0.1      1.999      3.284
REMARK  3 active torsions:
REMARK  status: ('A' for Active; 'I' for Inactive)
REMARK    1  A    between atoms: C3_3  and  O10_10 
REMARK    2  A    between atoms: C4_4  and  C8_8 
REMARK    3  A    between atoms: C4_4  and  C9_9 
ROOT
HETATM    1  C1  UNL     1     -34.038   8.123   4.558  1.00 20.00     0.037 C 
HETATM    2  C2  UNL     1     -34.535   7.165   3.449  1.00 20.00    -0.005 C 
HETATM    3  C3  UNL     1     -32.586   7.754   4.188  1.00 20.00     0.127 C 
HETATM    4  C4  UNL     1     -33.111   7.280   2.792  1.00 20.00    -0.012 C 
HETATM    5  C5  UNL     1     -35.019   5.812   3.956  1.00 20.00     0.011 C 
ENDROOT
BRANCH   4   6
HETATM    6  C8  UNL     1     -32.460   5.985   2.309  1.00 20.00     0.008 C 
HETATM    7  C6  UNL     1     -33.026   5.537   1.002  1.00 20.00     0.006 C 
ENDBRANCH   4   6
BRANCH   4   8
HETATM    8  C9  UNL     1     -33.065   8.344   1.687  1.00 20.00     0.008 C 
HETATM    9  C7  UNL     1     -31.720   8.407   1.048  1.00 20.00     0.006 C 
ENDBRANCH   4   8
BRANCH   3  10
HETATM   10  O10 UNL     1     -31.638   8.836   4.192  1.00 20.00    -0.395 OA
HETATM   11  H28 UNL     1     -30.868   8.509   4.675  1.00 20.00     0.210 HD
ENDBRANCH   3  10
TORSDOF 3
ENDMDL
MODEL 3
REMARK VINA RESULT:       0.4      1.368      2.972
REMARK  3 active torsions:
REMARK  status: ('A' for Active; 'I' for Inactive)
REMARK    1  A    between atoms: C3_3  and  O10_10 
REMARK    2  A    between atoms: C4_4  and  C8_8 
REMARK    3  A    between atoms: C4_4  and  C9_9 
ROOT
HETATM    1  C1  UNL     1     -32.989   5.615   1.512  1.00 20.00     0.037 C 
HETATM    2  C2  UNL     1     -33.112   7.133   1.791  1.00 20.00    -0.005 C 
HETATM    3  C3  UNL     1     -32.918   5.369   3.034  1.00 20.00     0.127 C 
HETATM    4  C4  UNL     1     -33.586   6.768   3.244  1.00 20.00    -0.012 C 
HETATM    5  C5  UNL     1     -31.817   7.914   1.599  1.00 20.00     0.011 C 
ENDROOT
BRANCH   4   6
HETATM    6  C8  UNL     1     -32.975   7.563   4.396  1.00 20.00     0.008 C 
HETATM    7  C6  UNL     1     -33.984   8.446   5.054  1.00 20.00     0.006 C 
ENDBRANCH   4   6
BRANCH   4   8
HETATM    8  C9  UNL     1     -35.116   6.743   3.366  1.00 20.00     0.008 C 
HETATM    9  C7  UNL     1     -35.562   5.800   4.432  1.00 20.00     0.006 C 
ENDBRANCH   4   8
BRANCH   3  10
HETATM   10  O10 UNL     1     -33.638   4.225   3.524  1.00 20.00    -0.395 OA
HETATM   11  H28 UNL     1     -32.971   3.634   3.896  1.00 20.00     0.210 HD
ENDBRANCH   3  10
TORSDOF 3
ENDMDL
MODEL 4
REMARK VINA RESULT:       0.8      2.195      3.600
REMARK  3 active torsions:
REMARK  status: ('A' for Active; 'I' for Inactive)
REMARK    1  A    between atoms: C3_3  and  O10_10 
REMARK    2  A    between atoms: C4_4  and  C8_8 
REMARK    3  A    between atoms: C4_4  and  C9_9 
ROOT
HETATM    1  C1  UNL     1     -31.480   7.695   0.998  1.00 20.00     0.037 C 
HETATM    2  C2  UNL     1     -31.988   6.562   1.923  1.00 20.00    -0.005 C 
HETATM    3  C3  UNL     1     -32.775   8.480   1.295  1.00 20.00     0.127 C 
HETATM    4  C4  UNL     1     -32.950   7.614   2.586  1.00 20.00    -0.012 C 
HETATM    5  C5  UNL     1     -32.579   5.366   1.186  1.00 20.00     0.011 C 
ENDROOT
BRANCH   4   6
HETATM    6  C8  UNL     1     -34.393   7.179   2.832  1.00 20.00     0.008 C 
HETATM    7  C6  UNL     1     -34.469   6.032   3.785  1.00 20.00     0.006 C 
ENDBRANCH   4   6
BRANCH   4   8
HETATM    8  C9  UNL     1     -32.352   8.224   3.862  1.00 20.00     0.008 C 
HETATM    9  C7  UNL     1     -33.374   8.335   4.942  1.00 20.00     0.006 C 
ENDBRANCH   4   8
BRANCH   3  10
HETATM   10  O10 UNL     1     -32.626   9.899   1.480  1.00 20.00    -0.395 OA
HETATM   11  H28 UNL     1     -33.338  10.306   0.971  1.00 20.00     0.210 HD
ENDBRANCH   3  10
TORSDOF 3
ENDMDL
MODEL 5
REMARK VINA RESULT:       0.9      1.559      3.016
REMARK  3 active torsions:
REMARK  status: ('A' for Active; 'I' for Inactive)
REMARK    1  A    between atoms: C3_3  and  O10_10 
REMARK    2  A    between atoms: C4_4  and  C8_8 
REMARK    3  A    between atoms: C4_4  and  C9_9 
ROOT
HETATM    1  C1  UNL     1     -34.650   7.726   3.537  1.00 20.00     0.037 C 
HETATM    2  C2  UNL     1     -35.019   6.225   3.463  1.00 20.00    -0.005 C 
HETATM    3  C3  UNL     1     -33.164   7.326   3.652  1.00 20.00     0.127 C 
HETATM    4  C4  UNL     1     -33.536   5.941   3.028  1.00 20.00    -0.012 C 
HETATM    5  C5  UNL     1     -35.541   5.641   4.770  1.00 20.00     0.011 C 
ENDROOT
BRANCH   4   6
HETATM    6  C8  UNL     1     -32.827   4.765   3.697  1.00 20.00     0.008 C 
HETATM    7  C6  UNL     1     -33.742   3.600   3.881  1.00 20.00     0.006 C 
ENDBRANCH   4   6
BRANCH   4   8
HETATM    8  C9  UNL     1     -33.385   5.856   1.503  1.00 20.00     0.008 C 
HETATM    9  C7  UNL     1     -32.075   5.257   1.118  1.00 20.00     0.006 C 
ENDBRANCH   4   8
BRANCH   3  10
HETATM   10  O10 UNL     1     -32.231   8.140   2.919  1.00 20.00    -0.395 OA
HETATM   11  H28 UNL     1     -32.436   9.053   3.156  1.00 20.00     0.210 HD
ENDBRANCH   3  10
TORSDOF 3
ENDMDL
MODEL 6
REMARK VINA RESULT:       1.4      1.531      2.074
REMARK  3 active torsions:
REMARK  status: ('A' for Active; 'I' for Inactive)
REMARK    1  A    between atoms: C3_3  and  O10_10 
REMARK    2  A    between atoms: C4_4  and  C8_8 
REMARK    3  A    between atoms: C4_4  and  C9_9 
ROOT
HETATM    1  C1  UNL     1     -32.619   7.869   3.217  1.00 20.00     0.037 C 
HETATM    2  C2  UNL     1     -32.012   7.702   1.803  1.00 20.00    -0.005 C 
HETATM    3  C3  UNL     1     -33.840   7.043   2.760  1.00 20.00     0.127 C 
HETATM    4  C4  UNL     1     -32.958   6.462   1.607  1.00 20.00    -0.012 C 
HETATM    5  C5  UNL     1     -32.177   8.919   0.900  1.00 20.00     0.011 C 
ENDROOT
BRANCH   4   6
HETATM    6  C8  UNL     1     -33.698   6.353   0.275  1.00 20.00     0.008 C 
HETATM    7  C6  UNL     1     -34.065   4.941  -0.040  1.00 20.00     0.006 C 
ENDBRANCH   4   6
BRANCH   4   8
HETATM    8  C9  UNL     1     -32.254   5.137   1.934  1.00 20.00     0.008 C 
HETATM    9  C7  UNL     1     -31.308   4.742   0.852  1.00 20.00     0.006 C 
ENDBRANCH   4   8
BRANCH   3  10
HETATM   10  O10 UNL     1     -34.362   6.104   3.717  1.00 20.00    -0.395 OA
HETATM   11  H28 UNL     1     -33.831   6.219   4.515  1.00 20.00     0.210 HD
ENDBRANCH   3  10
TORSDOF 3
ENDMDL
MODEL 7
REMARK VINA RESULT:       1.6      1.582      2.905
REMARK  3 active torsions:
REMARK  status: ('A' for Active; 'I' for Inactive)
REMARK    1  A    between atoms: C3_3  and  O10_10 
REMARK    2  A    between atoms: C4_4  and  C8_8 
REMARK    3  A    between atoms: C4_4  and  C9_9 
ROOT
HETATM    1  C1  UNL     1     -35.381   5.239   4.544  1.00 20.00     0.037 C 
HETATM    2  C2  UNL     1     -35.418   6.621   3.849  1.00 20.00    -0.005 C 
HETATM    3  C3  UNL     1     -34.199   4.844   3.634  1.00 20.00     0.127 C 
HETATM    4  C4  UNL     1     -33.935   6.367   3.393  1.00 20.00    -0.012 C 
HETATM    5  C5  UNL     1     -36.511   6.768   2.797  1.00 20.00     0.011 C 
ENDROOT
BRANCH   4   6
HETATM    6  C8  UNL     1     -33.586   6.699   1.944  1.00 20.00     0.008 C 
HETATM    7  C6  UNL     1     -32.240   7.336   1.832  1.00 20.00     0.006 C 
ENDBRANCH   4   6
BRANCH   4   8
HETATM    8  C9  UNL     1     -32.917   7.007   4.347  1.00 20.00     0.008 C 
HETATM    9  C7  UNL     1     -33.415   8.306   4.884  1.00 20.00     0.006 C 
ENDBRANCH   4   8
BRANCH   3  10
HETATM   10  O10 UNL     1     -33.143   4.093   4.259  1.00 20.00    -0.395 OA
HETATM   11  H28 UNL     1     -33.377   3.164   4.141  1.00 20.00     0.210 HD
ENDBRANCH   3  10
TORSDOF 3
ENDMDL
MODEL 8
REMARK VINA RESULT:       1.7      1.575      3.735
REMARK  3 active torsions:
REMARK  status: ('A' for Active; 'I' for Inactive)
REMARK    1  A    between atoms: C3_3  and  O10_10 
REMARK    2  A    between atoms: C4_4  and  C8_8 
REMARK    3  A    between atoms: C4_4  and  C9_9 
ROOT
HETATM    1  C1  UNL     1     -33.828   5.802   2.206  1.00 20.00     0.037 C 
HETATM    2  C2  UNL     1     -32.646   6.117   1.257  1.00 20.00    -0.005 C 
HETATM    3  C3  UNL     1     -33.312   6.895   3.166  1.00 20.00     0.127 C 
HETATM    4  C4  UNL     1     -32.527   7.516   1.963  1.00 20.00    -0.012 C 
HETATM    5  C5  UNL     1     -31.487   5.131   1.348  1.00 20.00     0.011 C 
ENDROOT
BRANCH   4   6
HETATM    6  C8  UNL     1     -31.124   7.991   2.337  1.00 20.00     0.008 C 
HETATM    7  C6  UNL     1     -31.152   8.946   3.484  1.00 20.00     0.006 C 
ENDBRANCH   4   6
BRANCH   4   8
HETATM    8  C9  UNL     1     -33.276   8.617   1.200  1.00 20.00     0.008 C 
HETATM    9  C7  UNL     1     -32.344   9.439   0.376  1.00 20.00     0.006 C 
ENDBRANCH   4   8
BRANCH   3  10
HETATM   10  O10 UNL     1     -34.316   7.721   3.782  1.00 20.00    -0.395 OA
HETATM   11  H28 UNL     1     -34.920   7.113   4.225  1.00 20.00     0.210 HD
ENDBRANCH   3  10
TORSDOF 3
ENDMDL
MODEL 9
REMARK VINA RESULT:       1.8      2.013      3.588
REMARK  3 active torsions:
REMARK  status: ('A' for Active; 'I' for Inactive)
REMARK    1  A    between atoms: C3_3  and  O10_10 
REMARK    2  A    between atoms: C4_4  and  C8_8 
REMARK    3  A    between atoms: C4_4  and  C9_9 
ROOT
HETATM    1  C1  UNL     1     -33.239   5.512   3.063  1.00 20.00     0.037 C 
HETATM    2  C2  UNL     1     -33.666   6.962   3.392  1.00 20.00    -0.005 C 
HETATM    3  C3  UNL     1     -32.859   5.975   1.641  1.00 20.00     0.127 C 
HETATM    4  C4  UNL     1     -32.769   7.437   2.192  1.00 20.00    -0.012 C 
HETATM    5  C5  UNL     1     -35.170   7.201   3.344  1.00 20.00     0.011 C 
ENDROOT
BRANCH   4   6
HETATM    6  C8  UNL     1     -33.366   8.477   1.246  1.00 20.00     0.008 C 
HETATM    7  C6  UNL     1     -32.305   9.274   0.561  1.00 20.00     0.006 C 
ENDBRANCH   4   6
BRANCH   4   8
HETATM    8  C9  UNL     1     -31.370   7.873   2.649  1.00 20.00     0.008 C 
HETATM    9  C7  UNL     1     -31.445   8.929   3.699  1.00 20.00     0.006 C 
ENDBRANCH   4   8
BRANCH   3  10
HETATM   10  O10 UNL     1     -31.654   5.412   1.093  1.00 20.00    -0.395 OA
HETATM   11  H28 UNL     1     -31.528   5.842   0.238  1.00 20.00     0.210 HD
ENDBRANCH   3  10
TORSDOF 3
ENDMDL
