MODEL 1
REMARK VINA RESULT:      -2.3      0.000      0.000
REMARK  2 active torsions:
REMARK  status: ('A' for Active; 'I' for Inactive)
REMARK    1  A    between atoms: C5_5  and  C6_6 
REMARK    2  A    between atoms: C7_7  and  C8_8 
ROOT
HETATM    1  C4  UNL     1     -32.451   6.628   1.655  1.00 20.00     0.011 A 
HETATM    2  C6  UNL     1     -32.061   8.038   1.993  1.00 20.00    -0.005 A 
HETATM    3  C7  UNL     1     -33.425   7.532   2.365  1.00 20.00     0.004 A 
ENDROOT
BRANCH   2   4
HETATM    4  C5  UNL     1     -31.846   9.102   0.937  1.00 20.00    -0.010 C 
HETATM    5  C2  UNL     1     -32.728  10.374   1.042  1.00 20.00     0.005 C 
HETATM    6  C1  UNL     1     -32.776  10.377  -0.501  1.00 20.00     0.001 C 
HETATM    7  C3  UNL     1     -32.513   8.859  -0.442  1.00 20.00     0.005 C 
ENDBRANCH   2   4
BRANCH   3   8
HETATM    8  C8  UNL     1     -33.764   7.293   3.796  1.00 20.00     0.119 C 
HETATM    9 CL9  UNL     1     -35.265   6.338   3.955  1.00 20.00    -0.130 Cl
ENDBRANCH   3   8
TORSDOF 2
ENDMDL
MODEL 2
REMARK VINA RESULT:      -2.2      2.238      4.517
REMARK  2 active torsions:
REMARK  status: ('A' for Active; 'I' for Inactive)
REMARK    1  A    between atoms: C5_5  and  C6_6 
REMARK    2  A    between atoms: C7_7  and  C8_8 
ROOT
HETATM    1  C4  UNL     1     -31.931   6.188   1.445  1.00 20.00     0.011 A 
HETATM    2  C6  UNL     1     -33.192   6.837   1.937  1.00 20.00    -0.005 A 
HETATM    3  C7  UNL     1     -31.961   7.669   1.717  1.00 20.00     0.004 A 
ENDROOT
BRANCH   2   4
HETATM    4  C5  UNL     1     -33.763   6.575   3.315  1.00 20.00    -0.010 C 
HETATM    5  C2  UNL     1     -34.083   5.098   3.665  1.00 20.00     0.005 C 
HETATM    6  C1  UNL     1     -35.315   5.626   4.432  1.00 20.00     0.001 C 
HETATM    7  C3  UNL     1     -35.276   6.858   3.505  1.00 20.00     0.005 C 
ENDBRANCH   2   4
BRANCH   3   8
HETATM    8  C8  UNL     1     -31.912   8.641   0.589  1.00 20.00     0.119 C 
HETATM    9 CL9  UNL     1     -32.774  10.151   0.998  1.00 20.00    -0.130 Cl
ENDBRANCH   3   8
TORSDOF 2
ENDMDL
MODEL 3
REMARK VINA RESULT:      -1.8      2.470      4.507
REMARK  2 active torsions:
REMARK  status: ('A' for Active; 'I' for Inactive)
REMARK    1  A    between atoms: C5_5  and  C6_6 
REMARK    2  A    between atoms: C7_7  and  C8_8 
ROOT
HETATM    1  C4  UNL     1     -31.825   8.026   2.876  1.00 20.00     0.011 A 
HETATM    2  C6  UNL     1     -32.617   7.056   2.048  1.00 20.00    -0.005 A 
HETATM    3  C7  UNL     1     -32.561   8.504   1.652  1.00 20.00     0.004 A 
ENDROOT
BRANCH   2   4
HETATM    4  C5  UNL     1     -33.884   6.396   2.550  1.00 20.00    -0.010 C 
HETATM    5  C2  UNL     1     -34.527   7.003   3.825  1.00 20.00     0.005 C 
HETATM    6  C1  UNL     1     -34.893   5.561   4.236  1.00 20.00     0.001 C 
HETATM    7  C3  UNL     1     -33.711   5.088   3.364  1.00 20.00     0.005 C 
ENDBRANCH   2   4
BRANCH   3   8
HETATM    8  C8  UNL     1     -31.807   8.913   0.435  1.00 20.00     0.119 C 
HETATM    9 CL9  UNL     1     -32.671  10.194  -0.462  1.00 20.00    -0.130 Cl
ENDBRANCH   3   8
TORSDOF 2
ENDMDL
MODEL 4
REMARK VINA RESULT:      -1.6      2.386      3.405
REMARK  2 active torsions:
REMARK  status: ('A' for Active; 'I' for Inactive)
REMARK    1  A    between atoms: C5_5  and  C6_6 
REMARK    2  A    between atoms: C7_7  and  C8_8 
ROOT
HETATM    1  C4  UNL     1     -34.661   6.677   4.064  1.00 20.00     0.011 A 
HETATM    2  C6  UNL     1     -34.269   6.108   2.731  1.00 20.00    -0.005 A 
HETATM    3  C7  UNL     1     -33.795   5.447   3.994  1.00 20.00     0.004 A 
ENDROOT
BRANCH   2   4
HETATM    4  C5  UNL     1     -33.330   6.821   1.781  1.00 20.00    -0.010 C 
HETATM    5  C2  UNL     1     -31.975   6.124   1.489  1.00 20.00     0.005 C 
HETATM    6  C1  UNL     1     -31.342   7.531   1.464  1.00 20.00     0.001 C 
HETATM    7  C3  UNL     1     -32.501   7.992   2.371  1.00 20.00     0.005 C 
ENDBRANCH   2   4
BRANCH   3   8
HETATM    8  C8  UNL     1     -34.343   4.120   4.389  1.00 20.00     0.119 C 
HETATM    9 CL9  UNL     1     -33.035   2.976   4.803  1.00 20.00    -0.130 Cl
ENDBRANCH   3   8
TORSDOF 2
ENDMDL
MODEL 5
REMARK VINA RESULT:      -1.3      2.005      2.894
REMARK  2 active torsions:
REMARK  status: ('A' for Active; 'I' for Inactive)
REMARK    1  A    between atoms: C5_5  and  C6_6 
REMARK    2  A    between atoms: C7_7  and  C8_8 
ROOT
HETATM    1  C4  UNL     1     -34.878   6.637   3.879  1.00 20.00     0.011 A 
HETATM    2  C6  UNL     1     -33.805   6.410   2.855  1.00 20.00    -0.005 A 
HETATM    3  C7  UNL     1     -33.858   5.548   4.083  1.00 20.00     0.004 A 
ENDROOT
BRANCH   2   4
HETATM    4  C5  UNL     1     -32.689   7.404   2.604  1.00 20.00    -0.010 C 
HETATM    5  C2  UNL     1     -33.061   8.680   1.804  1.00 20.00     0.005 C 
HETATM    6  C1  UNL     1     -31.669   8.583   1.146  1.00 20.00     0.001 C 
HETATM    7  C3  UNL     1     -31.709   7.071   1.450  1.00 20.00     0.005 C 
ENDBRANCH   2   4
BRANCH   3   8
HETATM    8  C8  UNL     1     -34.255   4.116   3.970  1.00 20.00     0.119 C 
HETATM    9 CL9  UNL     1     -33.120   3.057   4.853  1.00 20.00    -0.130 Cl
ENDBRANCH   3   8
TORSDOF 2
ENDMDL
MODEL 6
REMARK VINA RESULT:      -1.2      2.288      4.343
REMARK  2 active torsions:
REMARK  status: ('A' for Active; 'I' for Inactive)
REMARK    1  A    between atoms: C5_5  and  C6_6 
REMARK    2  A    between atoms: C7_7  and  C8_8 
ROOT
HETATM    1  C4  UNL     1     -31.362   7.762   1.520  1.00 20.00     0.011 A 
HETATM    2  C6  UNL     1     -32.812   7.636   1.885  1.00 20.00    -0.005 A 
HETATM    3  C7  UNL     1     -32.150   8.983   1.914  1.00 20.00     0.004 A 
ENDROOT
BRANCH   2   4
HETATM    4  C5  UNL     1     -33.282   6.932   3.141  1.00 20.00    -0.010 C 
HETATM    5  C2  UNL     1     -34.214   5.708   2.945  1.00 20.00     0.005 C 
HETATM    6  C1  UNL     1     -34.961   6.167   4.215  1.00 20.00     0.001 C 
HETATM    7  C3  UNL     1     -34.455   7.592   3.911  1.00 20.00     0.005 C 
ENDBRANCH   2   4
BRANCH   3   8
HETATM    8  C8  UNL     1     -32.506  10.008   0.892  1.00 20.00     0.119 C 
HETATM    9 CL9  UNL     1     -32.720   9.269  -0.719  1.00 20.00    -0.130 Cl
ENDBRANCH   3   8
TORSDOF 2
ENDMDL
MODEL 7
REMARK VINA RESULT:      -0.7      3.164      5.662
REMARK  2 active torsions:
REMARK  status: ('A' for Active; 'I' for Inactive)
REMARK    1  A    between atoms: C5_5  and  C6_6 
REMARK    2  A    between atoms: C7_7  and  C8_8 
ROOT
HETATM    1  C4  UNL     1     -35.403   6.538   3.711  1.00 20.00     0.011 A 
HETATM    2  C6  UNL     1     -34.318   5.752   4.388  1.00 20.00    -0.005 A 
HETATM    3  C7  UNL     1     -34.013   6.514   3.131  1.00 20.00     0.004 A 
ENDROOT
BRANCH   2   4
HETATM    4  C5  UNL     1     -34.319   4.238   4.446  1.00 20.00    -0.010 C 
HETATM    5  C2  UNL     1     -33.365   3.581   5.478  1.00 20.00     0.005 C 
HETATM    6  C1  UNL     1     -33.123   2.470   4.434  1.00 20.00     0.001 C 
HETATM    7  C3  UNL     1     -33.503   3.502   3.352  1.00 20.00     0.005 C 
ENDBRANCH   2   4
BRANCH   3   8
HETATM    8  C8  UNL     1     -33.154   7.730   3.188  1.00 20.00     0.119 C 
HETATM    9 CL9  UNL     1     -32.048   7.808   1.788  1.00 20.00    -0.130 Cl
ENDBRANCH   3   8
TORSDOF 2
ENDMDL
MODEL 8
REMARK VINA RESULT:      -0.3      1.931      2.240
REMARK  2 active torsions:
REMARK  status: ('A' for Active; 'I' for Inactive)
REMARK    1  A    between atoms: C5_5  and  C6_6 
REMARK    2  A    between atoms: C7_7  and  C8_8 
ROOT
HETATM    1  C4  UNL     1     -32.628   7.643   2.935  1.00 20.00     0.011 A 
HETATM    2  C6  UNL     1     -32.820   7.995   1.488  1.00 20.00    -0.005 A 
HETATM    3  C7  UNL     1     -32.073   6.746   1.859  1.00 20.00     0.004 A 
ENDROOT
BRANCH   2   4
HETATM    4  C5  UNL     1     -32.146   9.186   0.840  1.00 20.00    -0.010 C 
HETATM    5  C2  UNL     1     -32.799  10.572   1.082  1.00 20.00     0.005 C 
HETATM    6  C1  UNL     1     -32.412  10.925  -0.370  1.00 20.00     0.001 C 
HETATM    7  C3  UNL     1     -32.432   9.411  -0.667  1.00 20.00     0.005 C 
ENDBRANCH   2   4
BRANCH   3   8
HETATM    8  C8  UNL     1     -32.685   5.412   1.605  1.00 20.00     0.119 C 
HETATM    9 CL9  UNL     1     -31.761   4.499   0.379  1.00 20.00    -0.130 Cl
ENDBRANCH   3   8
TORSDOF 2
ENDMDL
MODEL 9
REMARK VINA RESULT:      -0.1      2.926      5.274
REMARK  2 active torsions:
REMARK  status: ('A' for Active; 'I' for Inactive)
REMARK    1  A    between atoms: C5_5  and  C6_6 
REMARK    2  A    between atoms: C7_7  and  C8_8 
ROOT
HETATM    1  C4  UNL     1     -34.104   7.436   3.287  1.00 20.00     0.011 A 
HETATM    2  C6  UNL     1     -33.135   6.296   3.402  1.00 20.00    -0.005 A 
HETATM    3  C7  UNL     1     -33.145   7.145   2.162  1.00 20.00     0.004 A 
ENDROOT
BRANCH   2   4
HETATM    4  C5  UNL     1     -33.574   4.846   3.400  1.00 20.00    -0.010 C 
HETATM    5  C2  UNL     1     -34.483   4.393   4.572  1.00 20.00     0.005 C 
HETATM    6  C1  UNL     1     -33.730   3.047   4.538  1.00 20.00     0.001 C 
HETATM    7  C3  UNL     1     -32.543   3.808   3.913  1.00 20.00     0.005 C 
ENDBRANCH   2   4
BRANCH   3   8
HETATM    8  C8  UNL     1     -32.010   8.069   1.886  1.00 20.00     0.119 C 
HETATM    9 CL9  UNL     1     -32.452   9.288   0.657  1.00 20.00    -0.130 Cl
ENDBRANCH   3   8
TORSDOF 2
ENDMDL
