MODEL 1
REMARK VINA RESULT:      -1.9      0.000      0.000
REMARK  1 active torsions:
REMARK  status: ('A' for Active; 'I' for Inactive)
REMARK    1  A    between atoms: C5_5  and  C7_7 
ROOT
HETATM    1  C1  UNL     1     -34.940   5.095   4.251  1.00 20.00     0.002 C 
HETATM    2  C2  UNL     1     -33.638   5.370   3.479  1.00 20.00     0.010 C 
HETATM    3  C3  UNL     1     -35.436   6.484   3.810  1.00 20.00     0.010 C 
HETATM    4  C4  UNL     1     -33.224   7.829   4.391  1.00 20.00     0.016 A 
HETATM    5  C5  UNL     1     -33.430   7.975   2.903  1.00 20.00     0.005 A 
HETATM    6  C6  UNL     1     -33.999   6.799   3.628  1.00 20.00    -0.036 A 
ENDROOT
BRANCH   5   7
HETATM    7  C7  UNL     1     -32.276   7.820   1.973  1.00 20.00     0.090 C 
HETATM    8 BR8  UNL     1     -32.257   9.266   0.662  1.00 20.00    -0.096 Br
ENDBRANCH   5   7
TORSDOF 1
ENDMDL
MODEL 2
REMARK VINA RESULT:      -1.6      2.819      3.918
REMARK  1 active torsions:
REMARK  status: ('A' for Active; 'I' for Inactive)
REMARK    1  A    between atoms: C5_5  and  C7_7 
ROOT
HETATM    1  C1  UNL     1     -32.592   7.813   2.008  1.00 20.00     0.002 C 
HETATM    2  C2  UNL     1     -33.055   6.349   1.911  1.00 20.00     0.010 C 
HETATM    3  C3  UNL     1     -32.756   7.711   3.535  1.00 20.00     0.010 C 
HETATM    4  C4  UNL     1     -35.143   6.552   3.538  1.00 20.00     0.016 A 
HETATM    5  C5  UNL     1     -34.200   5.580   4.204  1.00 20.00     0.005 A 
HETATM    6  C6  UNL     1     -33.677   6.589   3.234  1.00 20.00    -0.036 A 
ENDROOT
BRANCH   5   7
HETATM    7  C7  UNL     1     -34.253   4.133   3.855  1.00 20.00     0.090 C 
HETATM    8 BR8  UNL     1     -33.015   3.116   4.970  1.00 20.00    -0.096 Br
ENDBRANCH   5   7
TORSDOF 1
ENDMDL
MODEL 3
REMARK VINA RESULT:      -1.4      1.282      1.282
REMARK  1 active torsions:
REMARK  status: ('A' for Active; 'I' for Inactive)
REMARK    1  A    between atoms: C5_5  and  C7_7 
ROOT
HETATM    1  C1  UNL     1     -35.286   5.181   4.476  1.00 20.00     0.002 C 
HETATM    2  C2  UNL     1     -33.877   5.295   3.869  1.00 20.00     0.010 C 
HETATM    3  C3  UNL     1     -35.665   6.461   3.711  1.00 20.00     0.010 C 
HETATM    4  C4  UNL     1     -33.517   7.881   4.350  1.00 20.00     0.016 A 
HETATM    5  C5  UNL     1     -33.498   7.739   2.847  1.00 20.00     0.005 A 
HETATM    6  C6  UNL     1     -34.207   6.728   3.689  1.00 20.00    -0.036 A 
ENDROOT
BRANCH   5   7
HETATM    7  C7  UNL     1     -32.228   7.401   2.147  1.00 20.00     0.090 C 
HETATM    8 BR8  UNL     1     -32.450   5.790   1.068  1.00 20.00    -0.096 Br
ENDBRANCH   5   7
TORSDOF 1
ENDMDL
MODEL 4
REMARK VINA RESULT:      -1.2      2.513      4.559
REMARK  1 active torsions:
REMARK  status: ('A' for Active; 'I' for Inactive)
REMARK    1  A    between atoms: C5_5  and  C7_7 
ROOT
HETATM    1  C1  UNL     1     -32.367  10.402  -0.207  1.00 20.00     0.002 C 
HETATM    2  C2  UNL     1     -32.684  10.242   1.290  1.00 20.00     0.010 C 
HETATM    3  C3  UNL     1     -32.658   8.901  -0.378  1.00 20.00     0.010 C 
HETATM    4  C4  UNL     1     -31.246   8.048   1.700  1.00 20.00     0.016 A 
HETATM    5  C5  UNL     1     -32.678   7.654   1.971  1.00 20.00     0.005 A 
HETATM    6  C6  UNL     1     -32.374   8.809   1.074  1.00 20.00    -0.036 A 
ENDROOT
BRANCH   5   7
HETATM    7  C7  UNL     1     -33.266   7.865   3.323  1.00 20.00     0.090 C 
HETATM    8 BR8  UNL     1     -34.628   6.517   3.694  1.00 20.00    -0.096 Br
ENDBRANCH   5   7
TORSDOF 1
ENDMDL
MODEL 5
REMARK VINA RESULT:      -1.1      0.960      1.802
REMARK  1 active torsions:
REMARK  status: ('A' for Active; 'I' for Inactive)
REMARK    1  A    between atoms: C5_5  and  C7_7 
ROOT
HETATM    1  C1  UNL     1     -35.064   6.045   4.084  1.00 20.00     0.002 C 
HETATM    2  C2  UNL     1     -34.318   7.333   3.693  1.00 20.00     0.010 C 
HETATM    3  C3  UNL     1     -33.877   5.246   3.518  1.00 20.00     0.010 C 
HETATM    4  C4  UNL     1     -33.627   6.586   1.241  1.00 20.00     0.016 A 
HETATM    5  C5  UNL     1     -32.330   6.778   1.990  1.00 20.00     0.005 A 
HETATM    6  C6  UNL     1     -33.589   6.471   2.734  1.00 20.00    -0.036 A 
ENDROOT
BRANCH   5   7
HETATM    7  C7  UNL     1     -31.705   8.128   2.062  1.00 20.00     0.090 C 
HETATM    8 BR8  UNL     1     -32.229   9.206   0.522  1.00 20.00    -0.096 Br
ENDBRANCH   5   7
TORSDOF 1
ENDMDL
MODEL 6
REMARK VINA RESULT:      -1.0      1.243      1.734
REMARK  1 active torsions:
REMARK  status: ('A' for Active; 'I' for Inactive)
REMARK    1  A    between atoms: C5_5  and  C7_7 
ROOT
HETATM    1  C1  UNL     1     -33.884   5.818   3.265  1.00 20.00     0.002 C 
HETATM    2  C2  UNL     1     -33.140   6.163   1.963  1.00 20.00     0.010 C 
HETATM    3  C3  UNL     1     -34.060   7.328   3.506  1.00 20.00     0.010 C 
HETATM    4  C4  UNL     1     -31.561   8.044   2.973  1.00 20.00     0.016 A 
HETATM    5  C5  UNL     1     -32.428   8.742   1.953  1.00 20.00     0.005 A 
HETATM    6  C6  UNL     1     -32.896   7.479   2.599  1.00 20.00    -0.036 A 
ENDROOT
BRANCH   5   7
HETATM    7  C7  UNL     1     -32.020   8.768   0.521  1.00 20.00     0.090 C 
HETATM    8 BR8  UNL     1     -32.694  10.379  -0.351  1.00 20.00    -0.096 Br
ENDBRANCH   5   7
TORSDOF 1
ENDMDL
MODEL 7
REMARK VINA RESULT:      -0.7      2.359      4.028
REMARK  1 active torsions:
REMARK  status: ('A' for Active; 'I' for Inactive)
REMARK    1  A    between atoms: C5_5  and  C7_7 
ROOT
HETATM    1  C1  UNL     1     -31.613   8.892   1.305  1.00 20.00     0.002 C 
HETATM    2  C2  UNL     1     -31.910   8.026   2.542  1.00 20.00     0.010 C 
HETATM    3  C3  UNL     1     -32.682   8.086   0.546  1.00 20.00     0.010 C 
HETATM    4  C4  UNL     1     -31.888   5.673   1.313  1.00 20.00     0.016 A 
HETATM    5  C5  UNL     1     -33.291   5.845   1.841  1.00 20.00     0.005 A 
HETATM    6  C6  UNL     1     -32.439   7.041   1.570  1.00 20.00    -0.036 A 
ENDROOT
BRANCH   5   7
HETATM    7  C7  UNL     1     -33.618   5.433   3.235  1.00 20.00     0.090 C 
HETATM    8 BR8  UNL     1     -35.111   6.484   3.925  1.00 20.00    -0.096 Br
ENDBRANCH   5   7
TORSDOF 1
ENDMDL
MODEL 8
REMARK VINA RESULT:      -0.4      2.653      3.479
REMARK  1 active torsions:
REMARK  status: ('A' for Active; 'I' for Inactive)
REMARK    1  A    between atoms: C5_5  and  C7_7 
ROOT
HETATM    1  C1  UNL     1     -32.367   4.986   0.484  1.00 20.00     0.002 C 
HETATM    2  C2  UNL     1     -33.557   5.783   1.048  1.00 20.00     0.010 C 
HETATM    3  C3  UNL     1     -31.582   5.355   1.754  1.00 20.00     0.010 C 
HETATM    4  C4  UNL     1     -32.192   7.937   1.786  1.00 20.00     0.016 A 
HETATM    5  C5  UNL     1     -32.755   7.353   3.060  1.00 20.00     0.005 A 
HETATM    6  C6  UNL     1     -32.539   6.482   1.866  1.00 20.00    -0.036 A 
ENDROOT
BRANCH   5   7
HETATM    7  C7  UNL     1     -34.128   7.721   3.505  1.00 20.00     0.090 C 
HETATM    8 BR8  UNL     1     -35.098   6.137   4.105  1.00 20.00    -0.096 Br
ENDBRANCH   5   7
TORSDOF 1
ENDMDL
MODEL 9
REMARK VINA RESULT:      -0.0      2.485      4.437
REMARK  1 active torsions:
REMARK  status: ('A' for Active; 'I' for Inactive)
REMARK    1  A    between atoms: C5_5  and  C7_7 
ROOT
HETATM    1  C1  UNL     1     -32.188  10.233  -0.012  1.00 20.00     0.002 C 
HETATM    2  C2  UNL     1     -33.227   9.366   0.720  1.00 20.00     0.010 C 
HETATM    3  C3  UNL     1     -31.240   9.022   0.002  1.00 20.00     0.010 C 
HETATM    4  C4  UNL     1     -31.587   8.356   2.548  1.00 20.00     0.016 A 
HETATM    5  C5  UNL     1     -32.065   7.179   1.733  1.00 20.00     0.005 A 
HETATM    6  C6  UNL     1     -32.064   8.550   1.142  1.00 20.00    -0.036 A 
ENDROOT
BRANCH   5   7
HETATM    7  C7  UNL     1     -33.340   6.496   2.089  1.00 20.00     0.090 C 
HETATM    8 BR8  UNL     1     -34.066   7.226   3.747  1.00 20.00    -0.096 Br
ENDBRANCH   5   7
TORSDOF 1
ENDMDL
