MODEL 1
REMARK VINA RESULT:       1.1      0.000      0.000
REMARK  2 active torsions:
REMARK  status: ('A' for Active; 'I' for Inactive)
REMARK    1  A    between atoms: C4_4  and  C7_7 
REMARK    2  A    between atoms: C6_6  and  C10_10 
ROOT
HETATM    1  C1  UNL     1     -31.621   7.871   0.631  1.00 20.00     0.015 A 
HETATM    2  C2  UNL     1     -31.985   9.197   0.711  1.00 20.00     0.051 A 
HETATM    3  C3  UNL     1     -32.257   7.079   1.632  1.00 20.00    -0.048 A 
HETATM    4  C4  UNL     1     -33.083   7.832   2.439  1.00 20.00    -0.003 A 
HETATM    5  C8  UNL     1     -32.041   5.620   1.775  1.00 20.00     0.049 C 
HETATM    6  S11 UNL     1     -33.090   9.484   1.989  1.00 20.00    -0.105 SA
ENDROOT
BRANCH   4   7
HETATM    7  C7  UNL     1     -33.918   7.270   3.625  1.00 20.00    -0.005 A 
HETATM    8  C5  UNL     1     -35.400   7.045   3.366  1.00 20.00     0.021 A 
HETATM    9  C6  UNL     1     -34.480   5.862   3.428  1.00 20.00     0.010 A 
HETATM   10  C9  UNL     1     -33.494   7.738   4.988  1.00 20.00     0.021 C 
BRANCH   9  11
HETATM   11  C10 UNL     1     -34.591   4.880   4.545  1.00 20.00     0.091 C 
HETATM   12 BR12 UNL     1     -33.426   3.348   4.224  1.00 20.00    -0.096 Br
ENDBRANCH   9  11
ENDBRANCH   4   7
TORSDOF 2
ENDMDL
MODEL 2
REMARK VINA RESULT:       1.5      2.952      4.534
REMARK  2 active torsions:
REMARK  status: ('A' for Active; 'I' for Inactive)
REMARK    1  A    between atoms: C4_4  and  C7_7 
REMARK    2  A    between atoms: C6_6  and  C10_10 
ROOT
HETATM    1  C1  UNL     1     -34.215   4.863   3.315  1.00 20.00     0.015 A 
HETATM    2  C2  UNL     1     -34.956   5.617   4.198  1.00 20.00     0.051 A 
HETATM    3  C3  UNL     1     -33.221   5.640   2.650  1.00 20.00    -0.048 A 
HETATM    4  C4  UNL     1     -33.242   6.959   3.050  1.00 20.00    -0.003 A 
HETATM    5  C8  UNL     1     -32.286   5.079   1.646  1.00 20.00     0.049 C 
HETATM    6  S11 UNL     1     -34.454   7.255   4.223  1.00 20.00    -0.105 SA
ENDROOT
BRANCH   4   7
HETATM    7  C7  UNL     1     -32.288   8.064   2.515  1.00 20.00    -0.005 A 
HETATM    8  C5  UNL     1     -31.556   7.762   1.216  1.00 20.00     0.021 A 
HETATM    9  C6  UNL     1     -32.709   8.720   1.200  1.00 20.00     0.010 A 
HETATM   10  C9  UNL     1     -31.573   8.860   3.568  1.00 20.00     0.021 C 
BRANCH   9  11
HETATM   11  C10 UNL     1     -32.481  10.167   0.917  1.00 20.00     0.091 C 
HETATM   12 BR12 UNL     1     -32.665  10.524  -0.993  1.00 20.00    -0.096 Br
ENDBRANCH   9  11
ENDBRANCH   4   7
TORSDOF 2
ENDMDL
MODEL 3
REMARK VINA RESULT:       1.9      3.043      4.842
REMARK  2 active torsions:
REMARK  status: ('A' for Active; 'I' for Inactive)
REMARK    1  A    between atoms: C4_4  and  C7_7 
REMARK    2  A    between atoms: C6_6  and  C10_10 
ROOT
HETATM    1  C1  UNL     1     -34.718   5.631   4.143  1.00 20.00     0.015 A 
HETATM    2  C2  UNL     1     -34.174   4.591   3.423  1.00 20.00     0.051 A 
HETATM    3  C3  UNL     1     -34.089   6.876   3.846  1.00 20.00    -0.048 A 
HETATM    4  C4  UNL     1     -33.088   6.738   2.909  1.00 20.00    -0.003 A 
HETATM    5  C8  UNL     1     -34.478   8.157   4.481  1.00 20.00     0.049 C 
HETATM    6  S11 UNL     1     -32.909   5.115   2.393  1.00 20.00    -0.105 SA
ENDROOT
BRANCH   4   7
HETATM    7  C7  UNL     1     -32.210   7.903   2.370  1.00 20.00    -0.005 A 
HETATM    8  C5  UNL     1     -31.575   7.701   1.003  1.00 20.00     0.021 A 
HETATM    9  C6  UNL     1     -32.751   8.622   1.135  1.00 20.00     0.010 A 
HETATM   10  C9  UNL     1     -31.435   8.658   3.412  1.00 20.00     0.021 C 
BRANCH   9  11
HETATM   11  C10 UNL     1     -32.585  10.089   0.924  1.00 20.00     0.091 C 
HETATM   12 BR12 UNL     1     -32.546  10.503  -0.983  1.00 20.00    -0.096 Br
ENDBRANCH   9  11
ENDBRANCH   4   7
TORSDOF 2
ENDMDL
MODEL 4
REMARK VINA RESULT:       2.3      2.971      4.961
REMARK  2 active torsions:
REMARK  status: ('A' for Active; 'I' for Inactive)
REMARK    1  A    between atoms: C4_4  and  C7_7 
REMARK    2  A    between atoms: C6_6  and  C10_10 
ROOT
HETATM    1  C1  UNL     1     -34.736   4.559   4.806  1.00 20.00     0.015 A 
HETATM    2  C2  UNL     1     -33.886   3.475   4.781  1.00 20.00     0.051 A 
HETATM    3  C3  UNL     1     -34.421   5.509   3.791  1.00 20.00    -0.048 A 
HETATM    4  C4  UNL     1     -33.341   5.115   3.030  1.00 20.00    -0.003 A 
HETATM    5  C8  UNL     1     -35.175   6.770   3.594  1.00 20.00     0.049 C 
HETATM    6  S11 UNL     1     -32.713   3.606   3.539  1.00 20.00    -0.105 SA
ENDROOT
BRANCH   4   7
HETATM    7  C7  UNL     1     -32.746   5.928   1.845  1.00 20.00    -0.005 A 
HETATM    8  C5  UNL     1     -33.716   6.800   1.062  1.00 20.00     0.021 A 
HETATM    9  C6  UNL     1     -32.756   7.447   2.015  1.00 20.00     0.010 A 
HETATM   10  C9  UNL     1     -31.632   5.252   1.099  1.00 20.00     0.021 C 
BRANCH   9  11
HETATM   11  C10 UNL     1     -31.659   8.318   1.502  1.00 20.00     0.091 C 
HETATM   12 BR12 UNL     1     -32.381   9.714   0.345  1.00 20.00    -0.096 Br
ENDBRANCH   9  11
ENDBRANCH   4   7
TORSDOF 2
ENDMDL
MODEL 5
REMARK VINA RESULT:       3.0      1.792      2.740
REMARK  2 active torsions:
REMARK  status: ('A' for Active; 'I' for Inactive)
REMARK    1  A    between atoms: C4_4  and  C7_7 
REMARK    2  A    between atoms: C6_6  and  C10_10 
ROOT
HETATM    1  C1  UNL     1     -32.443   8.392   2.612  1.00 20.00     0.015 A 
HETATM    2  C2  UNL     1     -31.987   7.766   1.473  1.00 20.00     0.051 A 
HETATM    3  C3  UNL     1     -33.189   7.509   3.446  1.00 20.00    -0.048 A 
HETATM    4  C4  UNL     1     -33.275   6.241   2.912  1.00 20.00    -0.003 A 
HETATM    5  C8  UNL     1     -33.797   7.923   4.733  1.00 20.00     0.049 C 
HETATM    6  S11 UNL     1     -32.458   6.120   1.412  1.00 20.00    -0.105 SA
ENDROOT
BRANCH   4   7
HETATM    7  C7  UNL     1     -34.020   5.047   3.574  1.00 20.00    -0.005 A 
HETATM    8  C5  UNL     1     -33.971   3.719   2.833  1.00 20.00     0.021 A 
HETATM    9  C6  UNL     1     -33.132   3.903   4.063  1.00 20.00     0.010 A 
HETATM   10  C9  UNL     1     -35.278   5.405   4.313  1.00 20.00     0.021 C 
BRANCH   9  11
HETATM   11  C10 UNL     1     -33.433   3.128   5.301  1.00 20.00     0.091 C 
HETATM   12 BR12 UNL     1     -32.127   3.536   6.693  1.00 20.00    -0.096 Br
ENDBRANCH   9  11
ENDBRANCH   4   7
TORSDOF 2
ENDMDL
MODEL 6
REMARK VINA RESULT:       3.2      2.844      4.694
REMARK  2 active torsions:
REMARK  status: ('A' for Active; 'I' for Inactive)
REMARK    1  A    between atoms: C4_4  and  C7_7 
REMARK    2  A    between atoms: C6_6  and  C10_10 
ROOT
HETATM    1  C1  UNL     1     -34.679   4.270   4.772  1.00 20.00     0.015 A 
HETATM    2  C2  UNL     1     -35.530   5.352   4.817  1.00 20.00     0.051 A 
HETATM    3  C3  UNL     1     -33.675   4.419   3.771  1.00 20.00    -0.048 A 
HETATM    4  C4  UNL     1     -33.799   5.609   3.088  1.00 20.00    -0.003 A 
HETATM    5  C8  UNL     1     -32.631   3.400   3.507  1.00 20.00     0.049 C 
HETATM    6  S11 UNL     1     -35.119   6.541   3.654  1.00 20.00    -0.105 SA
ENDROOT
BRANCH   4   7
HETATM    7  C7  UNL     1     -32.863   6.072   1.935  1.00 20.00    -0.005 A 
HETATM    8  C5  UNL     1     -33.539   6.544   0.657  1.00 20.00     0.021 A 
HETATM    9  C6  UNL     1     -32.935   7.558   1.582  1.00 20.00     0.010 A 
HETATM   10  C9  UNL     1     -31.565   5.324   1.822  1.00 20.00     0.021 C 
BRANCH   9  11
HETATM   11  C10 UNL     1     -31.737   8.341   1.161  1.00 20.00     0.091 C 
HETATM   12 BR12 UNL     1     -32.276   9.923   0.155  1.00 20.00    -0.096 Br
ENDBRANCH   9  11
ENDBRANCH   4   7
TORSDOF 2
ENDMDL
MODEL 7
REMARK VINA RESULT:       3.4      1.643      2.221
REMARK  2 active torsions:
REMARK  status: ('A' for Active; 'I' for Inactive)
REMARK    1  A    between atoms: C4_4  and  C7_7 
REMARK    2  A    between atoms: C6_6  and  C10_10 
ROOT
HETATM    1  C1  UNL     1     -32.022   7.748   1.654  1.00 20.00     0.015 A 
HETATM    2  C2  UNL     1     -32.318   8.633   2.668  1.00 20.00     0.051 A 
HETATM    3  C3  UNL     1     -32.594   6.462   1.882  1.00 20.00    -0.048 A 
HETATM    4  C4  UNL     1     -33.303   6.412   3.062  1.00 20.00    -0.003 A 
HETATM    5  C8  UNL     1     -32.430   5.322   0.949  1.00 20.00     0.049 C 
HETATM    6  S11 UNL     1     -33.280   7.912   3.889  1.00 20.00    -0.105 SA
ENDROOT
BRANCH   4   7
HETATM    7  C7  UNL     1     -34.045   5.156   3.600  1.00 20.00    -0.005 A 
HETATM    8  C5  UNL     1     -33.957   3.897   2.751  1.00 20.00     0.021 A 
HETATM    9  C6  UNL     1     -33.151   3.986   4.012  1.00 20.00     0.010 A 
HETATM   10  C9  UNL     1     -35.325   5.432   4.336  1.00 20.00     0.021 C 
BRANCH   9  11
HETATM   11  C10 UNL     1     -33.469   3.104   5.172  1.00 20.00     0.091 C 
HETATM   12 BR12 UNL     1     -32.219   3.426   6.635  1.00 20.00    -0.096 Br
ENDBRANCH   9  11
ENDBRANCH   4   7
TORSDOF 2
ENDMDL
MODEL 8
REMARK VINA RESULT:       3.6      1.243      1.831
REMARK  2 active torsions:
REMARK  status: ('A' for Active; 'I' for Inactive)
REMARK    1  A    between atoms: C4_4  and  C7_7 
REMARK    2  A    between atoms: C6_6  and  C10_10 
ROOT
HETATM    1  C1  UNL     1     -31.858   8.775   0.678  1.00 20.00     0.015 A 
HETATM    2  C2  UNL     1     -31.230   7.562   0.501  1.00 20.00     0.051 A 
HETATM    3  C3  UNL     1     -32.821   8.731   1.728  1.00 20.00    -0.048 A 
HETATM    4  C4  UNL     1     -32.893   7.486   2.313  1.00 20.00    -0.003 A 
HETATM    5  C8  UNL     1     -33.643   9.898   2.128  1.00 20.00     0.049 C 
HETATM    6  S11 UNL     1     -31.802   6.376   1.598  1.00 20.00    -0.105 SA
ENDROOT
BRANCH   4   7
HETATM    7  C7  UNL     1     -33.845   7.108   3.484  1.00 20.00    -0.005 A 
HETATM    8  C5  UNL     1     -35.314   6.927   3.136  1.00 20.00     0.021 A 
HETATM    9  C6  UNL     1     -34.471   5.716   3.404  1.00 20.00     0.010 A 
HETATM   10  C9  UNL     1     -33.496   7.711   4.814  1.00 20.00     0.021 C 
BRANCH   9  11
HETATM   11  C10 UNL     1     -34.720   4.878   4.613  1.00 20.00     0.091 C 
HETATM   12 BR12 UNL     1     -33.539   3.325   4.620  1.00 20.00    -0.096 Br
ENDBRANCH   9  11
ENDBRANCH   4   7
TORSDOF 2
ENDMDL
MODEL 9
REMARK VINA RESULT:       4.1      2.917      4.564
REMARK  2 active torsions:
REMARK  status: ('A' for Active; 'I' for Inactive)
REMARK    1  A    between atoms: C4_4  and  C7_7 
REMARK    2  A    between atoms: C6_6  and  C10_10 
ROOT
HETATM    1  C1  UNL     1     -33.476   3.739   4.093  1.00 20.00     0.015 A 
HETATM    2  C2  UNL     1     -34.565   4.282   4.739  1.00 20.00     0.051 A 
HETATM    3  C3  UNL     1     -32.983   4.593   3.063  1.00 20.00    -0.048 A 
HETATM    4  C4  UNL     1     -33.716   5.756   2.961  1.00 20.00    -0.003 A 
HETATM    5  C8  UNL     1     -31.820   4.253   2.210  1.00 20.00     0.049 C 
HETATM    6  S11 UNL     1     -34.990   5.815   4.103  1.00 20.00    -0.105 SA
ENDROOT
BRANCH   4   7
HETATM    7  C7  UNL     1     -33.438   6.894   1.938  1.00 20.00    -0.005 A 
HETATM    8  C5  UNL     1     -33.703   8.315   2.411  1.00 20.00     0.021 A 
HETATM    9  C6  UNL     1     -32.287   7.835   2.292  1.00 20.00     0.010 A 
HETATM   10  C9  UNL     1     -33.730   6.553   0.504  1.00 20.00     0.021 C 
BRANCH   9  11
HETATM   11  C10 UNL     1     -31.380   8.416   1.261  1.00 20.00     0.091 C 
HETATM   12 BR12 UNL     1     -32.261   9.886   0.328  1.00 20.00    -0.096 Br
ENDBRANCH   9  11
ENDBRANCH   4   7
TORSDOF 2
ENDMDL
