MODEL 1
REMARK VINA RESULT:       0.4      0.000      0.000
REMARK  0 active torsions:
REMARK  status: ('A' for Active; 'I' for Inactive)
ROOT
HETATM    1  C1  UNL     1     -31.806   8.989   1.269  1.00 20.00     0.006 C 
HETATM    2  C2  UNL     1     -33.233   8.416   1.344  1.00 20.00     0.038 C 
HETATM    3  C3  UNL     1     -31.288   7.579   1.606  1.00 20.00     0.038 C 
HETATM    4  C4  UNL     1     -34.991   6.647   3.583  1.00 20.00     0.046 C 
HETATM    5  C5  UNL     1     -33.177   5.867   1.989  1.00 20.00     0.058 C 
HETATM    6  C6  UNL     1     -34.013   7.585   4.290  1.00 20.00     0.170 C 
HETATM    7  C7  UNL     1     -34.287   5.445   2.962  1.00 20.00     0.087 C 
HETATM    8  C8  UNL     1     -32.668   7.287   2.268  1.00 20.00     0.062 C 
HETATM    9  O9  UNL     1     -32.719   7.566   3.689  1.00 20.00    -0.380 OA
HETATM   10 CL10 UNL     1     -33.605   4.403   4.259  1.00 20.00    -0.125 Cl
ENDROOT
TORSDOF 0
ENDMDL
MODEL 2
REMARK VINA RESULT:       1.0      1.516      2.289
REMARK  0 active torsions:
REMARK  status: ('A' for Active; 'I' for Inactive)
ROOT
HETATM    1  C1  UNL     1     -31.319   8.709   0.567  1.00 20.00     0.006 C 
HETATM    2  C2  UNL     1     -31.213   7.778   1.788  1.00 20.00     0.038 C 
HETATM    3  C3  UNL     1     -32.696   9.147   1.098  1.00 20.00     0.038 C 
HETATM    4  C4  UNL     1     -33.135   5.404   3.166  1.00 20.00     0.046 C 
HETATM    5  C5  UNL     1     -33.386   7.927   3.261  1.00 20.00     0.058 C 
HETATM    6  C6  UNL     1     -33.300   5.411   1.647  1.00 20.00     0.170 C 
HETATM    7  C7  UNL     1     -33.850   6.578   3.827  1.00 20.00     0.087 C 
HETATM    8  C8  UNL     1     -32.776   7.791   1.860  1.00 20.00     0.062 C 
HETATM    9  O9  UNL     1     -33.439   6.732   1.126  1.00 20.00    -0.380 OA
HETATM   10 CL10 UNL     1     -35.628   6.401   3.620  1.00 20.00    -0.125 Cl
ENDROOT
TORSDOF 0
ENDMDL
MODEL 3
REMARK VINA RESULT:       1.8      2.235      3.746
REMARK  0 active torsions:
REMARK  status: ('A' for Active; 'I' for Inactive)
ROOT
HETATM    1  C1  UNL     1     -35.200   5.630   4.406  1.00 20.00     0.006 C 
HETATM    2  C2  UNL     1     -33.739   5.570   3.926  1.00 20.00     0.038 C 
HETATM    3  C3  UNL     1     -35.525   6.415   3.123  1.00 20.00     0.038 C 
HETATM    4  C4  UNL     1     -31.462   7.802   2.893  1.00 20.00     0.046 C 
HETATM    5  C5  UNL     1     -33.458   6.850   1.646  1.00 20.00     0.058 C 
HETATM    6  C6  UNL     1     -32.375   8.419   3.951  1.00 20.00     0.170 C 
HETATM    7  C7  UNL     1     -32.159   7.663   1.543  1.00 20.00     0.087 C 
HETATM    8  C8  UNL     1     -34.029   6.847   3.070  1.00 20.00     0.062 C 
HETATM    9  O9  UNL     1     -33.750   8.109   3.725  1.00 20.00    -0.380 OA
HETATM   10 CL10 UNL     1     -32.505   9.293   0.867  1.00 20.00    -0.125 Cl
ENDROOT
TORSDOF 0
ENDMDL
MODEL 4
REMARK VINA RESULT:       2.0      1.716      3.269
REMARK  0 active torsions:
REMARK  status: ('A' for Active; 'I' for Inactive)
ROOT
HETATM    1  C1  UNL     1     -33.972   8.360   5.066  1.00 20.00     0.006 C 
HETATM    2  C2  UNL     1     -32.717   7.646   4.533  1.00 20.00     0.038 C 
HETATM    3  C3  UNL     1     -34.811   7.380   4.225  1.00 20.00     0.038 C 
HETATM    4  C4  UNL     1     -31.524   6.833   1.509  1.00 20.00     0.046 C 
HETATM    5  C5  UNL     1     -33.378   5.737   2.850  1.00 20.00     0.058 C 
HETATM    6  C6  UNL     1     -32.303   8.146   1.442  1.00 20.00     0.170 C 
HETATM    7  C7  UNL     1     -32.445   5.624   1.636  1.00 20.00     0.087 C 
HETATM    8  C8  UNL     1     -33.569   7.190   3.303  1.00 20.00     0.062 C 
HETATM    9  O9  UNL     1     -33.534   8.079   2.160  1.00 20.00    -0.380 OA
HETATM   10 CL10 UNL     1     -33.412   5.436   0.132  1.00 20.00    -0.125 Cl
ENDROOT
TORSDOF 0
ENDMDL
MODEL 5
REMARK VINA RESULT:       2.6      1.795      2.838
REMARK  0 active torsions:
REMARK  status: ('A' for Active; 'I' for Inactive)
ROOT
HETATM    1  C1  UNL     1     -32.271   4.722   0.339  1.00 20.00     0.006 C 
HETATM    2  C2  UNL     1     -33.390   5.742   0.615  1.00 20.00     0.038 C 
HETATM    3  C3  UNL     1     -32.085   4.606   1.863  1.00 20.00     0.038 C 
HETATM    4  C4  UNL     1     -33.674   8.566   2.397  1.00 20.00     0.046 C 
HETATM    5  C5  UNL     1     -33.652   6.157   3.198  1.00 20.00     0.058 C 
HETATM    6  C6  UNL     1     -32.259   8.427   1.836  1.00 20.00     0.170 C 
HETATM    7  C7  UNL     1     -33.921   7.622   3.571  1.00 20.00     0.087 C 
HETATM    8  C8  UNL     1     -32.710   6.027   1.994  1.00 20.00     0.062 C 
HETATM    9  O9  UNL     1     -31.742   7.106   1.997  1.00 20.00    -0.380 OA
HETATM   10 CL10 UNL     1     -32.892   8.103   4.964  1.00 20.00    -0.125 Cl
ENDROOT
TORSDOF 0
ENDMDL
MODEL 6
REMARK VINA RESULT:       2.7      1.993      3.738
REMARK  0 active torsions:
REMARK  status: ('A' for Active; 'I' for Inactive)
ROOT
HETATM    1  C1  UNL     1     -35.599   6.071   4.285  1.00 20.00     0.006 C 
HETATM    2  C2  UNL     1     -35.367   6.696   2.898  1.00 20.00     0.038 C 
HETATM    3  C3  UNL     1     -34.365   6.850   4.775  1.00 20.00     0.038 C 
HETATM    4  C4  UNL     1     -32.780   6.934   0.780  1.00 20.00     0.046 C 
HETATM    5  C5  UNL     1     -33.228   8.227   2.917  1.00 20.00     0.058 C 
HETATM    6  C6  UNL     1     -32.722   5.616   1.550  1.00 20.00     0.170 C 
HETATM    7  C7  UNL     1     -32.375   8.124   1.645  1.00 20.00     0.087 C 
HETATM    8  C8  UNL     1     -33.866   6.886   3.300  1.00 20.00     0.062 C 
HETATM    9  O9  UNL     1     -32.986   5.792   2.941  1.00 20.00    -0.380 OA
HETATM   10 CL10 UNL     1     -30.635   7.994   2.079  1.00 20.00    -0.125 Cl
ENDROOT
TORSDOF 0
ENDMDL
