MODEL 1
REMARK VINA RESULT:      -1.0      0.000      0.000
REMARK  1 active torsions:
REMARK  status: ('A' for Active; 'I' for Inactive)
REMARK    1  A    between atoms: C6_6  and  C8_8 
ROOT
HETATM    1  C1  UNL     1     -32.946   4.863   3.413  1.00 20.00     0.036 C 
HETATM    2  C2  UNL     1     -34.266   6.995   3.603  1.00 20.00     0.036 C 
HETATM    3  C3  UNL     1     -33.353   6.287   1.270  1.00 20.00     0.016 A 
HETATM    4  C4  UNL     1     -34.230   4.121   3.763  1.00 20.00     0.168 C 
HETATM    5  C5  UNL     1     -35.471   6.125   3.950  1.00 20.00     0.168 C 
HETATM    6  C6  UNL     1     -32.182   6.893   1.996  1.00 20.00     0.009 A 
HETATM    7  C7  UNL     1     -33.281   6.196   2.779  1.00 20.00    -0.032 A 
HETATM    8  O9  UNL     1     -35.054   4.927   4.610  1.00 20.00    -0.391 OA
ENDROOT
BRANCH   6   9
HETATM    9  C8  UNL     1     -31.994   8.371   2.018  1.00 20.00     0.120 C 
HETATM   10 CL10 UNL     1     -32.262   9.080   0.402  1.00 20.00    -0.130 Cl
ENDBRANCH   6   9
TORSDOF 1
ENDMDL
MODEL 2
REMARK VINA RESULT:      -0.9      0.933      1.978
REMARK  1 active torsions:
REMARK  status: ('A' for Active; 'I' for Inactive)
REMARK    1  A    between atoms: C6_6  and  C8_8 
ROOT
HETATM    1  C1  UNL     1     -35.239   6.650   3.655  1.00 20.00     0.036 C 
HETATM    2  C2  UNL     1     -33.178   5.372   2.991  1.00 20.00     0.036 C 
HETATM    3  C3  UNL     1     -32.900   7.683   4.157  1.00 20.00     0.016 A 
HETATM    4  C4  UNL     1     -35.514   5.540   4.664  1.00 20.00     0.168 C 
HETATM    5  C5  UNL     1     -33.581   4.333   4.034  1.00 20.00     0.168 C 
HETATM    6  C6  UNL     1     -33.230   7.991   2.721  1.00 20.00     0.009 A 
HETATM    7  C7  UNL     1     -33.756   6.719   3.362  1.00 20.00    -0.032 A 
HETATM    8  O9  UNL     1     -35.003   4.294   4.182  1.00 20.00    -0.391 OA
ENDROOT
BRANCH   6   9
HETATM    9  C8  UNL     1     -32.157   7.984   1.686  1.00 20.00     0.120 C 
HETATM   10 CL10 UNL     1     -32.302   9.390   0.596  1.00 20.00    -0.130 Cl
ENDBRANCH   6   9
TORSDOF 1
ENDMDL
MODEL 3
REMARK VINA RESULT:      -0.6      2.932      4.273
REMARK  1 active torsions:
REMARK  status: ('A' for Active; 'I' for Inactive)
REMARK    1  A    between atoms: C6_6  and  C8_8 
ROOT
HETATM    1  C1  UNL     1     -32.877   7.705   3.746  1.00 20.00     0.036 C 
HETATM    2  C2  UNL     1     -33.157   5.703   2.249  1.00 20.00     0.036 C 
HETATM    3  C3  UNL     1     -35.281   6.840   3.235  1.00 20.00     0.016 A 
HETATM    4  C4  UNL     1     -32.353   8.453   2.526  1.00 20.00     0.168 C 
HETATM    5  C5  UNL     1     -32.608   6.569   1.119  1.00 20.00     0.168 C 
HETATM    6  C6  UNL     1     -34.724   5.991   4.346  1.00 20.00     0.009 A 
HETATM    7  C7  UNL     1     -33.791   6.582   3.304  1.00 20.00    -0.032 A 
HETATM    8  O9  UNL     1     -31.700   7.548   1.631  1.00 20.00    -0.391 OA
ENDROOT
BRANCH   6   9
HETATM    9  C8  UNL     1     -35.039   4.535   4.409  1.00 20.00     0.120 C 
HETATM   10 CL10 UNL     1     -33.585   3.576   4.799  1.00 20.00    -0.130 Cl
ENDBRANCH   6   9
TORSDOF 1
ENDMDL
MODEL 4
REMARK VINA RESULT:      -0.3      1.152      2.299
REMARK  1 active torsions:
REMARK  status: ('A' for Active; 'I' for Inactive)
REMARK    1  A    between atoms: C6_6  and  C8_8 
ROOT
HETATM    1  C1  UNL     1     -34.090   7.929   3.402  1.00 20.00     0.036 C 
HETATM    2  C2  UNL     1     -33.063   6.351   1.735  1.00 20.00     0.036 C 
HETATM    3  C3  UNL     1     -31.560   8.173   2.831  1.00 20.00     0.016 A 
HETATM    4  C4  UNL     1     -34.275   6.726   4.319  1.00 20.00     0.168 C 
HETATM    5  C5  UNL     1     -33.316   5.240   2.749  1.00 20.00     0.168 C 
HETATM    6  C6  UNL     1     -32.335   8.882   1.752  1.00 20.00     0.009 A 
HETATM    7  C7  UNL     1     -32.939   7.678   2.451  1.00 20.00    -0.032 A 
HETATM    8  O9  UNL     1     -34.466   5.537   3.545  1.00 20.00    -0.391 OA
ENDROOT
BRANCH   6   9
HETATM    9  C8  UNL     1     -31.866   8.839   0.338  1.00 20.00     0.120 C 
HETATM   10 CL10 UNL     1     -32.769   9.996  -0.677  1.00 20.00    -0.130 Cl
ENDBRANCH   6   9
TORSDOF 1
ENDMDL
MODEL 5
REMARK VINA RESULT:       1.3      3.446      4.712
REMARK  1 active torsions:
REMARK  status: ('A' for Active; 'I' for Inactive)
REMARK    1  A    between atoms: C6_6  and  C8_8 
ROOT
HETATM    1  C1  UNL     1     -31.818   7.673   0.973  1.00 20.00     0.036 C 
HETATM    2  C2  UNL     1     -33.416   9.485   1.668  1.00 20.00     0.036 C 
HETATM    3  C3  UNL     1     -31.788   8.500   3.443  1.00 20.00     0.016 A 
HETATM    4  C4  UNL     1     -31.131   8.715   0.096  1.00 20.00     0.168 C 
HETATM    5  C5  UNL     1     -32.639  10.418   0.743  1.00 20.00     0.168 C 
HETATM    6  C6  UNL     1     -32.904   7.498   3.317  1.00 20.00     0.009 A 
HETATM    7  C7  UNL     1     -32.520   8.357   2.126  1.00 20.00    -0.032 A 
HETATM    8  O9  UNL     1     -32.079   9.688  -0.352  1.00 20.00    -0.391 OA
ENDROOT
BRANCH   6   9
HETATM    9  C8  UNL     1     -34.176   7.691   4.070  1.00 20.00     0.120 C 
HETATM   10 CL10 UNL     1     -35.222   6.250   3.954  1.00 20.00    -0.130 Cl
ENDBRANCH   6   9
TORSDOF 1
ENDMDL
MODEL 6
REMARK VINA RESULT:       1.7      2.445      3.004
REMARK  1 active torsions:
REMARK  status: ('A' for Active; 'I' for Inactive)
REMARK    1  A    between atoms: C6_6  and  C8_8 
ROOT
HETATM    1  C1  UNL     1     -33.903   5.438   3.241  1.00 20.00     0.036 C 
HETATM    2  C2  UNL     1     -32.279   7.119   2.313  1.00 20.00     0.036 C 
HETATM    3  C3  UNL     1     -33.658   5.658   0.657  1.00 20.00     0.016 A 
HETATM    4  C4  UNL     1     -34.716   6.618   3.761  1.00 20.00     0.168 C 
HETATM    5  C5  UNL     1     -33.185   8.199   2.896  1.00 20.00     0.168 C 
HETATM    6  C6  UNL     1     -32.539   4.774   1.142  1.00 20.00     0.009 A 
HETATM    7  C7  UNL     1     -33.085   5.868   2.043  1.00 20.00    -0.032 A 
HETATM    8  O9  UNL     1     -33.853   7.719   4.065  1.00 20.00    -0.391 OA
ENDROOT
BRANCH   6   9
HETATM    9  C8  UNL     1     -31.192   4.853   0.509  1.00 20.00     0.120 C 
HETATM   10 CL10 UNL     1     -30.892   3.447  -0.549  1.00 20.00    -0.130 Cl
ENDBRANCH   6   9
TORSDOF 1
ENDMDL
MODEL 7
REMARK VINA RESULT:       1.7      1.476      2.258
REMARK  1 active torsions:
REMARK  status: ('A' for Active; 'I' for Inactive)
REMARK    1  A    between atoms: C6_6  and  C8_8 
ROOT
HETATM    1  C1  UNL     1     -35.342   6.475   3.174  1.00 20.00     0.036 C 
HETATM    2  C2  UNL     1     -33.337   4.976   3.418  1.00 20.00     0.036 C 
HETATM    3  C3  UNL     1     -33.037   7.540   3.758  1.00 20.00     0.016 A 
HETATM    4  C4  UNL     1     -35.905   5.804   4.422  1.00 20.00     0.168 C 
HETATM    5  C5  UNL     1     -34.024   4.389   4.648  1.00 20.00     0.168 C 
HETATM    6  C6  UNL     1     -33.071   7.330   2.268  1.00 20.00     0.009 A 
HETATM    7  C7  UNL     1     -33.831   6.386   3.183  1.00 20.00    -0.032 A 
HETATM    8  O9  UNL     1     -35.446   4.452   4.508  1.00 20.00    -0.391 OA
ENDROOT
BRANCH   6   9
HETATM    9  C8  UNL     1     -31.838   6.921   1.538  1.00 20.00     0.120 C 
HETATM   10 CL10 UNL     1     -32.082   5.382   0.667  1.00 20.00    -0.130 Cl
ENDBRANCH   6   9
TORSDOF 1
ENDMDL
