MODEL 1
REMARK VINA RESULT:      -1.0      0.000      0.000
REMARK  3 active torsions:
REMARK  status: ('A' for Active; 'I' for Inactive)
REMARK    1  A    between atoms: C2_2  and  C7_7 
REMARK    2  A    between atoms: C3_3  and  C9_9 
REMARK    3  A    between atoms: C8_8  and  C9_9 
ROOT
HETATM    1  C1  UNL     1     -31.151   7.705   1.969  1.00 20.00     0.016 A 
HETATM    2  C2  UNL     1     -32.094   8.163   0.893  1.00 20.00     0.009 A 
HETATM    3  C3  UNL     1     -32.548   7.108   1.901  1.00 20.00    -0.036 A 
HETATM    4  C4  UNL     1     -32.686   5.694   1.404  1.00 20.00     0.016 C 
ENDROOT
BRANCH   3   5
HETATM    5  C9  UNL     1     -33.527   7.475   2.984  1.00 20.00    -0.010 C 
HETATM    6  C6  UNL     1     -34.350   6.246   3.409  1.00 20.00     0.011 C 
BRANCH   5   7
HETATM    7  C8  UNL     1     -32.853   8.085   4.237  1.00 20.00     0.000 C 
HETATM    8  C5  UNL     1     -33.823   8.321   5.385  1.00 20.00     0.005 C 
ENDBRANCH   5   7
ENDBRANCH   3   5
BRANCH   2   9
HETATM    9  C7  UNL     1     -32.617   9.558   0.896  1.00 20.00     0.120 C 
HETATM   10 CL10 UNL     1     -32.872  10.156  -0.767  1.00 20.00    -0.130 Cl
ENDBRANCH   2   9
TORSDOF 3
ENDMDL
MODEL 2
REMARK VINA RESULT:      -0.7      1.068      1.274
REMARK  3 active torsions:
REMARK  status: ('A' for Active; 'I' for Inactive)
REMARK    1  A    between atoms: C2_2  and  C7_7 
REMARK    2  A    between atoms: C3_3  and  C9_9 
REMARK    3  A    between atoms: C8_8  and  C9_9 
ROOT
HETATM    1  C1  UNL     1     -31.393   8.274   2.671  1.00 20.00     0.016 A 
HETATM    2  C2  UNL     1     -31.756   8.582   1.247  1.00 20.00     0.009 A 
HETATM    3  C3  UNL     1     -32.103   7.217   1.840  1.00 20.00    -0.036 A 
HETATM    4  C4  UNL     1     -31.298   6.036   1.366  1.00 20.00     0.016 C 
ENDROOT
BRANCH   3   5
HETATM    5  C9  UNL     1     -33.531   6.886   2.184  1.00 20.00    -0.010 C 
HETATM    6  C6  UNL     1     -33.799   5.383   1.994  1.00 20.00     0.011 C 
BRANCH   5   7
HETATM    7  C8  UNL     1     -33.919   7.288   3.627  1.00 20.00     0.000 C 
HETATM    8  C5  UNL     1     -35.123   6.523   4.159  1.00 20.00     0.005 C 
ENDBRANCH   5   7
ENDBRANCH   3   5
BRANCH   2   9
HETATM    9  C7  UNL     1     -32.788   9.612   0.940  1.00 20.00     0.120 C 
HETATM   10 CL10 UNL     1     -32.815  10.001  -0.803  1.00 20.00    -0.130 Cl
ENDBRANCH   2   9
TORSDOF 3
ENDMDL
MODEL 3
REMARK VINA RESULT:      -0.7      2.657      4.028
REMARK  3 active torsions:
REMARK  status: ('A' for Active; 'I' for Inactive)
REMARK    1  A    between atoms: C2_2  and  C7_7 
REMARK    2  A    between atoms: C3_3  and  C9_9 
REMARK    3  A    between atoms: C8_8  and  C9_9 
ROOT
HETATM    1  C1  UNL     1     -33.854   6.076   1.166  1.00 20.00     0.016 A 
HETATM    2  C2  UNL     1     -33.551   5.926   2.628  1.00 20.00     0.009 A 
HETATM    3  C3  UNL     1     -32.528   6.588   1.706  1.00 20.00    -0.036 A 
HETATM    4  C4  UNL     1     -31.286   5.803   1.379  1.00 20.00     0.016 C 
ENDROOT
BRANCH   3   5
HETATM    5  C9  UNL     1     -32.314   8.077   1.765  1.00 20.00    -0.010 C 
HETATM    6  C6  UNL     1     -31.169   8.421   2.733  1.00 20.00     0.011 C 
BRANCH   5   7
HETATM    7  C8  UNL     1     -32.011   8.705   0.383  1.00 20.00     0.000 C 
HETATM    8  C5  UNL     1     -32.569  10.112   0.229  1.00 20.00     0.005 C 
ENDBRANCH   5   7
ENDBRANCH   3   5
BRANCH   2   9
HETATM    9  C7  UNL     1     -34.334   6.688   3.641  1.00 20.00     0.120 C 
HETATM   10 CL10 UNL     1     -35.552   5.648   4.432  1.00 20.00    -0.130 Cl
ENDBRANCH   2   9
TORSDOF 3
ENDMDL
MODEL 4
REMARK VINA RESULT:      -0.3      1.548      2.491
REMARK  3 active torsions:
REMARK  status: ('A' for Active; 'I' for Inactive)
REMARK    1  A    between atoms: C2_2  and  C7_7 
REMARK    2  A    between atoms: C3_3  and  C9_9 
REMARK    3  A    between atoms: C8_8  and  C9_9 
ROOT
HETATM    1  C1  UNL     1     -31.535   5.577   1.605  1.00 20.00     0.016 A 
HETATM    2  C2  UNL     1     -32.217   6.865   1.243  1.00 20.00     0.009 A 
HETATM    3  C3  UNL     1     -33.035   5.707   1.814  1.00 20.00    -0.036 A 
HETATM    4  C4  UNL     1     -33.944   4.972   0.866  1.00 20.00     0.016 C 
ENDROOT
BRANCH   3   5
HETATM    5  C9  UNL     1     -33.549   5.775   3.228  1.00 20.00    -0.010 C 
HETATM    6  C6  UNL     1     -34.535   6.945   3.390  1.00 20.00     0.011 C 
BRANCH   5   7
HETATM    7  C8  UNL     1     -34.240   4.469   3.689  1.00 20.00     0.000 C 
HETATM    8  C5  UNL     1     -33.302   3.519   4.420  1.00 20.00     0.005 C 
ENDBRANCH   5   7
ENDBRANCH   3   5
BRANCH   2   9
HETATM    9  C7  UNL     1     -31.934   8.108   2.014  1.00 20.00     0.120 C 
HETATM   10 CL10 UNL     1     -32.283   9.565   1.041  1.00 20.00    -0.130 Cl
ENDBRANCH   2   9
TORSDOF 3
ENDMDL
MODEL 5
REMARK VINA RESULT:      -0.3      2.250      3.729
REMARK  3 active torsions:
REMARK  status: ('A' for Active; 'I' for Inactive)
REMARK    1  A    between atoms: C2_2  and  C7_7 
REMARK    2  A    between atoms: C3_3  and  C9_9 
REMARK    3  A    between atoms: C8_8  and  C9_9 
ROOT
HETATM    1  C1  UNL     1     -34.784   7.465   2.939  1.00 20.00     0.016 A 
HETATM    2  C2  UNL     1     -34.053   7.648   4.237  1.00 20.00     0.009 A 
HETATM    3  C3  UNL     1     -34.457   6.245   3.785  1.00 20.00    -0.036 A 
HETATM    4  C4  UNL     1     -35.585   5.580   4.527  1.00 20.00     0.016 C 
ENDROOT
BRANCH   3   5
HETATM    5  C9  UNL     1     -33.411   5.289   3.275  1.00 20.00    -0.010 C 
HETATM    6  C6  UNL     1     -33.680   3.866   3.793  1.00 20.00     0.011 C 
BRANCH   5   7
HETATM    7  C8  UNL     1     -33.320   5.252   1.730  1.00 20.00     0.000 C 
HETATM    8  C5  UNL     1     -31.894   5.373   1.211  1.00 20.00     0.005 C 
ENDBRANCH   5   7
ENDBRANCH   3   5
BRANCH   2   9
HETATM    9  C7  UNL     1     -32.639   8.116   4.245  1.00 20.00     0.120 C 
HETATM   10 CL10 UNL     1     -32.077   8.500   2.594  1.00 20.00    -0.130 Cl
ENDBRANCH   2   9
TORSDOF 3
ENDMDL
MODEL 6
REMARK VINA RESULT:       0.2      2.112      3.127
REMARK  3 active torsions:
REMARK  status: ('A' for Active; 'I' for Inactive)
REMARK    1  A    between atoms: C2_2  and  C7_7 
REMARK    2  A    between atoms: C3_3  and  C9_9 
REMARK    3  A    between atoms: C8_8  and  C9_9 
ROOT
HETATM    1  C1  UNL     1     -33.044   7.963   1.303  1.00 20.00     0.016 A 
HETATM    2  C2  UNL     1     -32.049   6.859   1.518  1.00 20.00     0.009 A 
HETATM    3  C3  UNL     1     -32.397   7.803   2.669  1.00 20.00    -0.036 A 
HETATM    4  C4  UNL     1     -31.352   8.808   3.075  1.00 20.00     0.016 C 
ENDROOT
BRANCH   3   5
HETATM    5  C9  UNL     1     -33.255   7.318   3.807  1.00 20.00    -0.010 C 
HETATM    6  C6  UNL     1     -33.136   8.263   5.015  1.00 20.00     0.011 C 
BRANCH   5   7
HETATM    7  C8  UNL     1     -34.748   7.174   3.426  1.00 20.00     0.000 C 
HETATM    8  C5  UNL     1     -35.424   5.984   4.092  1.00 20.00     0.005 C 
ENDBRANCH   5   7
ENDBRANCH   3   5
BRANCH   2   9
HETATM    9  C7  UNL     1     -32.486   5.435   1.485  1.00 20.00     0.120 C 
HETATM   10 CL10 UNL     1     -31.511   4.487   0.327  1.00 20.00    -0.130 Cl
ENDBRANCH   2   9
TORSDOF 3
ENDMDL
MODEL 7
REMARK VINA RESULT:       0.5      2.320      3.890
REMARK  3 active torsions:
REMARK  status: ('A' for Active; 'I' for Inactive)
REMARK    1  A    between atoms: C2_2  and  C7_7 
REMARK    2  A    between atoms: C3_3  and  C9_9 
REMARK    3  A    between atoms: C8_8  and  C9_9 
ROOT
HETATM    1  C1  UNL     1     -35.369   6.524   3.104  1.00 20.00     0.016 A 
HETATM    2  C2  UNL     1     -34.563   6.919   4.308  1.00 20.00     0.009 A 
HETATM    3  C3  UNL     1     -34.024   5.861   3.347  1.00 20.00    -0.036 A 
HETATM    4  C4  UNL     1     -34.018   4.434   3.826  1.00 20.00     0.016 C 
ENDROOT
BRANCH   3   5
HETATM    5  C9  UNL     1     -32.890   6.198   2.415  1.00 20.00    -0.010 C 
HETATM    6  C6  UNL     1     -32.688   5.078   1.380  1.00 20.00     0.011 C 
BRANCH   5   7
HETATM    7  C8  UNL     1     -33.090   7.540   1.671  1.00 20.00     0.000 C 
HETATM    8  C5  UNL     1     -31.799   8.326   1.493  1.00 20.00     0.005 C 
ENDBRANCH   5   7
ENDBRANCH   3   5
BRANCH   2   9
HETATM    9  C7  UNL     1     -33.982   8.288   4.407  1.00 20.00     0.120 C 
HETATM   10 CL10 UNL     1     -32.656   8.341   5.602  1.00 20.00    -0.130 Cl
ENDBRANCH   2   9
TORSDOF 3
ENDMDL
MODEL 8
REMARK VINA RESULT:       0.7      3.265      4.817
REMARK  3 active torsions:
REMARK  status: ('A' for Active; 'I' for Inactive)
REMARK    1  A    between atoms: C2_2  and  C7_7 
REMARK    2  A    between atoms: C3_3  and  C9_9 
REMARK    3  A    between atoms: C8_8  and  C9_9 
ROOT
HETATM    1  C1  UNL     1     -34.272   5.872   4.936  1.00 20.00     0.016 A 
HETATM    2  C2  UNL     1     -34.611   4.730   4.022  1.00 20.00     0.009 A 
HETATM    3  C3  UNL     1     -34.339   6.116   3.437  1.00 20.00    -0.036 A 
HETATM    4  C4  UNL     1     -35.520   6.880   2.901  1.00 20.00     0.016 C 
ENDROOT
BRANCH   3   5
HETATM    5  C9  UNL     1     -33.052   6.384   2.704  1.00 20.00    -0.010 C 
HETATM    6  C6  UNL     1     -33.125   5.844   1.265  1.00 20.00     0.011 C 
BRANCH   5   7
HETATM    7  C8  UNL     1     -32.676   7.884   2.659  1.00 20.00     0.000 C 
HETATM    8  C5  UNL     1     -31.904   8.272   1.406  1.00 20.00     0.005 C 
ENDBRANCH   5   7
ENDBRANCH   3   5
BRANCH   2   9
HETATM    9  C7  UNL     1     -33.667   3.589   3.862  1.00 20.00     0.120 C 
HETATM   10 CL10 UNL     1     -33.000   3.076   5.438  1.00 20.00    -0.130 Cl
ENDBRANCH   2   9
TORSDOF 3
ENDMDL
MODEL 9
REMARK VINA RESULT:       0.7      2.659      4.302
REMARK  3 active torsions:
REMARK  status: ('A' for Active; 'I' for Inactive)
REMARK    1  A    between atoms: C2_2  and  C7_7 
REMARK    2  A    between atoms: C3_3  and  C9_9 
REMARK    3  A    between atoms: C8_8  and  C9_9 
ROOT
HETATM    1  C1  UNL     1     -32.939   7.157   4.021  1.00 20.00     0.016 A 
HETATM    2  C2  UNL     1     -34.283   7.471   3.431  1.00 20.00     0.009 A 
HETATM    3  C3  UNL     1     -33.106   7.153   2.511  1.00 20.00    -0.036 A 
HETATM    4  C4  UNL     1     -32.511   8.296   1.733  1.00 20.00     0.016 C 
ENDROOT
BRANCH   3   5
HETATM    5  C9  UNL     1     -33.047   5.830   1.795  1.00 20.00    -0.010 C 
HETATM    6  C6  UNL     1     -33.733   5.926   0.421  1.00 20.00     0.011 C 
BRANCH   5   7
HETATM    7  C8  UNL     1     -31.604   5.305   1.600  1.00 20.00     0.000 C 
HETATM    8  C5  UNL     1     -31.456   4.392   0.391  1.00 20.00     0.005 C 
ENDBRANCH   5   7
ENDBRANCH   3   5
BRANCH   2   9
HETATM    9  C7  UNL     1     -35.427   6.538   3.628  1.00 20.00     0.120 C 
HETATM   10 CL10 UNL     1     -34.907   5.044   4.458  1.00 20.00    -0.130 Cl
ENDBRANCH   2   9
TORSDOF 3
ENDMDL
