MODEL 1
REMARK VINA RESULT:      -2.7      0.000      0.000
REMARK  4 active torsions:
REMARK  status: ('A' for Active; 'I' for Inactive)
REMARK    1  A    between atoms: C2_2  and  C6_6 
REMARK    2  A    between atoms: C3_3  and  C7_7 
REMARK    3  A    between atoms: C7_7  and  C8_8 
REMARK    4  A    between atoms: C8_8  and  O9_9 
ROOT
HETATM    1  C1  UNL     1     -35.468   6.374   3.627  1.00 20.00     0.016 A 
HETATM    2  C2  UNL     1     -34.410   5.522   4.265  1.00 20.00     0.008 A 
HETATM    3  C3  UNL     1     -34.027   6.855   3.638  1.00 20.00    -0.037 A 
HETATM    4  C4  UNL     1     -33.666   7.977   4.576  1.00 20.00     0.015 C 
ENDROOT
BRANCH   3   5
HETATM    5  C7  UNL     1     -33.283   6.889   2.330  1.00 20.00     0.035 C 
BRANCH   5   6
HETATM    6  C8  UNL     1     -32.251   8.012   2.279  1.00 20.00     0.167 C 
BRANCH   6   7
HETATM    7  O9  UNL     1     -31.935   8.296   0.923  1.00 20.00    -0.396 OA
HETATM    8  C5  UNL     1     -32.368   9.597   0.548  1.00 20.00     0.201 C 
ENDBRANCH   6   7
ENDBRANCH   5   6
ENDBRANCH   3   5
BRANCH   2   9
HETATM    9  C6  UNL     1     -34.033   4.213   3.662  1.00 20.00     0.120 C 
HETATM   10 CL10 UNL     1     -33.279   3.136   4.871  1.00 20.00    -0.130 Cl
ENDBRANCH   2   9
TORSDOF 4
ENDMDL
MODEL 2
REMARK VINA RESULT:      -1.9      0.963      1.372
REMARK  4 active torsions:
REMARK  status: ('A' for Active; 'I' for Inactive)
REMARK    1  A    between atoms: C2_2  and  C6_6 
REMARK    2  A    between atoms: C3_3  and  C7_7 
REMARK    3  A    between atoms: C7_7  and  C8_8 
REMARK    4  A    between atoms: C8_8  and  O9_9 
ROOT
HETATM    1  C1  UNL     1     -35.609   6.131   3.947  1.00 20.00     0.016 A 
HETATM    2  C2  UNL     1     -34.385   5.383   4.392  1.00 20.00     0.008 A 
HETATM    3  C3  UNL     1     -34.235   6.742   3.722  1.00 20.00    -0.037 A 
HETATM    4  C4  UNL     1     -33.826   7.898   4.596  1.00 20.00     0.015 C 
ENDROOT
BRANCH   3   5
HETATM    5  C7  UNL     1     -33.726   6.834   2.308  1.00 20.00     0.035 C 
BRANCH   5   6
HETATM    6  C8  UNL     1     -32.475   7.700   2.198  1.00 20.00     0.167 C 
BRANCH   6   7
HETATM    7  O9  UNL     1     -31.473   6.989   1.484  1.00 20.00    -0.396 OA
HETATM    8  C5  UNL     1     -31.909   5.682   1.137  1.00 20.00     0.201 C 
ENDBRANCH   6   7
ENDBRANCH   5   6
ENDBRANCH   3   5
BRANCH   2   9
HETATM    9  C6  UNL     1     -33.997   4.110   3.723  1.00 20.00     0.120 C 
HETATM   10 CL10 UNL     1     -33.191   2.998   4.865  1.00 20.00    -0.130 Cl
ENDBRANCH   2   9
TORSDOF 4
ENDMDL
MODEL 3
REMARK VINA RESULT:      -1.7      3.217      4.757
REMARK  4 active torsions:
REMARK  status: ('A' for Active; 'I' for Inactive)
REMARK    1  A    between atoms: C2_2  and  C6_6 
REMARK    2  A    between atoms: C3_3  and  C7_7 
REMARK    3  A    between atoms: C7_7  and  C8_8 
REMARK    4  A    between atoms: C8_8  and  O9_9 
ROOT
HETATM    1  C1  UNL     1     -33.338   7.741   4.299  1.00 20.00     0.016 A 
HETATM    2  C2  UNL     1     -33.436   7.882   2.808  1.00 20.00     0.008 A 
HETATM    3  C3  UNL     1     -34.138   6.724   3.503  1.00 20.00    -0.037 A 
HETATM    4  C4  UNL     1     -35.640   6.784   3.592  1.00 20.00     0.015 C 
ENDROOT
BRANCH   3   5
HETATM    5  C7  UNL     1     -33.588   5.327   3.384  1.00 20.00     0.035 C 
BRANCH   5   6
HETATM    6  C8  UNL     1     -34.369   4.323   4.226  1.00 20.00     0.167 C 
BRANCH   6   7
HETATM    7  O9  UNL     1     -33.745   3.050   4.137  1.00 20.00    -0.396 OA
HETATM    8  C5  UNL     1     -32.776   2.872   5.163  1.00 20.00     0.201 C 
ENDBRANCH   6   7
ENDBRANCH   5   6
ENDBRANCH   3   5
BRANCH   2   9
HETATM    9  C6  UNL     1     -32.231   7.695   1.953  1.00 20.00     0.120 C 
HETATM   10 CL10 UNL     1     -32.094   8.994   0.734  1.00 20.00    -0.130 Cl
ENDBRANCH   2   9
TORSDOF 4
ENDMDL
MODEL 4
REMARK VINA RESULT:      -0.6      1.893      2.689
REMARK  4 active torsions:
REMARK  status: ('A' for Active; 'I' for Inactive)
REMARK    1  A    between atoms: C2_2  and  C6_6 
REMARK    2  A    between atoms: C3_3  and  C7_7 
REMARK    3  A    between atoms: C7_7  and  C8_8 
REMARK    4  A    between atoms: C8_8  and  O9_9 
ROOT
HETATM    1  C1  UNL     1     -33.137   5.485   3.442  1.00 20.00     0.016 A 
HETATM    2  C2  UNL     1     -34.284   6.360   3.027  1.00 20.00     0.008 A 
HETATM    3  C3  UNL     1     -33.010   6.342   2.194  1.00 20.00    -0.037 A 
HETATM    4  C4  UNL     1     -33.073   5.653   0.856  1.00 20.00     0.015 C 
ENDROOT
BRANCH   3   5
HETATM    5  C7  UNL     1     -32.065   7.514   2.234  1.00 20.00     0.035 C 
BRANCH   5   6
HETATM    6  C8  UNL     1     -31.910   8.180   0.870  1.00 20.00     0.167 C 
BRANCH   6   7
HETATM    7  O9  UNL     1     -32.371   9.522   0.949  1.00 20.00    -0.396 OA
HETATM    8  C5  UNL     1     -32.655  10.053  -0.338  1.00 20.00     0.201 C 
ENDBRANCH   6   7
ENDBRANCH   5   6
ENDBRANCH   3   5
BRANCH   2   9
HETATM    9  C6  UNL     1     -34.681   7.527   3.864  1.00 20.00     0.120 C 
HETATM   10 CL10 UNL     1     -33.447   7.883   5.105  1.00 20.00    -0.130 Cl
ENDBRANCH   2   9
TORSDOF 4
ENDMDL
MODEL 5
REMARK VINA RESULT:      -0.5      3.375      4.948
REMARK  4 active torsions:
REMARK  status: ('A' for Active; 'I' for Inactive)
REMARK    1  A    between atoms: C2_2  and  C6_6 
REMARK    2  A    between atoms: C3_3  and  C7_7 
REMARK    3  A    between atoms: C7_7  and  C8_8 
REMARK    4  A    between atoms: C8_8  and  O9_9 
ROOT
HETATM    1  C1  UNL     1     -31.382   8.168   2.759  1.00 20.00     0.016 A 
HETATM    2  C2  UNL     1     -32.353   8.809   1.809  1.00 20.00     0.008 A 
HETATM    3  C3  UNL     1     -32.770   7.572   2.593  1.00 20.00    -0.037 A 
HETATM    4  C4  UNL     1     -33.759   7.770   3.712  1.00 20.00     0.015 C 
ENDROOT
BRANCH   3   5
HETATM    5  C7  UNL     1     -32.891   6.242   1.898  1.00 20.00     0.035 C 
BRANCH   5   6
HETATM    6  C8  UNL     1     -33.845   5.295   2.621  1.00 20.00     0.167 C 
BRANCH   6   7
HETATM    7  O9  UNL     1     -33.091   4.365   3.385  1.00 20.00    -0.396 OA
HETATM    8  C5  UNL     1     -33.886   3.750   4.391  1.00 20.00     0.201 C 
ENDBRANCH   6   7
ENDBRANCH   5   6
ENDBRANCH   3   5
BRANCH   2   9
HETATM    9  C6  UNL     1     -32.099   8.782   0.341  1.00 20.00     0.120 C 
HETATM   10 CL10 UNL     1     -32.828  10.197  -0.467  1.00 20.00    -0.130 Cl
ENDBRANCH   2   9
TORSDOF 4
ENDMDL
MODEL 6
REMARK VINA RESULT:      -0.4      1.635      1.678
REMARK  4 active torsions:
REMARK  status: ('A' for Active; 'I' for Inactive)
REMARK    1  A    between atoms: C2_2  and  C6_6 
REMARK    2  A    between atoms: C3_3  and  C7_7 
REMARK    3  A    between atoms: C7_7  and  C8_8 
REMARK    4  A    between atoms: C8_8  and  O9_9 
ROOT
HETATM    1  C1  UNL     1     -35.050   6.589   3.760  1.00 20.00     0.016 A 
HETATM    2  C2  UNL     1     -33.760   5.921   3.380  1.00 20.00     0.008 A 
HETATM    3  C3  UNL     1     -33.778   7.416   3.669  1.00 20.00    -0.037 A 
HETATM    4  C4  UNL     1     -33.142   7.874   4.956  1.00 20.00     0.015 C 
ENDROOT
BRANCH   3   5
HETATM    5  C7  UNL     1     -33.656   8.405   2.541  1.00 20.00     0.035 C 
BRANCH   5   6
HETATM    6  C8  UNL     1     -32.203   8.674   2.161  1.00 20.00     0.167 C 
BRANCH   6   7
HETATM    7  O9  UNL     1     -32.098   8.765   0.746  1.00 20.00    -0.396 OA
HETATM    8  C5  UNL     1     -32.493  10.046   0.275  1.00 20.00     0.201 C 
ENDBRANCH   6   7
ENDBRANCH   5   6
ENDBRANCH   3   5
BRANCH   2   9
HETATM    9  C6  UNL     1     -33.574   5.370   2.008  1.00 20.00     0.120 C 
HETATM   10 CL10 UNL     1     -31.848   5.345   1.550  1.00 20.00    -0.130 Cl
ENDBRANCH   2   9
TORSDOF 4
ENDMDL
MODEL 7
REMARK VINA RESULT:      -0.3      3.402      4.915
REMARK  4 active torsions:
REMARK  status: ('A' for Active; 'I' for Inactive)
REMARK    1  A    between atoms: C2_2  and  C6_6 
REMARK    2  A    between atoms: C3_3  and  C7_7 
REMARK    3  A    between atoms: C7_7  and  C8_8 
REMARK    4  A    between atoms: C8_8  and  O9_9 
ROOT
HETATM    1  C1  UNL     1     -31.511   7.164   1.847  1.00 20.00     0.016 A 
HETATM    2  C2  UNL     1     -31.945   8.553   1.477  1.00 20.00     0.008 A 
HETATM    3  C3  UNL     1     -32.546   7.877   2.701  1.00 20.00    -0.037 A 
HETATM    4  C4  UNL     1     -32.115   8.388   4.051  1.00 20.00     0.015 C 
ENDROOT
BRANCH   3   5
HETATM    5  C7  UNL     1     -33.964   7.369   2.664  1.00 20.00     0.035 C 
BRANCH   5   6
HETATM    6  C8  UNL     1     -34.556   7.203   4.061  1.00 20.00     0.167 C 
BRANCH   6   7
HETATM    7  O9  UNL     1     -35.355   6.028   4.094  1.00 20.00    -0.396 OA
HETATM    8  C5  UNL     1     -34.555   4.855   4.158  1.00 20.00     0.201 C 
ENDBRANCH   6   7
ENDBRANCH   5   6
ENDBRANCH   3   5
BRANCH   2   9
HETATM    9  C6  UNL     1     -32.722   8.791   0.228  1.00 20.00     0.120 C 
HETATM   10 CL10 UNL     1     -32.761  10.527  -0.189  1.00 20.00    -0.130 Cl
ENDBRANCH   2   9
TORSDOF 4
ENDMDL
MODEL 8
REMARK VINA RESULT:      -0.2      1.619      2.448
REMARK  4 active torsions:
REMARK  status: ('A' for Active; 'I' for Inactive)
REMARK    1  A    between atoms: C2_2  and  C6_6 
REMARK    2  A    between atoms: C3_3  and  C7_7 
REMARK    3  A    between atoms: C7_7  and  C8_8 
REMARK    4  A    between atoms: C8_8  and  O9_9 
ROOT
HETATM    1  C1  UNL     1     -32.685   5.161   2.958  1.00 20.00     0.016 A 
HETATM    2  C2  UNL     1     -34.073   5.676   2.707  1.00 20.00     0.008 A 
HETATM    3  C3  UNL     1     -32.895   6.290   1.963  1.00 20.00    -0.037 A 
HETATM    4  C4  UNL     1     -32.766   5.968   0.497  1.00 20.00     0.015 C 
ENDROOT
BRANCH   3   5
HETATM    5  C7  UNL     1     -32.399   7.662   2.334  1.00 20.00     0.035 C 
BRANCH   5   6
HETATM    6  C8  UNL     1     -31.783   8.396   1.147  1.00 20.00     0.167 C 
BRANCH   6   7
HETATM    7  O9  UNL     1     -32.428   9.652   0.986  1.00 20.00    -0.396 OA
HETATM    8  C5  UNL     1     -32.641   9.957  -0.386  1.00 20.00     0.201 C 
ENDBRANCH   6   7
ENDBRANCH   5   6
ENDBRANCH   3   5
BRANCH   2   9
HETATM    9  C6  UNL     1     -34.812   6.401   3.778  1.00 20.00     0.120 C 
HETATM   10 CL10 UNL     1     -35.665   5.263   4.859  1.00 20.00    -0.130 Cl
ENDBRANCH   2   9
TORSDOF 4
ENDMDL
MODEL 9
REMARK VINA RESULT:      -0.1      3.388      4.889
REMARK  4 active torsions:
REMARK  status: ('A' for Active; 'I' for Inactive)
REMARK    1  A    between atoms: C2_2  and  C6_6 
REMARK    2  A    between atoms: C3_3  and  C7_7 
REMARK    3  A    between atoms: C7_7  and  C8_8 
REMARK    4  A    between atoms: C8_8  and  O9_9 
ROOT
HETATM    1  C1  UNL     1     -33.270   6.583   0.473  1.00 20.00     0.016 A 
HETATM    2  C2  UNL     1     -32.051   7.197   1.099  1.00 20.00     0.008 A 
HETATM    3  C3  UNL     1     -32.661   5.944   1.710  1.00 20.00    -0.037 A 
HETATM    4  C4  UNL     1     -31.903   4.654   1.536  1.00 20.00     0.015 C 
ENDROOT
BRANCH   3   5
HETATM    5  C7  UNL     1     -33.430   6.031   3.002  1.00 20.00     0.035 C 
BRANCH   5   6
HETATM    6  C8  UNL     1     -33.793   4.656   3.554  1.00 20.00     0.167 C 
BRANCH   6   7
HETATM    7  O9  UNL     1     -34.995   4.755   4.305  1.00 20.00    -0.396 OA
HETATM    8  C5  UNL     1     -35.533   6.070   4.258  1.00 20.00     0.201 C 
ENDBRANCH   6   7
ENDBRANCH   5   6
ENDBRANCH   3   5
BRANCH   2   9
HETATM    9  C6  UNL     1     -32.133   8.533   1.754  1.00 20.00     0.120 C 
HETATM   10 CL10 UNL     1     -32.433   9.823   0.557  1.00 20.00    -0.130 Cl
ENDBRANCH   2   9
TORSDOF 4
ENDMDL
