MODEL 1
REMARK VINA RESULT:       0.7      0.000      0.000
REMARK  1 active torsions:
REMARK  status: ('A' for Active; 'I' for Inactive)
REMARK    1  A    between atoms: C5_5  and  C10_10 
ROOT
HETATM    1  C1  UNL     1     -32.970   6.197   1.789  1.00 20.00     0.011 C 
HETATM    2  C2  UNL     1     -33.811   5.306   2.707  1.00 20.00     0.009 C 
HETATM    3  C3  UNL     1     -31.354   8.019   2.747  1.00 20.00     0.016 A 
HETATM    4  C4  UNL     1     -33.669   7.442   3.804  1.00 20.00     0.018 C 
HETATM    5  C5  UNL     1     -32.379   8.769   1.945  1.00 20.00     0.005 A 
HETATM    6  C6  UNL     1     -32.750   7.450   2.601  1.00 20.00    -0.035 A 
HETATM    7  C7  UNL     1     -34.662   6.290   3.528  1.00 20.00    -0.047 C 
HETATM    8  C8  UNL     1     -35.870   6.791   2.720  1.00 20.00     0.015 C 
HETATM    9  C9  UNL     1     -35.155   5.649   4.828  1.00 20.00     0.015 C 
ENDROOT
BRANCH   5  10
HETATM   10  C10 UNL     1     -32.214   8.904   0.470  1.00 20.00     0.090 C 
HETATM   11 BR11 UNL     1     -32.774  10.677  -0.120  1.00 20.00    -0.096 Br
ENDBRANCH   5  10
TORSDOF 1
ENDMDL
MODEL 2
REMARK VINA RESULT:       1.5      3.013      4.721
REMARK  1 active torsions:
REMARK  status: ('A' for Active; 'I' for Inactive)
REMARK    1  A    between atoms: C5_5  and  C10_10 
ROOT
HETATM    1  C1  UNL     1     -33.894   5.830   1.575  1.00 20.00     0.011 C 
HETATM    2  C2  UNL     1     -33.332   7.008   0.776  1.00 20.00     0.009 C 
HETATM    3  C3  UNL     1     -35.237   6.189   3.792  1.00 20.00     0.016 A 
HETATM    4  C4  UNL     1     -33.190   7.648   3.090  1.00 20.00     0.018 C 
HETATM    5  C5  UNL     1     -34.015   5.410   4.182  1.00 20.00     0.005 A 
HETATM    6  C6  UNL     1     -33.962   6.349   2.990  1.00 20.00    -0.035 A 
HETATM    7  C7  UNL     1     -32.403   7.737   1.763  1.00 20.00    -0.047 C 
HETATM    8  C8  UNL     1     -31.047   7.024   1.883  1.00 20.00     0.015 C 
HETATM    9  C9  UNL     1     -32.174   9.190   1.341  1.00 20.00     0.015 C 
ENDROOT
BRANCH   5  10
HETATM   10  C10 UNL     1     -33.998   3.928   4.027  1.00 20.00     0.090 C 
HETATM   11 BR11 UNL     1     -32.780   3.120   5.319  1.00 20.00    -0.096 Br
ENDBRANCH   5  10
TORSDOF 1
ENDMDL
MODEL 3
REMARK VINA RESULT:       2.3      2.352      4.473
REMARK  1 active torsions:
REMARK  status: ('A' for Active; 'I' for Inactive)
REMARK    1  A    between atoms: C5_5  and  C10_10 
ROOT
HETATM    1  C1  UNL     1     -31.600   7.770   2.402  1.00 20.00     0.011 C 
HETATM    2  C2  UNL     1     -31.195   9.030   1.633  1.00 20.00     0.009 C 
HETATM    3  C3  UNL     1     -32.131   5.522   1.173  1.00 20.00     0.016 A 
HETATM    4  C4  UNL     1     -32.765   7.870   0.227  1.00 20.00     0.018 C 
HETATM    5  C5  UNL     1     -33.406   5.919   1.859  1.00 20.00     0.005 A 
HETATM    6  C6  UNL     1     -32.426   6.988   1.410  1.00 20.00    -0.035 A 
HETATM    7  C7  UNL     1     -32.373   9.295   0.678  1.00 20.00    -0.047 C 
HETATM    8  C8  UNL     1     -33.540   9.978   1.408  1.00 20.00     0.015 C 
HETATM    9  C9  UNL     1     -31.942  10.162  -0.507  1.00 20.00     0.015 C 
ENDROOT
BRANCH   5  10
HETATM   10  C10 UNL     1     -33.613   5.582   3.296  1.00 20.00     0.090 C 
HETATM   11 BR11 UNL     1     -35.139   6.562   4.014  1.00 20.00    -0.096 Br
ENDBRANCH   5  10
TORSDOF 1
ENDMDL
MODEL 4
REMARK VINA RESULT:       2.9      1.850      2.979
REMARK  1 active torsions:
REMARK  status: ('A' for Active; 'I' for Inactive)
REMARK    1  A    between atoms: C5_5  and  C10_10 
ROOT
HETATM    1  C1  UNL     1     -34.256   5.912   3.562  1.00 20.00     0.011 C 
HETATM    2  C2  UNL     1     -34.617   4.596   4.256  1.00 20.00     0.009 C 
HETATM    3  C3  UNL     1     -33.335   5.966   1.113  1.00 20.00     0.016 A 
HETATM    4  C4  UNL     1     -32.734   4.106   2.842  1.00 20.00     0.018 C 
HETATM    5  C5  UNL     1     -32.239   6.530   1.970  1.00 20.00     0.005 A 
HETATM    6  C6  UNL     1     -33.206   5.515   2.553  1.00 20.00    -0.035 A 
HETATM    7  C7  UNL     1     -33.313   3.778   4.237  1.00 20.00    -0.047 C 
HETATM    8  C8  UNL     1     -32.353   4.233   5.348  1.00 20.00     0.015 C 
HETATM    9  C9  UNL     1     -33.593   2.282   4.393  1.00 20.00     0.015 C 
ENDROOT
BRANCH   5  10
HETATM   10  C10 UNL     1     -32.266   7.968   2.358  1.00 20.00     0.090 C 
HETATM   11 BR11 UNL     1     -32.192   9.104   0.774  1.00 20.00    -0.096 Br
ENDBRANCH   5  10
TORSDOF 1
ENDMDL
MODEL 5
REMARK VINA RESULT:       3.6      1.381      1.699
REMARK  1 active torsions:
REMARK  status: ('A' for Active; 'I' for Inactive)
REMARK    1  A    between atoms: C5_5  and  C10_10 
ROOT
HETATM    1  C1  UNL     1     -31.317   6.582   1.333  1.00 20.00     0.011 C 
HETATM    2  C2  UNL     1     -31.794   5.214   1.828  1.00 20.00     0.009 C 
HETATM    3  C3  UNL     1     -31.562   8.735   2.800  1.00 20.00     0.016 A 
HETATM    4  C4  UNL     1     -33.336   6.823   2.735  1.00 20.00     0.018 C 
HETATM    5  C5  UNL     1     -32.399   8.982   1.577  1.00 20.00     0.005 A 
HETATM    6  C6  UNL     1     -32.191   7.563   2.077  1.00 20.00    -0.035 A 
HETATM    7  C7  UNL     1     -33.294   5.407   2.114  1.00 20.00    -0.047 C 
HETATM    8  C8  UNL     1     -34.120   5.354   0.820  1.00 20.00     0.015 C 
HETATM    9  C9  UNL     1     -33.814   4.349   3.090  1.00 20.00     0.015 C 
ENDROOT
BRANCH   5  10
HETATM   10  C10 UNL     1     -31.759   9.487   0.330  1.00 20.00     0.090 C 
HETATM   11 BR11 UNL     1     -33.008  10.599  -0.675  1.00 20.00    -0.096 Br
ENDBRANCH   5  10
TORSDOF 1
ENDMDL
