MODEL 1
REMARK VINA RESULT:      -2.0      0.000      0.000
REMARK  3 active torsions:
REMARK  status: ('A' for Active; 'I' for Inactive)
REMARK    1  A    between atoms: C2_2  and  C6_6 
REMARK    2  A    between atoms: C3_3  and  C7_7 
REMARK    3  A    between atoms: C3_3  and  C8_8 
ROOT
HETATM    1  C1  UNL     1     -31.217   7.720   1.930  1.00 20.00     0.016 A 
HETATM    2  C2  UNL     1     -32.257   8.293   1.005  1.00 20.00     0.009 A 
HETATM    3  C3  UNL     1     -32.664   7.305   2.086  1.00 20.00    -0.036 A 
ENDROOT
BRANCH   3   4
HETATM    4  C7  UNL     1     -33.409   7.783   3.304  1.00 20.00     0.005 C 
HETATM    5  C4  UNL     1     -34.467   6.813   3.746  1.00 20.00     0.006 C 
ENDBRANCH   3   4
BRANCH   3   6
HETATM    6  C8  UNL     1     -33.052   5.920   1.637  1.00 20.00     0.005 C 
HETATM    7  C5  UNL     1     -31.864   5.093   1.240  1.00 20.00     0.006 C 
ENDBRANCH   3   6
BRANCH   2   8
HETATM    8  C6  UNL     1     -32.601   9.742   1.068  1.00 20.00     0.120 C 
HETATM    9 CL9  UNL     1     -32.921  10.402  -0.559  1.00 20.00    -0.130 Cl
ENDBRANCH   2   8
TORSDOF 3
ENDMDL
MODEL 2
REMARK VINA RESULT:      -1.2      3.264      4.295
REMARK  3 active torsions:
REMARK  status: ('A' for Active; 'I' for Inactive)
REMARK    1  A    between atoms: C2_2  and  C6_6 
REMARK    2  A    between atoms: C3_3  and  C7_7 
REMARK    3  A    between atoms: C3_3  and  C8_8 
ROOT
HETATM    1  C1  UNL     1     -33.660   5.591   1.611  1.00 20.00     0.016 A 
HETATM    2  C2  UNL     1     -33.108   5.073   2.912  1.00 20.00     0.009 A 
HETATM    3  C3  UNL     1     -33.277   6.568   2.700  1.00 20.00    -0.036 A 
ENDROOT
BRANCH   3   4
HETATM    4  C7  UNL     1     -34.381   7.311   3.405  1.00 20.00     0.005 C 
HETATM    5  C4  UNL     1     -33.912   7.975   4.666  1.00 20.00     0.006 C 
ENDBRANCH   3   4
BRANCH   3   6
HETATM    6  C8  UNL     1     -32.022   7.380   2.508  1.00 20.00     0.005 C 
HETATM    7  C5  UNL     1     -32.129   8.336   1.356  1.00 20.00     0.006 C 
ENDBRANCH   3   6
BRANCH   2   8
HETATM    8  C6  UNL     1     -33.974   4.288   3.836  1.00 20.00     0.120 C 
HETATM    9 CL9  UNL     1     -33.034   3.042   4.702  1.00 20.00    -0.130 Cl
ENDBRANCH   2   8
TORSDOF 3
ENDMDL
MODEL 3
REMARK VINA RESULT:      -1.1      1.126      2.328
REMARK  3 active torsions:
REMARK  status: ('A' for Active; 'I' for Inactive)
REMARK    1  A    between atoms: C2_2  and  C6_6 
REMARK    2  A    between atoms: C3_3  and  C7_7 
REMARK    3  A    between atoms: C3_3  and  C8_8 
ROOT
HETATM    1  C1  UNL     1     -32.813   6.060   2.294  1.00 20.00     0.016 A 
HETATM    2  C2  UNL     1     -33.083   7.424   1.719  1.00 20.00     0.009 A 
HETATM    3  C3  UNL     1     -33.506   7.104   3.143  1.00 20.00    -0.036 A 
ENDROOT
BRANCH   3   4
HETATM    4  C7  UNL     1     -32.749   7.687   4.306  1.00 20.00     0.005 C 
HETATM    5  C4  UNL     1     -33.647   8.397   5.277  1.00 20.00     0.006 C 
ENDBRANCH   3   4
BRANCH   3   6
HETATM    6  C8  UNL     1     -34.982   6.936   3.398  1.00 20.00     0.005 C 
HETATM    7  C5  UNL     1     -35.291   5.686   4.170  1.00 20.00     0.006 C 
ENDBRANCH   3   6
BRANCH   2   8
HETATM    8  C6  UNL     1     -31.954   8.344   1.403  1.00 20.00     0.120 C 
HETATM    9 CL9  UNL     1     -32.473   9.654   0.308  1.00 20.00    -0.130 Cl
ENDBRANCH   2   8
TORSDOF 3
ENDMDL
MODEL 4
REMARK VINA RESULT:      -0.9      2.247      3.537
REMARK  3 active torsions:
REMARK  status: ('A' for Active; 'I' for Inactive)
REMARK    1  A    between atoms: C2_2  and  C6_6 
REMARK    2  A    between atoms: C3_3  and  C7_7 
REMARK    3  A    between atoms: C3_3  and  C8_8 
ROOT
HETATM    1  C1  UNL     1     -31.751   8.576   2.931  1.00 20.00     0.016 A 
HETATM    2  C2  UNL     1     -33.196   8.167   3.030  1.00 20.00     0.009 A 
HETATM    3  C3  UNL     1     -32.361   7.723   1.840  1.00 20.00    -0.036 A 
ENDROOT
BRANCH   3   4
HETATM    4  C7  UNL     1     -31.909   6.291   1.727  1.00 20.00     0.005 C 
HETATM    5  C4  UNL     1     -32.853   5.454   0.912  1.00 20.00     0.006 C 
ENDBRANCH   3   4
BRANCH   3   6
HETATM    6  C8  UNL     1     -32.653   8.378   0.515  1.00 20.00     0.005 C 
HETATM    7  C5  UNL     1     -32.232   9.818   0.482  1.00 20.00     0.006 C 
ENDBRANCH   3   6
BRANCH   2   8
HETATM    8  C6  UNL     1     -33.639   7.226   4.098  1.00 20.00     0.120 C 
HETATM    9 CL9  UNL     1     -35.245   6.540   3.730  1.00 20.00    -0.130 Cl
ENDBRANCH   2   8
TORSDOF 3
ENDMDL
MODEL 5
REMARK VINA RESULT:      -0.7      2.670      3.981
REMARK  3 active torsions:
REMARK  status: ('A' for Active; 'I' for Inactive)
REMARK    1  A    between atoms: C2_2  and  C6_6 
REMARK    2  A    between atoms: C3_3  and  C7_7 
REMARK    3  A    between atoms: C3_3  and  C8_8 
ROOT
HETATM    1  C1  UNL     1     -32.854   6.880   4.073  1.00 20.00     0.016 A 
HETATM    2  C2  UNL     1     -34.172   7.488   3.675  1.00 20.00     0.009 A 
HETATM    3  C3  UNL     1     -33.049   7.376   2.657  1.00 20.00    -0.036 A 
ENDROOT
BRANCH   3   4
HETATM    4  C7  UNL     1     -33.128   6.353   1.555  1.00 20.00     0.005 C 
HETATM    5  C4  UNL     1     -31.985   5.381   1.591  1.00 20.00     0.006 C 
ENDBRANCH   3   4
BRANCH   3   6
HETATM    6  C8  UNL     1     -32.356   8.653   2.256  1.00 20.00     0.005 C 
HETATM    7  C5  UNL     1     -32.311   8.837   0.767  1.00 20.00     0.006 C 
ENDBRANCH   3   6
BRANCH   2   8
HETATM    8  C6  UNL     1     -35.400   6.647   3.614  1.00 20.00     0.120 C 
HETATM    9 CL9  UNL     1     -35.141   5.066   4.400  1.00 20.00    -0.130 Cl
ENDBRANCH   2   8
TORSDOF 3
ENDMDL
MODEL 6
REMARK VINA RESULT:      -0.6      2.927      3.972
REMARK  3 active torsions:
REMARK  status: ('A' for Active; 'I' for Inactive)
REMARK    1  A    between atoms: C2_2  and  C6_6 
REMARK    2  A    between atoms: C3_3  and  C7_7 
REMARK    3  A    between atoms: C3_3  and  C8_8 
ROOT
HETATM    1  C1  UNL     1     -35.406   6.409   3.112  1.00 20.00     0.016 A 
HETATM    2  C2  UNL     1     -34.600   6.958   4.258  1.00 20.00     0.009 A 
HETATM    3  C3  UNL     1     -34.243   5.609   3.658  1.00 20.00    -0.036 A 
ENDROOT
BRANCH   3   4
HETATM    4  C7  UNL     1     -33.016   5.466   2.796  1.00 20.00     0.005 C 
HETATM    5  C4  UNL     1     -33.303   5.717   1.344  1.00 20.00     0.006 C 
ENDBRANCH   3   4
BRANCH   3   6
HETATM    6  C8  UNL     1     -34.555   4.387   4.483  1.00 20.00     0.005 C 
HETATM    7  C5  UNL     1     -33.486   3.338   4.379  1.00 20.00     0.006 C 
ENDBRANCH   3   6
BRANCH   2   8
HETATM    8  C6  UNL     1     -33.756   8.172   4.069  1.00 20.00     0.120 C 
HETATM    9 CL9  UNL     1     -32.733   8.478   5.500  1.00 20.00    -0.130 Cl
ENDBRANCH   2   8
TORSDOF 3
ENDMDL
MODEL 7
REMARK VINA RESULT:      -0.5      3.475      4.615
REMARK  3 active torsions:
REMARK  status: ('A' for Active; 'I' for Inactive)
REMARK    1  A    between atoms: C2_2  and  C6_6 
REMARK    2  A    between atoms: C3_3  and  C7_7 
REMARK    3  A    between atoms: C3_3  and  C8_8 
ROOT
HETATM    1  C1  UNL     1     -33.747   5.544   2.136  1.00 20.00     0.016 A 
HETATM    2  C2  UNL     1     -33.229   5.000   3.441  1.00 20.00     0.009 A 
HETATM    3  C3  UNL     1     -33.876   6.375   3.395  1.00 20.00    -0.036 A 
ENDROOT
BRANCH   3   4
HETATM    4  C7  UNL     1     -35.252   6.582   3.968  1.00 20.00     0.005 C 
HETATM    5  C4  UNL     1     -36.274   6.886   2.911  1.00 20.00     0.006 C 
ENDBRANCH   3   4
BRANCH   3   6
HETATM    6  C8  UNL     1     -32.965   7.566   3.547  1.00 20.00     0.005 C 
HETATM    7  C5  UNL     1     -32.291   7.941   2.259  1.00 20.00     0.006 C 
ENDBRANCH   3   6
BRANCH   2   8
HETATM    8  C6  UNL     1     -33.885   3.823   4.078  1.00 20.00     0.120 C 
HETATM    9 CL9  UNL     1     -32.740   2.925   5.111  1.00 20.00    -0.130 Cl
ENDBRANCH   2   8
TORSDOF 3
ENDMDL
MODEL 8
REMARK VINA RESULT:      -0.4      2.508      3.565
REMARK  3 active torsions:
REMARK  status: ('A' for Active; 'I' for Inactive)
REMARK    1  A    between atoms: C2_2  and  C6_6 
REMARK    2  A    between atoms: C3_3  and  C7_7 
REMARK    3  A    between atoms: C3_3  and  C8_8 
ROOT
HETATM    1  C1  UNL     1     -33.760   6.320   1.161  1.00 20.00     0.016 A 
HETATM    2  C2  UNL     1     -33.535   6.016   2.618  1.00 20.00     0.009 A 
HETATM    3  C3  UNL     1     -32.388   6.528   1.764  1.00 20.00    -0.036 A 
ENDROOT
BRANCH   3   4
HETATM    4  C7  UNL     1     -31.895   7.941   1.929  1.00 20.00     0.005 C 
HETATM    5  C4  UNL     1     -32.167   8.789   0.720  1.00 20.00     0.006 C 
ENDBRANCH   3   4
BRANCH   3   6
HETATM    6  C8  UNL     1     -31.305   5.542   1.407  1.00 20.00     0.005 C 
HETATM    7  C5  UNL     1     -31.769   4.516   0.414  1.00 20.00     0.006 C 
ENDBRANCH   3   6
BRANCH   2   8
HETATM    8  C6  UNL     1     -34.190   6.846   3.668  1.00 20.00     0.120 C 
HETATM    9 CL9  UNL     1     -35.610   6.014   4.359  1.00 20.00    -0.130 Cl
ENDBRANCH   2   8
TORSDOF 3
ENDMDL
MODEL 9
REMARK VINA RESULT:      -0.4      1.219      2.800
REMARK  3 active torsions:
REMARK  status: ('A' for Active; 'I' for Inactive)
REMARK    1  A    between atoms: C2_2  and  C6_6 
REMARK    2  A    between atoms: C3_3  and  C7_7 
REMARK    3  A    between atoms: C3_3  and  C8_8 
ROOT
HETATM    1  C1  UNL     1     -34.055   7.910   2.646  1.00 20.00     0.016 A 
HETATM    2  C2  UNL     1     -32.590   7.707   2.929  1.00 20.00     0.009 A 
HETATM    3  C3  UNL     1     -33.468   6.517   2.577  1.00 20.00    -0.036 A 
ENDROOT
BRANCH   3   4
HETATM    4  C7  UNL     1     -33.350   5.866   1.225  1.00 20.00     0.005 C 
HETATM    5  C4  UNL     1     -32.185   4.923   1.141  1.00 20.00     0.006 C 
ENDBRANCH   3   4
BRANCH   3   6
HETATM    6  C8  UNL     1     -33.800   5.557   3.690  1.00 20.00     0.005 C 
HETATM    7  C5  UNL     1     -35.198   5.737   4.204  1.00 20.00     0.006 C 
ENDBRANCH   3   6
BRANCH   2   8
HETATM    8  C6  UNL     1     -31.563   8.253   1.997  1.00 20.00     0.120 C 
HETATM    9 CL9  UNL     1     -32.305   9.295   0.753  1.00 20.00    -0.130 Cl
ENDBRANCH   2   8
TORSDOF 3
ENDMDL
