MODEL 1
REMARK VINA RESULT:      -2.3      0.000      0.000
REMARK  3 active torsions:
REMARK  status: ('A' for Active; 'I' for Inactive)
REMARK    1  A    between atoms: C2_2  and  C6_6 
REMARK    2  A    between atoms: C3_3  and  C7_7 
REMARK    3  A    between atoms: C6_6  and  O8_8 
ROOT
HETATM    1  C1  UNL     1     -35.491   6.199   3.672  1.00 20.00     0.017 A 
HETATM    2  C2  UNL     1     -34.380   5.418   4.313  1.00 20.00     0.018 A 
HETATM    3  C3  UNL     1     -34.064   6.713   3.576  1.00 20.00    -0.038 A 
HETATM    4  C4  UNL     1     -33.688   7.907   4.415  1.00 20.00     0.015 C 
ENDROOT
BRANCH   2   5
HETATM    5  C6  UNL     1     -33.998   4.079   3.783  1.00 20.00     0.169 C 
BRANCH   5   6
HETATM    6  O8  UNL     1     -33.432   3.286   4.827  1.00 20.00    -0.400 OA
HETATM    7  H22 UNL     1     -34.087   2.605   5.038  1.00 20.00     0.209 HD
ENDBRANCH   5   6
ENDBRANCH   2   5
BRANCH   3   8
HETATM    8  C7  UNL     1     -33.385   6.671   2.233  1.00 20.00     0.005 C 
HETATM    9  C5  UNL     1     -32.293   7.693   2.110  1.00 20.00     0.006 C 
ENDBRANCH   3   8
TORSDOF 3
ENDMDL
MODEL 2
REMARK VINA RESULT:      -1.7      2.485      3.707
REMARK  3 active torsions:
REMARK  status: ('A' for Active; 'I' for Inactive)
REMARK    1  A    between atoms: C2_2  and  C6_6 
REMARK    2  A    between atoms: C3_3  and  C7_7 
REMARK    3  A    between atoms: C6_6  and  O8_8 
ROOT
HETATM    1  C1  UNL     1     -33.314   7.530   4.382  1.00 20.00     0.017 A 
HETATM    2  C2  UNL     1     -33.484   7.728   2.902  1.00 20.00     0.018 A 
HETATM    3  C3  UNL     1     -34.071   6.492   3.571  1.00 20.00    -0.038 A 
HETATM    4  C4  UNL     1     -35.570   6.438   3.719  1.00 20.00     0.015 C 
ENDROOT
BRANCH   2   5
HETATM    5  C6  UNL     1     -32.303   7.665   1.994  1.00 20.00     0.169 C 
BRANCH   5   6
HETATM    6  O8  UNL     1     -32.281   8.813   1.147  1.00 20.00    -0.400 OA
HETATM    7  H22 UNL     1     -32.246   8.481   0.237  1.00 20.00     0.209 HD
ENDBRANCH   5   6
ENDBRANCH   2   5
BRANCH   3   8
HETATM    8  C7  UNL     1     -33.429   5.146   3.367  1.00 20.00     0.005 C 
HETATM    9  C5  UNL     1     -34.042   4.080   4.228  1.00 20.00     0.006 C 
ENDBRANCH   3   8
TORSDOF 3
ENDMDL
MODEL 3
REMARK VINA RESULT:      -1.4      2.600      3.973
REMARK  3 active torsions:
REMARK  status: ('A' for Active; 'I' for Inactive)
REMARK    1  A    between atoms: C2_2  and  C6_6 
REMARK    2  A    between atoms: C3_3  and  C7_7 
REMARK    3  A    between atoms: C6_6  and  O8_8 
ROOT
HETATM    1  C1  UNL     1     -33.393   6.236   1.174  1.00 20.00     0.017 A 
HETATM    2  C2  UNL     1     -32.176   6.668   1.943  1.00 20.00     0.018 A 
HETATM    3  C3  UNL     1     -33.375   6.094   2.687  1.00 20.00    -0.038 A 
HETATM    4  C4  UNL     1     -33.228   4.709   3.263  1.00 20.00     0.015 C 
ENDROOT
BRANCH   2   5
HETATM    5  C6  UNL     1     -31.803   8.109   2.012  1.00 20.00     0.169 C 
BRANCH   5   6
HETATM    6  O8  UNL     1     -32.213   8.775   0.818  1.00 20.00    -0.400 OA
HETATM    7  H22 UNL     1     -32.295   8.090   0.137  1.00 20.00     0.209 HD
ENDBRANCH   5   6
ENDBRANCH   2   5
BRANCH   3   8
HETATM    8  C7  UNL     1     -34.267   7.000   3.493  1.00 20.00     0.005 C 
HETATM    9  C5  UNL     1     -35.415   6.265   4.121  1.00 20.00     0.006 C 
ENDBRANCH   3   8
TORSDOF 3
ENDMDL
MODEL 4
REMARK VINA RESULT:      -1.3      3.532      4.630
REMARK  3 active torsions:
REMARK  status: ('A' for Active; 'I' for Inactive)
REMARK    1  A    between atoms: C2_2  and  C6_6 
REMARK    2  A    between atoms: C3_3  and  C7_7 
REMARK    3  A    between atoms: C6_6  and  O8_8 
ROOT
HETATM    1  C1  UNL     1     -31.415   7.986   2.437  1.00 20.00     0.017 A 
HETATM    2  C2  UNL     1     -32.462   8.828   1.763  1.00 20.00     0.018 A 
HETATM    3  C3  UNL     1     -32.830   7.449   2.295  1.00 20.00    -0.038 A 
HETATM    4  C4  UNL     1     -33.691   7.397   3.531  1.00 20.00     0.015 C 
ENDROOT
BRANCH   2   5
HETATM    5  C6  UNL     1     -32.364   9.126   0.306  1.00 20.00     0.169 C 
BRANCH   5   6
HETATM    6  O8  UNL     1     -32.428  10.536   0.093  1.00 20.00    -0.400 OA
HETATM    7  H22 UNL     1     -33.368  10.756   0.004  1.00 20.00     0.209 HD
ENDBRANCH   5   6
ENDBRANCH   2   5
BRANCH   3   8
HETATM    8  C7  UNL     1     -33.062   6.308   1.341  1.00 20.00     0.005 C 
HETATM    9  C5  UNL     1     -31.953   5.297   1.375  1.00 20.00     0.006 C 
ENDBRANCH   3   8
TORSDOF 3
ENDMDL
MODEL 5
REMARK VINA RESULT:      -1.2      1.398      1.726
REMARK  3 active torsions:
REMARK  status: ('A' for Active; 'I' for Inactive)
REMARK    1  A    between atoms: C2_2  and  C6_6 
REMARK    2  A    between atoms: C3_3  and  C7_7 
REMARK    3  A    between atoms: C6_6  and  O8_8 
ROOT
HETATM    1  C1  UNL     1     -34.858   7.118   3.109  1.00 20.00     0.017 A 
HETATM    2  C2  UNL     1     -33.998   6.233   3.966  1.00 20.00     0.018 A 
HETATM    3  C3  UNL     1     -33.463   6.747   2.636  1.00 20.00    -0.038 A 
HETATM    4  C4  UNL     1     -32.395   7.809   2.689  1.00 20.00     0.015 C 
ENDROOT
BRANCH   2   5
HETATM    5  C6  UNL     1     -34.370   4.807   4.185  1.00 20.00     0.169 C 
BRANCH   5   6
HETATM    6  O8  UNL     1     -35.689   4.726   4.725  1.00 20.00    -0.400 OA
HETATM    7  H22 UNL     1     -35.586   4.645   5.686  1.00 20.00     0.209 HD
ENDBRANCH   5   6
ENDBRANCH   2   5
BRANCH   3   8
HETATM    8  C7  UNL     1     -33.338   5.813   1.461  1.00 20.00     0.005 C 
HETATM    9  C5  UNL     1     -31.913   5.442   1.171  1.00 20.00     0.006 C 
ENDBRANCH   3   8
TORSDOF 3
ENDMDL
MODEL 6
REMARK VINA RESULT:      -0.7      1.572      2.459
REMARK  3 active torsions:
REMARK  status: ('A' for Active; 'I' for Inactive)
REMARK    1  A    between atoms: C2_2  and  C6_6 
REMARK    2  A    between atoms: C3_3  and  C7_7 
REMARK    3  A    between atoms: C6_6  and  O8_8 
ROOT
HETATM    1  C1  UNL     1     -32.842   5.094   3.307  1.00 20.00     0.017 A 
HETATM    2  C2  UNL     1     -34.241   5.491   2.930  1.00 20.00     0.018 A 
HETATM    3  C3  UNL     1     -33.056   6.185   2.270  1.00 20.00    -0.038 A 
HETATM    4  C4  UNL     1     -32.779   5.850   0.827  1.00 20.00     0.015 C 
ENDROOT
BRANCH   2   5
HETATM    5  C6  UNL     1     -35.121   6.173   3.919  1.00 20.00     0.169 C 
BRANCH   5   6
HETATM    6  O8  UNL     1     -35.775   5.203   4.738  1.00 20.00    -0.400 OA
HETATM    7  H22 UNL     1     -35.764   4.373   4.239  1.00 20.00     0.209 HD
ENDBRANCH   5   6
ENDBRANCH   2   5
BRANCH   3   8
HETATM    8  C7  UNL     1     -32.703   7.599   2.648  1.00 20.00     0.005 C 
HETATM    9  C5  UNL     1     -31.890   8.289   1.592  1.00 20.00     0.006 C 
ENDBRANCH   3   8
TORSDOF 3
ENDMDL
MODEL 7
REMARK VINA RESULT:      -0.6      2.156      3.404
REMARK  3 active torsions:
REMARK  status: ('A' for Active; 'I' for Inactive)
REMARK    1  A    between atoms: C2_2  and  C6_6 
REMARK    2  A    between atoms: C3_3  and  C7_7 
REMARK    3  A    between atoms: C6_6  and  O8_8 
ROOT
HETATM    1  C1  UNL     1     -35.308   6.922   3.176  1.00 20.00     0.017 A 
HETATM    2  C2  UNL     1     -33.972   7.370   3.698  1.00 20.00     0.018 A 
HETATM    3  C3  UNL     1     -34.193   5.904   3.350  1.00 20.00    -0.038 A 
HETATM    4  C4  UNL     1     -33.516   5.382   2.109  1.00 20.00     0.015 C 
ENDROOT
BRANCH   2   5
HETATM    5  C6  UNL     1     -33.835   7.850   5.102  1.00 20.00     0.169 C 
BRANCH   5   6
HETATM    6  O8  UNL     1     -32.546   8.433   5.293  1.00 20.00    -0.400 OA
HETATM    7  H22 UNL     1     -32.575   8.886   6.149  1.00 20.00     0.209 HD
ENDBRANCH   5   6
ENDBRANCH   2   5
BRANCH   3   8
HETATM    8  C7  UNL     1     -34.334   4.881   4.446  1.00 20.00     0.005 C 
HETATM    9  C5  UNL     1     -33.621   3.599   4.128  1.00 20.00     0.006 C 
ENDBRANCH   3   8
TORSDOF 3
ENDMDL
MODEL 8
REMARK VINA RESULT:      -0.3      2.219      3.380
REMARK  3 active torsions:
REMARK  status: ('A' for Active; 'I' for Inactive)
REMARK    1  A    between atoms: C2_2  and  C6_6 
REMARK    2  A    between atoms: C3_3  and  C7_7 
REMARK    3  A    between atoms: C6_6  and  O8_8 
ROOT
HETATM    1  C1  UNL     1     -31.854   8.357   3.509  1.00 20.00     0.017 A 
HETATM    2  C2  UNL     1     -32.978   7.403   3.220  1.00 20.00     0.018 A 
HETATM    3  C3  UNL     1     -32.318   8.162   2.076  1.00 20.00    -0.038 A 
HETATM    4  C4  UNL     1     -31.431   7.373   1.148  1.00 20.00     0.015 C 
ENDROOT
BRANCH   2   5
HETATM    5  C6  UNL     1     -34.359   7.703   3.692  1.00 20.00     0.169 C 
BRANCH   5   6
HETATM    6  O8  UNL     1     -35.081   6.486   3.884  1.00 20.00    -0.400 OA
HETATM    7  H22 UNL     1     -36.004   6.738   4.037  1.00 20.00     0.209 HD
ENDBRANCH   5   6
ENDBRANCH   2   5
BRANCH   3   8
HETATM    8  C7  UNL     1     -33.045   9.298   1.406  1.00 20.00     0.005 C 
HETATM    9  C5  UNL     1     -32.342   9.781   0.171  1.00 20.00     0.006 C 
ENDBRANCH   3   8
TORSDOF 3
ENDMDL
MODEL 9
REMARK VINA RESULT:      -0.3      3.285      4.650
REMARK  3 active torsions:
REMARK  status: ('A' for Active; 'I' for Inactive)
REMARK    1  A    between atoms: C2_2  and  C6_6 
REMARK    2  A    between atoms: C3_3  and  C7_7 
REMARK    3  A    between atoms: C6_6  and  O8_8 
ROOT
HETATM    1  C1  UNL     1     -31.288   7.486   1.856  1.00 20.00     0.017 A 
HETATM    2  C2  UNL     1     -32.070   8.724   1.520  1.00 20.00     0.018 A 
HETATM    3  C3  UNL     1     -32.572   7.788   2.611  1.00 20.00    -0.038 A 
HETATM    4  C4  UNL     1     -32.457   8.267   4.035  1.00 20.00     0.015 C 
ENDROOT
BRANCH   2   5
HETATM    5  C6  UNL     1     -32.745   8.852   0.197  1.00 20.00     0.169 C 
BRANCH   5   6
HETATM    6  O8  UNL     1     -32.659  10.200  -0.264  1.00 20.00    -0.400 OA
HETATM    7  H22 UNL     1     -33.571  10.509  -0.377  1.00 20.00     0.209 HD
ENDBRANCH   5   6
ENDBRANCH   2   5
BRANCH   3   8
HETATM    8  C7  UNL     1     -33.765   6.905   2.357  1.00 20.00     0.005 C 
HETATM    9  C5  UNL     1     -34.513   6.576   3.616  1.00 20.00     0.006 C 
ENDBRANCH   3   8
TORSDOF 3
ENDMDL
