MODEL 1
REMARK VINA RESULT:      -1.7      0.000      0.000
REMARK  3 active torsions:
REMARK  status: ('A' for Active; 'I' for Inactive)
REMARK    1  A    between atoms: C4_4  and  C6_6 
REMARK    2  A    between atoms: C5_5  and  C8_8 
REMARK    3  A    between atoms: C6_6  and  C9_9 
ROOT
HETATM    1  C3  UNL     1     -31.282   7.954   2.332  1.00 20.00     0.017 A 
HETATM    2  C5  UNL     1     -32.203   8.313   1.202  1.00 20.00     0.009 A 
HETATM    3  C6  UNL     1     -32.677   7.353   2.293  1.00 20.00    -0.032 A 
ENDROOT
BRANCH   3   4
HETATM    4  C4  UNL     1     -32.869   5.868   1.950  1.00 20.00    -0.006 A 
HETATM    5  C1  UNL     1     -33.234   5.396   0.570  1.00 20.00     0.006 A 
HETATM    6  C2  UNL     1     -31.875   5.088   1.135  1.00 20.00     0.006 A 
ENDBRANCH   3   4
BRANCH   3   7
HETATM    7  C9  UNL     1     -33.657   7.855   3.326  1.00 20.00     0.006 C 
HETATM    8  C7  UNL     1     -34.600   6.783   3.785  1.00 20.00     0.006 C 
ENDBRANCH   3   7
BRANCH   2   9
HETATM    9  C8  UNL     1     -32.724   9.702   1.064  1.00 20.00     0.120 C 
HETATM   10 CL10 UNL     1     -32.847  10.178  -0.653  1.00 20.00    -0.130 Cl
ENDBRANCH   2   9
TORSDOF 3
ENDMDL
MODEL 2
REMARK VINA RESULT:      -1.5      3.116      4.301
REMARK  3 active torsions:
REMARK  status: ('A' for Active; 'I' for Inactive)
REMARK    1  A    between atoms: C4_4  and  C6_6 
REMARK    2  A    between atoms: C5_5  and  C8_8 
REMARK    3  A    between atoms: C6_6  and  C9_9 
ROOT
HETATM    1  C3  UNL     1     -35.362   6.429   3.535  1.00 20.00     0.017 A 
HETATM    2  C5  UNL     1     -34.485   5.212   3.553  1.00 20.00     0.009 A 
HETATM    3  C6  UNL     1     -33.863   6.593   3.350  1.00 20.00    -0.032 A 
ENDROOT
BRANCH   3   4
HETATM    4  C4  UNL     1     -33.290   6.958   1.972  1.00 20.00    -0.006 A 
HETATM    5  C1  UNL     1     -31.999   7.711   1.803  1.00 20.00     0.006 A 
HETATM    6  C2  UNL     1     -32.088   6.270   1.384  1.00 20.00     0.006 A 
ENDBRANCH   3   4
BRANCH   3   7
HETATM    7  C9  UNL     1     -33.106   7.224   4.493  1.00 20.00     0.006 C 
HETATM    8  C7  UNL     1     -33.821   8.413   5.063  1.00 20.00     0.006 C 
ENDBRANCH   3   7
BRANCH   2   9
HETATM    9  C8  UNL     1     -34.313   4.423   4.805  1.00 20.00     0.120 C 
HETATM   10 CL10 UNL     1     -33.245   3.016   4.542  1.00 20.00    -0.130 Cl
ENDBRANCH   2   9
TORSDOF 3
ENDMDL
MODEL 3
REMARK VINA RESULT:      -1.4      2.189      3.672
REMARK  3 active torsions:
REMARK  status: ('A' for Active; 'I' for Inactive)
REMARK    1  A    between atoms: C4_4  and  C6_6 
REMARK    2  A    between atoms: C5_5  and  C8_8 
REMARK    3  A    between atoms: C6_6  and  C9_9 
ROOT
HETATM    1  C3  UNL     1     -31.860   8.603   3.209  1.00 20.00     0.017 A 
HETATM    2  C5  UNL     1     -33.289   8.143   3.210  1.00 20.00     0.009 A 
HETATM    3  C6  UNL     1     -32.404   7.872   1.993  1.00 20.00    -0.032 A 
ENDROOT
BRANCH   3   4
HETATM    4  C4  UNL     1     -32.675   8.638   0.689  1.00 20.00    -0.006 A 
HETATM    5  C1  UNL     1     -32.568  10.134   0.589  1.00 20.00     0.006 A 
HETATM    6  C2  UNL     1     -31.578   9.260  -0.130  1.00 20.00     0.006 A 
ENDBRANCH   3   4
BRANCH   3   7
HETATM    7  C9  UNL     1     -31.895   6.470   1.763  1.00 20.00     0.006 C 
HETATM    8  C7  UNL     1     -32.854   5.640   0.962  1.00 20.00     0.006 C 
ENDBRANCH   3   7
BRANCH   2   9
HETATM    9  C8  UNL     1     -33.736   7.069   4.141  1.00 20.00     0.120 C 
HETATM   10 CL10 UNL     1     -35.372   6.489   3.721  1.00 20.00    -0.130 Cl
ENDBRANCH   2   9
TORSDOF 3
ENDMDL
MODEL 4
REMARK VINA RESULT:      -1.3      3.142      4.251
REMARK  3 active torsions:
REMARK  status: ('A' for Active; 'I' for Inactive)
REMARK    1  A    between atoms: C4_4  and  C6_6 
REMARK    2  A    between atoms: C5_5  and  C8_8 
REMARK    3  A    between atoms: C6_6  and  C9_9 
ROOT
HETATM    1  C3  UNL     1     -33.948   5.515   1.850  1.00 20.00     0.017 A 
HETATM    2  C5  UNL     1     -33.258   5.026   3.090  1.00 20.00     0.009 A 
HETATM    3  C6  UNL     1     -33.479   6.525   2.885  1.00 20.00    -0.032 A 
ENDROOT
BRANCH   3   4
HETATM    4  C4  UNL     1     -32.269   7.425   2.594  1.00 20.00    -0.006 A 
HETATM    5  C1  UNL     1     -31.477   7.333   1.319  1.00 20.00     0.006 A 
HETATM    6  C2  UNL     1     -32.314   8.550   1.597  1.00 20.00     0.006 A 
ENDBRANCH   3   4
BRANCH   3   7
HETATM    7  C9  UNL     1     -34.554   7.217   3.688  1.00 20.00     0.006 C 
HETATM    8  C7  UNL     1     -33.989   8.023   4.819  1.00 20.00     0.006 C 
ENDBRANCH   3   7
BRANCH   2   9
HETATM    9  C8  UNL     1     -34.004   4.230   4.105  1.00 20.00     0.120 C 
HETATM   10 CL10 UNL     1     -32.992   2.916   4.766  1.00 20.00    -0.130 Cl
ENDBRANCH   2   9
TORSDOF 3
ENDMDL
MODEL 5
REMARK VINA RESULT:      -0.9      2.434      3.885
REMARK  3 active torsions:
REMARK  status: ('A' for Active; 'I' for Inactive)
REMARK    1  A    between atoms: C4_4  and  C6_6 
REMARK    2  A    between atoms: C5_5  and  C8_8 
REMARK    3  A    between atoms: C6_6  and  C9_9 
ROOT
HETATM    1  C3  UNL     1     -32.845   7.021   3.934  1.00 20.00     0.017 A 
HETATM    2  C5  UNL     1     -34.106   7.664   3.434  1.00 20.00     0.009 A 
HETATM    3  C6  UNL     1     -32.958   7.387   2.464  1.00 20.00    -0.032 A 
ENDROOT
BRANCH   3   4
HETATM    4  C4  UNL     1     -32.158   8.570   1.897  1.00 20.00    -0.006 A 
HETATM    5  C1  UNL     1     -31.606   8.581   0.499  1.00 20.00     0.006 A 
HETATM    6  C2  UNL     1     -32.722   9.516   0.873  1.00 20.00     0.006 A 
ENDBRANCH   3   4
BRANCH   3   7
HETATM    7  C9  UNL     1     -33.091   6.240   1.491  1.00 20.00     0.006 C 
HETATM    8  C7  UNL     1     -31.935   5.287   1.573  1.00 20.00     0.006 C 
ENDBRANCH   3   7
BRANCH   2   9
HETATM    9  C8  UNL     1     -35.386   6.901   3.413  1.00 20.00     0.120 C 
HETATM   10 CL10 UNL     1     -35.261   5.403   4.378  1.00 20.00    -0.130 Cl
ENDBRANCH   2   9
TORSDOF 3
ENDMDL
MODEL 6
REMARK VINA RESULT:      -0.3      1.330      1.891
REMARK  3 active torsions:
REMARK  status: ('A' for Active; 'I' for Inactive)
REMARK    1  A    between atoms: C4_4  and  C6_6 
REMARK    2  A    between atoms: C5_5  and  C8_8 
REMARK    3  A    between atoms: C6_6  and  C9_9 
ROOT
HETATM    1  C3  UNL     1     -31.648   7.483   2.455  1.00 20.00     0.017 A 
HETATM    2  C5  UNL     1     -32.578   8.072   1.434  1.00 20.00     0.009 A 
HETATM    3  C6  UNL     1     -33.143   7.483   2.727  1.00 20.00    -0.032 A 
ENDROOT
BRANCH   3   4
HETATM    4  C4  UNL     1     -33.940   6.171   2.663  1.00 20.00    -0.006 A 
HETATM    5  C1  UNL     1     -33.613   4.980   3.522  1.00 20.00     0.006 A 
HETATM    6  C2  UNL     1     -34.889   5.743   3.748  1.00 20.00     0.006 A 
ENDBRANCH   3   4
BRANCH   3   7
HETATM    7  C9  UNL     1     -33.635   8.424   3.800  1.00 20.00     0.006 C 
HETATM    8  C7  UNL     1     -32.873   8.271   5.083  1.00 20.00     0.006 C 
ENDBRANCH   3   7
BRANCH   2   9
HETATM    9  C8  UNL     1     -32.561   9.535   1.152  1.00 20.00     0.120 C 
HETATM   10 CL10 UNL     1     -32.733   9.857  -0.596  1.00 20.00    -0.130 Cl
ENDBRANCH   2   9
TORSDOF 3
ENDMDL
MODEL 7
REMARK VINA RESULT:      -0.3      2.289      3.853
REMARK  3 active torsions:
REMARK  status: ('A' for Active; 'I' for Inactive)
REMARK    1  A    between atoms: C4_4  and  C6_6 
REMARK    2  A    between atoms: C5_5  and  C8_8 
REMARK    3  A    between atoms: C6_6  and  C9_9 
ROOT
HETATM    1  C3  UNL     1     -31.971   5.429   1.744  1.00 20.00     0.017 A 
HETATM    2  C5  UNL     1     -33.388   5.209   1.300  1.00 20.00     0.009 A 
HETATM    3  C6  UNL     1     -33.035   6.443   2.130  1.00 20.00    -0.032 A 
ENDROOT
BRANCH   3   4
HETATM    4  C4  UNL     1     -33.529   6.531   3.582  1.00 20.00    -0.006 A 
HETATM    5  C1  UNL     1     -34.214   7.751   4.133  1.00 20.00     0.006 A 
HETATM    6  C2  UNL     1     -34.986   6.473   3.950  1.00 20.00     0.006 A 
ENDBRANCH   3   4
BRANCH   3   7
HETATM    7  C9  UNL     1     -32.969   7.786   1.443  1.00 20.00     0.006 C 
HETATM    8  C7  UNL     1     -31.602   8.397   1.517  1.00 20.00     0.006 C 
ENDBRANCH   3   7
BRANCH   2   9
HETATM    9  C8  UNL     1     -33.746   5.280  -0.144  1.00 20.00     0.120 C 
HETATM   10 CL10 UNL     1     -34.107   3.660  -0.802  1.00 20.00    -0.130 Cl
ENDBRANCH   2   9
TORSDOF 3
ENDMDL
MODEL 8
REMARK VINA RESULT:      -0.2      2.884      4.092
REMARK  3 active torsions:
REMARK  status: ('A' for Active; 'I' for Inactive)
REMARK    1  A    between atoms: C4_4  and  C6_6 
REMARK    2  A    between atoms: C5_5  and  C8_8 
REMARK    3  A    between atoms: C6_6  and  C9_9 
ROOT
HETATM    1  C3  UNL     1     -35.373   6.114   3.185  1.00 20.00     0.017 A 
HETATM    2  C5  UNL     1     -34.563   6.703   4.302  1.00 20.00     0.009 A 
HETATM    3  C6  UNL     1     -34.099   5.413   3.626  1.00 20.00    -0.032 A 
ENDROOT
BRANCH   3   4
HETATM    4  C4  UNL     1     -34.175   4.093   4.408  1.00 20.00    -0.006 A 
HETATM    5  C1  UNL     1     -33.361   2.883   4.038  1.00 20.00     0.006 A 
HETATM    6  C2  UNL     1     -33.072   3.622   5.315  1.00 20.00     0.006 A 
ENDBRANCH   3   4
BRANCH   3   7
HETATM    7  C9  UNL     1     -32.931   5.472   2.672  1.00 20.00     0.006 C 
HETATM    8  C7  UNL     1     -33.367   5.622   1.245  1.00 20.00     0.006 C 
ENDBRANCH   3   7
BRANCH   2   9
HETATM    9  C8  UNL     1     -33.864   8.007   4.123  1.00 20.00     0.120 C 
HETATM   10 CL10 UNL     1     -32.841   8.393   5.534  1.00 20.00    -0.130 Cl
ENDBRANCH   2   9
TORSDOF 3
ENDMDL
MODEL 9
REMARK VINA RESULT:      -0.2      1.099      2.782
REMARK  3 active torsions:
REMARK  status: ('A' for Active; 'I' for Inactive)
REMARK    1  A    between atoms: C4_4  and  C6_6 
REMARK    2  A    between atoms: C5_5  and  C8_8 
REMARK    3  A    between atoms: C6_6  and  C9_9 
ROOT
HETATM    1  C3  UNL     1     -33.847   6.988   1.149  1.00 20.00     0.017 A 
HETATM    2  C5  UNL     1     -32.911   7.922   1.859  1.00 20.00     0.009 A 
HETATM    3  C6  UNL     1     -32.977   6.452   2.273  1.00 20.00    -0.032 A 
ENDROOT
BRANCH   3   4
HETATM    4  C4  UNL     1     -33.603   6.084   3.627  1.00 20.00    -0.006 A 
HETATM    5  C1  UNL     1     -35.076   6.206   3.900  1.00 20.00     0.006 A 
HETATM    6  C2  UNL     1     -34.435   4.848   3.829  1.00 20.00     0.006 A 
ENDBRANCH   3   4
BRANCH   3   7
HETATM    7  C9  UNL     1     -31.847   5.533   1.873  1.00 20.00     0.006 C 
HETATM    8  C7  UNL     1     -32.168   4.739   0.642  1.00 20.00     0.006 C 
ENDBRANCH   3   7
BRANCH   2   9
HETATM    9  C8  UNL     1     -31.744   8.510   1.144  1.00 20.00     0.120 C 
HETATM   10 CL10 UNL     1     -32.257   9.798   0.019  1.00 20.00    -0.130 Cl
ENDBRANCH   2   9
TORSDOF 3
ENDMDL
