MODEL 1
REMARK VINA RESULT:      -2.3      0.000      0.000
REMARK  2 active torsions:
REMARK  status: ('A' for Active; 'I' for Inactive)
REMARK    1  A    between atoms: C4_4  and  C9_9 
REMARK    2  A    between atoms: C5_5  and  C6_6 
ROOT
HETATM    1  C3  UNL     1     -35.363   6.325   3.488  1.00 20.00     0.017 A 
HETATM    2  C4  UNL     1     -34.365   5.481   4.227  1.00 20.00     0.009 A 
HETATM    3  C6  UNL     1     -33.909   6.762   3.545  1.00 20.00    -0.032 A 
HETATM    4  C8  UNL     1     -33.588   7.918   4.463  1.00 20.00     0.016 C 
ENDROOT
BRANCH   3   5
HETATM    5  C5  UNL     1     -33.048   6.747   2.273  1.00 20.00    -0.036 A 
HETATM    6  C1  UNL     1     -32.452   5.452   1.773  1.00 20.00     0.011 A 
HETATM    7  C2  UNL     1     -33.570   6.102   1.010  1.00 20.00     0.011 A 
HETATM    8  C7  UNL     1     -32.208   7.987   2.096  1.00 20.00     0.016 C 
ENDBRANCH   3   5
BRANCH   2   9
HETATM    9  C9  UNL     1     -33.996   4.133   3.709  1.00 20.00     0.120 C 
HETATM   10 CL10 UNL     1     -33.200   3.151   4.969  1.00 20.00    -0.130 Cl
ENDBRANCH   2   9
TORSDOF 2
ENDMDL
MODEL 2
REMARK VINA RESULT:      -2.1      0.433      1.496
REMARK  2 active torsions:
REMARK  status: ('A' for Active; 'I' for Inactive)
REMARK    1  A    between atoms: C4_4  and  C9_9 
REMARK    2  A    between atoms: C5_5  and  C6_6 
ROOT
HETATM    1  C3  UNL     1     -35.324   6.439   3.465  1.00 20.00     0.017 A 
HETATM    2  C4  UNL     1     -34.311   5.592   4.183  1.00 20.00     0.009 A 
HETATM    3  C6  UNL     1     -33.882   6.909   3.551  1.00 20.00    -0.032 A 
HETATM    4  C8  UNL     1     -33.597   8.038   4.514  1.00 20.00     0.016 C 
ENDROOT
BRANCH   3   5
HETATM    5  C5  UNL     1     -33.010   6.961   2.288  1.00 20.00    -0.036 A 
HETATM    6  C1  UNL     1     -32.800   8.268   1.561  1.00 20.00     0.011 A 
HETATM    7  C2  UNL     1     -31.664   7.645   2.321  1.00 20.00     0.011 A 
HETATM    8  C7  UNL     1     -33.114   5.723   1.432  1.00 20.00     0.016 C 
ENDBRANCH   3   5
BRANCH   2   9
HETATM    9  C9  UNL     1     -33.904   4.274   3.619  1.00 20.00     0.120 C 
HETATM   10 CL10 UNL     1     -33.297   3.184   4.896  1.00 20.00    -0.130 Cl
ENDBRANCH   2   9
TORSDOF 2
ENDMDL
MODEL 3
REMARK VINA RESULT:      -1.4      2.520      3.953
REMARK  2 active torsions:
REMARK  status: ('A' for Active; 'I' for Inactive)
REMARK    1  A    between atoms: C4_4  and  C9_9 
REMARK    2  A    between atoms: C5_5  and  C6_6 
ROOT
HETATM    1  C3  UNL     1     -33.430   6.235   1.148  1.00 20.00     0.017 A 
HETATM    2  C4  UNL     1     -32.247   6.810   1.873  1.00 20.00     0.009 A 
HETATM    3  C6  UNL     1     -33.295   6.022   2.646  1.00 20.00    -0.032 A 
HETATM    4  C8  UNL     1     -32.880   4.640   3.095  1.00 20.00     0.016 C 
ENDROOT
BRANCH   3   5
HETATM    5  C5  UNL     1     -34.274   6.701   3.614  1.00 20.00    -0.036 A 
HETATM    6  C1  UNL     1     -35.710   6.933   3.206  1.00 20.00     0.011 A 
HETATM    7  C2  UNL     1     -35.389   5.903   4.251  1.00 20.00     0.011 A 
HETATM    8  C7  UNL     1     -33.637   7.767   4.470  1.00 20.00     0.016 C 
ENDBRANCH   3   5
BRANCH   2   9
HETATM    9  C9  UNL     1     -32.102   8.286   2.016  1.00 20.00     0.120 C 
HETATM   10 CL10 UNL     1     -32.215   9.104   0.433  1.00 20.00    -0.130 Cl
ENDBRANCH   2   9
TORSDOF 2
ENDMDL
MODEL 4
REMARK VINA RESULT:      -0.8      2.545      3.599
REMARK  2 active torsions:
REMARK  status: ('A' for Active; 'I' for Inactive)
REMARK    1  A    between atoms: C4_4  and  C9_9 
REMARK    2  A    between atoms: C5_5  and  C6_6 
ROOT
HETATM    1  C3  UNL     1     -33.045   7.588   4.281  1.00 20.00     0.017 A 
HETATM    2  C4  UNL     1     -33.246   8.171   2.912  1.00 20.00     0.009 A 
HETATM    3  C6  UNL     1     -33.882   6.833   3.263  1.00 20.00    -0.032 A 
HETATM    4  C8  UNL     1     -35.377   6.850   3.474  1.00 20.00     0.016 C 
ENDROOT
BRANCH   3   5
HETATM    5  C5  UNL     1     -33.372   5.509   2.674  1.00 20.00    -0.036 A 
HETATM    6  C1  UNL     1     -33.482   5.242   1.192  1.00 20.00     0.011 A 
HETATM    7  C2  UNL     1     -32.135   5.490   1.808  1.00 20.00     0.011 A 
HETATM    8  C7  UNL     1     -33.571   4.326   3.588  1.00 20.00     0.016 C 
ENDBRANCH   3   5
BRANCH   2   9
HETATM    9  C9  UNL     1     -32.097   8.278   1.968  1.00 20.00     0.120 C 
HETATM   10 CL10 UNL     1     -32.446   9.435   0.653  1.00 20.00    -0.130 Cl
ENDBRANCH   2   9
TORSDOF 2
ENDMDL
MODEL 5
REMARK VINA RESULT:      -0.8      1.936      3.528
REMARK  2 active torsions:
REMARK  status: ('A' for Active; 'I' for Inactive)
REMARK    1  A    between atoms: C4_4  and  C9_9 
REMARK    2  A    between atoms: C5_5  and  C6_6 
ROOT
HETATM    1  C3  UNL     1     -31.945   5.405   1.553  1.00 20.00     0.017 A 
HETATM    2  C4  UNL     1     -33.000   6.020   0.678  1.00 20.00     0.009 A 
HETATM    3  C6  UNL     1     -32.816   6.522   2.103  1.00 20.00    -0.032 A 
HETATM    4  C8  UNL     1     -32.164   7.877   2.245  1.00 20.00     0.016 C 
ENDROOT
BRANCH   3   5
HETATM    5  C5  UNL     1     -33.840   6.228   3.209  1.00 20.00    -0.036 A 
HETATM    6  C1  UNL     1     -34.196   7.292   4.220  1.00 20.00     0.011 A 
HETATM    7  C2  UNL     1     -35.200   6.887   3.180  1.00 20.00     0.011 A 
HETATM    8  C7  UNL     1     -33.793   4.807   3.714  1.00 20.00     0.016 C 
ENDBRANCH   3   5
BRANCH   2   9
HETATM    9  C9  UNL     1     -34.189   5.222   0.267  1.00 20.00     0.120 C 
HETATM   10 CL10 UNL     1     -33.711   3.793  -0.690  1.00 20.00    -0.130 Cl
ENDBRANCH   2   9
TORSDOF 2
ENDMDL
MODEL 6
REMARK VINA RESULT:      -0.6      0.748      1.403
REMARK  2 active torsions:
REMARK  status: ('A' for Active; 'I' for Inactive)
REMARK    1  A    between atoms: C4_4  and  C9_9 
REMARK    2  A    between atoms: C5_5  and  C6_6 
ROOT
HETATM    1  C3  UNL     1     -35.214   7.179   3.564  1.00 20.00     0.017 A 
HETATM    2  C4  UNL     1     -34.474   6.099   4.299  1.00 20.00     0.009 A 
HETATM    3  C6  UNL     1     -33.715   7.031   3.367  1.00 20.00    -0.032 A 
HETATM    4  C8  UNL     1     -32.841   8.065   4.037  1.00 20.00     0.016 C 
ENDROOT
BRANCH   3   5
HETATM    5  C5  UNL     1     -33.158   6.557   2.017  1.00 20.00    -0.036 A 
HETATM    6  C1  UNL     1     -31.942   7.223   1.418  1.00 20.00     0.011 A 
HETATM    7  C2  UNL     1     -31.838   5.824   1.954  1.00 20.00     0.011 A 
HETATM    8  C7  UNL     1     -34.223   6.105   1.049  1.00 20.00     0.016 C 
ENDBRANCH   3   5
BRANCH   2   9
HETATM    9  C9  UNL     1     -34.714   4.666   3.964  1.00 20.00     0.120 C 
HETATM   10 CL10 UNL     1     -33.368   3.636   4.523  1.00 20.00    -0.130 Cl
ENDBRANCH   2   9
TORSDOF 2
ENDMDL
MODEL 7
REMARK VINA RESULT:      -0.5      2.944      4.187
REMARK  2 active torsions:
REMARK  status: ('A' for Active; 'I' for Inactive)
REMARK    1  A    between atoms: C4_4  and  C9_9 
REMARK    2  A    between atoms: C5_5  and  C6_6 
ROOT
HETATM    1  C3  UNL     1     -31.286   7.778   2.506  1.00 20.00     0.017 A 
HETATM    2  C4  UNL     1     -32.296   8.790   2.046  1.00 20.00     0.009 A 
HETATM    3  C6  UNL     1     -32.678   7.777   3.116  1.00 20.00    -0.032 A 
HETATM    4  C8  UNL     1     -32.798   8.318   4.521  1.00 20.00     0.016 C 
ENDROOT
BRANCH   3   5
HETATM    5  C5  UNL     1     -33.643   6.617   2.832  1.00 20.00    -0.036 A 
HETATM    6  C1  UNL     1     -34.439   5.997   3.956  1.00 20.00     0.011 A 
HETATM    7  C2  UNL     1     -35.136   6.832   2.921  1.00 20.00     0.011 A 
HETATM    8  C7  UNL     1     -33.163   5.681   1.751  1.00 20.00     0.016 C 
ENDBRANCH   3   5
BRANCH   2   9
HETATM    9  C9  UNL     1     -32.844   8.724   0.662  1.00 20.00     0.120 C 
HETATM   10 CL10 UNL     1     -32.632  10.277  -0.193  1.00 20.00    -0.130 Cl
ENDBRANCH   2   9
TORSDOF 2
ENDMDL
MODEL 8
REMARK VINA RESULT:      -0.1      1.932      3.407
REMARK  2 active torsions:
REMARK  status: ('A' for Active; 'I' for Inactive)
REMARK    1  A    between atoms: C4_4  and  C9_9 
REMARK    2  A    between atoms: C5_5  and  C6_6 
ROOT
HETATM    1  C3  UNL     1     -31.229   7.574   2.114  1.00 20.00     0.017 A 
HETATM    2  C4  UNL     1     -32.242   6.888   1.244  1.00 20.00     0.009 A 
HETATM    3  C6  UNL     1     -32.695   7.953   2.232  1.00 20.00    -0.032 A 
HETATM    4  C8  UNL     1     -33.099   9.279   1.630  1.00 20.00     0.016 C 
ENDROOT
BRANCH   3   5
HETATM    5  C5  UNL     1     -33.483   7.604   3.502  1.00 20.00    -0.036 A 
HETATM    6  C1  UNL     1     -34.990   7.514   3.463  1.00 20.00     0.011 A 
HETATM    7  C2  UNL     1     -34.172   6.265   3.625  1.00 20.00     0.011 A 
HETATM    8  C7  UNL     1     -32.875   8.164   4.764  1.00 20.00     0.016 C 
ENDBRANCH   3   5
BRANCH   2   9
HETATM    9  C9  UNL     1     -32.544   5.442   1.444  1.00 20.00     0.120 C 
HETATM   10 CL10 UNL     1     -31.584   4.421   0.339  1.00 20.00    -0.130 Cl
ENDBRANCH   2   9
TORSDOF 2
ENDMDL
MODEL 9
REMARK VINA RESULT:       0.0      1.932      3.051
REMARK  2 active torsions:
REMARK  status: ('A' for Active; 'I' for Inactive)
REMARK    1  A    between atoms: C4_4  and  C9_9 
REMARK    2  A    between atoms: C5_5  and  C6_6 
ROOT
HETATM    1  C3  UNL     1     -32.829   5.852   3.295  1.00 20.00     0.017 A 
HETATM    2  C4  UNL     1     -34.111   6.523   2.895  1.00 20.00     0.009 A 
HETATM    3  C6  UNL     1     -32.902   6.596   1.973  1.00 20.00    -0.032 A 
HETATM    4  C8  UNL     1     -32.974   5.747   0.725  1.00 20.00     0.016 C 
ENDROOT
BRANCH   3   5
HETATM    5  C5  UNL     1     -32.107   7.894   1.773  1.00 20.00    -0.036 A 
HETATM    6  C1  UNL     1     -31.623   8.286   0.397  1.00 20.00     0.011 A 
HETATM    7  C2  UNL     1     -32.731   9.063   1.047  1.00 20.00     0.011 A 
HETATM    8  C7  UNL     1     -31.197   8.229   2.928  1.00 20.00     0.016 C 
ENDBRANCH   3   5
BRANCH   2   9
HETATM    9  C9  UNL     1     -34.603   7.710   3.651  1.00 20.00     0.120 C 
HETATM   10 CL10 UNL     1     -33.655   7.965   5.142  1.00 20.00    -0.130 Cl
ENDBRANCH   2   9
TORSDOF 2
ENDMDL
