MODEL 1
REMARK VINA RESULT:       0.2      0.000      0.000
REMARK  1 active torsions:
REMARK  status: ('A' for Active; 'I' for Inactive)
REMARK    1  A    between atoms: C3_3  and  O10_10 
ROOT
HETATM    1  C1  UNL     1     -33.611   5.567   3.100  1.00 20.00     0.143 C 
HETATM    2  C2  UNL     1     -32.958   5.795   1.726  1.00 20.00     0.082 C 
HETATM    3  C3  UNL     1     -33.248   7.317   1.906  1.00 20.00     0.146 C 
HETATM    4  C4  UNL     1     -33.770   7.088   3.370  1.00 20.00     0.040 C 
HETATM    5  C5  UNL     1     -31.512   5.347   1.624  1.00 20.00     0.020 C 
HETATM    6  C6  UNL     1     -32.869   7.593   4.493  1.00 20.00     0.026 C 
HETATM    7  C7  UNL     1     -35.220   7.522   3.575  1.00 20.00     0.026 C 
HETATM    8  O9  UNL     1     -33.885   4.569   3.737  1.00 20.00    -0.297 OA
ENDROOT
BRANCH   3   9
HETATM    9  O10 UNL     1     -32.120   8.203   1.756  1.00 20.00    -0.389 OA
HETATM   10  C8  UNL     1     -32.379   9.181   0.768  1.00 20.00     0.202 C 
ENDBRANCH   3   9
TORSDOF 1
ENDMDL
MODEL 2
REMARK VINA RESULT:       0.3      0.984      3.364
REMARK  1 active torsions:
REMARK  status: ('A' for Active; 'I' for Inactive)
REMARK    1  A    between atoms: C3_3  and  O10_10 
ROOT
HETATM    1  C1  UNL     1     -33.012   7.398   2.271  1.00 20.00     0.143 C 
HETATM    2  C2  UNL     1     -32.502   5.958   2.092  1.00 20.00     0.082 C 
HETATM    3  C3  UNL     1     -33.168   5.615   3.460  1.00 20.00     0.146 C 
HETATM    4  C4  UNL     1     -33.810   7.045   3.555  1.00 20.00     0.040 C 
HETATM    5  C5  UNL     1     -33.011   5.251   0.849  1.00 20.00     0.020 C 
HETATM    6  C6  UNL     1     -35.322   7.119   3.356  1.00 20.00     0.026 C 
HETATM    7  C7  UNL     1     -33.367   7.832   4.786  1.00 20.00     0.026 C 
HETATM    8  O9  UNL     1     -32.855   8.422   1.637  1.00 20.00    -0.297 OA
ENDROOT
BRANCH   3   9
HETATM    9  O10 UNL     1     -34.080   4.498   3.463  1.00 20.00    -0.389 OA
HETATM   10  C8  UNL     1     -33.654   3.505   4.376  1.00 20.00     0.202 C 
ENDBRANCH   3   9
TORSDOF 1
ENDMDL
MODEL 3
REMARK VINA RESULT:       0.6      0.739      2.765
REMARK  1 active torsions:
REMARK  status: ('A' for Active; 'I' for Inactive)
REMARK    1  A    between atoms: C3_3  and  O10_10 
ROOT
HETATM    1  C1  UNL     1     -33.386   5.583   3.009  1.00 20.00     0.143 C 
HETATM    2  C2  UNL     1     -33.202   7.032   3.489  1.00 20.00     0.082 C 
HETATM    3  C3  UNL     1     -32.474   7.325   2.141  1.00 20.00     0.146 C 
HETATM    4  C4  UNL     1     -32.804   5.887   1.602  1.00 20.00     0.040 C 
HETATM    5  C5  UNL     1     -34.492   7.776   3.784  1.00 20.00     0.020 C 
HETATM    6  C6  UNL     1     -33.850   5.808   0.493  1.00 20.00     0.026 C 
HETATM    7  C7  UNL     1     -31.564   5.063   1.263  1.00 20.00     0.026 C 
HETATM    8  O9  UNL     1     -33.831   4.582   3.533  1.00 20.00    -0.297 OA
ENDROOT
BRANCH   3   9
HETATM    9  O10 UNL     1     -32.980   8.434   1.371  1.00 20.00    -0.389 OA
HETATM   10  C8  UNL     1     -31.919   9.159   0.779  1.00 20.00     0.202 C 
ENDBRANCH   3   9
TORSDOF 1
ENDMDL
MODEL 4
REMARK VINA RESULT:       0.7      0.962      3.826
REMARK  1 active torsions:
REMARK  status: ('A' for Active; 'I' for Inactive)
REMARK    1  A    between atoms: C3_3  and  O10_10 
ROOT
HETATM    1  C1  UNL     1     -32.705   7.614   1.937  1.00 20.00     0.143 C 
HETATM    2  C2  UNL     1     -33.617   7.629   3.176  1.00 20.00     0.082 C 
HETATM    3  C3  UNL     1     -34.008   6.158   2.834  1.00 20.00     0.146 C 
HETATM    4  C4  UNL     1     -32.959   6.106   1.666  1.00 20.00     0.040 C 
HETATM    5  C5  UNL     1     -32.905   7.896   4.489  1.00 20.00     0.020 C 
HETATM    6  C6  UNL     1     -31.725   5.240   1.907  1.00 20.00     0.026 C 
HETATM    7  C7  UNL     1     -33.581   5.828   0.299  1.00 20.00     0.026 C 
HETATM    8  O9  UNL     1     -32.032   8.463   1.388  1.00 20.00    -0.297 OA
ENDROOT
BRANCH   3   9
HETATM    9  O10 UNL     1     -33.841   5.192   3.892  1.00 20.00    -0.389 OA
HETATM   10  C8  UNL     1     -35.088   4.868   4.475  1.00 20.00     0.202 C 
ENDBRANCH   3   9
TORSDOF 1
ENDMDL
MODEL 5
REMARK VINA RESULT:       1.5      1.878      2.877
REMARK  1 active torsions:
REMARK  status: ('A' for Active; 'I' for Inactive)
REMARK    1  A    between atoms: C3_3  and  O10_10 
ROOT
HETATM    1  C1  UNL     1     -33.798   7.505   4.144  1.00 20.00     0.143 C 
HETATM    2  C2  UNL     1     -32.623   7.298   3.172  1.00 20.00     0.082 C 
HETATM    3  C3  UNL     1     -33.349   6.016   2.660  1.00 20.00     0.146 C 
HETATM    4  C4  UNL     1     -34.609   6.324   3.545  1.00 20.00     0.040 C 
HETATM    5  C5  UNL     1     -32.398   8.435   2.193  1.00 20.00     0.020 C 
HETATM    6  C6  UNL     1     -35.862   6.777   2.799  1.00 20.00     0.026 C 
HETATM    7  C7  UNL     1     -34.926   5.226   4.558  1.00 20.00     0.026 C 
HETATM    8  O9  UNL     1     -34.012   8.302   5.035  1.00 20.00    -0.297 OA
ENDROOT
BRANCH   3   9
HETATM    9  O10 UNL     1     -33.566   5.932   1.237  1.00 20.00    -0.389 OA
HETATM   10  C8  UNL     1     -32.647   5.038   0.641  1.00 20.00     0.202 C 
ENDBRANCH   3   9
TORSDOF 1
ENDMDL
MODEL 6
REMARK VINA RESULT:       1.7      1.689      2.844
REMARK  1 active torsions:
REMARK  status: ('A' for Active; 'I' for Inactive)
REMARK    1  A    between atoms: C3_3  and  O10_10 
ROOT
HETATM    1  C1  UNL     1     -33.657   7.454   3.165  1.00 20.00     0.143 C 
HETATM    2  C2  UNL     1     -33.856   6.009   2.677  1.00 20.00     0.082 C 
HETATM    3  C3  UNL     1     -32.818   6.308   1.552  1.00 20.00     0.146 C 
HETATM    4  C4  UNL     1     -32.511   7.726   2.153  1.00 20.00     0.040 C 
HETATM    5  C5  UNL     1     -33.519   4.938   3.698  1.00 20.00     0.020 C 
HETATM    6  C6  UNL     1     -31.150   7.893   2.823  1.00 20.00     0.026 C 
HETATM    7  C7  UNL     1     -32.808   8.874   1.190  1.00 20.00     0.026 C 
HETATM    8  O9  UNL     1     -34.190   8.123   4.028  1.00 20.00    -0.297 OA
ENDROOT
BRANCH   3   9
HETATM    9  O10 UNL     1     -31.705   5.396   1.452  1.00 20.00    -0.389 OA
HETATM   10  C8  UNL     1     -31.872   4.520   0.355  1.00 20.00     0.202 C 
ENDBRANCH   3   9
TORSDOF 1
ENDMDL
MODEL 7
REMARK VINA RESULT:       1.8      1.827      2.432
REMARK  1 active torsions:
REMARK  status: ('A' for Active; 'I' for Inactive)
REMARK    1  A    between atoms: C3_3  and  O10_10 
ROOT
HETATM    1  C1  UNL     1     -35.094   5.056   4.507  1.00 20.00     0.143 C 
HETATM    2  C2  UNL     1     -34.141   4.189   3.667  1.00 20.00     0.082 C 
HETATM    3  C3  UNL     1     -33.928   5.426   2.739  1.00 20.00     0.146 C 
HETATM    4  C4  UNL     1     -34.780   6.339   3.691  1.00 20.00     0.040 C 
HETATM    5  C5  UNL     1     -32.942   3.644   4.421  1.00 20.00     0.020 C 
HETATM    6  C6  UNL     1     -34.007   7.382   4.494  1.00 20.00     0.026 C 
HETATM    7  C7  UNL     1     -36.007   6.948   3.015  1.00 20.00     0.026 C 
HETATM    8  O9  UNL     1     -35.812   4.822   5.458  1.00 20.00    -0.297 OA
ENDROOT
BRANCH   3   9
HETATM    9  O10 UNL     1     -32.562   5.827   2.515  1.00 20.00    -0.389 OA
HETATM   10  C8  UNL     1     -32.233   5.741   1.142  1.00 20.00     0.202 C 
ENDBRANCH   3   9
TORSDOF 1
ENDMDL
MODEL 8
REMARK VINA RESULT:       2.8      1.798      2.558
REMARK  1 active torsions:
REMARK  status: ('A' for Active; 'I' for Inactive)
REMARK    1  A    between atoms: C3_3  and  O10_10 
ROOT
HETATM    1  C1  UNL     1     -33.585   6.286   1.828  1.00 20.00     0.143 C 
HETATM    2  C2  UNL     1     -32.908   7.652   2.033  1.00 20.00     0.082 C 
HETATM    3  C3  UNL     1     -33.518   7.674   3.468  1.00 20.00     0.146 C 
HETATM    4  C4  UNL     1     -34.073   6.214   3.300  1.00 20.00     0.040 C 
HETATM    5  C5  UNL     1     -31.397   7.642   1.896  1.00 20.00     0.020 C 
HETATM    6  C6  UNL     1     -33.370   5.128   4.110  1.00 20.00     0.026 C 
HETATM    7  C7  UNL     1     -35.592   6.119   3.435  1.00 20.00     0.026 C 
HETATM    8  O9  UNL     1     -33.686   5.541   0.874  1.00 20.00    -0.297 OA
ENDROOT
BRANCH   3   9
HETATM    9  O10 UNL     1     -32.592   7.889   4.552  1.00 20.00    -0.389 OA
HETATM   10  C8  UNL     1     -33.237   8.509   5.647  1.00 20.00     0.202 C 
ENDBRANCH   3   9
TORSDOF 1
ENDMDL
MODEL 9
REMARK VINA RESULT:       2.8      1.732      3.234
REMARK  1 active torsions:
REMARK  status: ('A' for Active; 'I' for Inactive)
REMARK    1  A    between atoms: C3_3  and  O10_10 
ROOT
HETATM    1  C1  UNL     1     -33.208   6.252   1.798  1.00 20.00     0.143 C 
HETATM    2  C2  UNL     1     -33.670   6.110   3.259  1.00 20.00     0.082 C 
HETATM    3  C3  UNL     1     -32.812   7.369   3.592  1.00 20.00     0.146 C 
HETATM    4  C4  UNL     1     -32.473   7.591   2.074  1.00 20.00     0.040 C 
HETATM    5  C5  UNL     1     -35.172   6.191   3.463  1.00 20.00     0.020 C 
HETATM    6  C6  UNL     1     -33.141   8.788   1.403  1.00 20.00     0.026 C 
HETATM    7  C7  UNL     1     -30.977   7.540   1.770  1.00 20.00     0.026 C 
HETATM    8  O9  UNL     1     -33.370   5.574   0.804  1.00 20.00    -0.297 OA
ENDROOT
BRANCH   3   9
HETATM    9  O10 UNL     1     -33.495   8.446   4.264  1.00 20.00    -0.389 OA
HETATM   10  C8  UNL     1     -33.142   8.487   5.633  1.00 20.00     0.202 C 
ENDBRANCH   3   9
TORSDOF 1
ENDMDL
