MODEL 1
REMARK VINA RESULT:      -1.3      0.000      0.000
REMARK  0 active torsions:
REMARK  status: ('A' for Active; 'I' for Inactive)
ROOT
HETATM    1  C1  UNL     1     -33.530   3.707   4.482  1.00 20.00     0.068 C 
HETATM    2  C2  UNL     1     -32.835   5.280   1.673  1.00 20.00     0.010 A 
HETATM    3  C3  UNL     1     -32.189   6.377   1.098  1.00 20.00     0.019 A 
HETATM    4  C4  UNL     1     -33.137   7.870   2.769  1.00 20.00     0.026 A 
HETATM    5  C5  UNL     1     -33.631   5.494   2.788  1.00 20.00    -0.034 A 
HETATM    6  C6  UNL     1     -33.784   6.778   3.326  1.00 20.00    -0.049 A 
HETATM    7  C7  UNL     1     -32.338   7.662   1.643  1.00 20.00     0.011 A 
HETATM    8  C8  UNL     1     -34.656   6.750   4.540  1.00 20.00     0.041 C 
HETATM    9  C9  UNL     1     -35.363   5.393   4.368  1.00 20.00     0.028 C 
HETATM   10  C10 UNL     1     -34.398   4.478   3.584  1.00 20.00     0.126 C 
HETATM   11  N11 UNL     1     -32.844   3.098   5.193  1.00 20.00    -0.197 NA
HETATM   12 BR12 UNL     1     -31.442   9.125   0.847  1.00 20.00    -0.051 Br
ENDROOT
TORSDOF 0
ENDMDL
