MODEL 1
REMARK VINA RESULT:       0.8      0.000      0.000
REMARK  0 active torsions:
REMARK  status: ('A' for Active; 'I' for Inactive)
ROOT
HETATM    1  C1  UNL     1     -34.106   7.473   4.587  1.00 20.00     0.007 C 
HETATM    2  C2  UNL     1     -32.939   6.930   3.749  1.00 20.00     0.027 C 
HETATM    3  C3  UNL     1     -35.285   5.274   4.442  1.00 20.00     0.027 C 
HETATM    4  C4  UNL     1     -34.947   6.655   2.511  1.00 20.00     0.032 C 
HETATM    5  C5  UNL     1     -35.326   6.749   3.992  1.00 20.00    -0.011 C 
HETATM    6  C6  UNL     1     -34.166   4.683   3.566  1.00 20.00     0.106 C 
HETATM    7  C7  UNL     1     -33.635   5.923   2.812  1.00 20.00     0.054 C 
HETATM    8 CL8  UNL     1     -32.944   3.812   4.512  1.00 20.00    -0.123 Cl
HETATM    9 CL9  UNL     1     -32.683   5.529   1.389  1.00 20.00    -0.118 Cl
ENDROOT
TORSDOF 0
ENDMDL
MODEL 2
REMARK VINA RESULT:       1.1      1.746      2.411
REMARK  0 active torsions:
REMARK  status: ('A' for Active; 'I' for Inactive)
ROOT
HETATM    1  C1  UNL     1     -32.804   7.806   4.599  1.00 20.00     0.007 C 
HETATM    2  C2  UNL     1     -31.927   8.256   3.422  1.00 20.00     0.027 C 
HETATM    3  C3  UNL     1     -33.951   6.121   3.151  1.00 20.00     0.027 C 
HETATM    4  C4  UNL     1     -34.206   8.477   2.790  1.00 20.00     0.032 C 
HETATM    5  C5  UNL     1     -34.137   7.446   3.919  1.00 20.00    -0.011 C 
HETATM    6  C6  UNL     1     -33.129   6.554   1.924  1.00 20.00     0.106 C 
HETATM    7  C7  UNL     1     -32.855   8.047   2.209  1.00 20.00     0.054 C 
HETATM    8 CL8  UNL     1     -31.675   5.566   1.690  1.00 20.00    -0.123 Cl
HETATM    9 CL9  UNL     1     -32.354   8.956   0.791  1.00 20.00    -0.118 Cl
ENDROOT
TORSDOF 0
ENDMDL
MODEL 3
REMARK VINA RESULT:       1.3      2.310      3.332
REMARK  0 active torsions:
REMARK  status: ('A' for Active; 'I' for Inactive)
ROOT
HETATM    1  C1  UNL     1     -32.018   5.357   2.169  1.00 20.00     0.007 C 
HETATM    2  C2  UNL     1     -33.071   5.268   3.284  1.00 20.00     0.027 C 
HETATM    3  C3  UNL     1     -32.240   7.846   2.105  1.00 20.00     0.027 C 
HETATM    4  C4  UNL     1     -34.031   6.402   1.431  1.00 20.00     0.032 C 
HETATM    5  C5  UNL     1     -32.510   6.544   1.323  1.00 20.00    -0.011 C 
HETATM    6  C6  UNL     1     -33.328   7.820   3.193  1.00 20.00     0.106 C 
HETATM    7  C7  UNL     1     -34.006   6.451   2.962  1.00 20.00     0.054 C 
HETATM    8 CL8  UNL     1     -32.672   8.056   4.824  1.00 20.00    -0.123 Cl
HETATM    9 CL9  UNL     1     -35.586   6.309   3.718  1.00 20.00    -0.118 Cl
ENDROOT
TORSDOF 0
ENDMDL
MODEL 4
REMARK VINA RESULT:       1.6      1.062      2.766
REMARK  0 active torsions:
REMARK  status: ('A' for Active; 'I' for Inactive)
ROOT
HETATM    1  C1  UNL     1     -35.027   7.856   3.453  1.00 20.00     0.007 C 
HETATM    2  C2  UNL     1     -35.287   6.344   3.380  1.00 20.00     0.027 C 
HETATM    3  C3  UNL     1     -32.759   7.553   2.446  1.00 20.00     0.027 C 
HETATM    4  C4  UNL     1     -33.296   6.706   4.624  1.00 20.00     0.032 C 
HETATM    5  C5  UNL     1     -33.516   7.934   3.735  1.00 20.00    -0.011 C 
HETATM    6  C6  UNL     1     -32.944   6.026   2.382  1.00 20.00     0.106 C 
HETATM    7  C7  UNL     1     -33.879   5.748   3.580  1.00 20.00     0.054 C 
HETATM    8 CL8  UNL     1     -33.564   5.477   0.814  1.00 20.00    -0.123 Cl
HETATM    9 CL9  UNL     1     -33.906   4.063   4.078  1.00 20.00    -0.118 Cl
ENDROOT
TORSDOF 0
ENDMDL
MODEL 5
REMARK VINA RESULT:       1.8      1.592      2.906
REMARK  0 active torsions:
REMARK  status: ('A' for Active; 'I' for Inactive)
ROOT
HETATM    1  C1  UNL     1     -35.351   6.808   2.871  1.00 20.00     0.007 C 
HETATM    2  C2  UNL     1     -34.534   6.399   1.636  1.00 20.00     0.027 C 
HETATM    3  C3  UNL     1     -33.348   7.918   3.875  1.00 20.00     0.027 C 
HETATM    4  C4  UNL     1     -33.453   5.542   3.570  1.00 20.00     0.032 C 
HETATM    5  C5  UNL     1     -34.319   6.726   4.010  1.00 20.00    -0.011 C 
HETATM    6  C6  UNL     1     -32.468   7.504   2.682  1.00 20.00     0.106 C 
HETATM    7  C7  UNL     1     -33.123   6.185   2.219  1.00 20.00     0.054 C 
HETATM    8 CL8  UNL     1     -32.371   8.762   1.434  1.00 20.00    -0.123 Cl
HETATM    9 CL9  UNL     1     -32.089   5.209   1.186  1.00 20.00    -0.118 Cl
ENDROOT
TORSDOF 0
ENDMDL
MODEL 6
REMARK VINA RESULT:       2.1      2.658      3.550
REMARK  0 active torsions:
REMARK  status: ('A' for Active; 'I' for Inactive)
ROOT
HETATM    1  C1  UNL     1     -32.825   8.572   1.025  1.00 20.00     0.007 C 
HETATM    2  C2  UNL     1     -33.372   9.021   2.388  1.00 20.00     0.027 C 
HETATM    3  C3  UNL     1     -32.901   6.178   1.738  1.00 20.00     0.027 C 
HETATM    4  C4  UNL     1     -31.399   7.749   2.750  1.00 20.00     0.032 C 
HETATM    5  C5  UNL     1     -31.962   7.349   1.383  1.00 20.00    -0.011 C 
HETATM    6  C6  UNL     1     -33.414   6.566   3.137  1.00 20.00     0.106 C 
HETATM    7  C7  UNL     1     -32.792   7.964   3.350  1.00 20.00     0.054 C 
HETATM    8 CL8  UNL     1     -35.183   6.516   3.255  1.00 20.00    -0.123 Cl
HETATM    9 CL9  UNL     1     -32.785   8.485   5.027  1.00 20.00    -0.118 Cl
ENDROOT
TORSDOF 0
ENDMDL
MODEL 7
REMARK VINA RESULT:       2.4      1.727      2.488
REMARK  0 active torsions:
REMARK  status: ('A' for Active; 'I' for Inactive)
ROOT
HETATM    1  C1  UNL     1     -31.269   7.255   2.289  1.00 20.00     0.007 C 
HETATM    2  C2  UNL     1     -31.628   5.915   1.629  1.00 20.00     0.027 C 
HETATM    3  C3  UNL     1     -33.498   7.341   3.416  1.00 20.00     0.027 C 
HETATM    4  C4  UNL     1     -33.281   7.514   1.035  1.00 20.00     0.032 C 
HETATM    5  C5  UNL     1     -32.619   7.993   2.329  1.00 20.00    -0.011 C 
HETATM    6  C6  UNL     1     -33.932   6.021   2.754  1.00 20.00     0.106 C 
HETATM    7  C7  UNL     1     -33.151   6.037   1.422  1.00 20.00     0.054 C 
HETATM    8 CL8  UNL     1     -33.620   4.607   3.778  1.00 20.00    -0.123 Cl
HETATM    9 CL9  UNL     1     -33.777   4.917   0.222  1.00 20.00    -0.118 Cl
ENDROOT
TORSDOF 0
ENDMDL
MODEL 8
REMARK VINA RESULT:       2.4      2.281      3.328
REMARK  0 active torsions:
REMARK  status: ('A' for Active; 'I' for Inactive)
ROOT
HETATM    1  C1  UNL     1     -33.577   5.174   0.453  1.00 20.00     0.007 C 
HETATM    2  C2  UNL     1     -33.649   6.694   0.664  1.00 20.00     0.027 C 
HETATM    3  C3  UNL     1     -33.324   4.805   2.912  1.00 20.00     0.027 C 
HETATM    4  C4  UNL     1     -31.625   5.896   1.619  1.00 20.00     0.032 C 
HETATM    5  C5  UNL     1     -32.601   4.718   1.552  1.00 20.00    -0.011 C 
HETATM    6  C6  UNL     1     -33.350   6.319   3.186  1.00 20.00     0.106 C 
HETATM    7  C7  UNL     1     -32.743   6.908   1.893  1.00 20.00     0.054 C 
HETATM    8 CL8  UNL     1     -34.974   6.915   3.579  1.00 20.00    -0.123 Cl
HETATM    9 CL9  UNL     1     -32.191   8.567   2.065  1.00 20.00    -0.118 Cl
ENDROOT
TORSDOF 0
ENDMDL
MODEL 9
REMARK VINA RESULT:       2.5      2.510      3.823
REMARK  0 active torsions:
REMARK  status: ('A' for Active; 'I' for Inactive)
ROOT
HETATM    1  C1  UNL     1     -32.258   9.048   0.946  1.00 20.00     0.007 C 
HETATM    2  C2  UNL     1     -33.583   8.607   1.585  1.00 20.00     0.027 C 
HETATM    3  C3  UNL     1     -31.307   6.755   1.244  1.00 20.00     0.027 C 
HETATM    4  C4  UNL     1     -31.823   8.160   3.117  1.00 20.00     0.032 C 
HETATM    5  C5  UNL     1     -31.211   8.221   1.714  1.00 20.00    -0.011 C 
HETATM    6  C6  UNL     1     -32.595   6.263   1.928  1.00 20.00     0.106 C 
HETATM    7  C7  UNL     1     -33.129   7.544   2.606  1.00 20.00     0.054 C 
HETATM    8 CL8  UNL     1     -33.724   5.500   0.793  1.00 20.00    -0.123 Cl
HETATM    9 CL9  UNL     1     -34.321   7.234   3.859  1.00 20.00    -0.118 Cl
ENDROOT
TORSDOF 0
ENDMDL
