MODEL 1
REMARK VINA RESULT:      -2.1      0.000      0.000
REMARK  1 active torsions:
REMARK  status: ('A' for Active; 'I' for Inactive)
REMARK       I    between atoms: C1_1  and  N5_5 
REMARK    1  A    between atoms: C4_4  and  N5_5 
ROOT
HETATM    1  C1  UNL     1     -34.189   4.287   4.278  1.00 20.00     0.314 C 
HETATM    2  N5  UNL     1     -33.463   5.157   3.467  1.00 20.00    -0.343 N 
HETATM    3  O6  UNL     1     -35.326   4.533   4.678  1.00 20.00    -0.254 OA
HETATM    4 CL7  UNL     1     -33.305   2.829   4.651  1.00 20.00    -0.020 Cl
HETATM    5  H13 UNL     1     -32.523   4.877   3.178  1.00 20.00     0.164 HD
ENDROOT
BRANCH   2   6
HETATM    6  C4  UNL     1     -33.957   6.411   3.022  1.00 20.00     0.085 A 
HETATM    7  C2  UNL     1     -34.005   7.600   3.942  1.00 20.00     0.027 A 
HETATM    8  C3  UNL     1     -33.034   7.578   2.799  1.00 20.00     0.027 A 
ENDBRANCH   2   6
TORSDOF 1
ENDMDL
MODEL 2
REMARK VINA RESULT:      -2.1      2.575      3.113
REMARK  1 active torsions:
REMARK  status: ('A' for Active; 'I' for Inactive)
REMARK       I    between atoms: C1_1  and  N5_5 
REMARK    1  A    between atoms: C4_4  and  N5_5 
ROOT
HETATM    1  C1  UNL     1     -34.131   7.254   3.958  1.00 20.00     0.314 C 
HETATM    2  N5  UNL     1     -33.449   7.164   2.746  1.00 20.00    -0.343 N 
HETATM    3  O6  UNL     1     -33.825   8.051   4.843  1.00 20.00    -0.254 OA
HETATM    4 CL7  UNL     1     -35.451   6.117   4.066  1.00 20.00    -0.020 Cl
HETATM    5  H13 UNL     1     -33.767   6.474   2.062  1.00 20.00     0.164 HD
ENDROOT
BRANCH   2   6
HETATM    6  C4  UNL     1     -32.336   7.978   2.410  1.00 20.00     0.085 A 
HETATM    7  C2  UNL     1     -31.404   7.600   1.292  1.00 20.00     0.027 A 
HETATM    8  C3  UNL     1     -32.313   8.784   1.140  1.00 20.00     0.027 A 
ENDBRANCH   2   6
TORSDOF 1
ENDMDL
MODEL 3
REMARK VINA RESULT:      -1.8      4.110      4.527
REMARK  1 active torsions:
REMARK  status: ('A' for Active; 'I' for Inactive)
REMARK       I    between atoms: C1_1  and  N5_5 
REMARK    1  A    between atoms: C4_4  and  N5_5 
ROOT
HETATM    1  C1  UNL     1     -32.146   8.226   1.510  1.00 20.00     0.314 C 
HETATM    2  N5  UNL     1     -33.254   8.180   2.354  1.00 20.00    -0.343 N 
HETATM    3  O6  UNL     1     -31.206   7.437   1.593  1.00 20.00    -0.254 OA
HETATM    4 CL7  UNL     1     -32.251   9.517   0.340  1.00 20.00    -0.020 Cl
HETATM    5  H13 UNL     1     -33.993   8.873   2.219  1.00 20.00     0.164 HD
ENDROOT
BRANCH   2   6
HETATM    6  C4  UNL     1     -33.411   7.224   3.391  1.00 20.00     0.085 A 
HETATM    7  C2  UNL     1     -34.098   7.580   4.681  1.00 20.00     0.027 A 
HETATM    8  C3  UNL     1     -34.759   6.640   3.716  1.00 20.00     0.027 A 
ENDBRANCH   2   6
TORSDOF 1
ENDMDL
MODEL 4
REMARK VINA RESULT:      -1.6      3.556      4.154
REMARK  1 active torsions:
REMARK  status: ('A' for Active; 'I' for Inactive)
REMARK       I    between atoms: C1_1  and  N5_5 
REMARK    1  A    between atoms: C4_4  and  N5_5 
ROOT
HETATM    1  C1  UNL     1     -32.781   6.983   2.049  1.00 20.00     0.314 C 
HETATM    2  N5  UNL     1     -32.825   8.365   1.873  1.00 20.00    -0.343 N 
HETATM    3  O6  UNL     1     -32.061   6.243   1.381  1.00 20.00    -0.254 OA
HETATM    4 CL7  UNL     1     -33.855   6.438   3.313  1.00 20.00    -0.020 Cl
HETATM    5  H13 UNL     1     -33.452   8.908   2.470  1.00 20.00     0.164 HD
ENDROOT
BRANCH   2   6
HETATM    6  C4  UNL     1     -32.048   9.058   0.908  1.00 20.00     0.085 A 
HETATM    7  C2  UNL     1     -32.550   9.263  -0.494  1.00 20.00     0.027 A 
HETATM    8  C3  UNL     1     -32.434  10.433   0.437  1.00 20.00     0.027 A 
ENDBRANCH   2   6
TORSDOF 1
ENDMDL
MODEL 5
REMARK VINA RESULT:      -1.6      2.998      3.296
REMARK  1 active torsions:
REMARK  status: ('A' for Active; 'I' for Inactive)
REMARK       I    between atoms: C1_1  and  N5_5 
REMARK    1  A    between atoms: C4_4  and  N5_5 
ROOT
HETATM    1  C1  UNL     1     -32.338   6.418   1.660  1.00 20.00     0.314 C 
HETATM    2  N5  UNL     1     -33.455   6.024   2.394  1.00 20.00    -0.343 N 
HETATM    3  O6  UNL     1     -32.014   7.595   1.511  1.00 20.00    -0.254 OA
HETATM    4 CL7  UNL     1     -31.469   5.061   0.989  1.00 20.00    -0.020 Cl
HETATM    5  H13 UNL     1     -33.656   5.025   2.470  1.00 20.00     0.164 HD
ENDROOT
BRANCH   2   6
HETATM    6  C4  UNL     1     -34.330   6.936   3.042  1.00 20.00     0.085 A 
HETATM    7  C2  UNL     1     -35.251   6.484   4.141  1.00 20.00     0.027 A 
HETATM    8  C3  UNL     1     -34.088   7.376   4.460  1.00 20.00     0.027 A 
ENDBRANCH   2   6
TORSDOF 1
ENDMDL
MODEL 6
REMARK VINA RESULT:      -1.5      2.352      2.825
REMARK  1 active torsions:
REMARK  status: ('A' for Active; 'I' for Inactive)
REMARK       I    between atoms: C1_1  and  N5_5 
REMARK    1  A    between atoms: C4_4  and  N5_5 
ROOT
HETATM    1  C1  UNL     1     -33.976   6.236   3.344  1.00 20.00     0.314 C 
HETATM    2  N5  UNL     1     -33.514   7.534   3.136  1.00 20.00    -0.343 N 
HETATM    3  O6  UNL     1     -33.335   5.235   3.028  1.00 20.00    -0.254 OA
HETATM    4 CL7  UNL     1     -35.551   6.202   4.097  1.00 20.00    -0.020 Cl
HETATM    5  H13 UNL     1     -34.109   8.311   3.428  1.00 20.00     0.164 HD
ENDROOT
BRANCH   2   6
HETATM    6  C4  UNL     1     -32.261   7.834   2.539  1.00 20.00     0.085 A 
HETATM    7  C2  UNL     1     -31.867   7.242   1.215  1.00 20.00     0.027 A 
HETATM    8  C3  UNL     1     -32.168   8.708   1.319  1.00 20.00     0.027 A 
ENDBRANCH   2   6
TORSDOF 1
ENDMDL
MODEL 7
REMARK VINA RESULT:      -1.4      3.128      3.699
REMARK  1 active torsions:
REMARK  status: ('A' for Active; 'I' for Inactive)
REMARK       I    between atoms: C1_1  and  N5_5 
REMARK    1  A    between atoms: C4_4  and  N5_5 
ROOT
HETATM    1  C1  UNL     1     -32.655   6.555   1.919  1.00 20.00     0.314 C 
HETATM    2  N5  UNL     1     -33.620   6.670   2.918  1.00 20.00    -0.343 N 
HETATM    3  O6  UNL     1     -32.541   5.559   1.207  1.00 20.00    -0.254 OA
HETATM    4 CL7  UNL     1     -31.643   7.973   1.804  1.00 20.00    -0.020 Cl
HETATM    5  H13 UNL     1     -33.647   7.532   3.466  1.00 20.00     0.164 HD
ENDROOT
BRANCH   2   6
HETATM    6  C4  UNL     1     -34.566   5.655   3.215  1.00 20.00     0.085 A 
HETATM    7  C2  UNL     1     -34.300   4.631   4.284  1.00 20.00     0.027 A 
HETATM    8  C3  UNL     1     -35.356   5.675   4.495  1.00 20.00     0.027 A 
ENDBRANCH   2   6
TORSDOF 1
ENDMDL
MODEL 8
REMARK VINA RESULT:      -1.2      2.299      3.654
REMARK  1 active torsions:
REMARK  status: ('A' for Active; 'I' for Inactive)
REMARK       I    between atoms: C1_1  and  N5_5 
REMARK    1  A    between atoms: C4_4  and  N5_5 
ROOT
HETATM    1  C1  UNL     1     -34.284   6.156   3.614  1.00 20.00     0.314 C 
HETATM    2  N5  UNL     1     -33.499   5.009   3.712  1.00 20.00    -0.343 N 
HETATM    3  O6  UNL     1     -35.409   6.244   4.103  1.00 20.00    -0.254 OA
HETATM    4 CL7  UNL     1     -33.491   7.433   2.726  1.00 20.00    -0.020 Cl
HETATM    5  H13 UNL     1     -32.574   5.018   3.277  1.00 20.00     0.164 HD
ENDROOT
BRANCH   2   6
HETATM    6  C4  UNL     1     -33.914   3.829   4.383  1.00 20.00     0.085 A 
HETATM    7  C2  UNL     1     -33.222   2.515   4.149  1.00 20.00     0.027 A 
HETATM    8  C3  UNL     1     -33.075   3.213   5.469  1.00 20.00     0.027 A 
ENDBRANCH   2   6
TORSDOF 1
ENDMDL
MODEL 9
REMARK VINA RESULT:      -1.0      4.917      5.475
REMARK  1 active torsions:
REMARK  status: ('A' for Active; 'I' for Inactive)
REMARK       I    between atoms: C1_1  and  N5_5 
REMARK    1  A    between atoms: C4_4  and  N5_5 
ROOT
HETATM    1  C1  UNL     1     -31.993   9.145   0.610  1.00 20.00     0.314 C 
HETATM    2  N5  UNL     1     -32.677   8.395   1.565  1.00 20.00    -0.343 N 
HETATM    3  O6  UNL     1     -30.969   8.751   0.054  1.00 20.00    -0.254 OA
HETATM    4 CL7  UNL     1     -32.752  10.687   0.305  1.00 20.00    -0.020 Cl
HETATM    5  H13 UNL     1     -33.521   8.796   1.980  1.00 20.00     0.164 HD
ENDROOT
BRANCH   2   6
HETATM    6  C4  UNL     1     -32.266   7.105   1.992  1.00 20.00     0.085 A 
HETATM    7  C2  UNL     1     -33.230   6.159   2.651  1.00 20.00     0.027 A 
HETATM    8  C3  UNL     1     -32.718   5.864   1.272  1.00 20.00     0.027 A 
ENDBRANCH   2   6
TORSDOF 1
ENDMDL
