MODEL 1
REMARK VINA RESULT:      -1.7      0.000      0.000
REMARK  1 active torsions:
REMARK  status: ('A' for Active; 'I' for Inactive)
REMARK    1  A    between atoms: C1_1  and  C5_5 
ROOT
HETATM    1  C1  UNL     1     -32.878   7.966   2.266  1.00 20.00    -0.089 C 
HETATM    2  C2  UNL     1     -32.629   8.691   1.342  1.00 20.00    -0.023 C 
HETATM    3 BR6  UNL     1     -32.232   9.838  -0.121  1.00 20.00     0.010 Br
ENDROOT
BRANCH   1   4
HETATM    4  C5  UNL     1     -33.178   7.103   3.369  1.00 20.00     0.066 A 
HETATM    5  C3  UNL     1     -34.605   6.682   3.593  1.00 20.00     0.018 A 
HETATM    6  C4  UNL     1     -33.958   7.655   4.532  1.00 20.00     0.018 A 
ENDBRANCH   1   4
TORSDOF 1
ENDMDL
MODEL 2
REMARK VINA RESULT:      -1.6      2.599      4.169
REMARK  1 active torsions:
REMARK  status: ('A' for Active; 'I' for Inactive)
REMARK    1  A    between atoms: C1_1  and  C5_5 
ROOT
HETATM    1  C1  UNL     1     -32.625   8.229   1.722  1.00 20.00    -0.089 C 
HETATM    2  C2  UNL     1     -33.213   7.501   2.474  1.00 20.00    -0.023 C 
HETATM    3 BR6  UNL     1     -34.144   6.347   3.663  1.00 20.00     0.010 Br
ENDROOT
BRANCH   1   4
HETATM    4  C5  UNL     1     -31.924   9.099   0.826  1.00 20.00     0.066 A 
HETATM    5  C3  UNL     1     -32.505  10.455   0.530  1.00 20.00     0.018 A 
HETATM    6  C4  UNL     1     -32.525   9.389  -0.523  1.00 20.00     0.018 A 
ENDBRANCH   1   4
TORSDOF 1
ENDMDL
MODEL 3
REMARK VINA RESULT:      -1.6      3.886      4.614
REMARK  1 active torsions:
REMARK  status: ('A' for Active; 'I' for Inactive)
REMARK    1  A    between atoms: C1_1  and  C5_5 
ROOT
HETATM    1  C1  UNL     1     -34.253   5.197   3.977  1.00 20.00    -0.089 C 
HETATM    2  C2  UNL     1     -33.863   4.088   4.221  1.00 20.00    -0.023 C 
HETATM    3 BR6  UNL     1     -33.245   2.333   4.609  1.00 20.00     0.010 Br
ENDROOT
BRANCH   1   4
HETATM    4  C5  UNL     1     -34.718   6.519   3.684  1.00 20.00     0.066 A 
HETATM    5  C3  UNL     1     -33.782   7.482   3.004  1.00 20.00     0.018 A 
HETATM    6  C4  UNL     1     -34.136   7.679   4.447  1.00 20.00     0.018 A 
ENDBRANCH   1   4
TORSDOF 1
ENDMDL
MODEL 4
REMARK VINA RESULT:      -1.5      1.675      2.075
REMARK  1 active torsions:
REMARK  status: ('A' for Active; 'I' for Inactive)
REMARK    1  A    between atoms: C1_1  and  C5_5 
ROOT
HETATM    1  C1  UNL     1     -32.206   7.972   1.363  1.00 20.00    -0.089 C 
HETATM    2  C2  UNL     1     -32.353   9.049   0.854  1.00 20.00    -0.023 C 
HETATM    3 BR6  UNL     1     -32.586  10.756   0.049  1.00 20.00     0.010 Br
ENDROOT
BRANCH   1   4
HETATM    4  C5  UNL     1     -32.031   6.686   1.968  1.00 20.00     0.066 A 
HETATM    5  C3  UNL     1     -32.477   5.463   1.213  1.00 20.00     0.018 A 
HETATM    6  C4  UNL     1     -33.248   5.921   2.414  1.00 20.00     0.018 A 
ENDBRANCH   1   4
TORSDOF 1
ENDMDL
MODEL 5
REMARK VINA RESULT:      -1.3      2.807      3.976
REMARK  1 active torsions:
REMARK  status: ('A' for Active; 'I' for Inactive)
REMARK    1  A    between atoms: C1_1  and  C5_5 
ROOT
HETATM    1  C1  UNL     1     -33.017   7.553   2.765  1.00 20.00    -0.089 C 
HETATM    2  C2  UNL     1     -33.891   6.941   3.314  1.00 20.00    -0.023 C 
HETATM    3 BR6  UNL     1     -35.275   5.970   4.183  1.00 20.00     0.010 Br
ENDROOT
BRANCH   1   4
HETATM    4  C5  UNL     1     -31.975   8.285   2.109  1.00 20.00     0.066 A 
HETATM    5  C3  UNL     1     -32.331   9.161   0.938  1.00 20.00     0.018 A 
HETATM    6  C4  UNL     1     -31.574   7.886   0.714  1.00 20.00     0.018 A 
ENDBRANCH   1   4
TORSDOF 1
ENDMDL
MODEL 6
REMARK VINA RESULT:      -0.7      2.581      2.770
REMARK  1 active torsions:
REMARK  status: ('A' for Active; 'I' for Inactive)
REMARK    1  A    between atoms: C1_1  and  C5_5 
ROOT
HETATM    1  C1  UNL     1     -33.427   6.381   2.282  1.00 20.00    -0.089 C 
HETATM    2  C2  UNL     1     -32.677   5.703   1.636  1.00 20.00    -0.023 C 
HETATM    3 BR6  UNL     1     -31.487   4.630   0.613  1.00 20.00     0.010 Br
ENDROOT
BRANCH   1   4
HETATM    4  C5  UNL     1     -34.324   7.190   3.052  1.00 20.00     0.066 A 
HETATM    5  C3  UNL     1     -34.009   7.443   4.502  1.00 20.00     0.018 A 
HETATM    6  C4  UNL     1     -35.146   6.539   4.131  1.00 20.00     0.018 A 
ENDBRANCH   1   4
TORSDOF 1
ENDMDL
MODEL 7
REMARK VINA RESULT:      -0.7      3.651      4.337
REMARK  1 active torsions:
REMARK  status: ('A' for Active; 'I' for Inactive)
REMARK    1  A    between atoms: C1_1  and  C5_5 
ROOT
HETATM    1  C1  UNL     1     -33.320   5.849   2.800  1.00 20.00    -0.089 C 
HETATM    2  C2  UNL     1     -33.420   4.849   3.456  1.00 20.00    -0.023 C 
HETATM    3 BR6  UNL     1     -33.578   3.267   4.497  1.00 20.00     0.010 Br
ENDROOT
BRANCH   1   4
HETATM    4  C5  UNL     1     -33.199   7.041   2.015  1.00 20.00     0.066 A 
HETATM    5  C3  UNL     1     -31.889   7.332   1.334  1.00 20.00     0.018 A 
HETATM    6  C4  UNL     1     -32.316   8.153   2.513  1.00 20.00     0.018 A 
ENDBRANCH   1   4
TORSDOF 1
ENDMDL
MODEL 8
REMARK VINA RESULT:      -0.5      2.146      2.646
REMARK  1 active torsions:
REMARK  status: ('A' for Active; 'I' for Inactive)
REMARK    1  A    between atoms: C1_1  and  C5_5 
ROOT
HETATM    1  C1  UNL     1     -33.503   5.790   2.718  1.00 20.00    -0.089 C 
HETATM    2  C2  UNL     1     -32.873   6.721   2.300  1.00 20.00    -0.023 C 
HETATM    3 BR6  UNL     1     -31.874   8.197   1.638  1.00 20.00     0.010 Br
ENDROOT
BRANCH   1   4
HETATM    4  C5  UNL     1     -34.257   4.679   3.216  1.00 20.00     0.066 A 
HETATM    5  C3  UNL     1     -34.901   4.789   4.572  1.00 20.00     0.018 A 
HETATM    6  C4  UNL     1     -33.713   3.895   4.380  1.00 20.00     0.018 A 
ENDBRANCH   1   4
TORSDOF 1
ENDMDL
MODEL 9
REMARK VINA RESULT:      -0.4      3.110      3.743
REMARK  1 active torsions:
REMARK  status: ('A' for Active; 'I' for Inactive)
REMARK    1  A    between atoms: C1_1  and  C5_5 
ROOT
HETATM    1  C1  UNL     1     -33.588   5.043   3.511  1.00 20.00    -0.089 C 
HETATM    2  C2  UNL     1     -33.233   5.988   2.862  1.00 20.00    -0.023 C 
HETATM    3 BR6  UNL     1     -32.672   7.483   1.831  1.00 20.00     0.010 Br
ENDROOT
BRANCH   1   4
HETATM    4  C5  UNL     1     -34.009   3.916   4.288  1.00 20.00     0.066 A 
HETATM    5  C3  UNL     1     -33.106   3.410   5.380  1.00 20.00     0.018 A 
HETATM    6  C4  UNL     1     -33.281   2.609   4.125  1.00 20.00     0.018 A 
ENDBRANCH   1   4
TORSDOF 1
ENDMDL
