MODEL 1
REMARK VINA RESULT:      -1.0      0.000      0.000
REMARK  1 active torsions:
REMARK  status: ('A' for Active; 'I' for Inactive)
REMARK    1  A    between atoms: C2_2  and  C3_3 
ROOT
HETATM    1  C1  UNL     1     -35.406   6.706   3.057  1.00 20.00     0.060 C 
HETATM    2  C2  UNL     1     -33.944   6.347   3.306  1.00 20.00     0.206 C 
HETATM    3 CL7  UNL     1     -33.243   7.523   4.462  1.00 20.00    -0.092 Cl
HETATM    4 CL8  UNL     1     -33.861   4.714   4.040  1.00 20.00    -0.092 Cl
ENDROOT
BRANCH   2   5
HETATM    5  C3  UNL     1     -33.138   6.364   2.016  1.00 20.00     0.422 C 
HETATM    6  F4  UNL     1     -32.433   7.512   1.889  1.00 20.00    -0.168 F 
HETATM    7  F5  UNL     1     -32.250   5.344   1.976  1.00 20.00    -0.168 F 
HETATM    8  F6  UNL     1     -33.932   6.254   0.927  1.00 20.00    -0.168 F 
ENDBRANCH   2   5
TORSDOF 1
ENDMDL
MODEL 2
REMARK VINA RESULT:      -1.0      2.157      3.049
REMARK  1 active torsions:
REMARK  status: ('A' for Active; 'I' for Inactive)
REMARK    1  A    between atoms: C2_2  and  C3_3 
ROOT
HETATM    1  C1  UNL     1     -31.878   5.326   1.782  1.00 20.00     0.060 C 
HETATM    2  C2  UNL     1     -32.840   6.510   1.759  1.00 20.00     0.206 C 
HETATM    3 CL7  UNL     1     -33.870   6.398   0.298  1.00 20.00    -0.092 Cl
HETATM    4 CL8  UNL     1     -33.897   6.431   3.205  1.00 20.00    -0.092 Cl
ENDROOT
BRANCH   2   5
HETATM    5  C3  UNL     1     -32.093   7.836   1.751  1.00 20.00     0.422 C 
HETATM    6  F4  UNL     1     -30.915   7.734   1.095  1.00 20.00    -0.168 F 
HETATM    7  F5  UNL     1     -32.812   8.802   1.134  1.00 20.00    -0.168 F 
HETATM    8  F6  UNL     1     -31.824   8.268   3.004  1.00 20.00    -0.168 F 
ENDBRANCH   2   5
TORSDOF 1
ENDMDL
MODEL 3
REMARK VINA RESULT:      -0.9      2.323      2.952
REMARK  1 active torsions:
REMARK  status: ('A' for Active; 'I' for Inactive)
REMARK    1  A    between atoms: C2_2  and  C3_3 
ROOT
HETATM    1  C1  UNL     1     -31.959   5.298   1.833  1.00 20.00     0.060 C 
HETATM    2  C2  UNL     1     -33.000   6.414   1.849  1.00 20.00     0.206 C 
HETATM    3 CL7  UNL     1     -32.164   7.994   1.728  1.00 20.00    -0.092 Cl
HETATM    4 CL8  UNL     1     -34.072   6.231   0.424  1.00 20.00    -0.092 Cl
ENDROOT
BRANCH   2   5
HETATM    5  C3  UNL     1     -33.836   6.379   3.119  1.00 20.00     0.422 C 
HETATM    6  F4  UNL     1     -35.143   6.608   2.856  1.00 20.00    -0.168 F 
HETATM    7  F5  UNL     1     -33.757   5.173   3.728  1.00 20.00    -0.168 F 
HETATM    8  F6  UNL     1     -33.433   7.311   4.011  1.00 20.00    -0.168 F 
ENDBRANCH   2   5
TORSDOF 1
ENDMDL
MODEL 4
REMARK VINA RESULT:      -0.9      2.096      2.454
REMARK  1 active torsions:
REMARK  status: ('A' for Active; 'I' for Inactive)
REMARK    1  A    between atoms: C2_2  and  C3_3 
ROOT
HETATM    1  C1  UNL     1     -33.761   6.238   0.462  1.00 20.00     0.060 C 
HETATM    2  C2  UNL     1     -32.851   6.280   1.686  1.00 20.00     0.206 C 
HETATM    3 CL7  UNL     1     -33.814   5.884   3.144  1.00 20.00    -0.092 Cl
HETATM    4 CL8  UNL     1     -31.568   5.042   1.502  1.00 20.00    -0.092 Cl
ENDROOT
BRANCH   2   5
HETATM    5  C3  UNL     1     -32.211   7.649   1.859  1.00 20.00     0.422 C 
HETATM    6  F4  UNL     1     -32.571   8.217   3.033  1.00 20.00    -0.168 F 
HETATM    7  F5  UNL     1     -30.861   7.567   1.853  1.00 20.00    -0.168 F 
HETATM    8  F6  UNL     1     -32.570   8.499   0.870  1.00 20.00    -0.168 F 
ENDBRANCH   2   5
TORSDOF 1
ENDMDL
MODEL 5
REMARK VINA RESULT:      -0.9      2.510      2.751
REMARK  1 active torsions:
REMARK  status: ('A' for Active; 'I' for Inactive)
REMARK    1  A    between atoms: C2_2  and  C3_3 
ROOT
HETATM    1  C1  UNL     1     -33.676   5.831   2.880  1.00 20.00     0.060 C 
HETATM    2  C2  UNL     1     -32.847   6.237   1.665  1.00 20.00     0.206 C 
HETATM    3 CL7  UNL     1     -31.537   5.040   1.424  1.00 20.00    -0.092 Cl
HETATM    4 CL8  UNL     1     -33.897   6.227   0.212  1.00 20.00    -0.092 Cl
ENDROOT
BRANCH   2   5
HETATM    5  C3  UNL     1     -32.241   7.622   1.841  1.00 20.00     0.422 C 
HETATM    6  F4  UNL     1     -32.637   8.190   3.003  1.00 20.00    -0.168 F 
HETATM    7  F5  UNL     1     -30.889   7.569   1.863  1.00 20.00    -0.168 F 
HETATM    8  F6  UNL     1     -32.598   8.457   0.839  1.00 20.00    -0.168 F 
ENDBRANCH   2   5
TORSDOF 1
ENDMDL
MODEL 6
REMARK VINA RESULT:      -0.9      1.174      1.692
REMARK  1 active torsions:
REMARK  status: ('A' for Active; 'I' for Inactive)
REMARK    1  A    between atoms: C2_2  and  C3_3 
ROOT
HETATM    1  C1  UNL     1     -33.473   7.387   4.286  1.00 20.00     0.060 C 
HETATM    2  C2  UNL     1     -34.004   6.352   3.299  1.00 20.00     0.206 C 
HETATM    3 CL7  UNL     1     -33.930   4.730   4.056  1.00 20.00    -0.092 Cl
HETATM    4 CL8  UNL     1     -35.718   6.726   2.929  1.00 20.00    -0.092 Cl
ENDROOT
BRANCH   2   5
HETATM    5  C3  UNL     1     -33.198   6.345   2.009  1.00 20.00     0.422 C 
HETATM    6  F4  UNL     1     -32.450   7.466   1.889  1.00 20.00    -0.168 F 
HETATM    7  F5  UNL     1     -32.350   5.292   1.963  1.00 20.00    -0.168 F 
HETATM    8  F6  UNL     1     -33.995   6.272   0.919  1.00 20.00    -0.168 F 
ENDBRANCH   2   5
TORSDOF 1
ENDMDL
MODEL 7
REMARK VINA RESULT:      -0.9      2.001      2.962
REMARK  1 active torsions:
REMARK  status: ('A' for Active; 'I' for Inactive)
REMARK    1  A    between atoms: C2_2  and  C3_3 
ROOT
HETATM    1  C1  UNL     1     -31.178   7.937   2.736  1.00 20.00     0.060 C 
HETATM    2  C2  UNL     1     -32.574   7.667   2.183  1.00 20.00     0.206 C 
HETATM    3 CL7  UNL     1     -33.779   7.935   3.482  1.00 20.00    -0.092 Cl
HETATM    4 CL8  UNL     1     -32.909   8.821   0.854  1.00 20.00    -0.092 Cl
ENDROOT
BRANCH   2   5
HETATM    5  C3  UNL     1     -32.701   6.243   1.661  1.00 20.00     0.422 C 
HETATM    6  F4  UNL     1     -33.259   5.427   2.585  1.00 20.00    -0.168 F 
HETATM    7  F5  UNL     1     -33.483   6.191   0.558  1.00 20.00    -0.168 F 
HETATM    8  F6  UNL     1     -31.499   5.720   1.331  1.00 20.00    -0.168 F 
ENDBRANCH   2   5
TORSDOF 1
ENDMDL
MODEL 8
REMARK VINA RESULT:      -0.8      2.351      2.971
REMARK  1 active torsions:
REMARK  status: ('A' for Active; 'I' for Inactive)
REMARK    1  A    between atoms: C2_2  and  C3_3 
ROOT
HETATM    1  C1  UNL     1     -32.258   7.823   1.779  1.00 20.00     0.060 C 
HETATM    2  C2  UNL     1     -32.985   6.485   1.873  1.00 20.00     0.206 C 
HETATM    3 CL7  UNL     1     -34.043   6.293   0.440  1.00 20.00    -0.092 Cl
HETATM    4 CL8  UNL     1     -31.775   5.162   1.864  1.00 20.00    -0.092 Cl
ENDROOT
BRANCH   2   5
HETATM    5  C3  UNL     1     -33.825   6.394   3.138  1.00 20.00     0.422 C 
HETATM    6  F4  UNL     1     -33.433   7.306   4.057  1.00 20.00    -0.168 F 
HETATM    7  F5  UNL     1     -35.133   6.625   2.879  1.00 20.00    -0.168 F 
HETATM    8  F6  UNL     1     -33.734   5.174   3.714  1.00 20.00    -0.168 F 
ENDBRANCH   2   5
TORSDOF 1
ENDMDL
MODEL 9
REMARK VINA RESULT:      -0.8      2.517      3.304
REMARK  1 active torsions:
REMARK  status: ('A' for Active; 'I' for Inactive)
REMARK    1  A    between atoms: C2_2  and  C3_3 
ROOT
HETATM    1  C1  UNL     1     -32.801   8.753   1.164  1.00 20.00     0.060 C 
HETATM    2  C2  UNL     1     -32.362   7.774   2.249  1.00 20.00     0.206 C 
HETATM    3 CL7  UNL     1     -31.952   6.204   1.489  1.00 20.00    -0.092 Cl
HETATM    4 CL8  UNL     1     -30.893   8.414   3.053  1.00 20.00    -0.092 Cl
ENDROOT
BRANCH   2   5
HETATM    5  C3  UNL     1     -33.455   7.563   3.286  1.00 20.00     0.422 C 
HETATM    6  F4  UNL     1     -33.915   6.291   3.267  1.00 20.00    -0.168 F 
HETATM    7  F5  UNL     1     -33.001   7.805   4.538  1.00 20.00    -0.168 F 
HETATM    8  F6  UNL     1     -34.512   8.379   3.074  1.00 20.00    -0.168 F 
ENDBRANCH   2   5
TORSDOF 1
ENDMDL
