MODEL 1
REMARK VINA RESULT:      -2.6      0.000      0.000
REMARK  2 active torsions:
REMARK  status: ('A' for Active; 'I' for Inactive)
REMARK    1  A    between atoms: C1_1  and  C3_3 
REMARK    2  A    between atoms: C2_2  and  C5_5 
ROOT
HETATM    1  C1  UNL     1     -33.339   6.190   2.223  1.00 20.00     0.005 C 
HETATM    2  C2  UNL     1     -32.290   6.719   1.579  1.00 20.00     0.068 C 
ENDROOT
BRANCH   1   3
HETATM    3  C3  UNL     1     -34.158   6.953   3.139  1.00 20.00    -0.004 C 
HETATM    4  C4  UNL     1     -34.897   6.390   4.105  1.00 20.00    -0.031 C 
HETATM    5  C6  UNL     1     -34.962   4.919   4.348  1.00 20.00     0.036 C 
ENDBRANCH   1   3
BRANCH   2   6
HETATM    6  C5  UNL     1     -31.909   8.150   1.780  1.00 20.00     0.241 C 
HETATM    7  O7  UNL     1     -31.328   8.504   2.803  1.00 20.00    -0.275 OA
HETATM    8 CL8  UNL     1     -32.344   9.238   0.478  1.00 20.00    -0.039 Cl
ENDBRANCH   2   6
TORSDOF 2
ENDMDL
MODEL 2
REMARK VINA RESULT:      -2.2      3.035      4.417
REMARK  2 active torsions:
REMARK  status: ('A' for Active; 'I' for Inactive)
REMARK    1  A    between atoms: C1_1  and  C3_3 
REMARK    2  A    between atoms: C2_2  and  C5_5 
ROOT
HETATM    1  C1  UNL     1     -33.124   7.709   3.527  1.00 20.00     0.005 C 
HETATM    2  C2  UNL     1     -34.214   7.418   4.250  1.00 20.00     0.068 C 
ENDROOT
BRANCH   1   3
HETATM    3  C3  UNL     1     -32.720   6.932   2.377  1.00 20.00    -0.004 C 
HETATM    4  C4  UNL     1     -32.197   7.477   1.269  1.00 20.00    -0.031 C 
HETATM    5  C6  UNL     1     -31.974   8.943   1.094  1.00 20.00     0.036 C 
ENDBRANCH   1   3
BRANCH   2   6
HETATM    6  C5  UNL     1     -35.080   6.252   3.896  1.00 20.00     0.241 C 
HETATM    7  O7  UNL     1     -36.179   6.426   3.374  1.00 20.00    -0.275 OA
HETATM    8 CL8  UNL     1     -34.418   4.676   4.275  1.00 20.00    -0.039 Cl
ENDBRANCH   2   6
TORSDOF 2
ENDMDL
MODEL 3
REMARK VINA RESULT:      -2.2      1.674      1.886
REMARK  2 active torsions:
REMARK  status: ('A' for Active; 'I' for Inactive)
REMARK    1  A    between atoms: C1_1  and  C3_3 
REMARK    2  A    between atoms: C2_2  and  C5_5 
ROOT
HETATM    1  C1  UNL     1     -33.526   7.724   4.268  1.00 20.00     0.005 C 
HETATM    2  C2  UNL     1     -32.425   7.870   3.518  1.00 20.00     0.068 C 
ENDROOT
BRANCH   1   3
HETATM    3  C3  UNL     1     -34.815   7.389   3.704  1.00 20.00    -0.004 C 
HETATM    4  C4  UNL     1     -35.344   6.158   3.761  1.00 20.00    -0.031 C 
HETATM    5  C6  UNL     1     -34.667   4.995   4.409  1.00 20.00     0.036 C 
ENDBRANCH   1   3
BRANCH   2   6
HETATM    6  C5  UNL     1     -32.478   7.691   2.036  1.00 20.00     0.241 C 
HETATM    7  O7  UNL     1     -32.386   8.659   1.285  1.00 20.00    -0.275 OA
HETATM    8 CL8  UNL     1     -32.674   6.041   1.480  1.00 20.00    -0.039 Cl
ENDBRANCH   2   6
TORSDOF 2
ENDMDL
MODEL 4
REMARK VINA RESULT:      -2.1      2.397      4.033
REMARK  2 active torsions:
REMARK  status: ('A' for Active; 'I' for Inactive)
REMARK    1  A    between atoms: C1_1  and  C3_3 
REMARK    2  A    between atoms: C2_2  and  C5_5 
ROOT
HETATM    1  C1  UNL     1     -32.419   6.902   1.529  1.00 20.00     0.005 C 
HETATM    2  C2  UNL     1     -33.337   6.231   2.237  1.00 20.00     0.068 C 
ENDROOT
BRANCH   1   3
HETATM    3  C3  UNL     1     -31.956   8.220   1.903  1.00 20.00    -0.004 C 
HETATM    4  C4  UNL     1     -32.012   9.278   1.082  1.00 20.00    -0.031 C 
HETATM    5  C6  UNL     1     -32.555   9.221  -0.307  1.00 20.00     0.036 C 
ENDBRANCH   1   3
BRANCH   2   6
HETATM    6  C5  UNL     1     -33.939   6.822   3.470  1.00 20.00     0.241 C 
HETATM    7  O7  UNL     1     -33.374   7.738   4.063  1.00 20.00    -0.275 OA
HETATM    8 CL8  UNL     1     -35.462   6.123   3.978  1.00 20.00    -0.039 Cl
ENDBRANCH   2   6
TORSDOF 2
ENDMDL
MODEL 5
REMARK VINA RESULT:      -2.1      2.614      4.288
REMARK  2 active torsions:
REMARK  status: ('A' for Active; 'I' for Inactive)
REMARK    1  A    between atoms: C1_1  and  C3_3 
REMARK    2  A    between atoms: C2_2  and  C5_5 
ROOT
HETATM    1  C1  UNL     1     -32.373   8.421   2.915  1.00 20.00     0.005 C 
HETATM    2  C2  UNL     1     -33.261   7.788   3.694  1.00 20.00     0.068 C 
ENDROOT
BRANCH   1   3
HETATM    3  C3  UNL     1     -32.000   7.937   1.605  1.00 20.00    -0.004 C 
HETATM    4  C4  UNL     1     -32.055   8.694   0.500  1.00 20.00    -0.031 C 
HETATM    5  C6  UNL     1     -32.507  10.116   0.492  1.00 20.00     0.036 C 
ENDBRANCH   1   3
BRANCH   2   6
HETATM    6  C5  UNL     1     -33.921   6.527   3.236  1.00 20.00     0.241 C 
HETATM    7  O7  UNL     1     -33.388   5.814   2.390  1.00 20.00    -0.275 OA
HETATM    8 CL8  UNL     1     -35.464   6.168   3.984  1.00 20.00    -0.039 Cl
ENDBRANCH   2   6
TORSDOF 2
ENDMDL
MODEL 6
REMARK VINA RESULT:      -1.9      2.477      3.981
REMARK  2 active torsions:
REMARK  status: ('A' for Active; 'I' for Inactive)
REMARK    1  A    between atoms: C1_1  and  C3_3 
REMARK    2  A    between atoms: C2_2  and  C5_5 
ROOT
HETATM    1  C1  UNL     1     -32.460   6.608   1.253  1.00 20.00     0.005 C 
HETATM    2  C2  UNL     1     -33.268   5.648   1.723  1.00 20.00     0.068 C 
ENDROOT
BRANCH   1   3
HETATM    3  C3  UNL     1     -32.004   7.712   2.069  1.00 20.00    -0.004 C 
HETATM    4  C4  UNL     1     -31.955   8.978   1.629  1.00 20.00    -0.031 C 
HETATM    5  C6  UNL     1     -32.361   9.394   0.255  1.00 20.00     0.036 C 
ENDBRANCH   1   3
BRANCH   2   6
HETATM    6  C5  UNL     1     -33.747   5.672   3.138  1.00 20.00     0.241 C 
HETATM    7  O7  UNL     1     -33.688   4.662   3.835  1.00 20.00    -0.275 OA
HETATM    8 CL8  UNL     1     -34.376   7.208   3.697  1.00 20.00    -0.039 Cl
ENDBRANCH   2   6
TORSDOF 2
ENDMDL
MODEL 7
REMARK VINA RESULT:      -1.8      2.477      4.186
REMARK  2 active torsions:
REMARK  status: ('A' for Active; 'I' for Inactive)
REMARK    1  A    between atoms: C1_1  and  C3_3 
REMARK    2  A    between atoms: C2_2  and  C5_5 
ROOT
HETATM    1  C1  UNL     1     -32.383   8.391   3.006  1.00 20.00     0.005 C 
HETATM    2  C2  UNL     1     -33.287   7.803   3.801  1.00 20.00     0.068 C 
ENDROOT
BRANCH   1   3
HETATM    3  C3  UNL     1     -32.092   7.917   1.671  1.00 20.00    -0.004 C 
HETATM    4  C4  UNL     1     -32.156   8.700   0.584  1.00 20.00    -0.031 C 
HETATM    5  C6  UNL     1     -32.533  10.144   0.625  1.00 20.00     0.036 C 
ENDBRANCH   1   3
BRANCH   2   6
HETATM    6  C5  UNL     1     -34.052   6.606   3.338  1.00 20.00     0.241 C 
HETATM    7  O7  UNL     1     -35.198   6.405   3.734  1.00 20.00    -0.275 OA
HETATM    8 CL8  UNL     1     -33.207   5.553   2.222  1.00 20.00    -0.039 Cl
ENDBRANCH   2   6
TORSDOF 2
ENDMDL
MODEL 8
REMARK VINA RESULT:      -1.6      2.874      4.286
REMARK  2 active torsions:
REMARK  status: ('A' for Active; 'I' for Inactive)
REMARK    1  A    between atoms: C1_1  and  C3_3 
REMARK    2  A    between atoms: C2_2  and  C5_5 
ROOT
HETATM    1  C1  UNL     1     -33.312   7.420   3.590  1.00 20.00     0.005 C 
HETATM    2  C2  UNL     1     -34.417   7.257   4.332  1.00 20.00     0.068 C 
ENDROOT
BRANCH   1   3
HETATM    3  C3  UNL     1     -33.025   6.605   2.431  1.00 20.00    -0.004 C 
HETATM    4  C4  UNL     1     -32.325   7.049   1.376  1.00 20.00    -0.031 C 
HETATM    5  C6  UNL     1     -31.767   8.429   1.276  1.00 20.00     0.036 C 
ENDBRANCH   1   3
BRANCH   2   6
HETATM    6  C5  UNL     1     -35.422   6.206   3.990  1.00 20.00     0.241 C 
HETATM    7  O7  UNL     1     -35.324   5.073   4.455  1.00 20.00    -0.275 OA
HETATM    8 CL8  UNL     1     -36.706   6.710   2.911  1.00 20.00    -0.039 Cl
ENDBRANCH   2   6
TORSDOF 2
ENDMDL
MODEL 9
REMARK VINA RESULT:      -1.6      2.327      2.909
REMARK  2 active torsions:
REMARK  status: ('A' for Active; 'I' for Inactive)
REMARK    1  A    between atoms: C1_1  and  C3_3 
REMARK    2  A    between atoms: C2_2  and  C5_5 
ROOT
HETATM    1  C1  UNL     1     -31.379   8.032   1.458  1.00 20.00     0.005 C 
HETATM    2  C2  UNL     1     -31.246   8.970   0.511  1.00 20.00     0.068 C 
ENDROOT
BRANCH   1   3
HETATM    3  C3  UNL     1     -32.631   7.781   2.136  1.00 20.00    -0.004 C 
HETATM    4  C4  UNL     1     -33.242   6.587   2.132  1.00 20.00    -0.031 C 
HETATM    5  C6  UNL     1     -32.705   5.385   1.430  1.00 20.00     0.036 C 
ENDBRANCH   1   3
BRANCH   2   6
HETATM    6  C5  UNL     1     -32.406   9.819   0.102  1.00 20.00     0.241 C 
HETATM    7  O7  UNL     1     -33.054   9.548  -0.905  1.00 20.00    -0.275 OA
HETATM    8 CL8  UNL     1     -32.749  11.183   1.146  1.00 20.00    -0.039 Cl
ENDBRANCH   2   6
TORSDOF 2
ENDMDL
