MODEL 1
REMARK VINA RESULT:       4.4      0.000      0.000
REMARK  0 active torsions:
REMARK  status: ('A' for Active; 'I' for Inactive)
ROOT
HETATM    1  C1  UNL     1     -34.214   6.058   1.201  1.00 20.00     0.005 C 
HETATM    2  C2  UNL     1     -32.579   7.546   2.467  1.00 20.00     0.005 C 
HETATM    3  C3  UNL     1     -32.570   5.028   2.852  1.00 20.00     0.005 C 
HETATM    4  C4  UNL     1     -35.343   6.776   1.929  1.00 20.00     0.006 C 
HETATM    5  C5  UNL     1     -33.001   7.710   3.922  1.00 20.00     0.006 C 
HETATM    6  C6  UNL     1     -33.767   4.597   3.690  1.00 20.00     0.006 C 
HETATM    7  C7  UNL     1     -32.830   6.163   1.855  1.00 20.00    -0.014 C 
HETATM    8  C8  UNL     1     -35.413   6.640   3.412  1.00 20.00    -0.006 A 
HETATM    9  C9  UNL     1     -34.320   7.147   4.332  1.00 20.00    -0.006 A 
HETATM   10  C10 UNL     1     -34.632   5.665   4.269  1.00 20.00    -0.006 A 
ENDROOT
TORSDOF 0
ENDMDL
MODEL 2
REMARK VINA RESULT:       4.4      0.010      2.396
REMARK  0 active torsions:
REMARK  status: ('A' for Active; 'I' for Inactive)
ROOT
HETATM    1  C1  UNL     1     -32.577   5.025   2.863  1.00 20.00     0.005 C 
HETATM    2  C2  UNL     1     -34.219   6.052   1.208  1.00 20.00     0.005 C 
HETATM    3  C3  UNL     1     -32.585   7.543   2.471  1.00 20.00     0.005 C 
HETATM    4  C4  UNL     1     -33.776   4.599   3.701  1.00 20.00     0.006 C 
HETATM    5  C5  UNL     1     -35.350   6.773   1.933  1.00 20.00     0.006 C 
HETATM    6  C6  UNL     1     -33.008   7.712   3.925  1.00 20.00     0.006 C 
HETATM    7  C7  UNL     1     -32.837   6.159   1.862  1.00 20.00    -0.014 C 
HETATM    8  C8  UNL     1     -34.639   5.669   4.278  1.00 20.00    -0.006 A 
HETATM    9  C9  UNL     1     -35.420   6.642   3.417  1.00 20.00    -0.006 A 
HETATM   10  C10 UNL     1     -34.327   7.150   4.336  1.00 20.00    -0.006 A 
ENDROOT
TORSDOF 0
ENDMDL
MODEL 3
REMARK VINA RESULT:       4.4      0.057      2.390
REMARK  0 active torsions:
REMARK  status: ('A' for Active; 'I' for Inactive)
ROOT
HETATM    1  C1  UNL     1     -32.546   7.506   2.420  1.00 20.00     0.005 C 
HETATM    2  C2  UNL     1     -32.575   5.000   2.876  1.00 20.00     0.005 C 
HETATM    3  C3  UNL     1     -34.188   6.004   1.179  1.00 20.00     0.005 C 
HETATM    4  C4  UNL     1     -32.981   7.716   3.864  1.00 20.00     0.006 C 
HETATM    5  C5  UNL     1     -33.787   4.608   3.712  1.00 20.00     0.006 C 
HETATM    6  C6  UNL     1     -35.315   6.757   1.873  1.00 20.00     0.006 C 
HETATM    7  C7  UNL     1     -32.810   6.109   1.844  1.00 20.00    -0.014 C 
HETATM    8  C8  UNL     1     -34.312   7.183   4.276  1.00 20.00    -0.006 A 
HETATM    9  C9  UNL     1     -34.643   5.705   4.252  1.00 20.00    -0.006 A 
HETATM   10  C10 UNL     1     -35.402   6.666   3.360  1.00 20.00    -0.006 A 
ENDROOT
TORSDOF 0
ENDMDL
MODEL 4
REMARK VINA RESULT:       4.6      0.699      2.937
REMARK  0 active torsions:
REMARK  status: ('A' for Active; 'I' for Inactive)
ROOT
HETATM    1  C1  UNL     1     -34.521   5.013   4.038  1.00 20.00     0.005 C 
HETATM    2  C2  UNL     1     -33.788   7.424   4.414  1.00 20.00     0.005 C 
HETATM    3  C3  UNL     1     -35.535   6.886   2.640  1.00 20.00     0.005 C 
HETATM    4  C4  UNL     1     -33.097   4.709   3.595  1.00 20.00     0.006 C 
HETATM    5  C5  UNL     1     -32.875   7.901   3.291  1.00 20.00     0.006 C 
HETATM    6  C6  UNL     1     -34.894   6.244   1.417  1.00 20.00     0.006 C 
HETATM    7  C7  UNL     1     -34.929   6.491   3.992  1.00 20.00    -0.014 C 
HETATM    8  C8  UNL     1     -32.586   5.392   2.371  1.00 20.00    -0.006 A 
HETATM    9  C9  UNL     1     -32.434   6.897   2.279  1.00 20.00    -0.006 A 
HETATM   10  C10 UNL     1     -33.404   6.176   1.365  1.00 20.00    -0.006 A 
ENDROOT
TORSDOF 0
ENDMDL
MODEL 5
REMARK VINA RESULT:       4.6      0.698      2.936
REMARK  0 active torsions:
REMARK  status: ('A' for Active; 'I' for Inactive)
ROOT
HETATM    1  C1  UNL     1     -33.815   7.442   4.447  1.00 20.00     0.005 C 
HETATM    2  C2  UNL     1     -35.561   6.918   2.667  1.00 20.00     0.005 C 
HETATM    3  C3  UNL     1     -34.537   5.033   4.039  1.00 20.00     0.005 C 
HETATM    4  C4  UNL     1     -32.907   7.938   3.330  1.00 20.00     0.006 C 
HETATM    5  C5  UNL     1     -34.917   6.295   1.434  1.00 20.00     0.006 C 
HETATM    6  C6  UNL     1     -33.110   4.740   3.591  1.00 20.00     0.006 C 
HETATM    7  C7  UNL     1     -34.952   6.508   4.013  1.00 20.00    -0.014 C 
HETATM    8  C8  UNL     1     -32.460   6.951   2.305  1.00 20.00    -0.006 A 
HETATM    9  C9  UNL     1     -33.427   6.237   1.382  1.00 20.00    -0.006 A 
HETATM   10  C10 UNL     1     -32.604   5.444   2.377  1.00 20.00    -0.006 A 
ENDROOT
TORSDOF 0
ENDMDL
MODEL 6
REMARK VINA RESULT:       4.6      0.695      2.937
REMARK  0 active torsions:
REMARK  status: ('A' for Active; 'I' for Inactive)
ROOT
HETATM    1  C1  UNL     1     -35.577   6.919   2.696  1.00 20.00     0.005 C 
HETATM    2  C2  UNL     1     -34.546   5.021   4.047  1.00 20.00     0.005 C 
HETATM    3  C3  UNL     1     -33.834   7.428   4.484  1.00 20.00     0.005 C 
HETATM    4  C4  UNL     1     -34.930   6.314   1.458  1.00 20.00     0.006 C 
HETATM    5  C5  UNL     1     -33.118   4.740   3.596  1.00 20.00     0.006 C 
HETATM    6  C6  UNL     1     -32.926   7.941   3.373  1.00 20.00     0.006 C 
HETATM    7  C7  UNL     1     -34.967   6.495   4.038  1.00 20.00    -0.014 C 
HETATM    8  C8  UNL     1     -33.441   6.261   1.404  1.00 20.00    -0.006 A 
HETATM    9  C9  UNL     1     -32.615   5.460   2.390  1.00 20.00    -0.006 A 
HETATM   10  C10 UNL     1     -32.477   6.968   2.335  1.00 20.00    -0.006 A 
ENDROOT
TORSDOF 0
ENDMDL
MODEL 7
REMARK VINA RESULT:       5.0      1.437      2.552
REMARK  0 active torsions:
REMARK  status: ('A' for Active; 'I' for Inactive)
ROOT
HETATM    1  C1  UNL     1     -31.874   6.538   1.967  1.00 20.00     0.005 C 
HETATM    2  C2  UNL     1     -32.725   8.802   1.167  1.00 20.00     0.005 C 
HETATM    3  C3  UNL     1     -31.437   8.628   3.357  1.00 20.00     0.005 C 
HETATM    4  C4  UNL     1     -33.327   6.097   2.084  1.00 20.00     0.006 C 
HETATM    5  C5  UNL     1     -33.934   9.252   1.978  1.00 20.00     0.006 C 
HETATM    6  C6  UNL     1     -32.299   8.012   4.452  1.00 20.00     0.006 C 
HETATM    7  C7  UNL     1     -31.640   8.054   1.950  1.00 20.00    -0.014 C 
HETATM    8  C8  UNL     1     -34.195   6.809   3.066  1.00 20.00    -0.006 A 
HETATM    9  C9  UNL     1     -34.514   8.286   2.956  1.00 20.00    -0.006 A 
HETATM   10  C10 UNL     1     -33.739   7.765   4.149  1.00 20.00    -0.006 A 
ENDROOT
TORSDOF 0
ENDMDL
MODEL 8
REMARK VINA RESULT:       5.0      1.453      3.267
REMARK  0 active torsions:
REMARK  status: ('A' for Active; 'I' for Inactive)
ROOT
HETATM    1  C1  UNL     1     -31.421   8.656   3.334  1.00 20.00     0.005 C 
HETATM    2  C2  UNL     1     -31.833   6.572   1.928  1.00 20.00     0.005 C 
HETATM    3  C3  UNL     1     -32.713   8.831   1.145  1.00 20.00     0.005 C 
HETATM    4  C4  UNL     1     -32.275   8.021   4.424  1.00 20.00     0.006 C 
HETATM    5  C5  UNL     1     -33.281   6.111   2.042  1.00 20.00     0.006 C 
HETATM    6  C6  UNL     1     -33.927   9.258   1.960  1.00 20.00     0.006 C 
HETATM    7  C7  UNL     1     -31.618   8.090   1.922  1.00 20.00    -0.014 C 
HETATM    8  C8  UNL     1     -33.711   7.759   4.121  1.00 20.00    -0.006 A 
HETATM    9  C9  UNL     1     -34.156   6.805   3.031  1.00 20.00    -0.006 A 
HETATM   10  C10 UNL     1     -34.494   8.279   2.932  1.00 20.00    -0.006 A 
ENDROOT
TORSDOF 0
ENDMDL
MODEL 9
REMARK VINA RESULT:       5.0      1.446      2.093
REMARK  0 active torsions:
REMARK  status: ('A' for Active; 'I' for Inactive)
ROOT
HETATM    1  C1  UNL     1     -32.703   8.819   1.152  1.00 20.00     0.005 C 
HETATM    2  C2  UNL     1     -31.426   8.631   3.348  1.00 20.00     0.005 C 
HETATM    3  C3  UNL     1     -31.851   6.551   1.941  1.00 20.00     0.005 C 
HETATM    4  C4  UNL     1     -33.916   9.259   1.961  1.00 20.00     0.006 C 
HETATM    5  C5  UNL     1     -32.292   8.005   4.435  1.00 20.00     0.006 C 
HETATM    6  C6  UNL     1     -33.304   6.105   2.048  1.00 20.00     0.006 C 
HETATM    7  C7  UNL     1     -31.620   8.066   1.936  1.00 20.00    -0.014 C 
HETATM    8  C8  UNL     1     -34.500   8.285   2.928  1.00 20.00    -0.006 A 
HETATM    9  C9  UNL     1     -33.729   7.758   4.122  1.00 20.00    -0.006 A 
HETATM   10  C10 UNL     1     -34.178   6.808   3.030  1.00 20.00    -0.006 A 
ENDROOT
TORSDOF 0
ENDMDL
