MODEL 1
REMARK VINA RESULT:      -2.7      0.000      0.000
REMARK  4 active torsions:
REMARK  status: ('A' for Active; 'I' for Inactive)
REMARK    1  A    between atoms: C2_2  and  C4_4 
REMARK    2  A    between atoms: C3_3  and  C7_7 
REMARK    3  A    between atoms: C6_6  and  O10_10 
REMARK    4  A    between atoms: C7_7  and  O10_10 
ROOT
HETATM    1  C2  UNL     1     -32.578   7.909   2.364  1.00 20.00     0.006 C 
HETATM    2  C3  UNL     1     -33.359   6.857   2.645  1.00 20.00     0.082 C 
ENDROOT
BRANCH   2   3
HETATM    3  C7  UNL     1     -34.198   6.866   3.866  1.00 20.00     0.287 C 
HETATM    4  O9  UNL     1     -34.276   7.796   4.655  1.00 20.00    -0.260 OA
BRANCH   3   5
HETATM    5  O10 UNL     1     -34.832   5.656   3.927  1.00 20.00    -0.289 OA
BRANCH   5   6
HETATM    6  C6  UNL     1     -34.014   4.581   3.635  1.00 20.00     0.135 C 
HETATM    7  C1  UNL     1     -33.734   3.583   4.476  1.00 20.00     0.038 C 
ENDBRANCH   5   6
ENDBRANCH   3   5
ENDBRANCH   2   3
BRANCH   1   8
HETATM    8  C4  UNL     1     -31.736   7.964   1.190  1.00 20.00    -0.004 C 
HETATM    9  C5  UNL     1     -31.765   8.978   0.312  1.00 20.00    -0.031 C 
HETATM   10  C8  UNL     1     -32.669  10.161   0.443  1.00 20.00     0.036 C 
ENDBRANCH   1   8
TORSDOF 4
ENDMDL
MODEL 2
REMARK VINA RESULT:      -2.7      1.955      5.242
REMARK  4 active torsions:
REMARK  status: ('A' for Active; 'I' for Inactive)
REMARK    1  A    between atoms: C2_2  and  C4_4 
REMARK    2  A    between atoms: C3_3  and  C7_7 
REMARK    3  A    between atoms: C6_6  and  O10_10 
REMARK    4  A    between atoms: C7_7  and  O10_10 
ROOT
HETATM    1  C2  UNL     1     -33.893   7.037   3.531  1.00 20.00     0.006 C 
HETATM    2  C3  UNL     1     -33.477   6.882   2.266  1.00 20.00     0.082 C 
ENDROOT
BRANCH   2   3
HETATM    3  C7  UNL     1     -32.237   7.552   1.809  1.00 20.00     0.287 C 
HETATM    4  O9  UNL     1     -31.172   6.989   1.604  1.00 20.00    -0.260 OA
BRANCH   3   5
HETATM    5  O10 UNL     1     -32.524   8.883   1.681  1.00 20.00    -0.289 OA
BRANCH   5   6
HETATM    6  C6  UNL     1     -32.057   9.446   0.509  1.00 20.00     0.135 C 
HETATM    7  C1  UNL     1     -32.779  10.213  -0.312  1.00 20.00     0.038 C 
ENDBRANCH   5   6
ENDBRANCH   3   5
ENDBRANCH   2   3
BRANCH   1   8
HETATM    8  C4  UNL     1     -35.093   6.412   4.040  1.00 20.00    -0.004 C 
HETATM    9  C5  UNL     1     -35.165   5.112   4.359  1.00 20.00    -0.031 C 
HETATM   10  C8  UNL     1     -34.019   4.162   4.225  1.00 20.00     0.036 C 
ENDBRANCH   1   8
TORSDOF 4
ENDMDL
MODEL 3
REMARK VINA RESULT:      -2.6      1.023      1.106
REMARK  4 active torsions:
REMARK  status: ('A' for Active; 'I' for Inactive)
REMARK    1  A    between atoms: C2_2  and  C4_4 
REMARK    2  A    between atoms: C3_3  and  C7_7 
REMARK    3  A    between atoms: C6_6  and  O10_10 
REMARK    4  A    between atoms: C7_7  and  O10_10 
ROOT
HETATM    1  C2  UNL     1     -33.203   7.196   2.505  1.00 20.00     0.006 C 
HETATM    2  C3  UNL     1     -33.515   6.033   3.093  1.00 20.00     0.082 C 
ENDROOT
BRANCH   2   3
HETATM    3  C7  UNL     1     -34.829   5.872   3.758  1.00 20.00     0.287 C 
HETATM    4  O9  UNL     1     -35.730   6.697   3.737  1.00 20.00    -0.260 OA
BRANCH   3   5
HETATM    5  O10 UNL     1     -34.815   4.656   4.385  1.00 20.00    -0.289 OA
BRANCH   5   6
HETATM    6  C6  UNL     1     -33.749   3.854   4.025  1.00 20.00     0.135 C 
HETATM    7  C1  UNL     1     -33.238   2.879   4.780  1.00 20.00     0.038 C 
ENDBRANCH   5   6
ENDBRANCH   3   5
ENDBRANCH   2   3
BRANCH   1   8
HETATM    8  C4  UNL     1     -31.938   7.419   1.840  1.00 20.00    -0.004 C 
HETATM    9  C5  UNL     1     -31.697   8.484   1.062  1.00 20.00    -0.031 C 
HETATM   10  C8  UNL     1     -32.701   9.557   0.790  1.00 20.00     0.036 C 
ENDBRANCH   1   8
TORSDOF 4
ENDMDL
MODEL 4
REMARK VINA RESULT:      -1.9      1.673      2.373
REMARK  4 active torsions:
REMARK  status: ('A' for Active; 'I' for Inactive)
REMARK    1  A    between atoms: C2_2  and  C4_4 
REMARK    2  A    between atoms: C3_3  and  C7_7 
REMARK    3  A    between atoms: C6_6  and  O10_10 
REMARK    4  A    between atoms: C7_7  and  O10_10 
ROOT
HETATM    1  C2  UNL     1     -31.988   8.136   1.325  1.00 20.00     0.006 C 
HETATM    2  C3  UNL     1     -32.787   7.342   2.052  1.00 20.00     0.082 C 
ENDROOT
BRANCH   2   3
HETATM    3  C7  UNL     1     -32.693   5.871   1.911  1.00 20.00     0.287 C 
HETATM    4  O9  UNL     1     -31.992   5.289   1.095  1.00 20.00    -0.260 OA
BRANCH   3   5
HETATM    5  O10 UNL     1     -33.531   5.324   2.843  1.00 20.00    -0.289 OA
BRANCH   5   6
HETATM    6  C6  UNL     1     -34.179   6.257   3.629  1.00 20.00     0.135 C 
HETATM    7  C1  UNL     1     -35.442   6.158   4.050  1.00 20.00     0.038 C 
ENDBRANCH   5   6
ENDBRANCH   3   5
ENDBRANCH   2   3
BRANCH   1   8
HETATM    8  C4  UNL     1     -32.030   9.578   1.415  1.00 20.00    -0.004 C 
HETATM    9  C5  UNL     1     -32.430  10.364   0.404  1.00 20.00    -0.031 C 
HETATM   10  C8  UNL     1     -32.874   9.845  -0.924  1.00 20.00     0.036 C 
ENDBRANCH   1   8
TORSDOF 4
ENDMDL
MODEL 5
REMARK VINA RESULT:      -1.9      1.576      2.023
REMARK  4 active torsions:
REMARK  status: ('A' for Active; 'I' for Inactive)
REMARK    1  A    between atoms: C2_2  and  C4_4 
REMARK    2  A    between atoms: C3_3  and  C7_7 
REMARK    3  A    between atoms: C6_6  and  O10_10 
REMARK    4  A    between atoms: C7_7  and  O10_10 
ROOT
HETATM    1  C2  UNL     1     -33.630   7.412   2.948  1.00 20.00     0.006 C 
HETATM    2  C3  UNL     1     -33.798   6.168   3.420  1.00 20.00     0.082 C 
ENDROOT
BRANCH   2   3
HETATM    3  C7  UNL     1     -35.115   5.755   3.959  1.00 20.00     0.287 C 
HETATM    4  O9  UNL     1     -36.143   6.410   3.874  1.00 20.00    -0.260 OA
BRANCH   3   5
HETATM    5  O10 UNL     1     -34.939   4.538   4.557  1.00 20.00    -0.289 OA
BRANCH   5   6
HETATM    6  C6  UNL     1     -33.820   3.856   4.119  1.00 20.00     0.135 C 
HETATM    7  C1  UNL     1     -33.193   2.897   4.803  1.00 20.00     0.038 C 
ENDBRANCH   5   6
ENDBRANCH   3   5
ENDBRANCH   2   3
BRANCH   1   8
HETATM    8  C4  UNL     1     -32.372   7.879   2.409  1.00 20.00    -0.004 C 
HETATM    9  C5  UNL     1     -31.630   7.163   1.553  1.00 20.00    -0.031 C 
HETATM   10  C8  UNL     1     -32.013   5.805   1.059  1.00 20.00     0.036 C 
ENDBRANCH   1   8
TORSDOF 4
ENDMDL
MODEL 6
REMARK VINA RESULT:      -1.4      1.539      2.087
REMARK  4 active torsions:
REMARK  status: ('A' for Active; 'I' for Inactive)
REMARK    1  A    between atoms: C2_2  and  C4_4 
REMARK    2  A    between atoms: C3_3  and  C7_7 
REMARK    3  A    between atoms: C6_6  and  O10_10 
REMARK    4  A    between atoms: C7_7  and  O10_10 
ROOT
HETATM    1  C2  UNL     1     -31.967   8.020   1.464  1.00 20.00     0.006 C 
HETATM    2  C3  UNL     1     -32.699   6.897   1.425  1.00 20.00     0.082 C 
ENDROOT
BRANCH   2   3
HETATM    3  C7  UNL     1     -33.109   6.239   2.688  1.00 20.00     0.287 C 
HETATM    4  O9  UNL     1     -33.201   5.031   2.849  1.00 20.00    -0.260 OA
BRANCH   3   5
HETATM    5  O10 UNL     1     -33.361   7.231   3.594  1.00 20.00    -0.289 OA
BRANCH   5   6
HETATM    6  C6  UNL     1     -34.658   7.238   4.070  1.00 20.00     0.135 C 
HETATM    7  C1  UNL     1     -35.480   6.186   4.064  1.00 20.00     0.038 C 
ENDBRANCH   5   6
ENDBRANCH   3   5
ENDBRANCH   2   3
BRANCH   1   8
HETATM    8  C4  UNL     1     -31.534   8.711   0.270  1.00 20.00    -0.004 C 
HETATM    9  C5  UNL     1     -32.006   9.913  -0.093  1.00 20.00    -0.031 C 
HETATM   10  C8  UNL     1     -33.030  10.672   0.687  1.00 20.00     0.036 C 
ENDBRANCH   1   8
TORSDOF 4
ENDMDL
MODEL 7
REMARK VINA RESULT:      -1.4      1.175      5.054
REMARK  4 active torsions:
REMARK  status: ('A' for Active; 'I' for Inactive)
REMARK    1  A    between atoms: C2_2  and  C4_4 
REMARK    2  A    between atoms: C3_3  and  C7_7 
REMARK    3  A    between atoms: C6_6  and  O10_10 
REMARK    4  A    between atoms: C7_7  and  O10_10 
ROOT
HETATM    1  C2  UNL     1     -34.011   4.974   4.050  1.00 20.00     0.006 C 
HETATM    2  C3  UNL     1     -33.512   5.914   3.236  1.00 20.00     0.082 C 
ENDROOT
BRANCH   2   3
HETATM    3  C7  UNL     1     -33.724   7.347   3.547  1.00 20.00     0.287 C 
HETATM    4  O9  UNL     1     -34.725   7.808   4.074  1.00 20.00    -0.260 OA
BRANCH   3   5
HETATM    5  O10 UNL     1     -32.609   8.018   3.125  1.00 20.00    -0.289 OA
BRANCH   5   6
HETATM    6  C6  UNL     1     -32.288   7.792   1.800  1.00 20.00     0.135 C 
HETATM    7  C1  UNL     1     -31.998   8.744   0.910  1.00 20.00     0.038 C 
ENDBRANCH   5   6
ENDBRANCH   3   5
ENDBRANCH   2   3
BRANCH   1   8
HETATM    8  C4  UNL     1     -33.841   3.559   3.804  1.00 20.00    -0.004 C 
HETATM    9  C5  UNL     1     -33.203   2.738   4.652  1.00 20.00    -0.031 C 
HETATM   10  C8  UNL     1     -32.596   3.188   5.941  1.00 20.00     0.036 C 
ENDBRANCH   1   8
TORSDOF 4
ENDMDL
MODEL 8
REMARK VINA RESULT:      -1.3      2.317      4.387
REMARK  4 active torsions:
REMARK  status: ('A' for Active; 'I' for Inactive)
REMARK    1  A    between atoms: C2_2  and  C4_4 
REMARK    2  A    between atoms: C3_3  and  C7_7 
REMARK    3  A    between atoms: C6_6  and  O10_10 
REMARK    4  A    between atoms: C7_7  and  O10_10 
ROOT
HETATM    1  C2  UNL     1     -34.260   6.830   2.944  1.00 20.00     0.006 C 
HETATM    2  C3  UNL     1     -33.138   7.534   3.144  1.00 20.00     0.082 C 
ENDROOT
BRANCH   2   3
HETATM    3  C7  UNL     1     -32.324   7.972   1.986  1.00 20.00     0.287 C 
HETATM    4  O9  UNL     1     -32.395   9.071   1.457  1.00 20.00    -0.260 OA
BRANCH   3   5
HETATM    5  O10 UNL     1     -31.518   6.922   1.643  1.00 20.00    -0.289 OA
BRANCH   5   6
HETATM    6  C6  UNL     1     -32.200   5.838   1.127  1.00 20.00     0.135 C 
HETATM    7  C1  UNL     1     -31.681   4.620   0.951  1.00 20.00     0.038 C 
ENDBRANCH   5   6
ENDBRANCH   3   5
ENDBRANCH   2   3
BRANCH   1   8
HETATM    8  C4  UNL     1     -35.099   6.372   4.030  1.00 20.00    -0.004 C 
HETATM    9  C5  UNL     1     -35.023   5.136   4.544  1.00 20.00    -0.031 C 
HETATM   10  C8  UNL     1     -34.070   4.093   4.056  1.00 20.00     0.036 C 
ENDBRANCH   1   8
TORSDOF 4
ENDMDL
MODEL 9
REMARK VINA RESULT:      -1.3      1.345      2.169
REMARK  4 active torsions:
REMARK  status: ('A' for Active; 'I' for Inactive)
REMARK    1  A    between atoms: C2_2  and  C4_4 
REMARK    2  A    between atoms: C3_3  and  C7_7 
REMARK    3  A    between atoms: C6_6  and  O10_10 
REMARK    4  A    between atoms: C7_7  and  O10_10 
ROOT
HETATM    1  C2  UNL     1     -32.358   7.606   1.759  1.00 20.00     0.006 C 
HETATM    2  C3  UNL     1     -32.806   6.343   1.761  1.00 20.00     0.082 C 
ENDROOT
BRANCH   2   3
HETATM    3  C7  UNL     1     -33.638   5.856   2.886  1.00 20.00     0.287 C 
HETATM    4  O9  UNL     1     -33.516   4.767   3.426  1.00 20.00    -0.260 OA
BRANCH   3   5
HETATM    5  O10 UNL     1     -34.542   6.841   3.172  1.00 20.00    -0.289 OA
BRANCH   5   6
HETATM    6  C6  UNL     1     -34.464   7.313   4.469  1.00 20.00     0.135 C 
HETATM    7  C1  UNL     1     -33.494   8.100   4.939  1.00 20.00     0.038 C 
ENDBRANCH   5   6
ENDBRANCH   3   5
ENDBRANCH   2   3
BRANCH   1   8
HETATM    8  C4  UNL     1     -31.542   8.143   0.693  1.00 20.00    -0.004 C 
HETATM    9  C5  UNL     1     -31.744   9.354   0.154  1.00 20.00    -0.031 C 
HETATM   10  C8  UNL     1     -32.831  10.284   0.588  1.00 20.00     0.036 C 
ENDBRANCH   1   8
TORSDOF 4
ENDMDL
