MODEL 1
REMARK VINA RESULT:      -2.1      0.000      0.000
REMARK  3 active torsions:
REMARK  status: ('A' for Active; 'I' for Inactive)
REMARK    1  A    between atoms: C3_3  and  C5_5 
REMARK    2  A    between atoms: C4_4  and  C5_5 
REMARK    3  A    between atoms: C5_5  and  O6_6 
ROOT
HETATM    1  C5  UNL     1     -34.507   5.332   4.384  1.00 20.00     0.132 C 
ENDROOT
BRANCH   1   2
HETATM    2  C3  UNL     1     -34.607   6.613   3.633  1.00 20.00     0.015 A 
HETATM    3  C1  UNL     1     -33.967   7.861   4.175  1.00 20.00     0.007 A 
HETATM    4  C2  UNL     1     -33.395   7.191   2.957  1.00 20.00     0.007 A 
ENDBRANCH   1   2
BRANCH   1   5
HETATM    5  C4  UNL     1     -33.807   4.255   3.559  1.00 20.00     0.117 C 
HETATM    6 BR7  UNL     1     -33.136   2.833   4.714  1.00 20.00    -0.094 Br
ENDBRANCH   1   5
BRANCH   1   7
HETATM    7  O6  UNL     1     -35.821   4.866   4.706  1.00 20.00    -0.394 OA
HETATM    8  H16 UNL     1     -36.200   4.533   3.878  1.00 20.00     0.210 HD
ENDBRANCH   1   7
TORSDOF 3
ENDMDL
MODEL 2
REMARK VINA RESULT:      -1.8      3.494      4.015
REMARK  3 active torsions:
REMARK  status: ('A' for Active; 'I' for Inactive)
REMARK    1  A    between atoms: C3_3  and  C5_5 
REMARK    2  A    between atoms: C4_4  and  C5_5 
REMARK    3  A    between atoms: C5_5  and  O6_6 
ROOT
HETATM    1  C5  UNL     1     -32.674   6.696   2.313  1.00 20.00     0.132 C 
ENDROOT
BRANCH   1   2
HETATM    2  C3  UNL     1     -33.922   7.289   2.867  1.00 20.00     0.015 A 
HETATM    3  C1  UNL     1     -34.750   6.520   3.859  1.00 20.00     0.007 A 
HETATM    4  C2  UNL     1     -33.977   7.730   4.304  1.00 20.00     0.007 A 
ENDBRANCH   1   2
BRANCH   1   5
HETATM    5  C4  UNL     1     -31.670   7.777   1.920  1.00 20.00     0.117 C 
HETATM    6 BR7  UNL     1     -32.505   9.099   0.753  1.00 20.00    -0.094 Br
ENDBRANCH   1   5
BRANCH   1   7
HETATM    7  O6  UNL     1     -32.990   5.933   1.145  1.00 20.00    -0.394 OA
HETATM    8  H16 UNL     1     -32.970   6.554   0.402  1.00 20.00     0.210 HD
ENDBRANCH   1   7
TORSDOF 3
ENDMDL
MODEL 3
REMARK VINA RESULT:      -1.7      3.755      4.595
REMARK  3 active torsions:
REMARK  status: ('A' for Active; 'I' for Inactive)
REMARK    1  A    between atoms: C3_3  and  C5_5 
REMARK    2  A    between atoms: C4_4  and  C5_5 
REMARK    3  A    between atoms: C5_5  and  O6_6 
ROOT
HETATM    1  C5  UNL     1     -32.541   7.875   1.609  1.00 20.00     0.132 C 
ENDROOT
BRANCH   1   2
HETATM    2  C3  UNL     1     -31.945   9.047   0.910  1.00 20.00     0.015 A 
HETATM    3  C1  UNL     1     -32.524   9.527  -0.392  1.00 20.00     0.007 A 
HETATM    4  C2  UNL     1     -32.688  10.352   0.853  1.00 20.00     0.007 A 
ENDBRANCH   1   2
BRANCH   1   5
HETATM    5  C4  UNL     1     -32.683   8.133   3.107  1.00 20.00     0.117 C 
HETATM    6 BR7  UNL     1     -34.232   7.184   3.822  1.00 20.00    -0.094 Br
ENDBRANCH   1   5
BRANCH   1   7
HETATM    7  O6  UNL     1     -31.696   6.735   1.429  1.00 20.00    -0.394 OA
HETATM    8  H16 UNL     1     -32.217   6.087   0.932  1.00 20.00     0.210 HD
ENDBRANCH   1   7
TORSDOF 3
ENDMDL
MODEL 4
REMARK VINA RESULT:      -1.6      1.784      2.253
REMARK  3 active torsions:
REMARK  status: ('A' for Active; 'I' for Inactive)
REMARK    1  A    between atoms: C3_3  and  C5_5 
REMARK    2  A    between atoms: C4_4  and  C5_5 
REMARK    3  A    between atoms: C5_5  and  O6_6 
ROOT
HETATM    1  C5  UNL     1     -33.741   6.589   3.634  1.00 20.00     0.132 C 
ENDROOT
BRANCH   1   2
HETATM    2  C3  UNL     1     -33.459   6.795   2.187  1.00 20.00     0.015 A 
HETATM    3  C1  UNL     1     -32.105   7.271   1.739  1.00 20.00     0.007 A 
HETATM    4  C2  UNL     1     -32.537   5.859   1.455  1.00 20.00     0.007 A 
ENDBRANCH   1   2
BRANCH   1   5
HETATM    5  C4  UNL     1     -34.721   5.439   3.854  1.00 20.00     0.117 C 
HETATM    6 BR7  UNL     1     -33.767   3.809   4.345  1.00 20.00    -0.094 Br
ENDBRANCH   1   5
BRANCH   1   7
HETATM    7  O6  UNL     1     -34.318   7.779   4.179  1.00 20.00    -0.394 OA
HETATM    8  H16 UNL     1     -34.479   8.370   3.429  1.00 20.00     0.210 HD
ENDBRANCH   1   7
TORSDOF 3
ENDMDL
MODEL 5
REMARK VINA RESULT:      -1.4      2.943      3.420
REMARK  3 active torsions:
REMARK  status: ('A' for Active; 'I' for Inactive)
REMARK    1  A    between atoms: C3_3  and  C5_5 
REMARK    2  A    between atoms: C4_4  and  C5_5 
REMARK    3  A    between atoms: C5_5  and  O6_6 
ROOT
HETATM    1  C5  UNL     1     -33.100   6.238   1.706  1.00 20.00     0.132 C 
ENDROOT
BRANCH   1   2
HETATM    2  C3  UNL     1     -31.971   7.209   1.715  1.00 20.00     0.015 A 
HETATM    3  C1  UNL     1     -32.158   8.593   1.157  1.00 20.00     0.007 A 
HETATM    4  C2  UNL     1     -32.000   8.394   2.639  1.00 20.00     0.007 A 
ENDBRANCH   1   2
BRANCH   1   5
HETATM    5  C4  UNL     1     -33.388   5.705   3.107  1.00 20.00     0.117 C 
HETATM    6 BR7  UNL     1     -35.006   6.521   3.832  1.00 20.00    -0.094 Br
ENDBRANCH   1   5
BRANCH   1   7
HETATM    7  O6  UNL     1     -32.766   5.129   0.865  1.00 20.00    -0.394 OA
HETATM    8  H16 UNL     1     -33.584   4.879   0.410  1.00 20.00     0.210 HD
ENDBRANCH   1   7
TORSDOF 3
ENDMDL
MODEL 6
REMARK VINA RESULT:      -1.1      3.843      4.547
REMARK  3 active torsions:
REMARK  status: ('A' for Active; 'I' for Inactive)
REMARK    1  A    between atoms: C3_3  and  C5_5 
REMARK    2  A    between atoms: C4_4  and  C5_5 
REMARK    3  A    between atoms: C5_5  and  O6_6 
ROOT
HETATM    1  C5  UNL     1     -33.153   7.371   2.197  1.00 20.00     0.132 C 
ENDROOT
BRANCH   1   2
HETATM    2  C3  UNL     1     -32.939   5.913   1.991  1.00 20.00     0.015 A 
HETATM    3  C1  UNL     1     -33.260   5.280   0.665  1.00 20.00     0.007 A 
HETATM    4  C2  UNL     1     -31.829   5.429   1.100  1.00 20.00     0.007 A 
ENDBRANCH   1   2
BRANCH   1   5
HETATM    5  C4  UNL     1     -31.904   8.174   1.840  1.00 20.00     0.117 C 
HETATM    6 BR7  UNL     1     -32.311   9.503   0.471  1.00 20.00    -0.094 Br
ENDBRANCH   1   5
BRANCH   1   7
HETATM    7  O6  UNL     1     -33.464   7.616   3.573  1.00 20.00    -0.394 OA
HETATM    8  H16 UNL     1     -32.646   7.457   4.067  1.00 20.00     0.210 HD
ENDBRANCH   1   7
TORSDOF 3
ENDMDL
MODEL 7
REMARK VINA RESULT:      -1.1      3.799      4.463
REMARK  3 active torsions:
REMARK  status: ('A' for Active; 'I' for Inactive)
REMARK    1  A    between atoms: C3_3  and  C5_5 
REMARK    2  A    between atoms: C4_4  and  C5_5 
REMARK    3  A    between atoms: C5_5  and  O6_6 
ROOT
HETATM    1  C5  UNL     1     -31.945   7.996   1.642  1.00 20.00     0.132 C 
ENDROOT
BRANCH   1   2
HETATM    2  C3  UNL     1     -32.792   8.997   0.937  1.00 20.00     0.015 A 
HETATM    3  C1  UNL     1     -32.237  10.351   0.593  1.00 20.00     0.007 A 
HETATM    4  C2  UNL     1     -32.510   9.352  -0.496  1.00 20.00     0.007 A 
ENDBRANCH   1   2
BRANCH   1   5
HETATM    5  C4  UNL     1     -32.683   6.672   1.826  1.00 20.00     0.117 C 
HETATM    6 BR7  UNL     1     -33.948   6.792   3.307  1.00 20.00    -0.094 Br
ENDBRANCH   1   5
BRANCH   1   7
HETATM    7  O6  UNL     1     -31.594   8.497   2.935  1.00 20.00    -0.394 OA
HETATM    8  H16 UNL     1     -30.930   7.887   3.291  1.00 20.00     0.210 HD
ENDBRANCH   1   7
TORSDOF 3
ENDMDL
MODEL 8
REMARK VINA RESULT:      -1.1      3.203      3.759
REMARK  3 active torsions:
REMARK  status: ('A' for Active; 'I' for Inactive)
REMARK    1  A    between atoms: C3_3  and  C5_5 
REMARK    2  A    between atoms: C4_4  and  C5_5 
REMARK    3  A    between atoms: C5_5  and  O6_6 
ROOT
HETATM    1  C5  UNL     1     -33.067   6.208   2.745  1.00 20.00     0.132 C 
ENDROOT
BRANCH   1   2
HETATM    2  C3  UNL     1     -34.475   5.829   3.047  1.00 20.00     0.015 A 
HETATM    3  C1  UNL     1     -34.800   5.059   4.297  1.00 20.00     0.007 A 
HETATM    4  C2  UNL     1     -35.213   6.499   4.173  1.00 20.00     0.007 A 
ENDBRANCH   1   2
BRANCH   1   5
HETATM    5  C4  UNL     1     -32.863   7.718   2.839  1.00 20.00     0.117 C 
HETATM    6 BR7  UNL     1     -31.874   8.375   1.291  1.00 20.00    -0.094 Br
ENDBRANCH   1   5
BRANCH   1   7
HETATM    7  O6  UNL     1     -32.739   5.794   1.414  1.00 20.00    -0.394 OA
HETATM    8  H16 UNL     1     -32.445   6.591   0.948  1.00 20.00     0.210 HD
ENDBRANCH   1   7
TORSDOF 3
ENDMDL
MODEL 9
REMARK VINA RESULT:      -1.1      3.932      4.444
REMARK  3 active torsions:
REMARK  status: ('A' for Active; 'I' for Inactive)
REMARK    1  A    between atoms: C3_3  and  C5_5 
REMARK    2  A    between atoms: C4_4  and  C5_5 
REMARK    3  A    between atoms: C5_5  and  O6_6 
ROOT
HETATM    1  C5  UNL     1     -32.584   8.358   3.051  1.00 20.00     0.132 C 
ENDROOT
BRANCH   1   2
HETATM    2  C3  UNL     1     -33.210   7.195   3.736  1.00 20.00     0.015 A 
HETATM    3  C1  UNL     1     -34.682   7.198   4.043  1.00 20.00     0.007 A 
HETATM    4  C2  UNL     1     -34.137   6.282   2.982  1.00 20.00     0.007 A 
ENDBRANCH   1   2
BRANCH   1   5
HETATM    5  C4  UNL     1     -32.071   7.979   1.663  1.00 20.00     0.117 C 
HETATM    6 BR7  UNL     1     -32.288   9.469   0.421  1.00 20.00    -0.094 Br
ENDBRANCH   1   5
BRANCH   1   7
HETATM    7  O6  UNL     1     -31.474   8.825   3.825  1.00 20.00    -0.394 OA
HETATM    8  H16 UNL     1     -31.851   9.232   4.619  1.00 20.00     0.210 HD
ENDBRANCH   1   7
TORSDOF 3
ENDMDL
