MODEL 1
REMARK VINA RESULT:      -1.1      0.000      0.000
REMARK  0 active torsions:
REMARK  status: ('A' for Active; 'I' for Inactive)
ROOT
HETATM    1  C1  UNL     1     -32.171   7.232   1.864  1.00 20.00     0.198 C 
HETATM    2  C2  UNL     1     -33.037   8.277   2.532  1.00 20.00     0.085 C 
HETATM    3  C3  UNL     1     -33.141   8.046   4.034  1.00 20.00     0.008 C 
HETATM    4  C4  UNL     1     -34.462   7.434   4.499  1.00 20.00     0.000 C 
HETATM    5  C5  UNL     1     -35.049   6.302   3.660  1.00 20.00     0.000 C 
HETATM    6  C6  UNL     1     -34.239   5.013   3.595  1.00 20.00     0.006 C 
HETATM    7  C7  UNL     1     -32.860   5.037   2.934  1.00 20.00     0.087 C 
HETATM    8  C8  UNL     1     -32.725   5.839   1.643  1.00 20.00     0.302 C 
HETATM    9  O9  UNL     1     -31.019   7.507   1.519  1.00 20.00    -0.291 OA
HETATM   10  F10 UNL     1     -31.858   5.150   0.837  1.00 20.00    -0.198 F 
HETATM   11  F11 UNL     1     -33.898   5.858   0.962  1.00 20.00    -0.198 F 
ENDROOT
TORSDOF 0
ENDMDL
MODEL 2
REMARK VINA RESULT:      -0.1      2.297      3.632
REMARK  0 active torsions:
REMARK  status: ('A' for Active; 'I' for Inactive)
ROOT
HETATM    1  C1  UNL     1     -33.957   5.144   3.122  1.00 20.00     0.198 C 
HETATM    2  C2  UNL     1     -33.228   5.346   1.812  1.00 20.00     0.085 C 
HETATM    3  C3  UNL     1     -31.910   6.086   2.008  1.00 20.00     0.008 C 
HETATM    4  C4  UNL     1     -31.934   7.558   1.600  1.00 20.00     0.000 C 
HETATM    5  C5  UNL     1     -33.162   8.377   1.986  1.00 20.00     0.000 C 
HETATM    6  C6  UNL     1     -33.407   8.575   3.478  1.00 20.00     0.006 C 
HETATM    7  C7  UNL     1     -33.718   7.354   4.346  1.00 20.00     0.087 C 
HETATM    8  C8  UNL     1     -34.672   6.316   3.763  1.00 20.00     0.302 C 
HETATM    9  O9  UNL     1     -33.951   4.040   3.672  1.00 20.00    -0.291 OA
HETATM   10  F10 UNL     1     -35.430   5.846   4.802  1.00 20.00    -0.198 F 
HETATM   11  F11 UNL     1     -35.559   6.897   2.916  1.00 20.00    -0.198 F 
ENDROOT
TORSDOF 0
ENDMDL
MODEL 3
REMARK VINA RESULT:       0.6      2.184      3.305
REMARK  0 active torsions:
REMARK  status: ('A' for Active; 'I' for Inactive)
ROOT
HETATM    1  C1  UNL     1     -33.806   7.433   4.004  1.00 20.00     0.198 C 
HETATM    2  C2  UNL     1     -32.404   7.917   3.705  1.00 20.00     0.085 C 
HETATM    3  C3  UNL     1     -32.265   8.386   2.262  1.00 20.00     0.008 C 
HETATM    4  C4  UNL     1     -31.544   7.407   1.336  1.00 20.00     0.000 C 
HETATM    5  C5  UNL     1     -31.885   5.926   1.472  1.00 20.00     0.000 C 
HETATM    6  C6  UNL     1     -33.313   5.522   1.122  1.00 20.00     0.006 C 
HETATM    7  C7  UNL     1     -34.464   6.056   1.977  1.00 20.00     0.087 C 
HETATM    8  C8  UNL     1     -34.251   6.079   3.487  1.00 20.00     0.302 C 
HETATM    9  O9  UNL     1     -34.585   8.143   4.646  1.00 20.00    -0.291 OA
HETATM   10  F10 UNL     1     -35.455   5.770   4.062  1.00 20.00    -0.198 F 
HETATM   11  F11 UNL     1     -33.411   5.086   3.872  1.00 20.00    -0.198 F 
ENDROOT
TORSDOF 0
ENDMDL
MODEL 4
REMARK VINA RESULT:       0.8      2.226      3.248
REMARK  0 active torsions:
REMARK  status: ('A' for Active; 'I' for Inactive)
ROOT
HETATM    1  C1  UNL     1     -34.426   6.294   3.832  1.00 20.00     0.198 C 
HETATM    2  C2  UNL     1     -33.698   7.619   3.898  1.00 20.00     0.085 C 
HETATM    3  C3  UNL     1     -33.632   8.295   2.534  1.00 20.00     0.008 C 
HETATM    4  C4  UNL     1     -32.276   8.200   1.835  1.00 20.00     0.000 C 
HETATM    5  C5  UNL     1     -31.544   6.862   1.897  1.00 20.00     0.000 C 
HETATM    6  C6  UNL     1     -32.215   5.686   1.197  1.00 20.00     0.006 C 
HETATM    7  C7  UNL     1     -33.562   5.184   1.720  1.00 20.00     0.087 C 
HETATM    8  C8  UNL     1     -33.724   5.091   3.234  1.00 20.00     0.302 C 
HETATM    9  O9  UNL     1     -35.585   6.201   4.243  1.00 20.00    -0.291 OA
HETATM   10  F10 UNL     1     -34.483   3.978   3.484  1.00 20.00    -0.198 F 
HETATM   11  F11 UNL     1     -32.533   4.845   3.834  1.00 20.00    -0.198 F 
ENDROOT
TORSDOF 0
ENDMDL
MODEL 5
REMARK VINA RESULT:       0.9      2.136      3.171
REMARK  0 active torsions:
REMARK  status: ('A' for Active; 'I' for Inactive)
ROOT
HETATM    1  C1  UNL     1     -32.954   7.726   2.475  1.00 20.00     0.198 C 
HETATM    2  C2  UNL     1     -32.155   6.498   2.096  1.00 20.00     0.085 C 
HETATM    3  C3  UNL     1     -33.042   5.408   1.508  1.00 20.00     0.008 C 
HETATM    4  C4  UNL     1     -33.352   4.251   2.456  1.00 20.00     0.000 C 
HETATM    5  C5  UNL     1     -33.681   4.596   3.905  1.00 20.00     0.000 C 
HETATM    6  C6  UNL     1     -34.955   5.398   4.142  1.00 20.00     0.006 C 
HETATM    7  C7  UNL     1     -35.047   6.821   3.588  1.00 20.00     0.087 C 
HETATM    8  C8  UNL     1     -33.807   7.700   3.727  1.00 20.00     0.302 C 
HETATM    9  O9  UNL     1     -32.924   8.731   1.761  1.00 20.00    -0.291 OA
HETATM   10  F10 UNL     1     -34.249   8.971   3.978  1.00 20.00    -0.198 F 
HETATM   11  F11 UNL     1     -33.091   7.353   4.826  1.00 20.00    -0.198 F 
ENDROOT
TORSDOF 0
ENDMDL
MODEL 6
REMARK VINA RESULT:       1.6      1.657      2.755
REMARK  0 active torsions:
REMARK  status: ('A' for Active; 'I' for Inactive)
ROOT
HETATM    1  C1  UNL     1     -32.223   6.054   1.755  1.00 20.00     0.198 C 
HETATM    2  C2  UNL     1     -32.851   5.332   2.927  1.00 20.00     0.085 C 
HETATM    3  C3  UNL     1     -34.350   5.593   3.012  1.00 20.00     0.008 C 
HETATM    4  C4  UNL     1     -34.768   6.587   4.095  1.00 20.00     0.000 C 
HETATM    5  C5  UNL     1     -33.914   7.840   4.269  1.00 20.00     0.000 C 
HETATM    6  C6  UNL     1     -33.889   8.815   3.098  1.00 20.00     0.006 C 
HETATM    7  C7  UNL     1     -33.281   8.360   1.770  1.00 20.00     0.087 C 
HETATM    8  C8  UNL     1     -31.990   7.549   1.841  1.00 20.00     0.302 C 
HETATM    9  O9  UNL     1     -31.921   5.433   0.733  1.00 20.00    -0.291 OA
HETATM   10  F10 UNL     1     -31.222   7.931   0.773  1.00 20.00    -0.198 F 
HETATM   11  F11 UNL     1     -31.265   7.890   2.935  1.00 20.00    -0.198 F 
ENDROOT
TORSDOF 0
ENDMDL
MODEL 7
REMARK VINA RESULT:       1.8      1.549      2.774
REMARK  0 active torsions:
REMARK  status: ('A' for Active; 'I' for Inactive)
ROOT
HETATM    1  C1  UNL     1     -32.964   5.770   1.650  1.00 20.00     0.198 C 
HETATM    2  C2  UNL     1     -33.577   5.476   3.002  1.00 20.00     0.085 C 
HETATM    3  C3  UNL     1     -34.622   6.516   3.385  1.00 20.00     0.008 C 
HETATM    4  C4  UNL     1     -34.159   7.541   4.420  1.00 20.00     0.000 C 
HETATM    5  C5  UNL     1     -32.752   8.110   4.267  1.00 20.00     0.000 C 
HETATM    6  C6  UNL     1     -32.488   8.947   3.021  1.00 20.00     0.006 C 
HETATM    7  C7  UNL     1     -32.565   8.276   1.648  1.00 20.00     0.087 C 
HETATM    8  C8  UNL     1     -31.948   6.886   1.522  1.00 20.00     0.302 C 
HETATM    9  O9  UNL     1     -33.305   5.119   0.659  1.00 20.00    -0.291 OA
HETATM   10  F10 UNL     1     -31.381   6.816   0.277  1.00 20.00    -0.198 F 
HETATM   11  F11 UNL     1     -30.914   6.737   2.387  1.00 20.00    -0.198 F 
ENDROOT
TORSDOF 0
ENDMDL
