MODEL 1
REMARK VINA RESULT:      -2.1      0.000      0.000
REMARK  0 active torsions:
REMARK  status: ('A' for Active; 'I' for Inactive)
ROOT
HETATM    1  C1  UNL     1     -33.821   5.582   2.564  1.00 20.00     0.047 C 
HETATM    2  C2  UNL     1     -32.862   6.248   1.907  1.00 20.00    -0.014 C 
HETATM    3  C3  UNL     1     -34.518   6.252   3.694  1.00 20.00     0.149 C 
HETATM    4  C4  UNL     1     -34.174   7.697   4.013  1.00 20.00     0.084 C 
HETATM    5  C5  UNL     1     -32.728   8.036   3.659  1.00 20.00     0.021 C 
HETATM    6  C6  UNL     1     -31.178   8.157   1.584  1.00 20.00     0.014 A 
HETATM    7  C7  UNL     1     -32.521   8.659   1.144  1.00 20.00     0.014 A 
HETATM    8  C8  UNL     1     -32.430   7.620   2.239  1.00 20.00    -0.022 A 
HETATM    9  O9  UNL     1     -35.396   5.649   4.309  1.00 20.00    -0.293 OA
ENDROOT
TORSDOF 0
ENDMDL
MODEL 2
REMARK VINA RESULT:      -2.0      0.813      1.948
REMARK  0 active torsions:
REMARK  status: ('A' for Active; 'I' for Inactive)
ROOT
HETATM    1  C1  UNL     1     -34.572   6.888   3.975  1.00 20.00     0.047 C 
HETATM    2  C2  UNL     1     -33.876   7.778   3.255  1.00 20.00    -0.014 C 
HETATM    3  C3  UNL     1     -34.331   5.437   3.752  1.00 20.00     0.149 C 
HETATM    4  C4  UNL     1     -33.247   5.016   2.775  1.00 20.00     0.084 C 
HETATM    5  C5  UNL     1     -33.057   6.033   1.652  1.00 20.00     0.021 C 
HETATM    6  C6  UNL     1     -32.350   8.506   1.325  1.00 20.00     0.014 A 
HETATM    7  C7  UNL     1     -31.474   7.951   2.410  1.00 20.00     0.014 A 
HETATM    8  C8  UNL     1     -32.877   7.416   2.231  1.00 20.00    -0.022 A 
HETATM    9  O9  UNL     1     -34.969   4.610   4.401  1.00 20.00    -0.293 OA
ENDROOT
TORSDOF 0
ENDMDL
MODEL 3
REMARK VINA RESULT:      -1.9      2.002      3.858
REMARK  0 active torsions:
REMARK  status: ('A' for Active; 'I' for Inactive)
ROOT
HETATM    1  C1  UNL     1     -32.700   8.217   3.197  1.00 20.00     0.047 C 
HETATM    2  C2  UNL     1     -33.678   7.642   3.909  1.00 20.00    -0.014 C 
HETATM    3  C3  UNL     1     -32.233   7.554   1.951  1.00 20.00     0.149 C 
HETATM    4  C4  UNL     1     -32.935   6.289   1.486  1.00 20.00     0.084 C 
HETATM    5  C5  UNL     1     -33.496   5.480   2.653  1.00 20.00     0.021 C 
HETATM    6  C6  UNL     1     -35.237   5.710   4.561  1.00 20.00     0.014 A 
HETATM    7  C7  UNL     1     -35.829   6.383   3.358  1.00 20.00     0.014 A 
HETATM    8  C8  UNL     1     -34.329   6.368   3.547  1.00 20.00    -0.022 A 
HETATM    9  O9  UNL     1     -31.331   8.068   1.291  1.00 20.00    -0.293 OA
ENDROOT
TORSDOF 0
ENDMDL
MODEL 4
REMARK VINA RESULT:      -0.9      1.988      3.592
REMARK  0 active torsions:
REMARK  status: ('A' for Active; 'I' for Inactive)
ROOT
HETATM    1  C1  UNL     1     -32.871   6.390   1.462  1.00 20.00     0.047 C 
HETATM    2  C2  UNL     1     -33.812   5.724   2.144  1.00 20.00    -0.014 C 
HETATM    3  C3  UNL     1     -32.243   7.586   2.083  1.00 20.00     0.149 C 
HETATM    4  C4  UNL     1     -32.633   7.965   3.501  1.00 20.00     0.084 C 
HETATM    5  C5  UNL     1     -34.067   7.560   3.832  1.00 20.00     0.021 C 
HETATM    6  C6  UNL     1     -35.519   5.421   4.036  1.00 20.00     0.014 A 
HETATM    7  C7  UNL     1     -34.168   5.074   4.587  1.00 20.00     0.014 A 
HETATM    8  C8  UNL     1     -34.288   6.106   3.488  1.00 20.00    -0.022 A 
HETATM    9  O9  UNL     1     -31.383   8.210   1.463  1.00 20.00    -0.293 OA
ENDROOT
TORSDOF 0
ENDMDL
MODEL 5
REMARK VINA RESULT:      -0.7      1.053      1.222
REMARK  0 active torsions:
REMARK  status: ('A' for Active; 'I' for Inactive)
ROOT
HETATM    1  C1  UNL     1     -32.571   5.631   1.703  1.00 20.00     0.047 C 
HETATM    2  C2  UNL     1     -31.985   6.669   1.091  1.00 20.00    -0.014 C 
HETATM    3  C3  UNL     1     -33.336   5.872   2.955  1.00 20.00     0.149 C 
HETATM    4  C4  UNL     1     -33.493   7.298   3.454  1.00 20.00     0.084 C 
HETATM    5  C5  UNL     1     -32.307   8.178   3.067  1.00 20.00     0.021 C 
HETATM    6  C6  UNL     1     -31.128   9.083   0.942  1.00 20.00     0.014 A 
HETATM    7  C7  UNL     1     -32.601   9.107   0.657  1.00 20.00     0.014 A 
HETATM    8  C8  UNL     1     -32.033   8.058   1.587  1.00 20.00    -0.022 A 
HETATM    9  O9  UNL     1     -33.873   4.927   3.530  1.00 20.00    -0.293 OA
ENDROOT
TORSDOF 0
ENDMDL
MODEL 6
REMARK VINA RESULT:      -0.3      1.398      2.354
REMARK  0 active torsions:
REMARK  status: ('A' for Active; 'I' for Inactive)
ROOT
HETATM    1  C1  UNL     1     -34.100   6.038   3.797  1.00 20.00     0.047 C 
HETATM    2  C2  UNL     1     -33.641   5.276   2.795  1.00 20.00    -0.014 C 
HETATM    3  C3  UNL     1     -33.787   7.492   3.797  1.00 20.00     0.149 C 
HETATM    4  C4  UNL     1     -33.027   8.077   2.619  1.00 20.00     0.084 C 
HETATM    5  C5  UNL     1     -32.082   7.062   1.982  1.00 20.00     0.021 C 
HETATM    6  C6  UNL     1     -32.168   4.780   0.754  1.00 20.00     0.014 A 
HETATM    7  C7  UNL     1     -33.353   5.568   0.276  1.00 20.00     0.014 A 
HETATM    8  C8  UNL     1     -32.823   5.782   1.676  1.00 20.00    -0.022 A 
HETATM    9  O9  UNL     1     -34.196   8.201   4.715  1.00 20.00    -0.293 OA
ENDROOT
TORSDOF 0
ENDMDL
MODEL 7
REMARK VINA RESULT:      -0.1      1.908      3.126
REMARK  0 active torsions:
REMARK  status: ('A' for Active; 'I' for Inactive)
ROOT
HETATM    1  C1  UNL     1     -33.432   5.255   2.402  1.00 20.00     0.047 C 
HETATM    2  C2  UNL     1     -33.948   6.085   3.319  1.00 20.00    -0.014 C 
HETATM    3  C3  UNL     1     -32.350   5.751   1.511  1.00 20.00     0.149 C 
HETATM    4  C4  UNL     1     -31.812   7.156   1.723  1.00 20.00     0.084 C 
HETATM    5  C5  UNL     1     -32.872   8.100   2.285  1.00 20.00     0.021 C 
HETATM    6  C6  UNL     1     -34.350   8.379   4.397  1.00 20.00     0.014 A 
HETATM    7  C7  UNL     1     -33.016   7.883   4.872  1.00 20.00     0.014 A 
HETATM    8  C8  UNL     1     -33.521   7.486   3.503  1.00 20.00    -0.022 A 
HETATM    9  O9  UNL     1     -31.873   5.002   0.660  1.00 20.00    -0.293 OA
ENDROOT
TORSDOF 0
ENDMDL
MODEL 8
REMARK VINA RESULT:       0.0      2.041      3.036
REMARK  0 active torsions:
REMARK  status: ('A' for Active; 'I' for Inactive)
ROOT
HETATM    1  C1  UNL     1     -35.110   4.716   4.599  1.00 20.00     0.047 C 
HETATM    2  C2  UNL     1     -35.240   6.031   4.376  1.00 20.00    -0.014 C 
HETATM    3  C3  UNL     1     -33.918   4.009   4.061  1.00 20.00     0.149 C 
HETATM    4  C4  UNL     1     -32.849   4.817   3.346  1.00 20.00     0.084 C 
HETATM    5  C5  UNL     1     -33.425   6.045   2.646  1.00 20.00     0.021 C 
HETATM    6  C6  UNL     1     -34.662   8.250   3.224  1.00 20.00     0.014 A 
HETATM    7  C7  UNL     1     -33.652   8.028   4.311  1.00 20.00     0.014 A 
HETATM    8  C8  UNL     1     -34.273   6.841   3.610  1.00 20.00    -0.022 A 
HETATM    9  O9  UNL     1     -33.791   2.801   4.253  1.00 20.00    -0.293 OA
ENDROOT
TORSDOF 0
ENDMDL
MODEL 9
REMARK VINA RESULT:       0.2      1.418      2.650
REMARK  0 active torsions:
REMARK  status: ('A' for Active; 'I' for Inactive)
ROOT
HETATM    1  C1  UNL     1     -32.649   8.135   2.880  1.00 20.00     0.047 C 
HETATM    2  C2  UNL     1     -32.250   7.337   1.881  1.00 20.00    -0.014 C 
HETATM    3  C3  UNL     1     -33.606   7.605   3.887  1.00 20.00     0.149 C 
HETATM    4  C4  UNL     1     -34.034   6.150   3.795  1.00 20.00     0.084 C 
HETATM    5  C5  UNL     1     -34.033   5.640   2.356  1.00 20.00     0.021 C 
HETATM    6  C6  UNL     1     -32.375   5.244   0.401  1.00 20.00     0.014 A 
HETATM    7  C7  UNL     1     -31.650   4.866   1.660  1.00 20.00     0.014 A 
HETATM    8  C8  UNL     1     -32.708   5.946   1.698  1.00 20.00    -0.022 A 
HETATM    9  O9  UNL     1     -33.985   8.330   4.805  1.00 20.00    -0.293 OA
ENDROOT
TORSDOF 0
ENDMDL
