MODEL 1
REMARK VINA RESULT:      -3.0      0.000      0.000
REMARK  3 active torsions:
REMARK  status: ('A' for Active; 'I' for Inactive)
REMARK    1  A    between atoms: C3_3  and  C8_8 
REMARK    2  A    between atoms: C6_6  and  C7_7 
REMARK    3  A    between atoms: C7_7  and  C8_8 
ROOT
HETATM    1  C5  UNL     1     -32.799   5.724   1.442  1.00 20.00     0.010 C 
HETATM    2  C8  UNL     1     -32.483   6.965   2.277  1.00 20.00    -0.014 C 
ENDROOT
BRANCH   2   3
HETATM    3  C3  UNL     1     -33.770   7.508   2.903  1.00 20.00    -0.011 A 
HETATM    4  C1  UNL     1     -34.652   6.608   3.722  1.00 20.00     0.005 A 
HETATM    5  C2  UNL     1     -33.865   7.700   4.391  1.00 20.00     0.005 A 
ENDBRANCH   2   3
BRANCH   2   6
HETATM    6  C7  UNL     1     -31.796   8.070   1.454  1.00 20.00     0.004 C 
BRANCH   6   7
HETATM    7  C6  UNL     1     -32.677   9.303   1.233  1.00 20.00    -0.004 C 
HETATM    8  C4  UNL     1     -32.449   9.907  -0.145  1.00 20.00     0.005 C 
ENDBRANCH   6   7
ENDBRANCH   2   6
TORSDOF 3
ENDMDL
MODEL 2
REMARK VINA RESULT:      -2.7      1.398      4.412
REMARK  3 active torsions:
REMARK  status: ('A' for Active; 'I' for Inactive)
REMARK    1  A    between atoms: C3_3  and  C8_8 
REMARK    2  A    between atoms: C6_6  and  C7_7 
REMARK    3  A    between atoms: C7_7  and  C8_8 
ROOT
HETATM    1  C5  UNL     1     -33.640   8.190   4.486  1.00 20.00     0.010 C 
HETATM    2  C8  UNL     1     -33.738   6.890   3.688  1.00 20.00    -0.014 C 
ENDROOT
BRANCH   2   3
HETATM    3  C3  UNL     1     -33.377   7.154   2.224  1.00 20.00    -0.011 A 
HETATM    4  C1  UNL     1     -32.020   7.693   1.865  1.00 20.00     0.005 A 
HETATM    5  C2  UNL     1     -32.380   6.275   1.521  1.00 20.00     0.005 A 
ENDBRANCH   2   3
BRANCH   2   6
HETATM    6  C7  UNL     1     -35.136   6.250   3.773  1.00 20.00     0.004 C 
BRANCH   6   7
HETATM    7  C6  UNL     1     -35.156   4.929   4.546  1.00 20.00    -0.004 C 
HETATM    8  C4  UNL     1     -33.971   4.051   4.173  1.00 20.00     0.005 C 
ENDBRANCH   6   7
ENDBRANCH   2   6
TORSDOF 3
ENDMDL
MODEL 3
REMARK VINA RESULT:      -2.4      0.829      3.757
REMARK  3 active torsions:
REMARK  status: ('A' for Active; 'I' for Inactive)
REMARK    1  A    between atoms: C3_3  and  C8_8 
REMARK    2  A    between atoms: C6_6  and  C7_7 
REMARK    3  A    between atoms: C7_7  and  C8_8 
ROOT
HETATM    1  C5  UNL     1     -32.529   6.012   1.454  1.00 20.00     0.010 C 
HETATM    2  C8  UNL     1     -32.983   7.365   2.005  1.00 20.00    -0.014 C 
ENDROOT
BRANCH   2   3
HETATM    3  C3  UNL     1     -31.995   8.454   1.579  1.00 20.00    -0.011 A 
HETATM    4  C1  UNL     1     -31.545   8.550   0.148  1.00 20.00     0.005 A 
HETATM    5  C2  UNL     1     -32.456   9.599   0.722  1.00 20.00     0.005 A 
ENDBRANCH   2   3
BRANCH   2   6
HETATM    6  C7  UNL     1     -33.123   7.358   3.539  1.00 20.00     0.004 C 
BRANCH   6   7
HETATM    7  C6  UNL     1     -34.574   7.459   4.018  1.00 20.00    -0.004 C 
HETATM    8  C4  UNL     1     -35.247   6.094   4.037  1.00 20.00     0.005 C 
ENDBRANCH   6   7
ENDBRANCH   2   6
TORSDOF 3
ENDMDL
MODEL 4
REMARK VINA RESULT:      -2.2      2.005      4.743
REMARK  3 active torsions:
REMARK  status: ('A' for Active; 'I' for Inactive)
REMARK    1  A    between atoms: C3_3  and  C8_8 
REMARK    2  A    between atoms: C6_6  and  C7_7 
REMARK    3  A    between atoms: C7_7  and  C8_8 
ROOT
HETATM    1  C5  UNL     1     -34.268   7.516   4.093  1.00 20.00     0.010 C 
HETATM    2  C8  UNL     1     -33.626   6.208   3.630  1.00 20.00    -0.014 C 
ENDROOT
BRANCH   2   3
HETATM    3  C3  UNL     1     -33.380   6.260   2.120  1.00 20.00    -0.011 A 
HETATM    4  C1  UNL     1     -32.390   7.235   1.546  1.00 20.00     0.005 A 
HETATM    5  C2  UNL     1     -32.081   5.763   1.547  1.00 20.00     0.005 A 
ENDBRANCH   2   3
BRANCH   2   6
HETATM    6  C7  UNL     1     -34.481   4.976   3.978  1.00 20.00     0.004 C 
BRANCH   6   7
HETATM    7  C6  UNL     1     -33.745   3.648   3.782  1.00 20.00    -0.004 C 
HETATM    8  C4  UNL     1     -33.141   3.151   5.087  1.00 20.00     0.005 C 
ENDBRANCH   6   7
ENDBRANCH   2   6
TORSDOF 3
ENDMDL
MODEL 5
REMARK VINA RESULT:      -1.8      0.797      3.976
REMARK  3 active torsions:
REMARK  status: ('A' for Active; 'I' for Inactive)
REMARK    1  A    between atoms: C3_3  and  C8_8 
REMARK    2  A    between atoms: C6_6  and  C7_7 
REMARK    3  A    between atoms: C7_7  and  C8_8 
ROOT
HETATM    1  C5  UNL     1     -31.336   8.650   2.788  1.00 20.00     0.010 C 
HETATM    2  C8  UNL     1     -32.115   7.923   1.691  1.00 20.00    -0.014 C 
ENDROOT
BRANCH   2   3
HETATM    3  C3  UNL     1     -32.908   8.937   0.862  1.00 20.00    -0.011 A 
HETATM    4  C1  UNL     1     -32.400  10.342   0.697  1.00 20.00     0.005 A 
HETATM    5  C2  UNL     1     -32.386   9.395  -0.471  1.00 20.00     0.005 A 
ENDBRANCH   2   3
BRANCH   2   6
HETATM    6  C7  UNL     1     -33.067   6.853   2.256  1.00 20.00     0.004 C 
BRANCH   6   7
HETATM    7  C6  UNL     1     -33.771   7.282   3.546  1.00 20.00    -0.004 C 
HETATM    8  C4  UNL     1     -34.999   6.425   3.819  1.00 20.00     0.005 C 
ENDBRANCH   6   7
ENDBRANCH   2   6
TORSDOF 3
ENDMDL
MODEL 6
REMARK VINA RESULT:      -1.5      1.315      3.028
REMARK  3 active torsions:
REMARK  status: ('A' for Active; 'I' for Inactive)
REMARK    1  A    between atoms: C3_3  and  C8_8 
REMARK    2  A    between atoms: C6_6  and  C7_7 
REMARK    3  A    between atoms: C7_7  and  C8_8 
ROOT
HETATM    1  C5  UNL     1     -32.026   7.884   1.909  1.00 20.00     0.010 C 
HETATM    2  C8  UNL     1     -33.243   6.958   1.936  1.00 20.00    -0.014 C 
ENDROOT
BRANCH   2   3
HETATM    3  C3  UNL     1     -33.591   6.604   3.384  1.00 20.00    -0.011 A 
HETATM    4  C1  UNL     1     -34.113   7.661   4.317  1.00 20.00     0.005 A 
HETATM    5  C2  UNL     1     -35.027   6.571   3.830  1.00 20.00     0.005 A 
ENDBRANCH   2   3
BRANCH   2   6
HETATM    6  C7  UNL     1     -33.020   5.669   1.123  1.00 20.00     0.004 C 
BRANCH   6   7
HETATM    7  C6  UNL     1     -31.635   5.050   1.327  1.00 20.00    -0.004 C 
HETATM    8  C4  UNL     1     -31.263   4.131   0.173  1.00 20.00     0.005 C 
ENDBRANCH   6   7
ENDBRANCH   2   6
TORSDOF 3
ENDMDL
MODEL 7
REMARK VINA RESULT:      -1.4      1.260      2.004
REMARK  3 active torsions:
REMARK  status: ('A' for Active; 'I' for Inactive)
REMARK    1  A    between atoms: C3_3  and  C8_8 
REMARK    2  A    between atoms: C6_6  and  C7_7 
REMARK    3  A    between atoms: C7_7  and  C8_8 
ROOT
HETATM    1  C5  UNL     1     -33.629   4.162   3.316  1.00 20.00     0.010 C 
HETATM    2  C8  UNL     1     -33.244   5.603   2.979  1.00 20.00    -0.014 C 
ENDROOT
BRANCH   2   3
HETATM    3  C3  UNL     1     -34.445   6.525   3.207  1.00 20.00    -0.011 A 
HETATM    4  C1  UNL     1     -35.372   6.288   4.366  1.00 20.00     0.005 A 
HETATM    5  C2  UNL     1     -34.455   7.480   4.368  1.00 20.00     0.005 A 
ENDBRANCH   2   3
BRANCH   2   6
HETATM    6  C7  UNL     1     -32.736   5.754   1.534  1.00 20.00     0.004 C 
BRANCH   6   7
HETATM    7  C6  UNL     1     -31.604   6.775   1.389  1.00 20.00    -0.004 C 
HETATM    8  C4  UNL     1     -32.123   8.200   1.519  1.00 20.00     0.005 C 
ENDBRANCH   6   7
ENDBRANCH   2   6
TORSDOF 3
ENDMDL
MODEL 8
REMARK VINA RESULT:      -1.4      1.001      3.650
REMARK  3 active torsions:
REMARK  status: ('A' for Active; 'I' for Inactive)
REMARK    1  A    between atoms: C3_3  and  C8_8 
REMARK    2  A    between atoms: C6_6  and  C7_7 
REMARK    3  A    between atoms: C7_7  and  C8_8 
ROOT
HETATM    1  C5  UNL     1     -31.870   8.519   1.417  1.00 20.00     0.010 C 
HETATM    2  C8  UNL     1     -32.540   7.484   2.320  1.00 20.00    -0.014 C 
ENDROOT
BRANCH   2   3
HETATM    3  C3  UNL     1     -32.912   6.246   1.500  1.00 20.00    -0.011 A 
HETATM    4  C1  UNL     1     -31.837   5.398   0.880  1.00 20.00     0.005 A 
HETATM    5  C2  UNL     1     -32.634   4.870   2.040  1.00 20.00     0.005 A 
ENDBRANCH   2   3
BRANCH   2   6
HETATM    6  C7  UNL     1     -33.793   8.038   3.025  1.00 20.00     0.004 C 
BRANCH   6   7
HETATM    7  C6  UNL     1     -34.175   7.264   4.288  1.00 20.00    -0.004 C 
HETATM    8  C4  UNL     1     -35.337   6.317   4.027  1.00 20.00     0.005 C 
ENDBRANCH   6   7
ENDBRANCH   2   6
TORSDOF 3
ENDMDL
MODEL 9
REMARK VINA RESULT:      -1.3      0.955      2.302
REMARK  3 active torsions:
REMARK  status: ('A' for Active; 'I' for Inactive)
REMARK    1  A    between atoms: C3_3  and  C8_8 
REMARK    2  A    between atoms: C6_6  and  C7_7 
REMARK    3  A    between atoms: C7_7  and  C8_8 
ROOT
HETATM    1  C5  UNL     1     -33.452   7.618   3.644  1.00 20.00     0.010 C 
HETATM    2  C8  UNL     1     -33.004   7.584   2.183  1.00 20.00    -0.014 C 
ENDROOT
BRANCH   2   3
HETATM    3  C3  UNL     1     -32.448   6.199   1.845  1.00 20.00    -0.011 A 
HETATM    4  C1  UNL     1     -33.207   4.962   2.239  1.00 20.00     0.005 A 
HETATM    5  C2  UNL     1     -33.110   5.355   0.791  1.00 20.00     0.005 A 
ENDBRANCH   2   3
BRANCH   2   6
HETATM    6  C7  UNL     1     -31.950   8.661   1.864  1.00 20.00     0.004 C 
BRANCH   6   7
HETATM    7  C6  UNL     1     -31.941   9.090   0.395  1.00 20.00    -0.004 C 
HETATM    8  C4  UNL     1     -32.655  10.420   0.202  1.00 20.00     0.005 C 
ENDBRANCH   6   7
ENDBRANCH   2   6
TORSDOF 3
ENDMDL
