MODEL 1
REMARK VINA RESULT:      -1.5      0.000      0.000
REMARK  0 active torsions:
REMARK  status: ('A' for Active; 'I' for Inactive)
ROOT
HETATM    1  C1  UNL     1     -33.225   7.885   3.336  1.00 20.00     0.078 C 
HETATM    2  C2  UNL     1     -33.859   5.821   2.286  1.00 20.00     0.152 C 
HETATM    3  C3  UNL     1     -34.028   6.822   3.346  1.00 20.00     0.134 C 
HETATM    4  C4  UNL     1     -31.714   6.617   1.783  1.00 20.00     0.213 C 
HETATM    5  C5  UNL     1     -32.134   7.992   2.317  1.00 20.00     0.217 C 
HETATM    6  N6  UNL     1     -32.839   5.708   1.509  1.00 20.00    -0.294 NA
HETATM    7  F7  UNL     1     -35.057   6.666   4.194  1.00 20.00    -0.205 F 
HETATM    8  F8  UNL     1     -31.034   8.574   2.872  1.00 20.00    -0.219 F 
HETATM    9 CL9  UNL     1     -32.697   9.038   0.980  1.00 20.00    -0.076 Cl
ENDROOT
TORSDOF 0
ENDMDL
MODEL 2
REMARK VINA RESULT:      -1.0      2.441      3.172
REMARK  0 active torsions:
REMARK  status: ('A' for Active; 'I' for Inactive)
ROOT
HETATM    1  C1  UNL     1     -33.245   7.136   2.582  1.00 20.00     0.078 C 
HETATM    2  C2  UNL     1     -33.579   4.842   3.205  1.00 20.00     0.152 C 
HETATM    3  C3  UNL     1     -33.012   5.854   2.306  1.00 20.00     0.134 C 
HETATM    4  C4  UNL     1     -35.109   6.382   4.085  1.00 20.00     0.213 C 
HETATM    5  C5  UNL     1     -34.130   7.508   3.730  1.00 20.00     0.217 C 
HETATM    6  N6  UNL     1     -34.510   5.038   4.073  1.00 20.00    -0.294 NA
HETATM    7  F7  UNL     1     -32.198   5.432   1.326  1.00 20.00    -0.205 F 
HETATM    8  F8  UNL     1     -34.866   8.611   3.412  1.00 20.00    -0.219 F 
HETATM    9 CL9  UNL     1     -33.106   7.915   5.138  1.00 20.00    -0.076 Cl
ENDROOT
TORSDOF 0
ENDMDL
MODEL 3
REMARK VINA RESULT:      -0.7      2.360      2.687
REMARK  0 active torsions:
REMARK  status: ('A' for Active; 'I' for Inactive)
ROOT
HETATM    1  C1  UNL     1     -33.969   6.084   2.621  1.00 20.00     0.078 C 
HETATM    2  C2  UNL     1     -32.893   7.958   3.666  1.00 20.00     0.152 C 
HETATM    3  C3  UNL     1     -33.989   6.985   3.603  1.00 20.00     0.134 C 
HETATM    4  C4  UNL     1     -32.303   7.542   1.438  1.00 20.00     0.213 C 
HETATM    5  C5  UNL     1     -32.898   6.136   1.577  1.00 20.00     0.217 C 
HETATM    6  N6  UNL     1     -32.061   8.223   2.720  1.00 20.00    -0.294 NA
HETATM    7  F7  UNL     1     -34.884   6.985   4.602  1.00 20.00    -0.205 F 
HETATM    8  F8  UNL     1     -33.412   5.783   0.365  1.00 20.00    -0.219 F 
HETATM    9 CL9  UNL     1     -31.624   4.956   2.001  1.00 20.00    -0.076 Cl
ENDROOT
TORSDOF 0
ENDMDL
MODEL 4
REMARK VINA RESULT:      -0.7      2.395      3.632
REMARK  0 active torsions:
REMARK  status: ('A' for Active; 'I' for Inactive)
ROOT
HETATM    1  C1  UNL     1     -34.010   5.495   2.751  1.00 20.00     0.078 C 
HETATM    2  C2  UNL     1     -32.702   7.479   2.414  1.00 20.00     0.152 C 
HETATM    3  C3  UNL     1     -32.960   6.058   2.156  1.00 20.00     0.134 C 
HETATM    4  C4  UNL     1     -34.046   7.444   4.333  1.00 20.00     0.213 C 
HETATM    5  C5  UNL     1     -34.837   6.284   3.717  1.00 20.00     0.217 C 
HETATM    6  N6  UNL     1     -33.207   8.178   3.371  1.00 20.00    -0.294 NA
HETATM    7  F7  UNL     1     -32.192   5.440   1.246  1.00 20.00    -0.205 F 
HETATM    8  F8  UNL     1     -35.254   5.481   4.737  1.00 20.00    -0.219 F 
HETATM    9 CL9  UNL     1     -36.287   6.894   2.868  1.00 20.00    -0.076 Cl
ENDROOT
TORSDOF 0
ENDMDL
MODEL 5
REMARK VINA RESULT:      -0.4      2.164      3.020
REMARK  0 active torsions:
REMARK  status: ('A' for Active; 'I' for Inactive)
ROOT
HETATM    1  C1  UNL     1     -32.039   7.053   1.468  1.00 20.00     0.078 C 
HETATM    2  C2  UNL     1     -33.578   7.587   3.231  1.00 20.00     0.152 C 
HETATM    3  C3  UNL     1     -32.454   7.950   2.361  1.00 20.00     0.134 C 
HETATM    4  C4  UNL     1     -33.282   5.308   2.777  1.00 20.00     0.213 C 
HETATM    5  C5  UNL     1     -32.658   5.691   1.430  1.00 20.00     0.217 C 
HETATM    6  N6  UNL     1     -34.030   6.398   3.425  1.00 20.00    -0.294 NA
HETATM    7  F7  UNL     1     -31.986   9.206   2.436  1.00 20.00    -0.205 F 
HETATM    8  F8  UNL     1     -31.711   4.757   1.132  1.00 20.00    -0.219 F 
HETATM    9 CL9  UNL     1     -33.892   5.657   0.136  1.00 20.00    -0.076 Cl
ENDROOT
TORSDOF 0
ENDMDL
MODEL 6
REMARK VINA RESULT:      -0.4      2.361      3.042
REMARK  0 active torsions:
REMARK  status: ('A' for Active; 'I' for Inactive)
ROOT
HETATM    1  C1  UNL     1     -34.553   5.364   4.369  1.00 20.00     0.078 C 
HETATM    2  C2  UNL     1     -33.269   4.810   2.419  1.00 20.00     0.152 C 
HETATM    3  C3  UNL     1     -33.868   4.435   3.705  1.00 20.00     0.134 C 
HETATM    4  C4  UNL     1     -33.441   7.091   2.926  1.00 20.00     0.213 C 
HETATM    5  C5  UNL     1     -34.624   6.764   3.844  1.00 20.00     0.217 C 
HETATM    6  N6  UNL     1     -33.089   6.010   1.990  1.00 20.00    -0.294 NA
HETATM    7  F7  UNL     1     -33.789   3.149   4.080  1.00 20.00    -0.205 F 
HETATM    8  F8  UNL     1     -34.603   7.652   4.878  1.00 20.00    -0.219 F 
HETATM    9 CL9  UNL     1     -36.171   6.972   2.971  1.00 20.00    -0.076 Cl
ENDROOT
TORSDOF 0
ENDMDL
MODEL 7
REMARK VINA RESULT:      -0.3      2.082      2.338
REMARK  0 active torsions:
REMARK  status: ('A' for Active; 'I' for Inactive)
ROOT
HETATM    1  C1  UNL     1     -33.158   7.203   2.546  1.00 20.00     0.078 C 
HETATM    2  C2  UNL     1     -34.624   5.980   4.001  1.00 20.00     0.152 C 
HETATM    3  C3  UNL     1     -33.986   7.236   3.589  1.00 20.00     0.134 C 
HETATM    4  C4  UNL     1     -33.040   4.712   2.830  1.00 20.00     0.213 C 
HETATM    5  C5  UNL     1     -32.836   5.901   1.884  1.00 20.00     0.217 C 
HETATM    6  N6  UNL     1     -34.261   4.796   3.648  1.00 20.00    -0.294 NA
HETATM    7  F7  UNL     1     -34.362   8.362   4.214  1.00 20.00    -0.205 F 
HETATM    8  F8  UNL     1     -31.533   5.891   1.482  1.00 20.00    -0.219 F 
HETATM    9 CL9  UNL     1     -33.862   5.727   0.429  1.00 20.00    -0.076 Cl
ENDROOT
TORSDOF 0
ENDMDL
MODEL 8
REMARK VINA RESULT:      -0.2      1.975      3.299
REMARK  0 active torsions:
REMARK  status: ('A' for Active; 'I' for Inactive)
ROOT
HETATM    1  C1  UNL     1     -33.593   7.382   3.807  1.00 20.00     0.078 C 
HETATM    2  C2  UNL     1     -32.086   6.964   1.987  1.00 20.00     0.152 C 
HETATM    3  C3  UNL     1     -32.498   7.759   3.149  1.00 20.00     0.134 C 
HETATM    4  C4  UNL     1     -34.213   5.999   1.806  1.00 20.00     0.213 C 
HETATM    5  C5  UNL     1     -34.410   6.232   3.308  1.00 20.00     0.217 C 
HETATM    6  N6  UNL     1     -32.815   6.109   1.358  1.00 20.00    -0.294 NA
HETATM    7  F7  UNL     1     -31.685   8.749   3.549  1.00 20.00    -0.205 F 
HETATM    8  F8  UNL     1     -35.735   6.475   3.519  1.00 20.00    -0.219 F 
HETATM    9 CL9  UNL     1     -33.966   4.767   4.233  1.00 20.00    -0.076 Cl
ENDROOT
TORSDOF 0
ENDMDL
MODEL 9
REMARK VINA RESULT:      -0.2      2.214      2.600
REMARK  0 active torsions:
REMARK  status: ('A' for Active; 'I' for Inactive)
ROOT
HETATM    1  C1  UNL     1     -32.162   7.014   1.233  1.00 20.00     0.078 C 
HETATM    2  C2  UNL     1     -33.471   5.777   2.819  1.00 20.00     0.152 C 
HETATM    3  C3  UNL     1     -32.711   5.847   1.566  1.00 20.00     0.134 C 
HETATM    4  C4  UNL     1     -33.692   8.108   2.895  1.00 20.00     0.213 C 
HETATM    5  C5  UNL     1     -32.398   8.224   2.081  1.00 20.00     0.217 C 
HETATM    6  N6  UNL     1     -33.908   6.782   3.496  1.00 20.00    -0.294 NA
HETATM    7  F7  UNL     1     -32.516   4.705   0.889  1.00 20.00    -0.205 F 
HETATM    8  F8  UNL     1     -32.503   9.332   1.292  1.00 20.00    -0.219 F 
HETATM    9 CL9  UNL     1     -30.994   8.450   3.164  1.00 20.00    -0.076 Cl
ENDROOT
TORSDOF 0
ENDMDL
