MODEL 1
REMARK VINA RESULT:      -1.5      0.000      0.000
REMARK  0 active torsions:
REMARK  status: ('A' for Active; 'I' for Inactive)
ROOT
HETATM    1  C1  UNL     1     -34.548   6.278   3.399  1.00 20.00     0.008 C 
HETATM    2  C2  UNL     1     -33.987   7.381   4.298  1.00 20.00     0.030 C 
HETATM    3  C3  UNL     1     -33.453   5.374   2.840  1.00 20.00     0.081 C 
HETATM    4  C4  UNL     1     -33.201   8.474   3.576  1.00 20.00     0.270 C 
HETATM    5  C5  UNL     1     -32.474   7.404   1.526  1.00 20.00     0.348 C 
HETATM    6  C6  UNL     1     -32.765   5.912   1.594  1.00 20.00     0.269 C 
HETATM    7  N7  UNL     1     -32.063   8.003   2.791  1.00 20.00     0.089 N 
HETATM    8  F8  UNL     1     -33.539   5.598   0.514  1.00 20.00    -0.204 F 
HETATM    9  F9  UNL     1     -31.603   5.224   1.423  1.00 20.00    -0.204 F 
HETATM   10  H20 UNL     1     -31.397   8.763   2.632  1.00 20.00     0.316 HD
ENDROOT
TORSDOF 0
ENDMDL
MODEL 2
REMARK VINA RESULT:      -1.5      1.942      2.794
REMARK  0 active torsions:
REMARK  status: ('A' for Active; 'I' for Inactive)
ROOT
HETATM    1  C1  UNL     1     -33.764   7.509   4.044  1.00 20.00     0.008 C 
HETATM    2  C2  UNL     1     -34.547   6.257   3.643  1.00 20.00     0.030 C 
HETATM    3  C3  UNL     1     -33.443   8.398   2.847  1.00 20.00     0.081 C 
HETATM    4  C4  UNL     1     -33.755   5.217   2.853  1.00 20.00     0.270 C 
HETATM    5  C5  UNL     1     -31.953   6.498   1.859  1.00 20.00     0.348 C 
HETATM    6  C6  UNL     1     -32.203   7.984   2.068  1.00 20.00     0.269 C 
HETATM    7  N7  UNL     1     -33.154   5.706   1.615  1.00 20.00     0.089 N 
HETATM    8  F8  UNL     1     -31.111   8.495   2.707  1.00 20.00    -0.204 F 
HETATM    9  F9  UNL     1     -32.240   8.604   0.856  1.00 20.00    -0.204 F 
HETATM   10  H20 UNL     1     -32.952   4.928   0.982  1.00 20.00     0.316 HD
ENDROOT
TORSDOF 0
ENDMDL
MODEL 3
REMARK VINA RESULT:      -1.2      1.814      2.528
REMARK  0 active torsions:
REMARK  status: ('A' for Active; 'I' for Inactive)
ROOT
HETATM    1  C1  UNL     1     -33.197   5.645   1.574  1.00 20.00     0.008 C 
HETATM    2  C2  UNL     1     -33.862   5.240   2.890  1.00 20.00     0.030 C 
HETATM    3  C3  UNL     1     -31.915   6.442   1.795  1.00 20.00     0.081 C 
HETATM    4  C4  UNL     1     -34.495   6.383   3.682  1.00 20.00     0.270 C 
HETATM    5  C5  UNL     1     -33.312   8.349   2.899  1.00 20.00     0.348 C 
HETATM    6  C6  UNL     1     -32.129   7.929   2.039  1.00 20.00     0.269 C 
HETATM    7  N7  UNL     1     -33.585   7.472   4.031  1.00 20.00     0.089 N 
HETATM    8  F8  UNL     1     -32.269   8.541   0.826  1.00 20.00    -0.204 F 
HETATM    9  F9  UNL     1     -30.986   8.439   2.576  1.00 20.00    -0.204 F 
HETATM   10  H20 UNL     1     -33.952   8.006   4.823  1.00 20.00     0.316 HD
ENDROOT
TORSDOF 0
ENDMDL
MODEL 4
REMARK VINA RESULT:      -1.2      1.153      2.282
REMARK  0 active torsions:
REMARK  status: ('A' for Active; 'I' for Inactive)
ROOT
HETATM    1  C1  UNL     1     -32.163   8.091   2.924  1.00 20.00     0.008 C 
HETATM    2  C2  UNL     1     -33.386   8.415   3.784  1.00 20.00     0.030 C 
HETATM    3  C3  UNL     1     -32.547   7.470   1.584  1.00 20.00     0.081 C 
HETATM    4  C4  UNL     1     -34.124   7.204   4.352  1.00 20.00     0.270 C 
HETATM    5  C5  UNL     1     -33.524   5.404   2.843  1.00 20.00     0.348 C 
HETATM    6  C6  UNL     1     -32.796   5.970   1.632  1.00 20.00     0.269 C 
HETATM    7  N7  UNL     1     -34.598   6.246   3.356  1.00 20.00     0.089 N 
HETATM    8  F8  UNL     1     -31.590   5.338   1.549  1.00 20.00    -0.204 F 
HETATM    9  F9  UNL     1     -33.472   5.617   0.503  1.00 20.00    -0.204 F 
HETATM   10  H20 UNL     1     -35.354   5.673   3.741  1.00 20.00     0.316 HD
ENDROOT
TORSDOF 0
ENDMDL
MODEL 5
REMARK VINA RESULT:      -1.1      2.550      3.628
REMARK  0 active torsions:
REMARK  status: ('A' for Active; 'I' for Inactive)
ROOT
HETATM    1  C1  UNL     1     -32.389   7.940   1.733  1.00 20.00     0.008 C 
HETATM    2  C2  UNL     1     -31.985   6.496   1.430  1.00 20.00     0.030 C 
HETATM    3  C3  UNL     1     -32.457   8.219   3.231  1.00 20.00     0.081 C 
HETATM    4  C4  UNL     1     -33.036   5.439   1.763  1.00 20.00     0.270 C 
HETATM    5  C5  UNL     1     -34.417   6.511   3.443  1.00 20.00     0.348 C 
HETATM    6  C6  UNL     1     -33.765   7.811   3.892  1.00 20.00     0.269 C 
HETATM    7  N7  UNL     1     -33.484   5.429   3.154  1.00 20.00     0.089 N 
HETATM    8  F8  UNL     1     -34.671   8.812   3.691  1.00 20.00    -0.204 F 
HETATM    9  F9  UNL     1     -33.563   7.765   5.238  1.00 20.00    -0.204 F 
HETATM   10  H20 UNL     1     -33.895   4.522   3.391  1.00 20.00     0.316 HD
ENDROOT
TORSDOF 0
ENDMDL
MODEL 6
REMARK VINA RESULT:      -1.1      2.372      3.250
REMARK  0 active torsions:
REMARK  status: ('A' for Active; 'I' for Inactive)
ROOT
HETATM    1  C1  UNL     1     -33.509   5.394   3.158  1.00 20.00     0.008 C 
HETATM    2  C2  UNL     1     -32.978   5.455   1.724  1.00 20.00     0.030 C 
HETATM    3  C3  UNL     1     -34.450   6.552   3.476  1.00 20.00     0.081 C 
HETATM    4  C4  UNL     1     -31.982   6.579   1.444  1.00 20.00     0.270 C 
HETATM    5  C5  UNL     1     -32.472   8.223   3.158  1.00 20.00     0.348 C 
HETATM    6  C6  UNL     1     -33.751   7.839   3.888  1.00 20.00     0.269 C 
HETATM    7  N7  UNL     1     -32.472   7.926   1.730  1.00 20.00     0.089 N 
HETATM    8  F8  UNL     1     -33.451   7.752   5.217  1.00 20.00    -0.204 F 
HETATM    9  F9  UNL     1     -34.646   8.859   3.781  1.00 20.00    -0.204 F 
HETATM   10  H20 UNL     1     -31.928   8.622   1.215  1.00 20.00     0.316 HD
ENDROOT
TORSDOF 0
ENDMDL
MODEL 7
REMARK VINA RESULT:      -1.0      1.934      2.901
REMARK  0 active torsions:
REMARK  status: ('A' for Active; 'I' for Inactive)
ROOT
HETATM    1  C1  UNL     1     -32.437   5.820   1.734  1.00 20.00     0.008 C 
HETATM    2  C2  UNL     1     -31.980   7.233   1.369  1.00 20.00     0.030 C 
HETATM    3  C3  UNL     1     -33.936   5.750   2.011  1.00 20.00     0.081 C 
HETATM    4  C4  UNL     1     -31.999   8.242   2.517  1.00 20.00     0.270 C 
HETATM    5  C5  UNL     1     -33.609   7.314   4.073  1.00 20.00     0.348 C 
HETATM    6  C6  UNL     1     -34.336   6.145   3.425  1.00 20.00     0.269 C 
HETATM    7  N7  UNL     1     -33.295   8.414   3.169  1.00 20.00     0.089 N 
HETATM    8  F8  UNL     1     -34.163   5.058   4.233  1.00 20.00    -0.204 F 
HETATM    9  F9  UNL     1     -35.674   6.395   3.432  1.00 20.00    -0.204 F 
HETATM   10  H20 UNL     1     -33.333   9.310   3.661  1.00 20.00     0.316 HD
ENDROOT
TORSDOF 0
ENDMDL
MODEL 8
REMARK VINA RESULT:      -0.9      2.073      2.865
REMARK  0 active torsions:
REMARK  status: ('A' for Active; 'I' for Inactive)
ROOT
HETATM    1  C1  UNL     1     -33.296   8.408   3.307  1.00 20.00     0.008 C 
HETATM    2  C2  UNL     1     -32.003   8.176   2.524  1.00 20.00     0.030 C 
HETATM    3  C3  UNL     1     -33.654   7.221   4.197  1.00 20.00     0.081 C 
HETATM    4  C4  UNL     1     -32.093   7.136   1.409  1.00 20.00     0.270 C 
HETATM    5  C5  UNL     1     -33.965   5.745   2.068  1.00 20.00     0.348 C 
HETATM    6  C6  UNL     1     -34.396   6.100   3.484  1.00 20.00     0.269 C 
HETATM    7  N7  UNL     1     -32.527   5.808   1.834  1.00 20.00     0.089 N 
HETATM    8  F8  UNL     1     -35.719   6.431   3.437  1.00 20.00    -0.204 F 
HETATM    9  F9  UNL     1     -34.326   4.985   4.263  1.00 20.00    -0.204 F 
HETATM   10  H20 UNL     1     -32.240   5.100   1.153  1.00 20.00     0.316 HD
ENDROOT
TORSDOF 0
ENDMDL
MODEL 9
REMARK VINA RESULT:      -0.3      2.492      3.322
REMARK  0 active torsions:
REMARK  status: ('A' for Active; 'I' for Inactive)
ROOT
HETATM    1  C1  UNL     1     -34.323   5.217   4.129  1.00 20.00     0.008 C 
HETATM    2  C2  UNL     1     -33.847   4.639   2.795  1.00 20.00     0.030 C 
HETATM    3  C3  UNL     1     -35.035   6.556   3.957  1.00 20.00     0.081 C 
HETATM    4  C4  UNL     1     -32.682   5.380   2.141  1.00 20.00     0.270 C 
HETATM    5  C5  UNL     1     -32.810   7.607   3.090  1.00 20.00     0.348 C 
HETATM    6  C6  UNL     1     -34.106   7.759   3.873  1.00 20.00     0.269 C 
HETATM    7  N7  UNL     1     -32.918   6.798   1.882  1.00 20.00     0.089 N 
HETATM    8  F8  UNL     1     -33.775   8.128   5.144  1.00 20.00    -0.204 F 
HETATM    9  F9  UNL     1     -34.814   8.804   3.362  1.00 20.00    -0.204 F 
HETATM   10  H20 UNL     1     -32.282   7.142   1.158  1.00 20.00     0.316 HD
ENDROOT
TORSDOF 0
ENDMDL
