MODEL 1
REMARK VINA RESULT:       0.1      0.000      0.000
REMARK  1 active torsions:
REMARK  status: ('A' for Active; 'I' for Inactive)
REMARK    1  A    between atoms: C6_6  and  C11_11 
ROOT
HETATM    1  C1  UNL     1     -31.851   9.749  -0.202  1.00 20.00    -0.004 C 
HETATM    2  C2  UNL     1     -31.395   8.396  -0.016  1.00 20.00    -0.003 C 
HETATM    3  C3  UNL     1     -32.727  10.305   0.644  1.00 20.00    -0.025 C 
HETATM    4  C4  UNL     1     -31.643   7.724   1.118  1.00 20.00    -0.013 C 
HETATM    5  C7  UNL     1     -33.276   9.556   1.829  1.00 20.00     0.044 C 
HETATM    6  C11 UNL     1     -32.425   8.325   2.276  1.00 20.00    -0.000 C 
HETATM    7  C12 UNL     1     -31.411   8.755   3.353  1.00 20.00     0.025 C 
ENDROOT
BRANCH   6   8
HETATM    8  C6  UNL     1     -33.345   7.294   2.881  1.00 20.00    -0.071 C 
HETATM    9  C5  UNL     1     -34.259   7.492   3.837  1.00 20.00    -0.023 C 
HETATM   10  C8  UNL     1     -35.010   6.243   4.155  1.00 20.00     0.027 C 
HETATM   11  C10 UNL     1     -34.177   5.161   3.470  1.00 20.00     0.008 C 
HETATM   12  C9  UNL     1     -33.337   5.874   2.410  1.00 20.00     0.035 C 
ENDBRANCH   6   8
TORSDOF 1
ENDMDL
MODEL 2
REMARK VINA RESULT:       0.4      0.845      4.403
REMARK  1 active torsions:
REMARK  status: ('A' for Active; 'I' for Inactive)
REMARK    1  A    between atoms: C6_6  and  C11_11 
ROOT
HETATM    1  C1  UNL     1     -34.007   5.689   3.385  1.00 20.00    -0.004 C 
HETATM    2  C2  UNL     1     -34.304   7.048   3.757  1.00 20.00    -0.003 C 
HETATM    3  C3  UNL     1     -33.179   5.416   2.369  1.00 20.00    -0.025 C 
HETATM    4  C4  UNL     1     -33.600   8.077   3.264  1.00 20.00    -0.013 C 
HETATM    5  C7  UNL     1     -32.514   6.504   1.569  1.00 20.00     0.044 C 
HETATM    6  C11 UNL     1     -32.457   7.895   2.278  1.00 20.00    -0.000 C 
HETATM    7  C12 UNL     1     -31.137   8.029   3.060  1.00 20.00     0.025 C 
ENDROOT
BRANCH   6   8
HETATM    8  C6  UNL     1     -32.492   8.976   1.226  1.00 20.00    -0.071 C 
HETATM    9  C5  UNL     1     -32.930  10.231   1.375  1.00 20.00    -0.023 C 
HETATM   10  C8  UNL     1     -32.773  11.027   0.123  1.00 20.00     0.027 C 
HETATM   11  C10 UNL     1     -32.471   9.957  -0.925  1.00 20.00     0.008 C 
HETATM   12  C9  UNL     1     -31.974   8.732  -0.156  1.00 20.00     0.035 C 
ENDBRANCH   6   8
TORSDOF 1
ENDMDL
MODEL 3
REMARK VINA RESULT:       1.2      0.808      4.508
REMARK  1 active torsions:
REMARK  status: ('A' for Active; 'I' for Inactive)
REMARK    1  A    between atoms: C6_6  and  C11_11 
ROOT
HETATM    1  C1  UNL     1     -35.156   5.203   4.096  1.00 20.00    -0.004 C 
HETATM    2  C2  UNL     1     -35.660   6.521   3.805  1.00 20.00    -0.003 C 
HETATM    3  C3  UNL     1     -33.884   4.878   3.836  1.00 20.00    -0.025 C 
HETATM    4  C4  UNL     1     -34.836   7.529   3.482  1.00 20.00    -0.013 C 
HETATM    5  C7  UNL     1     -32.916   5.861   3.235  1.00 20.00     0.044 C 
HETATM    6  C11 UNL     1     -33.327   7.360   3.388  1.00 20.00    -0.000 C 
HETATM    7  C12 UNL     1     -32.710   7.943   4.673  1.00 20.00     0.025 C 
ENDROOT
BRANCH   6   8
HETATM    8  C6  UNL     1     -32.784   8.134   2.212  1.00 20.00    -0.071 C 
HETATM    9  C5  UNL     1     -33.193   9.331   1.777  1.00 20.00    -0.023 C 
HETATM   10  C8  UNL     1     -32.392   9.801   0.610  1.00 20.00     0.027 C 
HETATM   11  C10 UNL     1     -31.636   8.542   0.186  1.00 20.00     0.008 C 
HETATM   12  C9  UNL     1     -31.643   7.611   1.399  1.00 20.00     0.035 C 
ENDBRANCH   6   8
TORSDOF 1
ENDMDL
MODEL 4
REMARK VINA RESULT:       1.5      1.198      2.088
REMARK  1 active torsions:
REMARK  status: ('A' for Active; 'I' for Inactive)
REMARK    1  A    between atoms: C6_6  and  C11_11 
ROOT
HETATM    1  C1  UNL     1     -31.956   9.112   0.323  1.00 20.00    -0.004 C 
HETATM    2  C2  UNL     1     -33.055   8.273  -0.081  1.00 20.00    -0.003 C 
HETATM    3  C3  UNL     1     -31.359   8.943   1.509  1.00 20.00    -0.025 C 
HETATM    4  C4  UNL     1     -33.371   7.160   0.599  1.00 20.00    -0.013 C 
HETATM    5  C7  UNL     1     -31.793   7.875   2.477  1.00 20.00     0.044 C 
HETATM    6  C11 UNL     1     -32.613   6.709   1.837  1.00 20.00    -0.000 C 
HETATM    7  C12 UNL     1     -31.664   5.571   1.418  1.00 20.00     0.025 C 
ENDROOT
BRANCH   6   8
HETATM    8  C6  UNL     1     -33.569   6.166   2.871  1.00 20.00    -0.071 C 
HETATM    9  C5  UNL     1     -33.713   4.890   3.244  1.00 20.00    -0.023 C 
HETATM   10  C8  UNL     1     -34.731   4.738   4.323  1.00 20.00     0.027 C 
HETATM   11  C10 UNL     1     -35.434   6.095   4.322  1.00 20.00     0.008 C 
HETATM   12  C9  UNL     1     -34.475   7.073   3.642  1.00 20.00     0.035 C 
ENDBRANCH   6   8
TORSDOF 1
ENDMDL
MODEL 5
REMARK VINA RESULT:       2.7      1.519      3.053
REMARK  1 active torsions:
REMARK  status: ('A' for Active; 'I' for Inactive)
REMARK    1  A    between atoms: C6_6  and  C11_11 
ROOT
HETATM    1  C1  UNL     1     -32.027   8.448   1.852  1.00 20.00    -0.004 C 
HETATM    2  C2  UNL     1     -32.204   8.364   3.279  1.00 20.00    -0.003 C 
HETATM    3  C3  UNL     1     -32.408   7.447   1.049  1.00 20.00    -0.025 C 
HETATM    4  C4  UNL     1     -32.952   7.399   3.834  1.00 20.00    -0.013 C 
HETATM    5  C7  UNL     1     -33.041   6.191   1.585  1.00 20.00     0.044 C 
HETATM    6  C11 UNL     1     -33.654   6.328   3.015  1.00 20.00    -0.000 C 
HETATM    7  C12 UNL     1     -35.141   6.715   2.911  1.00 20.00     0.025 C 
ENDROOT
BRANCH   6   8
HETATM    8  C6  UNL     1     -33.565   4.991   3.710  1.00 20.00    -0.071 C 
HETATM    9  C5  UNL     1     -34.470   4.447   4.530  1.00 20.00    -0.023 C 
HETATM   10  C8  UNL     1     -34.054   3.093   4.997  1.00 20.00     0.027 C 
HETATM   11  C10 UNL     1     -32.582   3.031   4.593  1.00 20.00     0.008 C 
HETATM   12  C9  UNL     1     -32.392   4.085   3.502  1.00 20.00     0.035 C 
ENDBRANCH   6   8
TORSDOF 1
ENDMDL
MODEL 6
REMARK VINA RESULT:       2.9      1.338      4.696
REMARK  1 active torsions:
REMARK  status: ('A' for Active; 'I' for Inactive)
REMARK    1  A    between atoms: C6_6  and  C11_11 
ROOT
HETATM    1  C1  UNL     1     -34.823   4.298   4.612  1.00 20.00    -0.004 C 
HETATM    2  C2  UNL     1     -33.500   4.036   4.108  1.00 20.00    -0.003 C 
HETATM    3  C3  UNL     1     -35.451   5.449   4.340  1.00 20.00    -0.025 C 
HETATM    4  C4  UNL     1     -32.941   4.818   3.172  1.00 20.00    -0.013 C 
HETATM    5  C7  UNL     1     -34.818   6.522   3.495  1.00 20.00     0.044 C 
HETATM    6  C11 UNL     1     -33.646   6.031   2.585  1.00 20.00    -0.000 C 
HETATM    7  C12 UNL     1     -34.191   5.633   1.201  1.00 20.00     0.025 C 
ENDROOT
BRANCH   6   8
HETATM    8  C6  UNL     1     -32.671   7.167   2.397  1.00 20.00    -0.071 C 
HETATM    9  C5  UNL     1     -32.362   8.119   3.284  1.00 20.00    -0.023 C 
HETATM   10  C8  UNL     1     -31.324   9.052   2.759  1.00 20.00     0.027 C 
HETATM   11  C10 UNL     1     -31.285   8.715   1.269  1.00 20.00     0.008 C 
HETATM   12  C9  UNL     1     -31.888   7.316   1.131  1.00 20.00     0.035 C 
ENDBRANCH   6   8
TORSDOF 1
ENDMDL
MODEL 7
REMARK VINA RESULT:       3.0      1.264      2.765
REMARK  1 active torsions:
REMARK  status: ('A' for Active; 'I' for Inactive)
REMARK    1  A    between atoms: C6_6  and  C11_11 
ROOT
HETATM    1  C1  UNL     1     -31.342   8.523   1.118  1.00 20.00    -0.004 C 
HETATM    2  C2  UNL     1     -32.633   8.881   1.646  1.00 20.00    -0.003 C 
HETATM    3  C3  UNL     1     -30.911   7.255   1.147  1.00 20.00    -0.025 C 
HETATM    4  C4  UNL     1     -33.538   7.946   1.972  1.00 20.00    -0.013 C 
HETATM    5  C7  UNL     1     -31.746   6.142   1.722  1.00 20.00     0.044 C 
HETATM    6  C11 UNL     1     -33.273   6.456   1.823  1.00 20.00    -0.000 C 
HETATM    7  C12 UNL     1     -33.990   5.977   0.547  1.00 20.00     0.025 C 
ENDROOT
BRANCH   6   8
HETATM    8  C6  UNL     1     -33.846   5.700   2.997  1.00 20.00    -0.071 C 
HETATM    9  C5  UNL     1     -33.483   4.487   3.428  1.00 20.00    -0.023 C 
HETATM   10  C8  UNL     1     -34.247   4.078   4.643  1.00 20.00     0.027 C 
HETATM   11  C10 UNL     1     -35.379   5.103   4.694  1.00 20.00     0.008 C 
HETATM   12  C9  UNL     1     -34.917   6.295   3.855  1.00 20.00     0.035 C 
ENDBRANCH   6   8
TORSDOF 1
ENDMDL
