MODEL 1
REMARK VINA RESULT:      -3.4      0.000      0.000
REMARK  1 active torsions:
REMARK  status: ('A' for Active; 'I' for Inactive)
REMARK    1  A    between atoms: C2_2  and  C4_4 
ROOT
HETATM    1  C1  UNL     1     -34.180   6.801   3.419  1.00 20.00    -0.102 C 
HETATM    2  C2  UNL     1     -33.252   7.305   2.849  1.00 20.00     0.008 C 
HETATM    3  C3  UNL     1     -35.310   6.186   4.113  1.00 20.00     0.112 C 
ENDROOT
BRANCH   2   4
HETATM    4  C4  UNL     1     -32.129   7.915   2.159  1.00 20.00     0.459 C 
HETATM    5  F5  UNL     1     -32.553   8.852   1.283  1.00 20.00    -0.159 F 
HETATM    6  F6  UNL     1     -31.426   6.987   1.471  1.00 20.00    -0.159 F 
HETATM    7  F7  UNL     1     -31.290   8.510   3.035  1.00 20.00    -0.159 F 
ENDBRANCH   2   4
TORSDOF 1
ENDMDL
MODEL 2
REMARK VINA RESULT:      -3.2      3.210      3.595
REMARK  1 active torsions:
REMARK  status: ('A' for Active; 'I' for Inactive)
REMARK    1  A    between atoms: C2_2  and  C4_4 
ROOT
HETATM    1  C1  UNL     1     -33.836   4.027   4.320  1.00 20.00    -0.102 C 
HETATM    2  C2  UNL     1     -34.243   5.127   4.066  1.00 20.00     0.008 C 
HETATM    3  C3  UNL     1     -33.340   2.687   4.629  1.00 20.00     0.112 C 
ENDROOT
BRANCH   2   4
HETATM    4  C4  UNL     1     -34.735   6.458   3.760  1.00 20.00     0.459 C 
HETATM    5  F5  UNL     1     -36.055   6.430   3.470  1.00 20.00    -0.159 F 
HETATM    6  F6  UNL     1     -34.084   6.978   2.695  1.00 20.00    -0.159 F 
HETATM    7  F7  UNL     1     -34.554   7.293   4.808  1.00 20.00    -0.159 F 
ENDBRANCH   2   4
TORSDOF 1
ENDMDL
MODEL 3
REMARK VINA RESULT:      -3.2      3.292      4.022
REMARK  1 active torsions:
REMARK  status: ('A' for Active; 'I' for Inactive)
REMARK    1  A    between atoms: C2_2  and  C4_4 
ROOT
HETATM    1  C1  UNL     1     -33.122   5.949   2.163  1.00 20.00    -0.102 C 
HETATM    2  C2  UNL     1     -34.010   6.120   2.951  1.00 20.00     0.008 C 
HETATM    3  C3  UNL     1     -32.040   5.740   1.202  1.00 20.00     0.112 C 
ENDROOT
BRANCH   2   4
HETATM    4  C4  UNL     1     -35.085   6.327   3.905  1.00 20.00     0.459 C 
HETATM    5  F5  UNL     1     -36.228   6.678   3.275  1.00 20.00    -0.159 F 
HETATM    6  F6  UNL     1     -34.770   7.310   4.778  1.00 20.00    -0.159 F 
HETATM    7  F7  UNL     1     -35.326   5.201   4.613  1.00 20.00    -0.159 F 
ENDBRANCH   2   4
TORSDOF 1
ENDMDL
MODEL 4
REMARK VINA RESULT:      -3.2      3.298      4.046
REMARK  1 active torsions:
REMARK  status: ('A' for Active; 'I' for Inactive)
REMARK    1  A    between atoms: C2_2  and  C4_4 
ROOT
HETATM    1  C1  UNL     1     -33.122   5.947   2.171  1.00 20.00    -0.102 C 
HETATM    2  C2  UNL     1     -34.013   6.113   2.957  1.00 20.00     0.008 C 
HETATM    3  C3  UNL     1     -32.036   5.744   1.213  1.00 20.00     0.112 C 
ENDROOT
BRANCH   2   4
HETATM    4  C4  UNL     1     -35.091   6.314   3.909  1.00 20.00     0.459 C 
HETATM    5  F5  UNL     1     -35.344   5.179   4.598  1.00 20.00    -0.159 F 
HETATM    6  F6  UNL     1     -36.228   6.680   3.276  1.00 20.00    -0.159 F 
HETATM    7  F7  UNL     1     -34.776   7.282   4.797  1.00 20.00    -0.159 F 
ENDBRANCH   2   4
TORSDOF 1
ENDMDL
MODEL 5
REMARK VINA RESULT:      -3.2      3.291      4.047
REMARK  1 active torsions:
REMARK  status: ('A' for Active; 'I' for Inactive)
REMARK    1  A    between atoms: C2_2  and  C4_4 
ROOT
HETATM    1  C1  UNL     1     -33.120   5.953   2.162  1.00 20.00    -0.102 C 
HETATM    2  C2  UNL     1     -34.009   6.122   2.951  1.00 20.00     0.008 C 
HETATM    3  C3  UNL     1     -32.038   5.746   1.202  1.00 20.00     0.112 C 
ENDROOT
BRANCH   2   4
HETATM    4  C4  UNL     1     -35.084   6.327   3.905  1.00 20.00     0.459 C 
HETATM    5  F5  UNL     1     -34.772   7.308   4.780  1.00 20.00    -0.159 F 
HETATM    6  F6  UNL     1     -35.323   5.198   4.610  1.00 20.00    -0.159 F 
HETATM    7  F7  UNL     1     -36.228   6.676   3.276  1.00 20.00    -0.159 F 
ENDBRANCH   2   4
TORSDOF 1
ENDMDL
MODEL 6
REMARK VINA RESULT:      -3.1      3.017      3.947
REMARK  1 active torsions:
REMARK  status: ('A' for Active; 'I' for Inactive)
REMARK    1  A    between atoms: C2_2  and  C4_4 
ROOT
HETATM    1  C1  UNL     1     -32.908   7.384   2.393  1.00 20.00    -0.102 C 
HETATM    2  C2  UNL     1     -33.797   6.954   3.076  1.00 20.00     0.008 C 
HETATM    3  C3  UNL     1     -31.825   7.907   1.562  1.00 20.00     0.112 C 
ENDROOT
BRANCH   2   4
HETATM    4  C4  UNL     1     -34.872   6.436   3.903  1.00 20.00     0.459 C 
HETATM    5  F5  UNL     1     -34.691   5.121   4.159  1.00 20.00    -0.159 F 
HETATM    6  F6  UNL     1     -36.066   6.581   3.285  1.00 20.00    -0.159 F 
HETATM    7  F7  UNL     1     -34.930   7.089   5.084  1.00 20.00    -0.159 F 
ENDBRANCH   2   4
TORSDOF 1
ENDMDL
MODEL 7
REMARK VINA RESULT:      -3.1      3.019      3.947
REMARK  1 active torsions:
REMARK  status: ('A' for Active; 'I' for Inactive)
REMARK    1  A    between atoms: C2_2  and  C4_4 
ROOT
HETATM    1  C1  UNL     1     -32.901   7.387   2.409  1.00 20.00    -0.102 C 
HETATM    2  C2  UNL     1     -33.794   6.957   3.087  1.00 20.00     0.008 C 
HETATM    3  C3  UNL     1     -31.815   7.911   1.583  1.00 20.00     0.112 C 
ENDROOT
BRANCH   2   4
HETATM    4  C4  UNL     1     -34.872   6.437   3.907  1.00 20.00     0.459 C 
HETATM    5  F5  UNL     1     -36.063   6.573   3.281  1.00 20.00    -0.159 F 
HETATM    6  F6  UNL     1     -34.942   7.096   5.085  1.00 20.00    -0.159 F 
HETATM    7  F7  UNL     1     -34.687   5.125   4.173  1.00 20.00    -0.159 F 
ENDBRANCH   2   4
TORSDOF 1
ENDMDL
MODEL 8
REMARK VINA RESULT:      -3.1      3.016      3.946
REMARK  1 active torsions:
REMARK  status: ('A' for Active; 'I' for Inactive)
REMARK    1  A    between atoms: C2_2  and  C4_4 
ROOT
HETATM    1  C1  UNL     1     -32.902   7.388   2.402  1.00 20.00    -0.102 C 
HETATM    2  C2  UNL     1     -33.793   6.959   3.082  1.00 20.00     0.008 C 
HETATM    3  C3  UNL     1     -31.816   7.911   1.573  1.00 20.00     0.112 C 
ENDROOT
BRANCH   2   4
HETATM    4  C4  UNL     1     -34.870   6.440   3.905  1.00 20.00     0.459 C 
HETATM    5  F5  UNL     1     -34.935   7.096   5.085  1.00 20.00    -0.159 F 
HETATM    6  F6  UNL     1     -34.685   5.126   4.166  1.00 20.00    -0.159 F 
HETATM    7  F7  UNL     1     -36.062   6.578   3.283  1.00 20.00    -0.159 F 
ENDBRANCH   2   4
TORSDOF 1
ENDMDL
MODEL 9
REMARK VINA RESULT:      -2.6      4.288      5.132
REMARK  1 active torsions:
REMARK  status: ('A' for Active; 'I' for Inactive)
REMARK    1  A    between atoms: C2_2  and  C4_4 
ROOT
HETATM    1  C1  UNL     1     -34.550   4.993   4.187  1.00 20.00    -0.102 C 
HETATM    2  C2  UNL     1     -33.851   4.049   4.436  1.00 20.00     0.008 C 
HETATM    3  C3  UNL     1     -35.401   6.143   3.885  1.00 20.00     0.112 C 
ENDROOT
BRANCH   2   4
HETATM    4  C4  UNL     1     -33.006   2.908   4.736  1.00 20.00     0.459 C 
HETATM    5  F5  UNL     1     -32.651   2.900   6.040  1.00 20.00    -0.159 F 
HETATM    6  F6  UNL     1     -31.876   2.938   3.995  1.00 20.00    -0.159 F 
HETATM    7  F7  UNL     1     -33.648   1.749   4.471  1.00 20.00    -0.159 F 
ENDBRANCH   2   4
TORSDOF 1
ENDMDL
