MODEL 1
REMARK VINA RESULT:      -1.4      0.000      0.000
REMARK  3 active torsions:
REMARK  status: ('A' for Active; 'I' for Inactive)
REMARK    1  A    between atoms: C5_5  and  C8_8 
REMARK    2  A    between atoms: C6_6  and  C7_7 
REMARK    3  A    between atoms: C6_6  and  C8_8 
ROOT
HETATM    1  C4  UNL     1     -33.683   6.360   0.513  1.00 20.00     0.032 C 
HETATM    2  C8  UNL     1     -32.606   6.252   1.609  1.00 20.00     0.033 C 
HETATM    3 CL9  UNL     1     -31.509   4.909   1.087  1.00 20.00    -0.120 Cl
ENDROOT
BRANCH   2   4
HETATM    4  C5  UNL     1     -31.761   7.545   1.674  1.00 20.00     0.021 C 
HETATM    5  C1  UNL     1     -32.383   8.759   0.991  1.00 20.00     0.007 C 
ENDBRANCH   2   4
BRANCH   2   6
HETATM    6  C6  UNL     1     -33.297   5.877   2.948  1.00 20.00     0.029 C 
BRANCH   6   7
HETATM    7  C7  UNL     1     -34.396   6.806   3.518  1.00 20.00    -0.021 C 
HETATM    8  C2  UNL     1     -35.465   5.949   4.212  1.00 20.00     0.009 C 
HETATM    9  C3  UNL     1     -33.886   7.856   4.504  1.00 20.00     0.009 C 
ENDBRANCH   6   7
ENDBRANCH   2   6
TORSDOF 3
ENDMDL
MODEL 2
REMARK VINA RESULT:      -1.3      1.664      2.250
REMARK  3 active torsions:
REMARK  status: ('A' for Active; 'I' for Inactive)
REMARK    1  A    between atoms: C5_5  and  C8_8 
REMARK    2  A    between atoms: C6_6  and  C7_7 
REMARK    3  A    between atoms: C6_6  and  C8_8 
ROOT
HETATM    1  C4  UNL     1     -31.927   6.405   1.446  1.00 20.00     0.032 C 
HETATM    2  C8  UNL     1     -32.242   7.883   1.744  1.00 20.00     0.033 C 
HETATM    3 CL9  UNL     1     -30.929   8.449   2.856  1.00 20.00    -0.120 Cl
ENDROOT
BRANCH   2   4
HETATM    4  C5  UNL     1     -32.158   8.731   0.455  1.00 20.00     0.021 C 
HETATM    5  C1  UNL     1     -32.635  10.172   0.596  1.00 20.00     0.007 C 
ENDBRANCH   2   4
BRANCH   2   6
HETATM    6  C6  UNL     1     -33.614   7.961   2.468  1.00 20.00     0.029 C 
BRANCH   6   7
HETATM    7  C7  UNL     1     -33.834   7.139   3.762  1.00 20.00    -0.021 C 
HETATM    8  C2  UNL     1     -33.717   8.074   4.974  1.00 20.00     0.009 C 
HETATM    9  C3  UNL     1     -35.174   6.410   3.825  1.00 20.00     0.009 C 
ENDBRANCH   6   7
ENDBRANCH   2   6
TORSDOF 3
ENDMDL
MODEL 3
REMARK VINA RESULT:      -0.9      1.741      2.724
REMARK  3 active torsions:
REMARK  status: ('A' for Active; 'I' for Inactive)
REMARK    1  A    between atoms: C5_5  and  C8_8 
REMARK    2  A    between atoms: C6_6  and  C7_7 
REMARK    3  A    between atoms: C6_6  and  C8_8 
ROOT
HETATM    1  C4  UNL     1     -31.281   8.587   2.952  1.00 20.00     0.032 C 
HETATM    2  C8  UNL     1     -32.250   7.966   1.929  1.00 20.00     0.033 C 
HETATM    3 CL9  UNL     1     -32.252   9.093   0.511  1.00 20.00    -0.120 Cl
ENDROOT
BRANCH   2   4
HETATM    4  C5  UNL     1     -31.722   6.599   1.436  1.00 20.00     0.021 C 
HETATM    5  C1  UNL     1     -32.798   5.561   1.135  1.00 20.00     0.007 C 
ENDBRANCH   2   4
BRANCH   2   6
HETATM    6  C6  UNL     1     -33.668   7.911   2.558  1.00 20.00     0.029 C 
BRANCH   6   7
HETATM    7  C7  UNL     1     -33.886   7.101   3.861  1.00 20.00    -0.021 C 
HETATM    8  C2  UNL     1     -33.795   8.054   5.061  1.00 20.00     0.009 C 
HETATM    9  C3  UNL     1     -35.215   6.352   3.922  1.00 20.00     0.009 C 
ENDBRANCH   6   7
ENDBRANCH   2   6
TORSDOF 3
ENDMDL
MODEL 4
REMARK VINA RESULT:      -0.9      2.008      4.022
REMARK  3 active torsions:
REMARK  status: ('A' for Active; 'I' for Inactive)
REMARK    1  A    between atoms: C5_5  and  C8_8 
REMARK    2  A    between atoms: C6_6  and  C7_7 
REMARK    3  A    between atoms: C6_6  and  C8_8 
ROOT
HETATM    1  C4  UNL     1     -36.002   6.828   3.297  1.00 20.00     0.032 C 
HETATM    2  C8  UNL     1     -34.592   6.277   3.580  1.00 20.00     0.033 C 
HETATM    3 CL9  UNL     1     -33.742   7.570   4.521  1.00 20.00    -0.120 Cl
ENDROOT
BRANCH   2   4
HETATM    4  C5  UNL     1     -34.666   5.021   4.478  1.00 20.00     0.021 C 
HETATM    5  C1  UNL     1     -33.782   3.859   4.039  1.00 20.00     0.007 C 
ENDBRANCH   2   4
BRANCH   2   6
HETATM    6  C6  UNL     1     -33.867   6.049   2.227  1.00 20.00     0.029 C 
BRANCH   6   7
HETATM    7  C7  UNL     1     -32.368   6.418   2.100  1.00 20.00    -0.021 C 
HETATM    8  C2  UNL     1     -31.689   5.429   1.143  1.00 20.00     0.009 C 
HETATM    9  C3  UNL     1     -32.109   7.841   1.609  1.00 20.00     0.009 C 
ENDBRANCH   6   7
ENDBRANCH   2   6
TORSDOF 3
ENDMDL
MODEL 5
REMARK VINA RESULT:      -0.7      1.818      2.041
REMARK  3 active torsions:
REMARK  status: ('A' for Active; 'I' for Inactive)
REMARK    1  A    between atoms: C5_5  and  C8_8 
REMARK    2  A    between atoms: C6_6  and  C7_7 
REMARK    3  A    between atoms: C6_6  and  C8_8 
ROOT
HETATM    1  C4  UNL     1     -31.324   7.275   1.007  1.00 20.00     0.032 C 
HETATM    2  C8  UNL     1     -32.253   7.994   2.002  1.00 20.00     0.033 C 
HETATM    3 CL9  UNL     1     -31.162   8.718   3.253  1.00 20.00    -0.120 Cl
ENDROOT
BRANCH   2   4
HETATM    4  C5  UNL     1     -33.002   9.155   1.309  1.00 20.00     0.021 C 
HETATM    5  C1  UNL     1     -32.247   9.819   0.163  1.00 20.00     0.007 C 
ENDBRANCH   2   4
BRANCH   2   6
HETATM    6  C6  UNL     1     -33.184   6.941   2.663  1.00 20.00     0.029 C 
BRANCH   6   7
HETATM    7  C7  UNL     1     -34.270   7.413   3.661  1.00 20.00    -0.021 C 
HETATM    8  C2  UNL     1     -35.215   6.241   3.961  1.00 20.00     0.009 C 
HETATM    9  C3  UNL     1     -33.722   7.959   4.978  1.00 20.00     0.009 C 
ENDBRANCH   6   7
ENDBRANCH   2   6
TORSDOF 3
ENDMDL
MODEL 6
REMARK VINA RESULT:      -0.5      1.845      2.363
REMARK  3 active torsions:
REMARK  status: ('A' for Active; 'I' for Inactive)
REMARK    1  A    between atoms: C5_5  and  C8_8 
REMARK    2  A    between atoms: C6_6  and  C7_7 
REMARK    3  A    between atoms: C6_6  and  C8_8 
ROOT
HETATM    1  C4  UNL     1     -31.145   7.365   1.425  1.00 20.00     0.032 C 
HETATM    2  C8  UNL     1     -32.460   7.887   2.033  1.00 20.00     0.033 C 
HETATM    3 CL9  UNL     1     -32.035   8.464   3.696  1.00 20.00    -0.120 Cl
ENDROOT
BRANCH   2   4
HETATM    4  C5  UNL     1     -32.985   9.104   1.238  1.00 20.00     0.021 C 
HETATM    5  C1  UNL     1     -32.088   9.566   0.096  1.00 20.00     0.007 C 
ENDBRANCH   2   4
BRANCH   2   6
HETATM    6  C6  UNL     1     -33.466   6.708   2.128  1.00 20.00     0.029 C 
BRANCH   6   7
HETATM    7  C7  UNL     1     -33.877   6.174   3.523  1.00 20.00    -0.021 C 
HETATM    8  C2  UNL     1     -35.293   6.667   3.848  1.00 20.00     0.009 C 
HETATM    9  C3  UNL     1     -33.838   4.653   3.652  1.00 20.00     0.009 C 
ENDBRANCH   6   7
ENDBRANCH   2   6
TORSDOF 3
ENDMDL
MODEL 7
REMARK VINA RESULT:      -0.4      1.390      3.787
REMARK  3 active torsions:
REMARK  status: ('A' for Active; 'I' for Inactive)
REMARK    1  A    between atoms: C5_5  and  C8_8 
REMARK    2  A    between atoms: C6_6  and  C7_7 
REMARK    3  A    between atoms: C6_6  and  C8_8 
ROOT
HETATM    1  C4  UNL     1     -31.690   5.598   1.662  1.00 20.00     0.032 C 
HETATM    2  C8  UNL     1     -32.863   6.583   1.810  1.00 20.00     0.033 C 
HETATM    3 CL9  UNL     1     -33.891   6.344   0.338  1.00 20.00    -0.120 Cl
ENDROOT
BRANCH   2   4
HETATM    4  C5  UNL     1     -33.725   6.226   3.042  1.00 20.00     0.021 C 
HETATM    5  C1  UNL     1     -34.153   7.413   3.898  1.00 20.00     0.007 C 
ENDBRANCH   2   4
BRANCH   2   6
HETATM    6  C6  UNL     1     -32.298   8.030   1.827  1.00 20.00     0.029 C 
BRANCH   6   7
HETATM    7  C7  UNL     1     -32.354   8.878   0.532  1.00 20.00    -0.021 C 
HETATM    8  C2  UNL     1     -32.719  10.323   0.899  1.00 20.00     0.009 C 
HETATM    9  C3  UNL     1     -31.058   8.883  -0.275  1.00 20.00     0.009 C 
ENDBRANCH   6   7
ENDBRANCH   2   6
TORSDOF 3
ENDMDL
MODEL 8
REMARK VINA RESULT:      -0.3      1.370      2.099
REMARK  3 active torsions:
REMARK  status: ('A' for Active; 'I' for Inactive)
REMARK    1  A    between atoms: C5_5  and  C8_8 
REMARK    2  A    between atoms: C6_6  and  C7_7 
REMARK    3  A    between atoms: C6_6  and  C8_8 
ROOT
HETATM    1  C4  UNL     1     -32.102   7.539   1.593  1.00 20.00     0.032 C 
HETATM    2  C8  UNL     1     -32.592   6.082   1.690  1.00 20.00     0.033 C 
HETATM    3 CL9  UNL     1     -33.788   5.878   0.346  1.00 20.00    -0.120 Cl
ENDROOT
BRANCH   2   4
HETATM    4  C5  UNL     1     -31.430   5.096   1.434  1.00 20.00     0.021 C 
HETATM    5  C1  UNL     1     -31.555   4.267   0.160  1.00 20.00     0.007 C 
ENDBRANCH   2   4
BRANCH   2   6
HETATM    6  C6  UNL     1     -33.301   5.888   3.058  1.00 20.00     0.029 C 
BRANCH   6   7
HETATM    7  C7  UNL     1     -34.331   6.942   3.533  1.00 20.00    -0.021 C 
HETATM    8  C2  UNL     1     -35.582   6.220   4.052  1.00 20.00     0.009 C 
HETATM    9  C3  UNL     1     -33.815   7.884   4.619  1.00 20.00     0.009 C 
ENDBRANCH   6   7
ENDBRANCH   2   6
TORSDOF 3
ENDMDL
MODEL 9
REMARK VINA RESULT:      -0.3      1.470      2.224
REMARK  3 active torsions:
REMARK  status: ('A' for Active; 'I' for Inactive)
REMARK    1  A    between atoms: C5_5  and  C8_8 
REMARK    2  A    between atoms: C6_6  and  C7_7 
REMARK    3  A    between atoms: C6_6  and  C8_8 
ROOT
HETATM    1  C4  UNL     1     -31.541   5.038   1.363  1.00 20.00     0.032 C 
HETATM    2  C8  UNL     1     -32.703   6.026   1.573  1.00 20.00     0.033 C 
HETATM    3 CL9  UNL     1     -31.961   7.676   1.511  1.00 20.00    -0.120 Cl
ENDROOT
BRANCH   2   4
HETATM    4  C5  UNL     1     -33.719   5.929   0.412  1.00 20.00     0.021 C 
HETATM    5  C1  UNL     1     -33.835   4.551  -0.232  1.00 20.00     0.007 C 
ENDBRANCH   2   4
BRANCH   2   6
HETATM    6  C6  UNL     1     -33.318   5.778   2.977  1.00 20.00     0.029 C 
BRANCH   6   7
HETATM    7  C7  UNL     1     -34.406   6.744   3.507  1.00 20.00    -0.021 C 
HETATM    8  C2  UNL     1     -35.488   5.929   4.229  1.00 20.00     0.009 C 
HETATM    9  C3  UNL     1     -33.885   7.824   4.453  1.00 20.00     0.009 C 
ENDBRANCH   6   7
ENDBRANCH   2   6
TORSDOF 3
ENDMDL
