MODEL 1
REMARK VINA RESULT:       0.8      0.000      0.000
REMARK  1 active torsions:
REMARK  status: ('A' for Active; 'I' for Inactive)
REMARK    1  A    between atoms: C5_5  and  C7_7 
ROOT
HETATM    1  C1  UNL     1     -33.589   5.370   3.171  1.00 20.00     0.019 C 
HETATM    2  C2  UNL     1     -31.412   7.931   2.582  1.00 20.00     0.292 C 
HETATM    3  C3  UNL     1     -32.844   8.642   1.239  1.00 20.00     0.292 C 
HETATM    4  C4  UNL     1     -34.565   6.248   3.937  1.00 20.00     0.075 C 
HETATM    5  C5  UNL     1     -33.279   6.100   1.864  1.00 20.00     0.037 C 
HETATM    6  C6  UNL     1     -32.881   7.511   2.295  1.00 20.00     0.066 C 
HETATM    7  N8  UNL     1     -31.369   8.520   1.227  1.00 20.00     0.086 N 
HETATM    8  S10 UNL     1     -33.961   7.954   3.746  1.00 20.00    -0.155 SA
HETATM    9  H22 UNL     1     -30.867   9.403   1.156  1.00 20.00     0.316 HD
ENDROOT
BRANCH   5  10
HETATM   10  C7  UNL     1     -32.225   5.371   1.044  1.00 20.00     0.228 C 
HETATM   11  F9  UNL     1     -32.856   4.533   0.185  1.00 20.00    -0.255 F 
ENDBRANCH   5  10
TORSDOF 1
ENDMDL
MODEL 2
REMARK VINA RESULT:       1.0      3.217      4.261
REMARK  1 active torsions:
REMARK  status: ('A' for Active; 'I' for Inactive)
REMARK    1  A    between atoms: C5_5  and  C7_7 
ROOT
HETATM    1  C1  UNL     1     -32.196   7.862   3.114  1.00 20.00     0.019 C 
HETATM    2  C2  UNL     1     -34.056   5.207   4.181  1.00 20.00     0.292 C 
HETATM    3  C3  UNL     1     -35.668   6.151   3.247  1.00 20.00     0.292 C 
HETATM    4  C4  UNL     1     -32.227   7.422   1.659  1.00 20.00     0.075 C 
HETATM    5  C5  UNL     1     -33.641   7.826   3.611  1.00 20.00     0.037 C 
HETATM    6  C6  UNL     1     -34.146   6.435   3.231  1.00 20.00     0.066 C 
HETATM    7  N8  UNL     1     -35.475   5.437   4.529  1.00 20.00     0.086 N 
HETATM    8  S10 UNL     1     -33.381   6.018   1.585  1.00 20.00    -0.155 SA
HETATM    9  H22 UNL     1     -36.034   4.592   4.636  1.00 20.00     0.316 HD
ENDROOT
BRANCH   5  10
HETATM   10  C7  UNL     1     -33.739   8.147   5.095  1.00 20.00     0.228 C 
HETATM   11  F9  UNL     1     -32.491   8.403   5.560  1.00 20.00    -0.255 F 
ENDBRANCH   5  10
TORSDOF 1
ENDMDL
MODEL 3
REMARK VINA RESULT:       1.4      2.516      3.213
REMARK  1 active torsions:
REMARK  status: ('A' for Active; 'I' for Inactive)
REMARK    1  A    between atoms: C5_5  and  C7_7 
ROOT
HETATM    1  C1  UNL     1     -33.140   5.366   1.596  1.00 20.00     0.019 C 
HETATM    2  C2  UNL     1     -34.613   7.862   3.396  1.00 20.00     0.292 C 
HETATM    3  C3  UNL     1     -32.950   7.735   4.653  1.00 20.00     0.292 C 
HETATM    4  C4  UNL     1     -32.054   6.274   1.042  1.00 20.00     0.075 C 
HETATM    5  C5  UNL     1     -33.165   5.587   3.108  1.00 20.00     0.037 C 
HETATM    6  C6  UNL     1     -33.261   7.103   3.274  1.00 20.00     0.066 C 
HETATM    7  N8  UNL     1     -34.407   7.890   4.860  1.00 20.00     0.086 N 
HETATM    8  S10 UNL     1     -32.232   7.858   1.919  1.00 20.00    -0.155 SA
HETATM    9  H22 UNL     1     -34.685   8.756   5.318  1.00 20.00     0.316 HD
ENDROOT
BRANCH   5  10
HETATM   10  C7  UNL     1     -34.287   4.808   3.777  1.00 20.00     0.228 C 
HETATM   11  F9  UNL     1     -33.777   3.644   4.248  1.00 20.00    -0.255 F 
ENDBRANCH   5  10
TORSDOF 1
ENDMDL
MODEL 4
REMARK VINA RESULT:       1.5      2.228      3.047
REMARK  1 active torsions:
REMARK  status: ('A' for Active; 'I' for Inactive)
REMARK    1  A    between atoms: C5_5  and  C7_7 
ROOT
HETATM    1  C1  UNL     1     -33.682   8.231   3.015  1.00 20.00     0.019 C 
HETATM    2  C2  UNL     1     -33.424   5.689   0.752  1.00 20.00     0.292 C 
HETATM    3  C3  UNL     1     -31.870   4.978   1.952  1.00 20.00     0.292 C 
HETATM    4  C4  UNL     1     -34.281   7.341   4.091  1.00 20.00     0.075 C 
HETATM    5  C5  UNL     1     -32.435   7.513   2.499  1.00 20.00     0.037 C 
HETATM    6  C6  UNL     1     -32.914   6.101   2.162  1.00 20.00     0.066 C 
HETATM    7  N8  UNL     1     -32.089   5.110   0.494  1.00 20.00     0.086 N 
HETATM    8  S10 UNL     1     -34.176   5.641   3.451  1.00 20.00    -0.155 SA
HETATM    9  H22 UNL     1     -32.092   4.231  -0.020  1.00 20.00     0.316 HD
ENDROOT
BRANCH   5  10
HETATM   10  C7  UNL     1     -31.794   8.255   1.335  1.00 20.00     0.228 C 
HETATM   11  F9  UNL     1     -32.539   9.355   1.068  1.00 20.00    -0.255 F 
ENDBRANCH   5  10
TORSDOF 1
ENDMDL
MODEL 5
REMARK VINA RESULT:       1.7      2.495      3.160
REMARK  1 active torsions:
REMARK  status: ('A' for Active; 'I' for Inactive)
REMARK    1  A    between atoms: C5_5  and  C7_7 
ROOT
HETATM    1  C1  UNL     1     -33.048   7.597   4.043  1.00 20.00     0.019 C 
HETATM    2  C2  UNL     1     -32.021   5.288   1.750  1.00 20.00     0.292 C 
HETATM    3  C3  UNL     1     -33.490   6.091   0.503  1.00 20.00     0.292 C 
HETATM    4  C4  UNL     1     -32.440   8.764   3.283  1.00 20.00     0.075 C 
HETATM    5  C5  UNL     1     -33.872   6.799   3.032  1.00 20.00     0.037 C 
HETATM    6  C6  UNL     1     -32.917   6.553   1.864  1.00 20.00     0.066 C 
HETATM    7  N8  UNL     1     -33.024   4.724   0.822  1.00 20.00     0.086 N 
HETATM    8  S10 UNL     1     -31.873   8.085   1.693  1.00 20.00    -0.155 SA
HETATM    9  H22 UNL     1     -32.639   4.208   0.033  1.00 20.00     0.316 HD
ENDROOT
BRANCH   5  10
HETATM   10  C7  UNL     1     -34.455   5.535   3.646  1.00 20.00     0.228 C 
HETATM   11  F9  UNL     1     -35.615   5.858   4.268  1.00 20.00    -0.255 F 
ENDBRANCH   5  10
TORSDOF 1
ENDMDL
MODEL 6
REMARK VINA RESULT:       2.0      2.562      3.099
REMARK  1 active torsions:
REMARK  status: ('A' for Active; 'I' for Inactive)
REMARK    1  A    between atoms: C5_5  and  C7_7 
ROOT
HETATM    1  C1  UNL     1     -34.299   5.995   3.424  1.00 20.00     0.019 C 
HETATM    2  C2  UNL     1     -33.191   8.173   1.042  1.00 20.00     0.292 C 
HETATM    3  C3  UNL     1     -31.307   7.933   1.911  1.00 20.00     0.292 C 
HETATM    4  C4  UNL     1     -33.626   4.795   2.778  1.00 20.00     0.075 C 
HETATM    5  C5  UNL     1     -33.236   7.089   3.527  1.00 20.00     0.037 C 
HETATM    6  C6  UNL     1     -32.649   7.191   2.120  1.00 20.00     0.066 C 
HETATM    7  N8  UNL     1     -32.076   9.082   1.384  1.00 20.00     0.086 N 
HETATM    8  S10 UNL     1     -32.599   5.462   1.432  1.00 20.00    -0.155 SA
HETATM    9  H22 UNL     1     -31.648   9.556   0.591  1.00 20.00     0.316 HD
ENDROOT
BRANCH   5  10
HETATM   10  C7  UNL     1     -33.811   8.390   4.066  1.00 20.00     0.228 C 
HETATM   11  F9  UNL     1     -33.691   8.383   5.417  1.00 20.00    -0.255 F 
ENDBRANCH   5  10
TORSDOF 1
ENDMDL
MODEL 7
REMARK VINA RESULT:       2.0      2.063      3.179
REMARK  1 active torsions:
REMARK  status: ('A' for Active; 'I' for Inactive)
REMARK    1  A    between atoms: C5_5  and  C7_7 
ROOT
HETATM    1  C1  UNL     1     -32.439   7.692   1.815  1.00 20.00     0.019 C 
HETATM    2  C2  UNL     1     -35.391   6.910   3.337  1.00 20.00     0.292 C 
HETATM    3  C3  UNL     1     -34.279   5.546   4.461  1.00 20.00     0.292 C 
HETATM    4  C4  UNL     1     -31.890   8.415   3.035  1.00 20.00     0.075 C 
HETATM    5  C5  UNL     1     -32.950   6.337   2.304  1.00 20.00     0.037 C 
HETATM    6  C6  UNL     1     -33.862   6.672   3.484  1.00 20.00     0.066 C 
HETATM    7  N8  UNL     1     -35.600   5.520   3.794  1.00 20.00     0.086 N 
HETATM    8  S10 UNL     1     -33.080   8.108   4.376  1.00 20.00    -0.155 SA
HETATM    9  H22 UNL     1     -36.393   5.387   4.420  1.00 20.00     0.316 HD
ENDROOT
BRANCH   5  10
HETATM   10  C7  UNL     1     -33.624   5.549   1.191  1.00 20.00     0.228 C 
HETATM   11  F9  UNL     1     -32.676   4.826   0.546  1.00 20.00    -0.255 F 
ENDBRANCH   5  10
TORSDOF 1
ENDMDL
MODEL 8
REMARK VINA RESULT:       2.2      2.466      3.191
REMARK  1 active torsions:
REMARK  status: ('A' for Active; 'I' for Inactive)
REMARK    1  A    between atoms: C5_5  and  C7_7 
ROOT
HETATM    1  C1  UNL     1     -31.888   6.368   1.414  1.00 20.00     0.019 C 
HETATM    2  C2  UNL     1     -32.884   7.381   4.517  1.00 20.00     0.292 C 
HETATM    3  C3  UNL     1     -34.794   7.545   3.687  1.00 20.00     0.292 C 
HETATM    4  C4  UNL     1     -32.575   5.017   1.529  1.00 20.00     0.075 C 
HETATM    5  C5  UNL     1     -32.926   7.420   1.805  1.00 20.00     0.037 C 
HETATM    6  C6  UNL     1     -33.476   6.940   3.148  1.00 20.00     0.066 C 
HETATM    7  N8  UNL     1     -33.984   8.365   4.616  1.00 20.00     0.086 N 
HETATM    8  S10 UNL     1     -33.552   5.081   3.062  1.00 20.00    -0.155 SA
HETATM    9  H22 UNL     1     -34.381   8.474   5.548  1.00 20.00     0.316 HD
ENDROOT
BRANCH   5  10
HETATM   10  C7  UNL     1     -32.333   8.821   1.833  1.00 20.00     0.228 C 
HETATM   11  F9  UNL     1     -32.353   9.318   0.571  1.00 20.00    -0.255 F 
ENDBRANCH   5  10
TORSDOF 1
ENDMDL
MODEL 9
REMARK VINA RESULT:       2.8      2.164      2.735
REMARK  1 active torsions:
REMARK  status: ('A' for Active; 'I' for Inactive)
REMARK    1  A    between atoms: C5_5  and  C7_7 
ROOT
HETATM    1  C1  UNL     1     -32.778   4.392   3.269  1.00 20.00     0.019 C 
HETATM    2  C2  UNL     1     -33.911   7.390   4.439  1.00 20.00     0.292 C 
HETATM    3  C3  UNL     1     -35.584   7.059   3.233  1.00 20.00     0.292 C 
HETATM    4  C4  UNL     1     -33.789   3.587   4.069  1.00 20.00     0.075 C 
HETATM    5  C5  UNL     1     -33.564   5.483   2.542  1.00 20.00     0.037 C 
HETATM    6  C6  UNL     1     -34.398   6.150   3.635  1.00 20.00     0.066 C 
HETATM    7  N8  UNL     1     -34.733   8.230   3.541  1.00 20.00     0.086 N 
HETATM    8  S10 UNL     1     -34.923   4.803   4.808  1.00 20.00    -0.155 SA
HETATM    9  H22 UNL     1     -35.216   9.002   3.997  1.00 20.00     0.316 HD
ENDROOT
BRANCH   5  10
HETATM   10  C7  UNL     1     -32.649   6.430   1.781  1.00 20.00     0.228 C 
HETATM   11  F9  UNL     1     -31.624   5.709   1.263  1.00 20.00    -0.255 F 
ENDBRANCH   5  10
TORSDOF 1
ENDMDL
