MODEL 1
REMARK VINA RESULT:      -1.4      0.000      0.000
REMARK  0 active torsions:
REMARK  status: ('A' for Active; 'I' for Inactive)
ROOT
HETATM    1  C1  UNL     1     -33.808   5.507   2.571  1.00 20.00     0.078 C 
HETATM    2  C2  UNL     1     -32.564   7.546   2.332  1.00 20.00     0.152 C 
HETATM    3  C3  UNL     1     -32.764   6.125   2.024  1.00 20.00     0.134 C 
HETATM    4  C4  UNL     1     -33.948   7.400   4.220  1.00 20.00     0.213 C 
HETATM    5  C5  UNL     1     -34.689   6.249   3.528  1.00 20.00     0.217 C 
HETATM    6  N6  UNL     1     -33.114   8.195   3.298  1.00 20.00    -0.294 NA
HETATM    7  F7  UNL     1     -31.956   5.565   1.111  1.00 20.00    -0.205 F 
HETATM    8  F8  UNL     1     -35.754   6.774   2.856  1.00 20.00    -0.219 F 
HETATM    9 CL9  UNL     1     -35.323   5.127   4.764  1.00 20.00    -0.076 Cl
ENDROOT
TORSDOF 0
ENDMDL
MODEL 2
REMARK VINA RESULT:      -1.2      2.825      3.264
REMARK  0 active torsions:
REMARK  status: ('A' for Active; 'I' for Inactive)
ROOT
HETATM    1  C1  UNL     1     -32.159   6.937   1.152  1.00 20.00     0.078 C 
HETATM    2  C2  UNL     1     -33.462   5.813   2.826  1.00 20.00     0.152 C 
HETATM    3  C3  UNL     1     -32.748   5.809   1.544  1.00 20.00     0.134 C 
HETATM    4  C4  UNL     1     -33.583   8.156   2.828  1.00 20.00     0.213 C 
HETATM    5  C5  UNL     1     -32.302   8.173   1.983  1.00 20.00     0.217 C 
HETATM    6  N6  UNL     1     -33.830   6.856   3.483  1.00 20.00    -0.294 NA
HETATM    7  F7  UNL     1     -32.627   4.637   0.901  1.00 20.00    -0.205 F 
HETATM    8  F8  UNL     1     -31.238   8.283   2.828  1.00 20.00    -0.219 F 
HETATM    9 CL9  UNL     1     -32.312   9.616   0.929  1.00 20.00    -0.076 Cl
ENDROOT
TORSDOF 0
ENDMDL
MODEL 3
REMARK VINA RESULT:      -0.9      1.990      3.211
REMARK  0 active torsions:
REMARK  status: ('A' for Active; 'I' for Inactive)
ROOT
HETATM    1  C1  UNL     1     -33.832   6.039   2.714  1.00 20.00     0.078 C 
HETATM    2  C2  UNL     1     -32.744   8.073   3.380  1.00 20.00     0.152 C 
HETATM    3  C3  UNL     1     -33.830   7.097   3.524  1.00 20.00     0.134 C 
HETATM    4  C4  UNL     1     -32.231   7.287   1.230  1.00 20.00     0.213 C 
HETATM    5  C5  UNL     1     -32.785   5.920   1.652  1.00 20.00     0.217 C 
HETATM    6  N6  UNL     1     -31.951   8.179   2.372  1.00 20.00    -0.294 NA
HETATM    7  F7  UNL     1     -34.686   7.262   4.543  1.00 20.00    -0.205 F 
HETATM    8  F8  UNL     1     -31.747   5.166   2.115  1.00 20.00    -0.219 F 
HETATM    9 CL9  UNL     1     -33.464   5.092   0.221  1.00 20.00    -0.076 Cl
ENDROOT
TORSDOF 0
ENDMDL
MODEL 4
REMARK VINA RESULT:      -0.7      2.483      3.101
REMARK  0 active torsions:
REMARK  status: ('A' for Active; 'I' for Inactive)
ROOT
HETATM    1  C1  UNL     1     -32.031   7.099   1.713  1.00 20.00     0.078 C 
HETATM    2  C2  UNL     1     -33.581   7.533   3.495  1.00 20.00     0.152 C 
HETATM    3  C3  UNL     1     -32.388   7.894   2.721  1.00 20.00     0.134 C 
HETATM    4  C4  UNL     1     -33.500   5.322   2.716  1.00 20.00     0.213 C 
HETATM    5  C5  UNL     1     -32.803   5.844   1.453  1.00 20.00     0.217 C 
HETATM    6  N6  UNL     1     -34.162   6.384   3.498  1.00 20.00    -0.294 NA
HETATM    7  F7  UNL     1     -31.798   9.068   2.995  1.00 20.00    -0.205 F 
HETATM    8  F8  UNL     1     -33.759   6.083   0.509  1.00 20.00    -0.219 F 
HETATM    9 CL9  UNL     1     -31.712   4.581   0.816  1.00 20.00    -0.076 Cl
ENDROOT
TORSDOF 0
ENDMDL
MODEL 5
REMARK VINA RESULT:      -0.6      2.579      3.518
REMARK  0 active torsions:
REMARK  status: ('A' for Active; 'I' for Inactive)
ROOT
HETATM    1  C1  UNL     1     -33.508   7.603   3.464  1.00 20.00     0.078 C 
HETATM    2  C2  UNL     1     -33.838   5.573   2.224  1.00 20.00     0.152 C 
HETATM    3  C3  UNL     1     -34.158   6.446   3.360  1.00 20.00     0.134 C 
HETATM    4  C4  UNL     1     -31.805   6.685   1.857  1.00 20.00     0.213 C 
HETATM    5  C5  UNL     1     -32.437   7.940   2.474  1.00 20.00     0.217 C 
HETATM    6  N6  UNL     1     -32.798   5.663   1.472  1.00 20.00    -0.294 NA
HETATM    7  F7  UNL     1     -35.174   6.082   4.159  1.00 20.00    -0.205 F 
HETATM    8  F8  UNL     1     -32.965   8.689   1.464  1.00 20.00    -0.219 F 
HETATM    9 CL9  UNL     1     -31.164   8.912   3.265  1.00 20.00    -0.076 Cl
ENDROOT
TORSDOF 0
ENDMDL
MODEL 6
REMARK VINA RESULT:      -0.4      2.796      3.196
REMARK  0 active torsions:
REMARK  status: ('A' for Active; 'I' for Inactive)
ROOT
HETATM    1  C1  UNL     1     -33.100   5.317   3.351  1.00 20.00     0.078 C 
HETATM    2  C2  UNL     1     -35.235   5.108   4.429  1.00 20.00     0.152 C 
HETATM    3  C3  UNL     1     -34.003   4.509   3.903  1.00 20.00     0.134 C 
HETATM    4  C4  UNL     1     -34.906   7.058   3.167  1.00 20.00     0.213 C 
HETATM    5  C5  UNL     1     -33.398   6.778   3.220  1.00 20.00     0.217 C 
HETATM    6  N6  UNL     1     -35.676   6.287   4.163  1.00 20.00    -0.294 NA
HETATM    7  F7  UNL     1     -33.803   3.200   4.121  1.00 20.00    -0.205 F 
HETATM    8  F8  UNL     1     -32.880   7.449   4.288  1.00 20.00    -0.219 F 
HETATM    9 CL9  UNL     1     -32.627   7.425   1.744  1.00 20.00    -0.076 Cl
ENDROOT
TORSDOF 0
ENDMDL
MODEL 7
REMARK VINA RESULT:      -0.3      2.066      2.440
REMARK  0 active torsions:
REMARK  status: ('A' for Active; 'I' for Inactive)
ROOT
HETATM    1  C1  UNL     1     -34.094   6.065   4.144  1.00 20.00     0.078 C 
HETATM    2  C2  UNL     1     -33.233   5.466   1.984  1.00 20.00     0.152 C 
HETATM    3  C3  UNL     1     -33.787   5.090   3.290  1.00 20.00     0.134 C 
HETATM    4  C4  UNL     1     -32.650   7.598   2.770  1.00 20.00     0.213 C 
HETATM    5  C5  UNL     1     -33.800   7.486   3.780  1.00 20.00     0.217 C 
HETATM    6  N6  UNL     1     -32.740   6.613   1.674  1.00 20.00    -0.294 NA
HETATM    7  F7  UNL     1     -34.068   3.795   3.499  1.00 20.00    -0.205 F 
HETATM    8  F8  UNL     1     -34.908   8.055   3.224  1.00 20.00    -0.219 F 
HETATM    9 CL9  UNL     1     -33.388   8.417   5.248  1.00 20.00    -0.076 Cl
ENDROOT
TORSDOF 0
ENDMDL
MODEL 8
REMARK VINA RESULT:      -0.2      2.100      2.469
REMARK  0 active torsions:
REMARK  status: ('A' for Active; 'I' for Inactive)
ROOT
HETATM    1  C1  UNL     1     -33.302   7.409   3.558  1.00 20.00     0.078 C 
HETATM    2  C2  UNL     1     -31.922   6.845   1.676  1.00 20.00     0.152 C 
HETATM    3  C3  UNL     1     -32.312   7.772   2.745  1.00 20.00     0.134 C 
HETATM    4  C4  UNL     1     -33.957   5.689   1.843  1.00 20.00     0.213 C 
HETATM    5  C5  UNL     1     -34.024   6.120   3.315  1.00 20.00     0.217 C 
HETATM    6  N6  UNL     1     -32.614   5.847   1.251  1.00 20.00    -0.294 NA
HETATM    7  F7  UNL     1     -31.567   8.875   2.917  1.00 20.00    -0.205 F 
HETATM    8  F8  UNL     1     -33.464   5.132   4.071  1.00 20.00    -0.219 F 
HETATM    9 CL9  UNL     1     -35.734   6.279   3.805  1.00 20.00    -0.076 Cl
ENDROOT
TORSDOF 0
ENDMDL
MODEL 9
REMARK VINA RESULT:      -0.1      2.142      2.511
REMARK  0 active torsions:
REMARK  status: ('A' for Active; 'I' for Inactive)
ROOT
HETATM    1  C1  UNL     1     -33.537   8.019   2.705  1.00 20.00     0.078 C 
HETATM    2  C2  UNL     1     -31.861   6.909   1.392  1.00 20.00     0.152 C 
HETATM    3  C3  UNL     1     -32.616   8.116   1.748  1.00 20.00     0.134 C 
HETATM    4  C4  UNL     1     -33.474   5.525   2.385  1.00 20.00     0.213 C 
HETATM    5  C5  UNL     1     -33.820   6.687   3.326  1.00 20.00     0.217 C 
HETATM    6  N6  UNL     1     -32.181   5.700   1.696  1.00 20.00    -0.294 NA
HETATM    7  F7  UNL     1     -32.249   9.272   1.175  1.00 20.00    -0.205 F 
HETATM    8  F8  UNL     1     -33.079   6.546   4.463  1.00 20.00    -0.219 F 
HETATM    9 CL9  UNL     1     -35.544   6.584   3.782  1.00 20.00    -0.076 Cl
ENDROOT
TORSDOF 0
ENDMDL
