MODEL 1
REMARK VINA RESULT:       0.6      0.000      0.000
REMARK  1 active torsions:
REMARK  status: ('A' for Active; 'I' for Inactive)
REMARK    1  A    between atoms: C5_5  and  C6_6 
ROOT
HETATM    1  C1  UNL     1     -34.442   6.961   4.539  1.00 20.00     0.011 C 
HETATM    2  C2  UNL     1     -34.666   6.006   3.360  1.00 20.00     0.011 C 
HETATM    3  C3  UNL     1     -33.863   8.331   4.204  1.00 20.00     0.075 C 
HETATM    4  C4  UNL     1     -33.403   5.278   2.905  1.00 20.00     0.075 C 
HETATM    5  C5  UNL     1     -32.666   7.786   1.773  1.00 20.00     0.122 C 
HETATM    6  S7  UNL     1     -32.206   8.288   3.458  1.00 20.00    -0.152 SA
HETATM    7  S8  UNL     1     -32.503   5.995   1.490  1.00 20.00    -0.152 SA
ENDROOT
BRANCH   5   8
HETATM    8  C6  UNL     1     -31.748   8.511   0.789  1.00 20.00     0.140 C 
HETATM    9 CL9  UNL     1     -32.484  10.040   0.282  1.00 20.00    -0.128 Cl
ENDBRANCH   5   8
TORSDOF 1
ENDMDL
MODEL 2
REMARK VINA RESULT:       0.7      2.853      4.445
REMARK  1 active torsions:
REMARK  status: ('A' for Active; 'I' for Inactive)
REMARK    1  A    between atoms: C5_5  and  C6_6 
ROOT
HETATM    1  C1  UNL     1     -31.722   6.975   1.174  1.00 20.00     0.011 C 
HETATM    2  C2  UNL     1     -32.175   8.322   1.751  1.00 20.00     0.011 C 
HETATM    3  C3  UNL     1     -32.722   5.828   1.258  1.00 20.00     0.075 C 
HETATM    4  C4  UNL     1     -32.047   8.420   3.270  1.00 20.00     0.075 C 
HETATM    5  C5  UNL     1     -34.331   6.717   3.322  1.00 20.00     0.122 C 
HETATM    6  S7  UNL     1     -33.187   5.355   2.950  1.00 20.00    -0.152 SA
HETATM    7  S8  UNL     1     -33.548   8.076   4.247  1.00 20.00    -0.152 SA
ENDROOT
BRANCH   5   8
HETATM    8  C6  UNL     1     -35.479   6.165   4.166  1.00 20.00     0.140 C 
HETATM    9 CL9  UNL     1     -35.098   4.524   4.713  1.00 20.00    -0.128 Cl
ENDBRANCH   5   8
TORSDOF 1
ENDMDL
MODEL 3
REMARK VINA RESULT:       0.7      3.165      4.128
REMARK  1 active torsions:
REMARK  status: ('A' for Active; 'I' for Inactive)
REMARK    1  A    between atoms: C5_5  and  C6_6 
ROOT
HETATM    1  C1  UNL     1     -32.835   8.533   2.947  1.00 20.00     0.011 C 
HETATM    2  C2  UNL     1     -31.889   7.569   2.222  1.00 20.00     0.011 C 
HETATM    3  C3  UNL     1     -33.613   7.964   4.128  1.00 20.00     0.075 C 
HETATM    4  C4  UNL     1     -32.589   6.651   1.221  1.00 20.00     0.075 C 
HETATM    5  C5  UNL     1     -33.527   5.267   3.528  1.00 20.00     0.122 C 
HETATM    6  S7  UNL     1     -34.744   6.606   3.702  1.00 20.00    -0.152 SA
HETATM    7  S8  UNL     1     -33.023   4.978   1.803  1.00 20.00    -0.152 SA
ENDROOT
BRANCH   5   8
HETATM    8  C6  UNL     1     -34.150   3.979   4.066  1.00 20.00     0.140 C 
HETATM    9 CL9  UNL     1     -32.910   2.982   4.843  1.00 20.00    -0.128 Cl
ENDBRANCH   5   8
TORSDOF 1
ENDMDL
MODEL 4
REMARK VINA RESULT:       1.8      1.636      2.787
REMARK  1 active torsions:
REMARK  status: ('A' for Active; 'I' for Inactive)
REMARK    1  A    between atoms: C5_5  and  C6_6 
ROOT
HETATM    1  C1  UNL     1     -33.914   3.883   3.562  1.00 20.00     0.011 C 
HETATM    2  C2  UNL     1     -34.501   4.818   4.625  1.00 20.00     0.011 C 
HETATM    3  C3  UNL     1     -32.684   4.387   2.816  1.00 20.00     0.075 C 
HETATM    4  C4  UNL     1     -35.392   5.921   4.056  1.00 20.00     0.075 C 
HETATM    5  C5  UNL     1     -32.946   7.111   3.205  1.00 20.00     0.122 C 
HETATM    6  S7  UNL     1     -32.957   5.901   1.849  1.00 20.00    -0.152 SA
HETATM    7  S8  UNL     1     -34.615   7.550   3.786  1.00 20.00    -0.152 SA
ENDROOT
BRANCH   5   8
HETATM    8  C6  UNL     1     -32.263   8.385   2.709  1.00 20.00     0.140 C 
HETATM    9 CL9  UNL     1     -31.902   8.248   0.980  1.00 20.00    -0.128 Cl
ENDBRANCH   5   8
TORSDOF 1
ENDMDL
MODEL 5
REMARK VINA RESULT:       2.8      2.418      3.195
REMARK  1 active torsions:
REMARK  status: ('A' for Active; 'I' for Inactive)
REMARK    1  A    between atoms: C5_5  and  C6_6 
ROOT
HETATM    1  C1  UNL     1     -34.237   7.428   4.196  1.00 20.00     0.011 C 
HETATM    2  C2  UNL     1     -32.849   8.065   4.063  1.00 20.00     0.011 C 
HETATM    3  C3  UNL     1     -34.386   6.005   3.670  1.00 20.00     0.075 C 
HETATM    4  C4  UNL     1     -32.557   8.629   2.673  1.00 20.00     0.075 C 
HETATM    5  C5  UNL     1     -32.263   5.901   1.904  1.00 20.00     0.122 C 
HETATM    6  S7  UNL     1     -34.079   5.824   1.888  1.00 20.00    -0.152 SA
HETATM    7  S8  UNL     1     -31.614   7.561   1.533  1.00 20.00    -0.152 SA
ENDROOT
BRANCH   5   8
HETATM    8  C6  UNL     1     -31.732   4.934   0.846  1.00 20.00     0.140 C 
HETATM    9 CL9  UNL     1     -33.072   4.279  -0.109  1.00 20.00    -0.128 Cl
ENDBRANCH   5   8
TORSDOF 1
ENDMDL
MODEL 6
REMARK VINA RESULT:       3.3      2.582      2.835
REMARK  1 active torsions:
REMARK  status: ('A' for Active; 'I' for Inactive)
REMARK    1  A    between atoms: C5_5  and  C6_6 
ROOT
HETATM    1  C1  UNL     1     -34.514   7.588   4.077  1.00 20.00     0.011 C 
HETATM    2  C2  UNL     1     -35.214   6.226   4.013  1.00 20.00     0.011 C 
HETATM    3  C3  UNL     1     -33.717   8.002   2.845  1.00 20.00     0.075 C 
HETATM    4  C4  UNL     1     -34.294   5.042   4.303  1.00 20.00     0.075 C 
HETATM    5  C5  UNL     1     -33.255   5.532   1.696  1.00 20.00     0.122 C 
HETATM    6  S7  UNL     1     -32.326   6.904   2.443  1.00 20.00    -0.152 SA
HETATM    7  S8  UNL     1     -33.589   4.174   2.862  1.00 20.00    -0.152 SA
ENDROOT
BRANCH   5   8
HETATM    8  C6  UNL     1     -32.436   4.972   0.534  1.00 20.00     0.140 C 
HETATM    9 CL9  UNL     1     -33.461   3.976  -0.512  1.00 20.00    -0.128 Cl
ENDBRANCH   5   8
TORSDOF 1
ENDMDL
