MODEL 1
REMARK VINA RESULT:      -1.8      0.000      0.000
REMARK  1 active torsions:
REMARK  status: ('A' for Active; 'I' for Inactive)
REMARK    1  A    between atoms: C1_1  and  C4_4 
ROOT
HETATM    1  C2  UNL     1     -32.711   5.934   1.773  1.00 20.00     0.173 C 
HETATM    2  C3  UNL     1     -33.293   7.393   3.493  1.00 20.00     0.173 C 
HETATM    3  C4  UNL     1     -32.766   8.477   1.173  1.00 20.00     0.060 A 
HETATM    4  C5  UNL     1     -32.005   7.216   1.501  1.00 20.00     0.027 A 
HETATM    5  C6  UNL     1     -32.375   8.141   2.592  1.00 20.00     0.027 A 
HETATM    6  O8  UNL     1     -33.703   6.210   2.779  1.00 20.00    -0.390 OA
ENDROOT
BRANCH   3   7
HETATM    7  C1  UNL     1     -32.072   9.569   0.483  1.00 20.00     0.236 C 
HETATM    8  O7  UNL     1     -32.606  10.283  -0.360  1.00 20.00    -0.306 OA
ENDBRANCH   3   7
TORSDOF 1
ENDMDL
MODEL 2
REMARK VINA RESULT:      -1.4      2.288      4.650
REMARK  1 active torsions:
REMARK  status: ('A' for Active; 'I' for Inactive)
REMARK    1  A    between atoms: C1_1  and  C4_4 
ROOT
HETATM    1  C2  UNL     1     -32.838   6.717   1.917  1.00 20.00     0.173 C 
HETATM    2  C3  UNL     1     -34.032   7.541   3.739  1.00 20.00     0.173 C 
HETATM    3  C4  UNL     1     -33.371   5.014   3.825  1.00 20.00     0.060 A 
HETATM    4  C5  UNL     1     -33.636   5.581   2.453  1.00 20.00     0.027 A 
HETATM    5  C6  UNL     1     -34.393   6.103   3.608  1.00 20.00     0.027 A 
HETATM    6  O8  UNL     1     -32.870   7.755   2.915  1.00 20.00    -0.390 OA
ENDROOT
BRANCH   3   7
HETATM    7  C1  UNL     1     -33.832   3.657   4.137  1.00 20.00     0.236 C 
HETATM    8  O7  UNL     1     -33.210   2.880   4.854  1.00 20.00    -0.306 OA
ENDBRANCH   3   7
TORSDOF 1
ENDMDL
MODEL 3
REMARK VINA RESULT:      -1.3      2.019      3.820
REMARK  1 active torsions:
REMARK  status: ('A' for Active; 'I' for Inactive)
REMARK    1  A    between atoms: C1_1  and  C4_4 
ROOT
HETATM    1  C2  UNL     1     -32.168   5.826   1.396  1.00 20.00     0.173 C 
HETATM    2  C3  UNL     1     -32.223   8.072   2.008  1.00 20.00     0.173 C 
HETATM    3  C4  UNL     1     -33.709   6.444   3.413  1.00 20.00     0.060 A 
HETATM    4  C5  UNL     1     -33.521   6.080   1.962  1.00 20.00     0.027 A 
HETATM    5  C6  UNL     1     -33.555   7.505   2.350  1.00 20.00     0.027 A 
HETATM    6  O8  UNL     1     -31.349   6.956   1.751  1.00 20.00    -0.390 OA
ENDROOT
BRANCH   3   7
HETATM    7  C1  UNL     1     -35.021   6.244   4.035  1.00 20.00     0.236 C 
HETATM    8  O7  UNL     1     -35.415   5.158   4.448  1.00 20.00    -0.306 OA
ENDBRANCH   3   7
TORSDOF 1
ENDMDL
MODEL 4
REMARK VINA RESULT:      -1.1      1.837      4.112
REMARK  1 active torsions:
REMARK  status: ('A' for Active; 'I' for Inactive)
REMARK    1  A    between atoms: C1_1  and  C4_4 
ROOT
HETATM    1  C2  UNL     1     -32.402   8.158   2.668  1.00 20.00     0.173 C 
HETATM    2  C3  UNL     1     -32.567   6.145   1.509  1.00 20.00     0.173 C 
HETATM    3  C4  UNL     1     -34.509   6.697   3.169  1.00 20.00     0.060 A 
HETATM    4  C5  UNL     1     -33.147   7.219   3.550  1.00 20.00     0.027 A 
HETATM    5  C6  UNL     1     -33.251   5.942   2.815  1.00 20.00     0.027 A 
HETATM    6  O8  UNL     1     -32.374   7.565   1.357  1.00 20.00    -0.390 OA
ENDROOT
BRANCH   3   7
HETATM    7  C1  UNL     1     -35.388   6.166   4.215  1.00 20.00     0.236 C 
HETATM    8  O7  UNL     1     -35.437   4.978   4.518  1.00 20.00    -0.306 OA
ENDBRANCH   3   7
TORSDOF 1
ENDMDL
MODEL 5
REMARK VINA RESULT:      -1.0      1.456      1.769
REMARK  1 active torsions:
REMARK  status: ('A' for Active; 'I' for Inactive)
REMARK    1  A    between atoms: C1_1  and  C4_4 
ROOT
HETATM    1  C2  UNL     1     -34.283   5.507   3.288  1.00 20.00     0.173 C 
HETATM    2  C3  UNL     1     -34.480   7.523   4.438  1.00 20.00     0.173 C 
HETATM    3  C4  UNL     1     -33.190   7.598   2.165  1.00 20.00     0.060 A 
HETATM    4  C5  UNL     1     -33.079   6.312   2.945  1.00 20.00     0.027 A 
HETATM    5  C6  UNL     1     -33.204   7.591   3.674  1.00 20.00     0.027 A 
HETATM    6  O8  UNL     1     -35.220   6.405   3.911  1.00 20.00    -0.390 OA
ENDROOT
BRANCH   3   7
HETATM    7  C1  UNL     1     -32.009   8.113   1.466  1.00 20.00     0.236 C 
HETATM    8  O7  UNL     1     -32.040   9.070   0.699  1.00 20.00    -0.306 OA
ENDBRANCH   3   7
TORSDOF 1
ENDMDL
MODEL 6
REMARK VINA RESULT:      -0.8      2.160      2.907
REMARK  1 active torsions:
REMARK  status: ('A' for Active; 'I' for Inactive)
REMARK    1  A    between atoms: C1_1  and  C4_4 
ROOT
HETATM    1  C2  UNL     1     -34.195   4.283   4.165  1.00 20.00     0.173 C 
HETATM    2  C3  UNL     1     -35.267   6.351   4.182  1.00 20.00     0.173 C 
HETATM    3  C4  UNL     1     -33.539   5.949   2.262  1.00 20.00     0.060 A 
HETATM    4  C5  UNL     1     -33.243   5.261   3.571  1.00 20.00     0.027 A 
HETATM    5  C6  UNL     1     -33.923   6.572   3.582  1.00 20.00     0.027 A 
HETATM    6  O8  UNL     1     -35.483   4.926   4.204  1.00 20.00    -0.390 OA
ENDROOT
BRANCH   3   7
HETATM    7  C1  UNL     1     -32.432   6.531   1.496  1.00 20.00     0.236 C 
HETATM    8  O7  UNL     1     -32.101   7.709   1.574  1.00 20.00    -0.306 OA
ENDBRANCH   3   7
TORSDOF 1
ENDMDL
MODEL 7
REMARK VINA RESULT:      -0.7      2.739      3.184
REMARK  1 active torsions:
REMARK  status: ('A' for Active; 'I' for Inactive)
REMARK    1  A    between atoms: C1_1  and  C4_4 
ROOT
HETATM    1  C2  UNL     1     -34.740   4.988   4.122  1.00 20.00     0.173 C 
HETATM    2  C3  UNL     1     -34.709   7.317   4.093  1.00 20.00     0.173 C 
HETATM    3  C4  UNL     1     -33.505   6.109   2.112  1.00 20.00     0.060 A 
HETATM    4  C5  UNL     1     -33.481   5.388   3.436  1.00 20.00     0.027 A 
HETATM    5  C6  UNL     1     -33.462   6.865   3.418  1.00 20.00     0.027 A 
HETATM    6  O8  UNL     1     -35.568   6.164   4.194  1.00 20.00    -0.390 OA
ENDROOT
BRANCH   3   7
HETATM    7  C1  UNL     1     -32.308   6.084   1.265  1.00 20.00     0.236 C 
HETATM    8  O7  UNL     1     -31.625   5.080   1.089  1.00 20.00    -0.306 OA
ENDBRANCH   3   7
TORSDOF 1
ENDMDL
MODEL 8
REMARK VINA RESULT:      -0.6      1.967      2.937
REMARK  1 active torsions:
REMARK  status: ('A' for Active; 'I' for Inactive)
REMARK    1  A    between atoms: C1_1  and  C4_4 
ROOT
HETATM    1  C2  UNL     1     -35.462   6.168   4.177  1.00 20.00     0.173 C 
HETATM    2  C3  UNL     1     -33.920   4.572   3.471  1.00 20.00     0.173 C 
HETATM    3  C4  UNL     1     -33.156   7.068   3.342  1.00 20.00     0.060 A 
HETATM    4  C5  UNL     1     -34.627   6.817   3.129  1.00 20.00     0.027 A 
HETATM    5  C6  UNL     1     -33.650   5.804   2.682  1.00 20.00     0.027 A 
HETATM    6  O8  UNL     1     -34.785   4.956   4.558  1.00 20.00    -0.390 OA
ENDROOT
BRANCH   3   7
HETATM    7  C1  UNL     1     -32.480   8.081   2.525  1.00 20.00     0.236 C 
HETATM    8  O7  UNL     1     -31.642   7.811   1.670  1.00 20.00    -0.306 OA
ENDBRANCH   3   7
TORSDOF 1
ENDMDL
MODEL 9
REMARK VINA RESULT:      -0.1      2.146      3.320
REMARK  1 active torsions:
REMARK  status: ('A' for Active; 'I' for Inactive)
REMARK    1  A    between atoms: C1_1  and  C4_4 
ROOT
HETATM    1  C2  UNL     1     -32.735   5.540   1.345  1.00 20.00     0.173 C 
HETATM    2  C3  UNL     1     -31.583   7.560   1.484  1.00 20.00     0.173 C 
HETATM    3  C4  UNL     1     -33.239   7.024   3.435  1.00 20.00     0.060 A 
HETATM    4  C5  UNL     1     -33.620   6.485   2.079  1.00 20.00     0.027 A 
HETATM    5  C6  UNL     1     -32.889   7.766   2.168  1.00 20.00     0.027 A 
HETATM    6  O8  UNL     1     -31.426   6.139   1.308  1.00 20.00    -0.390 OA
ENDROOT
BRANCH   3   7
HETATM    7  C1  UNL     1     -34.286   7.562   4.309  1.00 20.00     0.236 C 
HETATM    8  O7  UNL     1     -34.053   8.234   5.309  1.00 20.00    -0.306 OA
ENDBRANCH   3   7
TORSDOF 1
ENDMDL
