MODEL 1
REMARK VINA RESULT:      -3.0      0.000      0.000
REMARK  1 active torsions:
REMARK  status: ('A' for Active; 'I' for Inactive)
REMARK    1  A    between atoms: C1_1  and  C3_3 
ROOT
HETATM    1  C1  UNL     1     -34.024   7.396   3.854  1.00 20.00     0.072 C 
HETATM    2  C2  UNL     1     -33.175   7.307   2.830  1.00 20.00     0.189 C 
HETATM    3  F4  UNL     1     -33.187   6.253   1.993  1.00 20.00    -0.220 F 
ENDROOT
BRANCH   1   4
HETATM    4  C3  UNL     1     -35.054   6.371   4.183  1.00 20.00     0.378 C 
HETATM    5  F5  UNL     1     -36.148   6.453   3.378  1.00 20.00    -0.210 F 
HETATM    6  F6  UNL     1     -34.554   5.117   4.018  1.00 20.00    -0.210 F 
ENDBRANCH   1   4
TORSDOF 1
ENDMDL
MODEL 2
REMARK VINA RESULT:      -2.9      1.728      1.883
REMARK  1 active torsions:
REMARK  status: ('A' for Active; 'I' for Inactive)
REMARK    1  A    between atoms: C1_1  and  C3_3 
ROOT
HETATM    1  C1  UNL     1     -33.407   6.512   2.739  1.00 20.00     0.072 C 
HETATM    2  C2  UNL     1     -32.495   7.045   1.927  1.00 20.00     0.189 C 
HETATM    3  F4  UNL     1     -32.275   8.372   1.888  1.00 20.00    -0.220 F 
ENDROOT
BRANCH   1   4
HETATM    4  C3  UNL     1     -34.266   7.297   3.669  1.00 20.00     0.378 C 
HETATM    5  F5  UNL     1     -35.228   6.537   4.258  1.00 20.00    -0.210 F 
HETATM    6  F6  UNL     1     -33.524   7.820   4.682  1.00 20.00    -0.210 F 
ENDBRANCH   1   4
TORSDOF 1
ENDMDL
MODEL 3
REMARK VINA RESULT:      -2.9      3.465      4.905
REMARK  1 active torsions:
REMARK  status: ('A' for Active; 'I' for Inactive)
REMARK    1  A    between atoms: C1_1  and  C3_3 
ROOT
HETATM    1  C1  UNL     1     -31.739   8.725   0.827  1.00 20.00     0.072 C 
HETATM    2  C2  UNL     1     -31.898   7.872   1.839  1.00 20.00     0.189 C 
HETATM    3  F4  UNL     1     -32.988   7.908   2.627  1.00 20.00    -0.220 F 
ENDROOT
BRANCH   1   4
HETATM    4  C3  UNL     1     -32.718   9.787   0.460  1.00 20.00     0.378 C 
HETATM    5  F5  UNL     1     -32.248  11.039   0.711  1.00 20.00    -0.210 F 
HETATM    6  F6  UNL     1     -32.996   9.745  -0.870  1.00 20.00    -0.210 F 
ENDBRANCH   1   4
TORSDOF 1
ENDMDL
MODEL 4
REMARK VINA RESULT:      -2.9      1.556      1.690
REMARK  1 active torsions:
REMARK  status: ('A' for Active; 'I' for Inactive)
REMARK    1  A    between atoms: C1_1  and  C3_3 
ROOT
HETATM    1  C1  UNL     1     -34.110   6.738   3.459  1.00 20.00     0.072 C 
HETATM    2  C2  UNL     1     -33.336   7.699   3.961  1.00 20.00     0.189 C 
HETATM    3  F4  UNL     1     -33.625   8.298   5.131  1.00 20.00    -0.220 F 
ENDROOT
BRANCH   1   4
HETATM    4  C3  UNL     1     -35.350   6.230   4.111  1.00 20.00     0.378 C 
HETATM    5  F5  UNL     1     -36.457   6.412   3.342  1.00 20.00    -0.210 F 
HETATM    6  F6  UNL     1     -35.260   4.892   4.336  1.00 20.00    -0.210 F 
ENDBRANCH   1   4
TORSDOF 1
ENDMDL
MODEL 5
REMARK VINA RESULT:      -2.8      1.421      2.562
REMARK  1 active torsions:
REMARK  status: ('A' for Active; 'I' for Inactive)
REMARK    1  A    between atoms: C1_1  and  C3_3 
ROOT
HETATM    1  C1  UNL     1     -35.244   6.294   4.074  1.00 20.00     0.072 C 
HETATM    2  C2  UNL     1     -35.027   4.996   4.283  1.00 20.00     0.189 C 
HETATM    3  F4  UNL     1     -33.826   4.435   4.048  1.00 20.00    -0.220 F 
ENDROOT
BRANCH   1   4
HETATM    4  C3  UNL     1     -34.216   7.248   3.569  1.00 20.00     0.378 C 
HETATM    5  F5  UNL     1     -33.411   7.720   4.559  1.00 20.00    -0.210 F 
HETATM    6  F6  UNL     1     -33.396   6.639   2.672  1.00 20.00    -0.210 F 
ENDBRANCH   1   4
TORSDOF 1
ENDMDL
MODEL 6
REMARK VINA RESULT:      -2.8      0.917      2.828
REMARK  1 active torsions:
REMARK  status: ('A' for Active; 'I' for Inactive)
REMARK    1  A    between atoms: C1_1  and  C3_3 
ROOT
HETATM    1  C1  UNL     1     -34.296   7.217   3.601  1.00 20.00     0.072 C 
HETATM    2  C2  UNL     1     -35.075   6.284   4.148  1.00 20.00     0.189 C 
HETATM    3  F4  UNL     1     -34.768   4.976   4.073  1.00 20.00    -0.220 F 
ENDROOT
BRANCH   1   4
HETATM    4  C3  UNL     1     -33.034   6.931   2.863  1.00 20.00     0.378 C 
HETATM    5  F5  UNL     1     -33.214   6.050   1.842  1.00 20.00    -0.210 F 
HETATM    6  F6  UNL     1     -32.538   8.066   2.302  1.00 20.00    -0.210 F 
ENDBRANCH   1   4
TORSDOF 1
ENDMDL
MODEL 7
REMARK VINA RESULT:      -2.8      1.356      1.804
REMARK  1 active torsions:
REMARK  status: ('A' for Active; 'I' for Inactive)
REMARK    1  A    between atoms: C1_1  and  C3_3 
ROOT
HETATM    1  C1  UNL     1     -32.884   7.520   2.773  1.00 20.00     0.072 C 
HETATM    2  C2  UNL     1     -32.355   6.835   1.759  1.00 20.00     0.189 C 
HETATM    3  F4  UNL     1     -32.931   5.713   1.289  1.00 20.00    -0.220 F 
ENDROOT
BRANCH   1   4
HETATM    4  C3  UNL     1     -34.135   7.136   3.485  1.00 20.00     0.378 C 
HETATM    5  F5  UNL     1     -34.172   5.813   3.798  1.00 20.00    -0.210 F 
HETATM    6  F6  UNL     1     -34.243   7.808   4.662  1.00 20.00    -0.210 F 
ENDBRANCH   1   4
TORSDOF 1
ENDMDL
MODEL 8
REMARK VINA RESULT:      -2.8      3.158      4.263
REMARK  1 active torsions:
REMARK  status: ('A' for Active; 'I' for Inactive)
REMARK    1  A    between atoms: C1_1  and  C3_3 
ROOT
HETATM    1  C1  UNL     1     -31.845   8.802   0.543  1.00 20.00     0.072 C 
HETATM    2  C2  UNL     1     -32.363   9.953   0.117  1.00 20.00     0.189 C 
HETATM    3  F4  UNL     1     -33.355  10.571   0.786  1.00 20.00    -0.220 F 
ENDROOT
BRANCH   1   4
HETATM    4  C3  UNL     1     -32.289   8.083   1.771  1.00 20.00     0.378 C 
HETATM    5  F5  UNL     1     -32.260   6.732   1.624  1.00 20.00    -0.210 F 
HETATM    6  F6  UNL     1     -31.468   8.369   2.817  1.00 20.00    -0.210 F 
ENDBRANCH   1   4
TORSDOF 1
ENDMDL
MODEL 9
REMARK VINA RESULT:      -2.8      1.020      2.936
REMARK  1 active torsions:
REMARK  status: ('A' for Active; 'I' for Inactive)
REMARK    1  A    between atoms: C1_1  and  C3_3 
ROOT
HETATM    1  C1  UNL     1     -33.196   7.552   3.394  1.00 20.00     0.072 C 
HETATM    2  C2  UNL     1     -34.309   7.268   4.071  1.00 20.00     0.189 C 
HETATM    3  F4  UNL     1     -35.280   6.502   3.541  1.00 20.00    -0.220 F 
ENDROOT
BRANCH   1   4
HETATM    4  C3  UNL     1     -32.905   7.070   2.014  1.00 20.00     0.378 C 
HETATM    5  F5  UNL     1     -31.649   7.391   1.604  1.00 20.00    -0.210 F 
HETATM    6  F6  UNL     1     -32.991   5.715   1.951  1.00 20.00    -0.210 F 
ENDBRANCH   1   4
TORSDOF 1
ENDMDL
