MODEL 1
REMARK VINA RESULT:      -1.7      0.000      0.000
REMARK  1 active torsions:
REMARK  status: ('A' for Active; 'I' for Inactive)
REMARK    1  A    between atoms: CA_4  and  C_5 
ROOT
HETATM    1  C1  UNK A   1     -34.227   6.370   3.398  1.00 20.00     0.013 A 
HETATM    2  C2  UNK A   1     -35.331   6.194   4.387  1.00 20.00     0.066 C 
ATOM      3  N   VAL A   1     -33.658   7.516   3.169  1.00 20.00    -0.255 NA
ATOM      4  CA  VAL A   1     -32.717   7.239   2.213  1.00 20.00     0.096 A 
ATOM      5  CB  VAL A   1     -32.675   5.956   1.835  1.00 20.00    -0.047 A 
ATOM      6  CG1 VAL A   1     -31.816   5.256   0.845  1.00 20.00     0.046 C 
ATOM      7  CG2 VAL A   1     -33.711   5.198   2.604  1.00 20.00     0.090 A 
ENDROOT
BRANCH   4   8
ATOM      8  C   VAL A   1     -31.865   8.301   1.695  1.00 20.00     0.290 C 
ATOM      9  O   VAL A   1     -32.210   9.047   0.781  1.00 20.00    -0.300 OA
ENDBRANCH   4   8
TORSDOF 1
ENDMDL
MODEL 2
REMARK VINA RESULT:      -1.0      1.785      2.510
REMARK  1 active torsions:
REMARK  status: ('A' for Active; 'I' for Inactive)
REMARK    1  A    between atoms: CA_4  and  C_5 
ROOT
HETATM    1  C1  UNK A   1     -34.264   6.298   3.422  1.00 20.00     0.013 A 
HETATM    2  C2  UNK A   1     -35.364   6.030   4.394  1.00 20.00     0.066 C 
ATOM      3  N   VAL A   1     -33.765   5.382   2.647  1.00 20.00    -0.255 NA
ATOM      4  CA  VAL A   1     -32.800   6.037   1.930  1.00 20.00     0.096 A 
ATOM      5  CB  VAL A   1     -32.675   7.335   2.229  1.00 20.00    -0.047 A 
ATOM      6  CG1 VAL A   1     -31.765   8.379   1.690  1.00 20.00     0.046 C 
ATOM      7  CG2 VAL A   1     -33.668   7.677   3.295  1.00 20.00     0.090 A 
ENDROOT
BRANCH   4   8
ATOM      8  C   VAL A   1     -32.010   5.318   0.938  1.00 20.00     0.290 C 
ATOM      9  O   VAL A   1     -32.479   4.433   0.226  1.00 20.00    -0.300 OA
ENDBRANCH   4   8
TORSDOF 1
ENDMDL
MODEL 3
REMARK VINA RESULT:      -0.9      2.543      4.078
REMARK  1 active torsions:
REMARK  status: ('A' for Active; 'I' for Inactive)
REMARK    1  A    between atoms: CA_4  and  C_5 
ROOT
HETATM    1  C1  UNK A   1     -32.743   6.171   1.925  1.00 20.00     0.013 A 
HETATM    2  C2  UNK A   1     -31.925   5.719   0.761  1.00 20.00     0.066 C 
ATOM      3  N   VAL A   1     -33.742   5.486   2.396  1.00 20.00    -0.255 NA
ATOM      4  CA  VAL A   1     -34.205   6.242   3.440  1.00 20.00     0.096 A 
ATOM      5  CB  VAL A   1     -33.530   7.380   3.640  1.00 20.00    -0.047 A 
ATOM      6  CG1 VAL A   1     -33.709   8.458   4.646  1.00 20.00     0.046 C 
ATOM      7  CG2 VAL A   1     -32.439   7.473   2.620  1.00 20.00     0.090 A 
ENDROOT
BRANCH   4   8
ATOM      8  C   VAL A   1     -35.344   5.785   4.226  1.00 20.00     0.290 C 
ATOM      9  O   VAL A   1     -35.419   4.652   4.695  1.00 20.00    -0.300 OA
ENDBRANCH   4   8
TORSDOF 1
ENDMDL
MODEL 4
REMARK VINA RESULT:      -0.8      2.593      4.101
REMARK  1 active torsions:
REMARK  status: ('A' for Active; 'I' for Inactive)
REMARK    1  A    between atoms: CA_4  and  C_5 
ROOT
HETATM    1  C1  UNK A   1     -32.710   7.035   2.204  1.00 20.00     0.013 A 
HETATM    2  C2  UNK A   1     -31.821   7.942   1.421  1.00 20.00     0.066 C 
ATOM      3  N   VAL A   1     -32.570   5.743   2.213  1.00 20.00    -0.255 NA
ATOM      4  CA  VAL A   1     -33.570   5.303   3.040  1.00 20.00     0.096 A 
ATOM      5  CB  VAL A   1     -34.332   6.276   3.551  1.00 20.00    -0.047 A 
ATOM      6  CG1 VAL A   1     -35.497   6.223   4.473  1.00 20.00     0.046 C 
ATOM      7  CG2 VAL A   1     -33.835   7.591   3.038  1.00 20.00     0.090 A 
ENDROOT
BRANCH   4   8
ATOM      8  C   VAL A   1     -33.732   3.877   3.299  1.00 20.00     0.290 C 
ATOM      9  O   VAL A   1     -33.785   3.408   4.433  1.00 20.00    -0.300 OA
ENDBRANCH   4   8
TORSDOF 1
ENDMDL
MODEL 5
REMARK VINA RESULT:      -0.5      1.845      2.886
REMARK  1 active torsions:
REMARK  status: ('A' for Active; 'I' for Inactive)
REMARK    1  A    between atoms: CA_4  and  C_5 
ROOT
HETATM    1  C1  UNK A   1     -33.620   4.095   3.956  1.00 20.00     0.013 A 
HETATM    2  C2  UNK A   1     -33.420   2.738   4.544  1.00 20.00     0.066 C 
ATOM      3  N   VAL A   1     -32.878   4.568   3.000  1.00 20.00    -0.255 NA
ATOM      4  CA  VAL A   1     -33.391   5.816   2.763  1.00 20.00     0.096 A 
ATOM      5  CB  VAL A   1     -34.431   6.142   3.540  1.00 20.00    -0.047 A 
ATOM      6  CG1 VAL A   1     -35.256   7.376   3.600  1.00 20.00     0.046 C 
ATOM      7  CG2 VAL A   1     -34.718   4.997   4.459  1.00 20.00     0.090 A 
ENDROOT
BRANCH   4   8
ATOM      8  C   VAL A   1     -32.803   6.667   1.735  1.00 20.00     0.290 C 
ATOM      9  O   VAL A   1     -32.152   7.675   1.997  1.00 20.00    -0.300 OA
ENDBRANCH   4   8
TORSDOF 1
ENDMDL
MODEL 6
REMARK VINA RESULT:      -0.3      2.049      3.391
REMARK  1 active torsions:
REMARK  status: ('A' for Active; 'I' for Inactive)
REMARK    1  A    between atoms: CA_4  and  C_5 
ROOT
HETATM    1  C1  UNK A   1     -32.283   7.737   1.708  1.00 20.00     0.013 A 
HETATM    2  C2  UNK A   1     -31.500   8.707   0.887  1.00 20.00     0.066 C 
ATOM      3  N   VAL A   1     -33.116   8.106   2.635  1.00 20.00    -0.255 NA
ATOM      4  CA  VAL A   1     -33.609   6.929   3.131  1.00 20.00     0.096 A 
ATOM      5  CB  VAL A   1     -33.113   5.832   2.546  1.00 20.00    -0.047 A 
ATOM      6  CG1 VAL A   1     -33.382   4.390   2.785  1.00 20.00     0.046 C 
ATOM      7  CG2 VAL A   1     -32.138   6.252   1.493  1.00 20.00     0.090 A 
ENDROOT
BRANCH   4   8
ATOM      8  C   VAL A   1     -34.591   6.942   4.208  1.00 20.00     0.290 C 
ATOM      9  O   VAL A   1     -35.608   6.253   4.191  1.00 20.00    -0.300 OA
ENDBRANCH   4   8
TORSDOF 1
ENDMDL
MODEL 7
REMARK VINA RESULT:      -0.3      1.364      2.780
REMARK  1 active torsions:
REMARK  status: ('A' for Active; 'I' for Inactive)
REMARK    1  A    between atoms: CA_4  and  C_5 
ROOT
HETATM    1  C1  UNK A   1     -32.390   5.751   1.444  1.00 20.00     0.013 A 
HETATM    2  C2  UNK A   1     -32.001   4.489   0.750  1.00 20.00     0.066 C 
ATOM      3  N   VAL A   1     -32.002   6.926   1.048  1.00 20.00    -0.255 NA
ATOM      4  CA  VAL A   1     -32.572   7.790   1.945  1.00 20.00     0.096 A 
ATOM      5  CB  VAL A   1     -33.308   7.195   2.892  1.00 20.00    -0.047 A 
ATOM      6  CG1 VAL A   1     -34.078   7.762   4.029  1.00 20.00     0.046 C 
ATOM      7  CG2 VAL A   1     -33.273   5.717   2.666  1.00 20.00     0.090 A 
ENDROOT
BRANCH   4   8
ATOM      8  C   VAL A   1     -32.356   9.226   1.819  1.00 20.00     0.290 C 
ATOM      9  O   VAL A   1     -32.389   9.813   0.740  1.00 20.00    -0.300 OA
ENDBRANCH   4   8
TORSDOF 1
ENDMDL
MODEL 8
REMARK VINA RESULT:      -0.2      1.968      3.323
REMARK  1 active torsions:
REMARK  status: ('A' for Active; 'I' for Inactive)
REMARK    1  A    between atoms: CA_4  and  C_5 
ROOT
HETATM    1  C1  UNK A   1     -32.311   7.503   1.644  1.00 20.00     0.013 A 
HETATM    2  C2  UNK A   1     -31.492   8.122   0.561  1.00 20.00     0.066 C 
ATOM      3  N   VAL A   1     -32.790   8.181   2.644  1.00 20.00    -0.255 NA
ATOM      4  CA  VAL A   1     -33.464   7.250   3.389  1.00 20.00     0.096 A 
ATOM      5  CB  VAL A   1     -33.424   6.009   2.890  1.00 20.00    -0.047 A 
ATOM      6  CG1 VAL A   1     -34.015   4.738   3.383  1.00 20.00     0.046 C 
ATOM      7  CG2 VAL A   1     -32.624   6.029   1.626  1.00 20.00     0.090 A 
ENDROOT
BRANCH   4   8
ATOM      8  C   VAL A   1     -34.147   7.647   4.614  1.00 20.00     0.290 C 
ATOM      9  O   VAL A   1     -33.608   8.321   5.489  1.00 20.00    -0.300 OA
ENDBRANCH   4   8
TORSDOF 1
ENDMDL
MODEL 9
REMARK VINA RESULT:      -0.2      2.179      3.595
REMARK  1 active torsions:
REMARK  status: ('A' for Active; 'I' for Inactive)
REMARK    1  A    between atoms: CA_4  and  C_5 
ROOT
HETATM    1  C1  UNK A   1     -32.526   5.637   1.399  1.00 20.00     0.013 A 
HETATM    2  C2  UNK A   1     -32.138   4.572   0.429  1.00 20.00     0.066 C 
ATOM      3  N   VAL A   1     -33.521   5.514   2.224  1.00 20.00    -0.255 NA
ATOM      4  CA  VAL A   1     -33.530   6.695   2.919  1.00 20.00     0.096 A 
ATOM      5  CB  VAL A   1     -32.571   7.555   2.558  1.00 20.00    -0.047 A 
ATOM      6  CG1 VAL A   1     -32.243   8.916   3.054  1.00 20.00     0.046 C 
ATOM      7  CG2 VAL A   1     -31.760   6.935   1.465  1.00 20.00     0.090 A 
ENDROOT
BRANCH   4   8
ATOM      8  C   VAL A   1     -34.529   6.928   3.955  1.00 20.00     0.290 C 
ATOM      9  O   VAL A   1     -35.481   6.174   4.145  1.00 20.00    -0.300 OA
ENDBRANCH   4   8
TORSDOF 1
ENDMDL
