MODEL 1
REMARK VINA RESULT:       0.6      0.000      0.000
REMARK  1 active torsions:
REMARK  status: ('A' for Active; 'I' for Inactive)
REMARK    1  A    between atoms: C4_4  and  C10_10 
ROOT
HETATM    1  C1  UNL     1     -32.381   7.057   2.443  1.00 20.00     0.016 C 
HETATM    2  C2  UNL     1     -33.775   7.342   2.988  1.00 20.00     0.017 C 
HETATM    3  C3  UNL     1     -32.701   6.018   1.370  1.00 20.00     0.122 C 
HETATM    4  C4  UNL     1     -34.412   5.947   2.974  1.00 20.00     0.129 C 
HETATM    5  C5  UNL     1     -31.657   8.281   1.903  1.00 20.00     0.013 C 
HETATM    6  C6  UNL     1     -33.796   8.069   4.324  1.00 20.00     0.013 C 
HETATM    7  C7  UNL     1     -31.539   5.097   1.043  1.00 20.00     0.040 C 
HETATM    8  O11 UNL     1     -33.794   5.236   1.882  1.00 20.00    -0.380 OA
ENDROOT
BRANCH   4   9
HETATM    9  C10 UNL     1     -34.216   5.111   4.233  1.00 20.00     0.007 C 
HETATM   10  C8  UNL     1     -35.533   4.962   4.993  1.00 20.00     0.012 C 
HETATM   11  C9  UNL     1     -33.642   3.738   3.885  1.00 20.00     0.012 C 
ENDBRANCH   4   9
TORSDOF 1
ENDMDL
MODEL 2
REMARK VINA RESULT:       1.0      1.301      4.315
REMARK  1 active torsions:
REMARK  status: ('A' for Active; 'I' for Inactive)
REMARK    1  A    between atoms: C4_4  and  C10_10 
ROOT
HETATM    1  C1  UNL     1     -33.381   5.663   3.276  1.00 20.00     0.016 C 
HETATM    2  C2  UNL     1     -33.216   5.753   1.763  1.00 20.00     0.017 C 
HETATM    3  C3  UNL     1     -34.308   6.849   3.533  1.00 20.00     0.122 C 
HETATM    4  C4  UNL     1     -33.137   7.267   1.543  1.00 20.00     0.129 C 
HETATM    5  C5  UNL     1     -33.944   4.337   3.768  1.00 20.00     0.013 C 
HETATM    6  C6  UNL     1     -32.060   4.938   1.204  1.00 20.00     0.013 C 
HETATM    7  C7  UNL     1     -34.208   7.412   4.940  1.00 20.00     0.040 C 
HETATM    8  O11 UNL     1     -33.929   7.866   2.589  1.00 20.00    -0.380 OA
ENDROOT
BRANCH   4   9
HETATM    9  C10 UNL     1     -31.745   7.881   1.616  1.00 20.00     0.007 C 
HETATM   10  C8  UNL     1     -31.509   8.829   0.440  1.00 20.00     0.012 C 
HETATM   11  C9  UNL     1     -31.547   8.617   2.941  1.00 20.00     0.012 C 
ENDBRANCH   4   9
TORSDOF 1
ENDMDL
MODEL 3
REMARK VINA RESULT:       1.1      1.621      3.906
REMARK  1 active torsions:
REMARK  status: ('A' for Active; 'I' for Inactive)
REMARK    1  A    between atoms: C4_4  and  C10_10 
ROOT
HETATM    1  C1  UNL     1     -33.390   6.219   2.435  1.00 20.00     0.016 C 
HETATM    2  C2  UNL     1     -32.980   7.528   3.100  1.00 20.00     0.017 C 
HETATM    3  C3  UNL     1     -32.082   5.825   1.752  1.00 20.00     0.122 C 
HETATM    4  C4  UNL     1     -32.073   8.154   2.035  1.00 20.00     0.129 C 
HETATM    5  C5  UNL     1     -33.912   5.163   3.398  1.00 20.00     0.013 C 
HETATM    6  C6  UNL     1     -34.143   8.387   3.574  1.00 20.00     0.013 C 
HETATM    7  C7  UNL     1     -32.268   4.921   0.546  1.00 20.00     0.040 C 
HETATM    8  O11 UNL     1     -31.463   7.053   1.332  1.00 20.00    -0.380 OA
ENDROOT
BRANCH   4   9
HETATM    9  C10 UNL     1     -32.766   9.030   1.000  1.00 20.00     0.007 C 
HETATM   10  C8  UNL     1     -32.672  10.505   1.390  1.00 20.00     0.012 C 
HETATM   11  C9  UNL     1     -32.163   8.806  -0.387  1.00 20.00     0.012 C 
ENDBRANCH   4   9
TORSDOF 1
ENDMDL
MODEL 4
REMARK VINA RESULT:       2.6      1.249      3.349
REMARK  1 active torsions:
REMARK  status: ('A' for Active; 'I' for Inactive)
REMARK    1  A    between atoms: C4_4  and  C10_10 
ROOT
HETATM    1  C1  UNL     1     -32.715   5.542   2.173  1.00 20.00     0.016 C 
HETATM    2  C2  UNL     1     -33.017   7.015   1.925  1.00 20.00     0.017 C 
HETATM    3  C3  UNL     1     -33.969   5.118   2.934  1.00 20.00     0.122 C 
HETATM    4  C4  UNL     1     -33.688   7.427   3.240  1.00 20.00     0.129 C 
HETATM    5  C5  UNL     1     -32.470   4.731   0.909  1.00 20.00     0.013 C 
HETATM    6  C6  UNL     1     -31.815   7.845   1.502  1.00 20.00     0.013 C 
HETATM    7  C7  UNL     1     -33.762   3.913   3.835  1.00 20.00     0.040 C 
HETATM    8  O11 UNL     1     -34.353   6.248   3.737  1.00 20.00    -0.380 OA
ENDROOT
BRANCH   4   9
HETATM    9  C10 UNL     1     -32.755   7.922   4.338  1.00 20.00     0.007 C 
HETATM   10  C8  UNL     1     -31.832   9.019   3.810  1.00 20.00     0.012 C 
HETATM   11  C9  UNL     1     -33.555   8.430   5.538  1.00 20.00     0.012 C 
ENDBRANCH   4   9
TORSDOF 1
ENDMDL
MODEL 5
REMARK VINA RESULT:       2.7      1.385      3.107
REMARK  1 active torsions:
REMARK  status: ('A' for Active; 'I' for Inactive)
REMARK    1  A    between atoms: C4_4  and  C10_10 
ROOT
HETATM    1  C1  UNL     1     -33.025   7.470   3.829  1.00 20.00     0.016 C 
HETATM    2  C2  UNL     1     -34.205   6.829   3.109  1.00 20.00     0.017 C 
HETATM    3  C3  UNL     1     -32.448   8.340   2.714  1.00 20.00     0.122 C 
HETATM    4  C4  UNL     1     -33.623   6.572   1.715  1.00 20.00     0.129 C 
HETATM    5  C5  UNL     1     -33.403   8.257   5.076  1.00 20.00     0.013 C 
HETATM    6  C6  UNL     1     -34.797   5.620   3.817  1.00 20.00     0.013 C 
HETATM    7  C7  UNL     1     -30.970   8.648   2.880  1.00 20.00     0.040 C 
HETATM    8  O11 UNL     1     -32.644   7.607   1.492  1.00 20.00    -0.380 OA
ENDROOT
BRANCH   4   9
HETATM    9  C10 UNL     1     -32.925   5.233   1.519  1.00 20.00     0.007 C 
HETATM   10  C8  UNL     1     -33.482   4.506   0.295  1.00 20.00     0.012 C 
HETATM   11  C9  UNL     1     -31.415   5.426   1.383  1.00 20.00     0.012 C 
ENDBRANCH   4   9
TORSDOF 1
ENDMDL
MODEL 6
REMARK VINA RESULT:       2.8      1.491      2.924
REMARK  1 active torsions:
REMARK  status: ('A' for Active; 'I' for Inactive)
REMARK    1  A    between atoms: C4_4  and  C10_10 
ROOT
HETATM    1  C1  UNL     1     -32.853   6.204   1.463  1.00 20.00     0.016 C 
HETATM    2  C2  UNL     1     -32.840   5.730   2.911  1.00 20.00     0.017 C 
HETATM    3  C3  UNL     1     -31.929   7.417   1.552  1.00 20.00     0.122 C 
HETATM    4  C4  UNL     1     -32.851   7.057   3.679  1.00 20.00     0.129 C 
HETATM    5  C5  UNL     1     -32.387   5.161   0.457  1.00 20.00     0.013 C 
HETATM    6  C6  UNL     1     -33.945   4.747   3.265  1.00 20.00     0.013 C 
HETATM    7  C7  UNL     1     -32.175   8.455   0.471  1.00 20.00     0.040 C 
HETATM    8  O11 UNL     1     -32.169   8.011   2.840  1.00 20.00    -0.380 OA
ENDROOT
BRANCH   4   9
HETATM    9  C10 UNL     1     -34.225   7.630   4.000  1.00 20.00     0.007 C 
HETATM   10  C8  UNL     1     -35.266   6.517   4.101  1.00 20.00     0.012 C 
HETATM   11  C9  UNL     1     -34.183   8.441   5.296  1.00 20.00     0.012 C 
ENDBRANCH   4   9
TORSDOF 1
ENDMDL
MODEL 7
REMARK VINA RESULT:       3.0      1.740      3.295
REMARK  1 active torsions:
REMARK  status: ('A' for Active; 'I' for Inactive)
REMARK    1  A    between atoms: C4_4  and  C10_10 
ROOT
HETATM    1  C1  UNL     1     -32.188   8.074   0.761  1.00 20.00     0.016 C 
HETATM    2  C2  UNL     1     -31.813   6.875   1.624  1.00 20.00     0.017 C 
HETATM    3  C3  UNL     1     -32.208   9.184   1.810  1.00 20.00     0.122 C 
HETATM    4  C4  UNL     1     -32.604   7.150   2.908  1.00 20.00     0.129 C 
HETATM    5  C5  UNL     1     -31.227   8.344  -0.388  1.00 20.00     0.013 C 
HETATM    6  C6  UNL     1     -32.057   5.524   0.969  1.00 20.00     0.013 C 
HETATM    7  C7  UNL     1     -33.094  10.361   1.441  1.00 20.00     0.040 C 
HETATM    8  O11 UNL     1     -32.698   8.584   3.021  1.00 20.00    -0.380 OA
ENDROOT
BRANCH   4   9
HETATM    9  C10 UNL     1     -34.021   6.593   2.952  1.00 20.00     0.007 C 
HETATM   10  C8  UNL     1     -34.028   5.175   3.521  1.00 20.00     0.012 C 
HETATM   11  C9  UNL     1     -34.934   7.503   3.774  1.00 20.00     0.012 C 
ENDBRANCH   4   9
TORSDOF 1
ENDMDL
MODEL 8
REMARK VINA RESULT:       3.2      1.103      3.429
REMARK  1 active torsions:
REMARK  status: ('A' for Active; 'I' for Inactive)
REMARK    1  A    between atoms: C4_4  and  C10_10 
ROOT
HETATM    1  C1  UNL     1     -33.793   7.357   3.064  1.00 20.00     0.016 C 
HETATM    2  C2  UNL     1     -32.345   7.302   2.591  1.00 20.00     0.017 C 
HETATM    3  C3  UNL     1     -33.915   6.005   3.764  1.00 20.00     0.122 C 
HETATM    4  C4  UNL     1     -32.206   5.836   2.165  1.00 20.00     0.129 C 
HETATM    5  C5  UNL     1     -34.113   8.538   3.969  1.00 20.00     0.013 C 
HETATM    6  C6  UNL     1     -31.985   8.338   1.537  1.00 20.00     0.013 C 
HETATM    7  C7  UNL     1     -35.337   5.475   3.831  1.00 20.00     0.040 C 
HETATM    8  O11 UNL     1     -33.104   5.087   3.009  1.00 20.00    -0.380 OA
ENDROOT
BRANCH   4   9
HETATM    9  C10 UNL     1     -32.570   5.524   0.719  1.00 20.00     0.007 C 
HETATM   10  C8  UNL     1     -31.719   4.373   0.184  1.00 20.00     0.012 C 
HETATM   11  C9  UNL     1     -34.057   5.190   0.597  1.00 20.00     0.012 C 
ENDBRANCH   4   9
TORSDOF 1
ENDMDL
