MODEL 1
REMARK VINA RESULT:      -0.4      0.000      0.000
REMARK  0 active torsions:
REMARK  status: ('A' for Active; 'I' for Inactive)
ROOT
HETATM    1  C1  UNL     1     -33.231   5.982   1.836  1.00 20.00     0.017 C 
HETATM    2  C2  UNL     1     -32.611   7.135   2.619  1.00 20.00     0.027 C 
HETATM    3  C3  UNL     1     -34.147   5.343   2.883  1.00 20.00     0.123 C 
HETATM    4  C4  UNL     1     -33.794   7.582   3.466  1.00 20.00     0.197 C 
HETATM    5  C5  UNL     1     -32.225   5.051   1.179  1.00 20.00     0.013 C 
HETATM    6  C6  UNL     1     -32.044   8.244   1.743  1.00 20.00     0.014 C 
HETATM    7  C7  UNL     1     -33.498   4.313   3.800  1.00 20.00     0.040 C 
HETATM    8  O8  UNL     1     -34.615   6.430   3.704  1.00 20.00    -0.369 OA
HETATM    9 BR9  UNL     1     -33.207   8.330   5.160  1.00 20.00    -0.061 Br
ENDROOT
TORSDOF 0
ENDMDL
MODEL 2
REMARK VINA RESULT:      -0.2      2.096      2.865
REMARK  0 active torsions:
REMARK  status: ('A' for Active; 'I' for Inactive)
ROOT
HETATM    1  C1  UNL     1     -33.168   5.998   3.074  1.00 20.00     0.017 C 
HETATM    2  C2  UNL     1     -33.421   7.489   2.878  1.00 20.00     0.027 C 
HETATM    3  C3  UNL     1     -32.495   5.614   1.754  1.00 20.00     0.123 C 
HETATM    4  C4  UNL     1     -32.167   7.902   2.122  1.00 20.00     0.197 C 
HETATM    5  C5  UNL     1     -34.401   5.191   3.449  1.00 20.00     0.013 C 
HETATM    6  C6  UNL     1     -33.621   8.259   4.177  1.00 20.00     0.014 C 
HETATM    7  C7  UNL     1     -33.432   5.259   0.605  1.00 20.00     0.040 C 
HETATM    8  O8  UNL     1     -31.731   6.769   1.357  1.00 20.00    -0.369 OA
HETATM    9 BR9  UNL     1     -32.519   9.397   0.933  1.00 20.00    -0.061 Br
ENDROOT
TORSDOF 0
ENDMDL
MODEL 3
REMARK VINA RESULT:       0.1      1.798      2.757
REMARK  0 active torsions:
REMARK  status: ('A' for Active; 'I' for Inactive)
ROOT
HETATM    1  C1  UNL     1     -32.933   7.322   2.063  1.00 20.00     0.017 C 
HETATM    2  C2  UNL     1     -33.296   6.825   3.459  1.00 20.00     0.027 C 
HETATM    3  C3  UNL     1     -32.815   6.012   1.280  1.00 20.00     0.123 C 
HETATM    4  C4  UNL     1     -34.212   5.657   3.124  1.00 20.00     0.197 C 
HETATM    5  C5  UNL     1     -31.719   8.236   2.013  1.00 20.00     0.013 C 
HETATM    6  C6  UNL     1     -33.959   7.877   4.338  1.00 20.00     0.014 C 
HETATM    7  C7  UNL     1     -31.459   5.319   1.337  1.00 20.00     0.040 C 
HETATM    8  O8  UNL     1     -33.788   5.124   1.861  1.00 20.00    -0.369 OA
HETATM    9 BR9  UNL     1     -34.119   4.272   4.483  1.00 20.00    -0.061 Br
ENDROOT
TORSDOF 0
ENDMDL
MODEL 4
REMARK VINA RESULT:       0.4      2.256      3.041
REMARK  0 active torsions:
REMARK  status: ('A' for Active; 'I' for Inactive)
ROOT
HETATM    1  C1  UNL     1     -33.247   7.191   3.729  1.00 20.00     0.017 C 
HETATM    2  C2  UNL     1     -33.081   7.188   2.213  1.00 20.00     0.027 C 
HETATM    3  C3  UNL     1     -34.058   5.914   3.962  1.00 20.00     0.123 C 
HETATM    4  C4  UNL     1     -32.896   5.702   1.942  1.00 20.00     0.197 C 
HETATM    5  C5  UNL     1     -33.844   8.468   4.298  1.00 20.00     0.013 C 
HETATM    6  C6  UNL     1     -31.921   8.040   1.716  1.00 20.00     0.014 C 
HETATM    7  C7  UNL     1     -35.572   6.052   3.840  1.00 20.00     0.040 C 
HETATM    8  O8  UNL     1     -33.619   4.985   2.952  1.00 20.00    -0.369 OA
HETATM    9 BR9  UNL     1     -33.569   5.215   0.186  1.00 20.00    -0.061 Br
ENDROOT
TORSDOF 0
ENDMDL
MODEL 5
REMARK VINA RESULT:       0.7      1.755      2.793
REMARK  0 active torsions:
REMARK  status: ('A' for Active; 'I' for Inactive)
ROOT
HETATM    1  C1  UNL     1     -34.226   6.024   3.183  1.00 20.00     0.017 C 
HETATM    2  C2  UNL     1     -32.929   6.135   2.388  1.00 20.00     0.027 C 
HETATM    3  C3  UNL     1     -34.344   7.424   3.793  1.00 20.00     0.123 C 
HETATM    4  C4  UNL     1     -33.029   7.560   1.862  1.00 20.00     0.197 C 
HETATM    5  C5  UNL     1     -34.266   4.867   4.168  1.00 20.00     0.013 C 
HETATM    6  C6  UNL     1     -32.789   5.095   1.285  1.00 20.00     0.014 C 
HETATM    7  C7  UNL     1     -33.607   7.644   5.109  1.00 20.00     0.040 C 
HETATM    8  O8  UNL     1     -33.780   8.321   2.818  1.00 20.00    -0.369 OA
HETATM    9 BR9  UNL     1     -31.271   8.353   1.630  1.00 20.00    -0.061 Br
ENDROOT
TORSDOF 0
ENDMDL
MODEL 6
REMARK VINA RESULT:       0.8      2.327      3.811
REMARK  0 active torsions:
REMARK  status: ('A' for Active; 'I' for Inactive)
ROOT
HETATM    1  C1  UNL     1     -33.803   7.300   3.304  1.00 20.00     0.017 C 
HETATM    2  C2  UNL     1     -33.303   5.867   3.155  1.00 20.00     0.027 C 
HETATM    3  C3  UNL     1     -32.926   8.049   2.297  1.00 20.00     0.123 C 
HETATM    4  C4  UNL     1     -33.047   5.801   1.656  1.00 20.00     0.197 C 
HETATM    5  C5  UNL     1     -33.778   7.833   4.728  1.00 20.00     0.013 C 
HETATM    6  C6  UNL     1     -34.288   4.814   3.644  1.00 20.00     0.014 C 
HETATM    7  C7  UNL     1     -31.568   8.515   2.810  1.00 20.00     0.040 C 
HETATM    8  O8  UNL     1     -32.694   7.121   1.220  1.00 20.00    -0.369 OA
HETATM    9 BR9  UNL     1     -31.607   4.566   1.238  1.00 20.00    -0.061 Br
ENDROOT
TORSDOF 0
ENDMDL
MODEL 7
REMARK VINA RESULT:       1.3      1.417      2.848
REMARK  0 active torsions:
REMARK  status: ('A' for Active; 'I' for Inactive)
ROOT
HETATM    1  C1  UNL     1     -32.549   6.208   1.764  1.00 20.00     0.017 C 
HETATM    2  C2  UNL     1     -33.602   6.396   2.851  1.00 20.00     0.027 C 
HETATM    3  C3  UNL     1     -31.902   7.594   1.704  1.00 20.00     0.123 C 
HETATM    4  C4  UNL     1     -32.863   7.308   3.819  1.00 20.00     0.197 C 
HETATM    5  C5  UNL     1     -33.088   5.671   0.448  1.00 20.00     0.013 C 
HETATM    6  C6  UNL     1     -34.073   5.096   3.489  1.00 20.00     0.014 C 
HETATM    7  C7  UNL     1     -32.588   8.613   0.801  1.00 20.00     0.040 C 
HETATM    8  O8  UNL     1     -31.946   8.101   3.052  1.00 20.00    -0.369 OA
HETATM    9 BR9  UNL     1     -34.091   8.471   4.774  1.00 20.00    -0.061 Br
ENDROOT
TORSDOF 0
ENDMDL
MODEL 8
REMARK VINA RESULT:       1.7      1.762      3.184
REMARK  0 active torsions:
REMARK  status: ('A' for Active; 'I' for Inactive)
ROOT
HETATM    1  C1  UNL     1     -31.756   7.569   1.611  1.00 20.00     0.017 C 
HETATM    2  C2  UNL     1     -32.923   6.599   1.771  1.00 20.00     0.027 C 
HETATM    3  C3  UNL     1     -32.171   8.721   2.529  1.00 20.00     0.123 C 
HETATM    4  C4  UNL     1     -33.241   6.768   3.250  1.00 20.00     0.197 C 
HETATM    5  C5  UNL     1     -31.443   7.948   0.172  1.00 20.00     0.013 C 
HETATM    6  C6  UNL     1     -32.592   5.164   1.386  1.00 20.00     0.014 C 
HETATM    7  C7  UNL     1     -33.077   9.778   1.908  1.00 20.00     0.040 C 
HETATM    8  O8  UNL     1     -32.891   8.110   3.617  1.00 20.00    -0.369 OA
HETATM    9 BR9  UNL     1     -35.127   6.464   3.606  1.00 20.00    -0.061 Br
ENDROOT
TORSDOF 0
ENDMDL
MODEL 9
REMARK VINA RESULT:       2.3      2.275      3.351
REMARK  0 active torsions:
REMARK  status: ('A' for Active; 'I' for Inactive)
ROOT
HETATM    1  C1  UNL     1     -33.858   6.640   2.442  1.00 20.00     0.017 C 
HETATM    2  C2  UNL     1     -34.023   5.852   3.738  1.00 20.00     0.027 C 
HETATM    3  C3  UNL     1     -32.879   5.762   1.659  1.00 20.00     0.123 C 
HETATM    4  C4  UNL     1     -34.003   4.423   3.215  1.00 20.00     0.197 C 
HETATM    5  C5  UNL     1     -33.441   8.090   2.633  1.00 20.00     0.013 C 
HETATM    6  C6  UNL     1     -35.290   6.192   4.512  1.00 20.00     0.014 C 
HETATM    7  C7  UNL     1     -31.399   5.997   1.939  1.00 20.00     0.040 C 
HETATM    8  O8  UNL     1     -33.188   4.406   2.034  1.00 20.00    -0.369 OA
HETATM    9 BR9  UNL     1     -33.271   3.198   4.533  1.00 20.00    -0.061 Br
ENDROOT
TORSDOF 0
ENDMDL
