MODEL 1
REMARK VINA RESULT:      -0.4      0.000      0.000
REMARK  1 active torsions:
REMARK  status: ('A' for Active; 'I' for Inactive)
REMARK    1  A    between atoms: C7_7  and  N8_8 
ROOT
HETATM    1  C1  UNL     1     -33.821   7.667   3.858  1.00 20.00     0.065 C 
HETATM    2  C2  UNL     1     -32.397   8.071   3.455  1.00 20.00     0.275 C 
HETATM    3  C3  UNL     1     -32.219   6.507   1.608  1.00 20.00     0.306 C 
HETATM    4  C4  UNL     1     -34.263   6.390   3.221  1.00 20.00     0.154 A 
HETATM    5  C5  UNL     1     -33.479   5.840   2.063  1.00 20.00     0.179 A 
HETATM    6  N8  UNL     1     -32.108   7.914   2.022  1.00 20.00     0.090 N 
HETATM    7  O9  UNL     1     -33.384   5.277   3.387  1.00 20.00    -0.374 OA
ENDROOT
BRANCH   6   8
HETATM    8  C7  UNL     1     -32.914   8.800   1.185  1.00 20.00     0.268 C 
HETATM    9  C6  UNL     1     -32.051   9.659   0.325  1.00 20.00     0.037 C 
ENDBRANCH   6   8
TORSDOF 1
ENDMDL
MODEL 2
REMARK VINA RESULT:      -0.2      2.015      3.590
REMARK  1 active torsions:
REMARK  status: ('A' for Active; 'I' for Inactive)
REMARK    1  A    between atoms: C7_7  and  N8_8 
ROOT
HETATM    1  C1  UNL     1     -33.422   7.841   3.855  1.00 20.00     0.065 C 
HETATM    2  C2  UNL     1     -34.428   6.812   3.327  1.00 20.00     0.275 C 
HETATM    3  C3  UNL     1     -32.998   5.964   1.559  1.00 20.00     0.306 C 
HETATM    4  C4  UNL     1     -32.281   8.070   2.918  1.00 20.00     0.154 A 
HETATM    5  C5  UNL     1     -32.049   7.097   1.796  1.00 20.00     0.179 A 
HETATM    6  N8  UNL     1     -33.813   5.615   2.732  1.00 20.00     0.090 N 
HETATM    7  O9  UNL     1     -32.637   8.394   1.574  1.00 20.00    -0.374 OA
ENDROOT
BRANCH   6   8
HETATM    8  C7  UNL     1     -33.065   4.824   3.706  1.00 20.00     0.268 C 
HETATM    9  C6  UNL     1     -33.904   3.723   4.262  1.00 20.00     0.037 C 
ENDBRANCH   6   8
TORSDOF 1
ENDMDL
MODEL 3
REMARK VINA RESULT:       0.9      1.831      3.543
REMARK  1 active torsions:
REMARK  status: ('A' for Active; 'I' for Inactive)
REMARK    1  A    between atoms: C7_7  and  N8_8 
ROOT
HETATM    1  C1  UNL     1     -32.900   5.802   1.461  1.00 20.00     0.065 C 
HETATM    2  C2  UNL     1     -32.862   5.588   2.979  1.00 20.00     0.275 C 
HETATM    3  C3  UNL     1     -32.637   7.937   3.547  1.00 20.00     0.306 C 
HETATM    4  C4  UNL     1     -32.471   7.175   1.058  1.00 20.00     0.154 A 
HETATM    5  C5  UNL     1     -32.386   8.251   2.105  1.00 20.00     0.179 A 
HETATM    6  N8  UNL     1     -33.412   6.706   3.760  1.00 20.00     0.090 N 
HETATM    7  O9  UNL     1     -31.211   7.608   1.573  1.00 20.00    -0.374 OA
ENDROOT
BRANCH   6   8
HETATM    8  C7  UNL     1     -34.840   6.907   3.526  1.00 20.00     0.268 C 
HETATM    9  C6  UNL     1     -35.649   5.842   4.185  1.00 20.00     0.037 C 
ENDBRANCH   6   8
TORSDOF 1
ENDMDL
MODEL 4
REMARK VINA RESULT:       1.6      1.393      2.916
REMARK  1 active torsions:
REMARK  status: ('A' for Active; 'I' for Inactive)
REMARK    1  A    between atoms: C7_7  and  N8_8 
ROOT
HETATM    1  C1  UNL     1     -31.569   7.346   1.441  1.00 20.00     0.065 C 
HETATM    2  C2  UNL     1     -32.729   8.279   1.808  1.00 20.00     0.275 C 
HETATM    3  C3  UNL     1     -34.057   6.582   2.926  1.00 20.00     0.306 C 
HETATM    4  C4  UNL     1     -31.912   5.902   1.610  1.00 20.00     0.154 A 
HETATM    5  C5  UNL     1     -33.137   5.527   2.395  1.00 20.00     0.179 A 
HETATM    6  N8  UNL     1     -33.434   7.909   3.045  1.00 20.00     0.090 N 
HETATM    7  O9  UNL     1     -33.104   5.465   0.956  1.00 20.00    -0.374 OA
ENDROOT
BRANCH   6   8
HETATM    8  C7  UNL     1     -32.585   8.013   4.230  1.00 20.00     0.268 C 
HETATM    9  C6  UNL     1     -33.397   8.275   5.452  1.00 20.00     0.037 C 
ENDBRANCH   6   8
TORSDOF 1
ENDMDL
MODEL 5
REMARK VINA RESULT:       1.7      1.616      2.676
REMARK  1 active torsions:
REMARK  status: ('A' for Active; 'I' for Inactive)
REMARK    1  A    between atoms: C7_7  and  N8_8 
ROOT
HETATM    1  C1  UNL     1     -33.171   4.533   3.211  1.00 20.00     0.065 C 
HETATM    2  C2  UNL     1     -33.593   5.464   2.067  1.00 20.00     0.275 C 
HETATM    3  C3  UNL     1     -34.992   6.903   3.432  1.00 20.00     0.306 C 
HETATM    4  C4  UNL     1     -34.006   4.708   4.438  1.00 20.00     0.154 A 
HETATM    5  C5  UNL     1     -34.881   5.924   4.559  1.00 20.00     0.179 A 
HETATM    6  N8  UNL     1     -33.869   6.847   2.485  1.00 20.00     0.090 N 
HETATM    7  O9  UNL     1     -35.418   4.623   4.245  1.00 20.00    -0.374 OA
ENDROOT
BRANCH   6   8
HETATM    8  C7  UNL     1     -32.682   7.528   2.998  1.00 20.00     0.268 C 
HETATM    9  C6  UNL     1     -31.820   8.017   1.884  1.00 20.00     0.037 C 
ENDBRANCH   6   8
TORSDOF 1
ENDMDL
MODEL 6
REMARK VINA RESULT:       1.9      1.693      2.911
REMARK  1 active torsions:
REMARK  status: ('A' for Active; 'I' for Inactive)
REMARK    1  A    between atoms: C7_7  and  N8_8 
ROOT
HETATM    1  C1  UNL     1     -32.366   8.056   1.921  1.00 20.00     0.065 C 
HETATM    2  C2  UNL     1     -31.747   6.660   1.779  1.00 20.00     0.275 C 
HETATM    3  C3  UNL     1     -33.529   5.488   2.936  1.00 20.00     0.306 C 
HETATM    4  C4  UNL     1     -33.486   8.095   2.908  1.00 20.00     0.154 A 
HETATM    5  C5  UNL     1     -34.094   6.802   3.377  1.00 20.00     0.179 A 
HETATM    6  N8  UNL     1     -32.729   5.568   1.706  1.00 20.00     0.090 N 
HETATM    7  O9  UNL     1     -33.192   7.567   4.203  1.00 20.00    -0.374 OA
ENDROOT
BRANCH   6   8
HETATM    8  C7  UNL     1     -33.565   5.643   0.509  1.00 20.00     0.268 C 
HETATM    9  C6  UNL     1     -33.608   4.332  -0.199  1.00 20.00     0.037 C 
ENDBRANCH   6   8
TORSDOF 1
ENDMDL
MODEL 7
REMARK VINA RESULT:       2.1      2.018      2.477
REMARK  1 active torsions:
REMARK  status: ('A' for Active; 'I' for Inactive)
REMARK    1  A    between atoms: C7_7  and  N8_8 
ROOT
HETATM    1  C1  UNL     1     -34.812   7.578   3.669  1.00 20.00     0.065 C 
HETATM    2  C2  UNL     1     -33.301   7.341   3.783  1.00 20.00     0.275 C 
HETATM    3  C3  UNL     1     -33.422   4.925   3.582  1.00 20.00     0.306 C 
HETATM    4  C4  UNL     1     -35.609   6.325   3.825  1.00 20.00     0.154 A 
HETATM    5  C5  UNL     1     -34.910   4.997   3.734  1.00 20.00     0.179 A 
HETATM    6  N8  UNL     1     -32.819   6.158   3.055  1.00 20.00     0.090 N 
HETATM    7  O9  UNL     1     -35.332   5.554   4.995  1.00 20.00    -0.374 OA
ENDROOT
BRANCH   6   8
HETATM    8  C7  UNL     1     -32.989   6.279   1.609  1.00 20.00     0.268 C 
HETATM    9  C6  UNL     1     -32.153   5.280   0.883  1.00 20.00     0.037 C 
ENDBRANCH   6   8
TORSDOF 1
ENDMDL
MODEL 8
REMARK VINA RESULT:       2.2      1.612      2.858
REMARK  1 active torsions:
REMARK  status: ('A' for Active; 'I' for Inactive)
REMARK    1  A    between atoms: C7_7  and  N8_8 
ROOT
HETATM    1  C1  UNL     1     -34.343   5.920   3.313  1.00 20.00     0.065 C 
HETATM    2  C2  UNL     1     -34.104   6.217   1.828  1.00 20.00     0.275 C 
HETATM    3  C3  UNL     1     -32.454   7.958   2.194  1.00 20.00     0.306 C 
HETATM    4  C4  UNL     1     -33.774   6.969   4.212  1.00 20.00     0.154 A 
HETATM    5  C5  UNL     1     -32.792   7.959   3.652  1.00 20.00     0.179 A 
HETATM    6  N8  UNL     1     -32.745   6.686   1.517  1.00 20.00     0.090 N 
HETATM    7  O9  UNL     1     -34.163   8.313   3.923  1.00 20.00    -0.374 OA
ENDROOT
BRANCH   6   8
HETATM    8  C7  UNL     1     -31.725   5.674   1.784  1.00 20.00     0.268 C 
HETATM    9  C6  UNL     1     -31.711   4.631   0.718  1.00 20.00     0.037 C 
ENDBRANCH   6   8
TORSDOF 1
ENDMDL
MODEL 9
REMARK VINA RESULT:       2.3      2.062      3.156
REMARK  1 active torsions:
REMARK  status: ('A' for Active; 'I' for Inactive)
REMARK    1  A    between atoms: C7_7  and  N8_8 
ROOT
HETATM    1  C1  UNL     1     -32.582   4.839   2.632  1.00 20.00     0.065 C 
HETATM    2  C2  UNL     1     -33.491   5.896   1.993  1.00 20.00     0.275 C 
HETATM    3  C3  UNL     1     -34.999   6.092   3.884  1.00 20.00     0.306 C 
HETATM    4  C4  UNL     1     -33.182   4.223   3.854  1.00 20.00     0.154 A 
HETATM    5  C5  UNL     1     -34.366   4.884   4.501  1.00 20.00     0.179 A 
HETATM    6  N8  UNL     1     -34.119   6.815   2.955  1.00 20.00     0.090 N 
HETATM    7  O9  UNL     1     -34.499   3.693   3.700  1.00 20.00    -0.374 OA
ENDROOT
BRANCH   6   8
HETATM    8  C7  UNL     1     -33.144   7.648   3.655  1.00 20.00     0.268 C 
HETATM    9  C6  UNL     1     -33.711   8.187   4.924  1.00 20.00     0.037 C 
ENDBRANCH   6   8
TORSDOF 1
ENDMDL
