MODEL 1
REMARK VINA RESULT:      -1.5      0.000      0.000
REMARK  0 active torsions:
REMARK  status: ('A' for Active; 'I' for Inactive)
ROOT
HETATM    1  C1  UNL     1     -32.911   5.860   2.566  1.00 20.00     0.016 C 
HETATM    2  C2  UNL     1     -33.282   7.329   2.396  1.00 20.00     0.016 C 
HETATM    3  C3  UNL     1     -34.176   5.322   3.230  1.00 20.00     0.122 C 
HETATM    4  C4  UNL     1     -34.040   7.617   3.696  1.00 20.00     0.122 C 
HETATM    5  C5  UNL     1     -32.558   5.148   1.269  1.00 20.00     0.013 C 
HETATM    6  C6  UNL     1     -32.107   8.246   2.091  1.00 20.00     0.013 C 
HETATM    7  C7  UNL     1     -33.948   4.073   4.062  1.00 20.00     0.040 C 
HETATM    8  C8  UNL     1     -33.192   8.087   4.872  1.00 20.00     0.040 C 
HETATM    9  O9  UNL     1     -34.663   6.375   4.080  1.00 20.00    -0.381 OA
ENDROOT
TORSDOF 0
ENDMDL
MODEL 2
REMARK VINA RESULT:      -0.7      1.171      2.769
REMARK  0 active torsions:
REMARK  status: ('A' for Active; 'I' for Inactive)
ROOT
HETATM    1  C1  UNL     1     -33.734   7.358   3.314  1.00 20.00     0.016 C 
HETATM    2  C2  UNL     1     -32.473   7.158   2.479  1.00 20.00     0.016 C 
HETATM    3  C3  UNL     1     -33.989   5.931   3.792  1.00 20.00     0.122 C 
HETATM    4  C4  UNL     1     -32.754   5.813   1.801  1.00 20.00     0.122 C 
HETATM    5  C5  UNL     1     -33.581   8.358   4.450  1.00 20.00     0.013 C 
HETATM    6  C6  UNL     1     -32.138   8.316   1.553  1.00 20.00     0.013 C 
HETATM    7  C7  UNL     1     -35.441   5.650   4.137  1.00 20.00     0.040 C 
HETATM    8  C8  UNL     1     -33.487   5.880   0.466  1.00 20.00     0.040 C 
HETATM    9  O9  UNL     1     -33.584   5.068   2.714  1.00 20.00    -0.381 OA
ENDROOT
TORSDOF 0
ENDMDL
MODEL 3
REMARK VINA RESULT:      -0.4      1.282      2.972
REMARK  0 active torsions:
REMARK  status: ('A' for Active; 'I' for Inactive)
ROOT
HETATM    1  C1  UNL     1     -32.861   6.270   1.752  1.00 20.00     0.016 C 
HETATM    2  C2  UNL     1     -33.082   5.854   3.202  1.00 20.00     0.016 C 
HETATM    3  C3  UNL     1     -32.121   7.591   1.943  1.00 20.00     0.122 C 
HETATM    4  C4  UNL     1     -33.398   7.196   3.871  1.00 20.00     0.122 C 
HETATM    5  C5  UNL     1     -32.087   5.258   0.920  1.00 20.00     0.013 C 
HETATM    6  C6  UNL     1     -34.113   4.753   3.394  1.00 20.00     0.013 C 
HETATM    7  C7  UNL     1     -32.265   8.550   0.774  1.00 20.00     0.040 C 
HETATM    8  C8  UNL     1     -34.867   7.604   3.886  1.00 20.00     0.040 C 
HETATM    9  O9  UNL     1     -32.678   8.197   3.123  1.00 20.00    -0.381 OA
ENDROOT
TORSDOF 0
ENDMDL
MODEL 4
REMARK VINA RESULT:      -0.3      1.143      2.754
REMARK  0 active torsions:
REMARK  status: ('A' for Active; 'I' for Inactive)
ROOT
HETATM    1  C1  UNL     1     -33.378   5.946   3.291  1.00 20.00     0.016 C 
HETATM    2  C2  UNL     1     -33.159   6.036   1.785  1.00 20.00     0.016 C 
HETATM    3  C3  UNL     1     -34.046   7.292   3.563  1.00 20.00     0.122 C 
HETATM    4  C4  UNL     1     -32.764   7.507   1.610  1.00 20.00     0.122 C 
HETATM    5  C5  UNL     1     -34.215   4.755   3.732  1.00 20.00     0.013 C 
HETATM    6  C6  UNL     1     -32.184   5.012   1.225  1.00 20.00     0.013 C 
HETATM    7  C7  UNL     1     -33.868   7.787   4.988  1.00 20.00     0.040 C 
HETATM    8  C8  UNL     1     -31.276   7.816   1.729  1.00 20.00     0.040 C 
HETATM    9  O9  UNL     1     -33.441   8.231   2.657  1.00 20.00    -0.381 OA
ENDROOT
TORSDOF 0
ENDMDL
MODEL 5
REMARK VINA RESULT:      -0.2      1.561      2.821
REMARK  0 active torsions:
REMARK  status: ('A' for Active; 'I' for Inactive)
ROOT
HETATM    1  C1  UNL     1     -33.633   6.181   2.625  1.00 20.00     0.016 C 
HETATM    2  C2  UNL     1     -32.952   7.340   3.345  1.00 20.00     0.016 C 
HETATM    3  C3  UNL     1     -32.482   5.661   1.767  1.00 20.00     0.122 C 
HETATM    4  C4  UNL     1     -32.066   7.921   2.238  1.00 20.00     0.122 C 
HETATM    5  C5  UNL     1     -34.222   5.127   3.551  1.00 20.00     0.013 C 
HETATM    6  C6  UNL     1     -33.906   8.314   4.017  1.00 20.00     0.013 C 
HETATM    7  C7  UNL     1     -32.932   4.921   0.521  1.00 20.00     0.040 C 
HETATM    8  C8  UNL     1     -32.707   8.992   1.364  1.00 20.00     0.040 C 
HETATM    9  O9  UNL     1     -31.715   6.815   1.381  1.00 20.00    -0.381 OA
ENDROOT
TORSDOF 0
ENDMDL
MODEL 6
REMARK VINA RESULT:      -0.0      1.090      2.696
REMARK  0 active torsions:
REMARK  status: ('A' for Active; 'I' for Inactive)
ROOT
HETATM    1  C1  UNL     1     -32.555   7.065   2.600  1.00 20.00     0.016 C 
HETATM    2  C2  UNL     1     -33.906   7.234   3.285  1.00 20.00     0.016 C 
HETATM    3  C3  UNL     1     -32.916   6.074   1.496  1.00 20.00     0.122 C 
HETATM    4  C4  UNL     1     -34.465   5.808   3.238  1.00 20.00     0.122 C 
HETATM    5  C5  UNL     1     -31.951   8.360   2.076  1.00 20.00     0.013 C 
HETATM    6  C6  UNL     1     -33.842   7.881   4.659  1.00 20.00     0.013 C 
HETATM    7  C7  UNL     1     -31.742   5.244   1.009  1.00 20.00     0.040 C 
HETATM    8  C8  UNL     1     -34.108   4.913   4.419  1.00 20.00     0.040 C 
HETATM    9  O9  UNL     1     -33.914   5.200   2.052  1.00 20.00    -0.381 OA
ENDROOT
TORSDOF 0
ENDMDL
MODEL 7
REMARK VINA RESULT:       0.3      1.487      3.807
REMARK  0 active torsions:
REMARK  status: ('A' for Active; 'I' for Inactive)
ROOT
HETATM    1  C1  UNL     1     -33.117   7.082   3.451  1.00 20.00     0.016 C 
HETATM    2  C2  UNL     1     -33.837   5.949   2.729  1.00 20.00     0.016 C 
HETATM    3  C3  UNL     1     -32.688   7.947   2.269  1.00 20.00     0.122 C 
HETATM    4  C4  UNL     1     -32.953   5.749   1.494  1.00 20.00     0.122 C 
HETATM    5  C5  UNL     1     -33.975   7.825   4.465  1.00 20.00     0.013 C 
HETATM    6  C6  UNL     1     -34.085   4.713   3.581  1.00 20.00     0.013 C 
HETATM    7  C7  UNL     1     -31.475   8.815   2.552  1.00 20.00     0.040 C 
HETATM    8  C8  UNL     1     -31.801   4.762   1.651  1.00 20.00     0.040 C 
HETATM    9  O9  UNL     1     -32.380   7.038   1.197  1.00 20.00    -0.381 OA
ENDROOT
TORSDOF 0
ENDMDL
