MODEL 1
REMARK VINA RESULT:      -0.6      0.000      0.000
REMARK  2 active torsions:
REMARK  status: ('A' for Active; 'I' for Inactive)
REMARK    1  A    between atoms: C2_2  and  C9_9 
REMARK    2  A    between atoms: C3_3  and  C6_6 
ROOT
HETATM    1  C1  UNL     1     -32.842   5.449   1.936  1.00 20.00     0.079 A 
HETATM    2  C2  UNL     1     -33.406   6.340   2.826  1.00 20.00     0.045 A 
HETATM    3  C3  UNL     1     -32.348   7.775   1.548  1.00 20.00     0.079 A 
HETATM    4  N10 UNL     1     -33.124   7.673   2.605  1.00 20.00    -0.249 NA
HETATM    5  S11 UNL     1     -31.921   6.306   0.770  1.00 20.00    -0.084 SA
ENDROOT
BRANCH   2   6
HETATM    6  C9  UNL     1     -34.292   5.975   4.002  1.00 20.00     0.030 C 
HETATM    7  C7  UNL     1     -34.318   4.463   4.240  1.00 20.00     0.016 C 
HETATM    8  C8  UNL     1     -35.711   6.523   3.829  1.00 20.00     0.016 C 
ENDBRANCH   2   6
BRANCH   3   9
HETATM    9  C6  UNL     1     -31.852   9.137   1.035  1.00 20.00     0.045 A 
HETATM   10  C4  UNL     1     -32.818  10.299   1.018  1.00 20.00     0.012 A 
HETATM   11  C5  UNL     1     -32.401   9.663  -0.271  1.00 20.00     0.012 A 
ENDBRANCH   3   9
TORSDOF 2
ENDMDL
MODEL 2
REMARK VINA RESULT:       0.2      0.908      4.646
REMARK  2 active torsions:
REMARK  status: ('A' for Active; 'I' for Inactive)
REMARK    1  A    between atoms: C2_2  and  C9_9 
REMARK    2  A    between atoms: C3_3  and  C6_6 
ROOT
HETATM    1  C1  UNL     1     -31.858   7.008   0.944  1.00 20.00     0.079 A 
HETATM    2  C2  UNL     1     -32.353   8.242   1.314  1.00 20.00     0.045 A 
HETATM    3  C3  UNL     1     -33.339   7.018   2.844  1.00 20.00     0.079 A 
HETATM    4  N10 UNL     1     -33.202   8.249   2.403  1.00 20.00    -0.249 NA
HETATM    5  S11 UNL     1     -32.474   5.802   1.996  1.00 20.00    -0.084 SA
ENDROOT
BRANCH   2   6
HETATM    6  C9  UNL     1     -32.042   9.561   0.633  1.00 20.00     0.030 C 
HETATM    7  C7  UNL     1     -32.793  10.724   1.287  1.00 20.00     0.016 C 
HETATM    8  C8  UNL     1     -32.334   9.501  -0.869  1.00 20.00     0.016 C 
ENDBRANCH   2   6
BRANCH   3   9
HETATM    9  C6  UNL     1     -34.226   6.685   4.055  1.00 20.00     0.045 A 
HETATM   10  C4  UNL     1     -34.711   5.265   4.229  1.00 20.00     0.012 A 
HETATM   11  C5  UNL     1     -35.676   6.332   3.815  1.00 20.00     0.012 A 
ENDBRANCH   3   9
TORSDOF 2
ENDMDL
MODEL 3
REMARK VINA RESULT:       0.5      2.201      5.289
REMARK  2 active torsions:
REMARK  status: ('A' for Active; 'I' for Inactive)
REMARK    1  A    between atoms: C2_2  and  C9_9 
REMARK    2  A    between atoms: C3_3  and  C6_6 
ROOT
HETATM    1  C1  UNL     1     -34.595   6.927   3.165  1.00 20.00     0.079 A 
HETATM    2  C2  UNL     1     -33.529   6.266   2.589  1.00 20.00     0.045 A 
HETATM    3  C3  UNL     1     -34.086   4.757   4.080  1.00 20.00     0.079 A 
HETATM    4  N10 UNL     1     -33.236   5.023   3.112  1.00 20.00    -0.249 NA
HETATM    5  S11 UNL     1     -35.264   5.959   4.412  1.00 20.00    -0.084 SA
ENDROOT
BRANCH   2   6
HETATM    6  C9  UNL     1     -32.674   6.790   1.449  1.00 20.00     0.030 C 
HETATM    7  C7  UNL     1     -31.724   5.714   0.917  1.00 20.00     0.016 C 
HETATM    8  C8  UNL     1     -31.900   8.046   1.858  1.00 20.00     0.016 C 
ENDBRANCH   2   6
BRANCH   3   9
HETATM    9  C6  UNL     1     -34.027   3.439   4.870  1.00 20.00     0.045 A 
HETATM   10  C4  UNL     1     -32.748   3.084   5.590  1.00 20.00     0.012 A 
HETATM   11  C5  UNL     1     -33.140   2.328   4.359  1.00 20.00     0.012 A 
ENDBRANCH   3   9
TORSDOF 2
ENDMDL
MODEL 4
REMARK VINA RESULT:       0.8      1.436      1.904
REMARK  2 active torsions:
REMARK  status: ('A' for Active; 'I' for Inactive)
REMARK    1  A    between atoms: C2_2  and  C9_9 
REMARK    2  A    between atoms: C3_3  and  C6_6 
ROOT
HETATM    1  C1  UNL     1     -33.043   7.555   4.200  1.00 20.00     0.079 A 
HETATM    2  C2  UNL     1     -33.502   6.733   3.191  1.00 20.00     0.045 A 
HETATM    3  C3  UNL     1     -32.375   8.161   1.966  1.00 20.00     0.079 A 
HETATM    4  N10 UNL     1     -33.120   7.079   1.910  1.00 20.00    -0.249 NA
HETATM    5  S11 UNL     1     -32.093   8.814   3.527  1.00 20.00    -0.084 SA
ENDROOT
BRANCH   2   6
HETATM    6  C9  UNL     1     -34.374   5.505   3.378  1.00 20.00     0.030 C 
HETATM    7  C7  UNL     1     -35.549   5.787   4.319  1.00 20.00     0.016 C 
HETATM    8  C8  UNL     1     -33.560   4.305   3.867  1.00 20.00     0.016 C 
ENDBRANCH   2   6
BRANCH   3   9
HETATM    9  C6  UNL     1     -31.786   8.805   0.699  1.00 20.00     0.045 A 
HETATM   10  C4  UNL     1     -32.111  10.251   0.405  1.00 20.00     0.012 A 
HETATM   11  C5  UNL     1     -32.723   9.169  -0.429  1.00 20.00     0.012 A 
ENDBRANCH   3   9
TORSDOF 2
ENDMDL
MODEL 5
REMARK VINA RESULT:       1.2      1.900      5.143
REMARK  2 active torsions:
REMARK  status: ('A' for Active; 'I' for Inactive)
REMARK    1  A    between atoms: C2_2  and  C9_9 
REMARK    2  A    between atoms: C3_3  and  C6_6 
ROOT
HETATM    1  C1  UNL     1     -34.124   7.805   3.453  1.00 20.00     0.079 A 
HETATM    2  C2  UNL     1     -33.060   7.289   2.741  1.00 20.00     0.045 A 
HETATM    3  C3  UNL     1     -33.874   5.410   3.526  1.00 20.00     0.079 A 
HETATM    4  N10 UNL     1     -32.916   5.917   2.782  1.00 20.00    -0.249 NA
HETATM    5  S11 UNL     1     -34.985   6.527   4.206  1.00 20.00    -0.084 SA
ENDROOT
BRANCH   2   6
HETATM    6  C9  UNL     1     -32.060   8.096   1.935  1.00 20.00     0.030 C 
HETATM    7  C7  UNL     1     -32.749   9.187   1.111  1.00 20.00     0.016 C 
HETATM    8  C8  UNL     1     -31.203   7.198   1.039  1.00 20.00     0.016 C 
ENDBRANCH   2   6
BRANCH   3   9
HETATM    9  C6  UNL     1     -33.995   3.896   3.772  1.00 20.00     0.045 A 
HETATM   10  C4  UNL     1     -33.713   3.364   5.157  1.00 20.00     0.012 A 
HETATM   11  C5  UNL     1     -32.737   3.106   4.051  1.00 20.00     0.012 A 
ENDBRANCH   3   9
TORSDOF 2
ENDMDL
MODEL 6
REMARK VINA RESULT:       1.2      1.880      5.064
REMARK  2 active torsions:
REMARK  status: ('A' for Active; 'I' for Inactive)
REMARK    1  A    between atoms: C2_2  and  C9_9 
REMARK    2  A    between atoms: C3_3  and  C6_6 
ROOT
HETATM    1  C1  UNL     1     -33.975   7.779   3.223  1.00 20.00     0.079 A 
HETATM    2  C2  UNL     1     -32.997   7.192   2.447  1.00 20.00     0.045 A 
HETATM    3  C3  UNL     1     -33.800   5.382   3.389  1.00 20.00     0.079 A 
HETATM    4  N10 UNL     1     -32.895   5.819   2.540  1.00 20.00    -0.249 NA
HETATM    5  S11 UNL     1     -34.808   6.570   4.109  1.00 20.00    -0.084 SA
ENDROOT
BRANCH   2   6
HETATM    6  C9  UNL     1     -32.046   7.925   1.518  1.00 20.00     0.030 C 
HETATM    7  C7  UNL     1     -30.769   8.356   2.245  1.00 20.00     0.016 C 
HETATM    8  C8  UNL     1     -32.724   9.125   0.851  1.00 20.00     0.016 C 
ENDBRANCH   2   6
BRANCH   3   9
HETATM    9  C6  UNL     1     -33.947   3.887   3.717  1.00 20.00     0.045 A 
HETATM   10  C4  UNL     1     -33.849   3.449   5.159  1.00 20.00     0.012 A 
HETATM   11  C5  UNL     1     -32.736   3.131   4.210  1.00 20.00     0.012 A 
ENDBRANCH   3   9
TORSDOF 2
ENDMDL
MODEL 7
REMARK VINA RESULT:       1.4      2.224      3.423
REMARK  2 active torsions:
REMARK  status: ('A' for Active; 'I' for Inactive)
REMARK    1  A    between atoms: C2_2  and  C9_9 
REMARK    2  A    between atoms: C3_3  and  C6_6 
ROOT
HETATM    1  C1  UNL     1     -35.185   5.123   4.666  1.00 20.00     0.079 A 
HETATM    2  C2  UNL     1     -34.044   4.413   4.351  1.00 20.00     0.045 A 
HETATM    3  C3  UNL     1     -33.814   6.059   2.919  1.00 20.00     0.079 A 
HETATM    4  N10 UNL     1     -33.258   4.948   3.351  1.00 20.00    -0.249 NA
HETATM    5  S11 UNL     1     -35.285   6.519   3.675  1.00 20.00    -0.084 SA
ENDROOT
BRANCH   2   6
HETATM    6  C9  UNL     1     -33.598   3.119   5.006  1.00 20.00     0.030 C 
HETATM    7  C7  UNL     1     -32.537   3.368   6.081  1.00 20.00     0.016 C 
HETATM    8  C8  UNL     1     -33.098   2.108   3.971  1.00 20.00     0.016 C 
ENDBRANCH   2   6
BRANCH   3   9
HETATM    9  C6  UNL     1     -33.180   6.901   1.799  1.00 20.00     0.045 A 
HETATM   10  C4  UNL     1     -31.724   6.682   1.466  1.00 20.00     0.012 A 
HETATM   11  C5  UNL     1     -32.142   7.934   2.170  1.00 20.00     0.012 A 
ENDBRANCH   3   9
TORSDOF 2
ENDMDL
MODEL 8
REMARK VINA RESULT:       2.1      1.667      2.697
REMARK  2 active torsions:
REMARK  status: ('A' for Active; 'I' for Inactive)
REMARK    1  A    between atoms: C2_2  and  C9_9 
REMARK    2  A    between atoms: C3_3  and  C6_6 
ROOT
HETATM    1  C1  UNL     1     -33.303   6.278   2.804  1.00 20.00     0.079 A 
HETATM    2  C2  UNL     1     -32.730   5.959   1.590  1.00 20.00     0.045 A 
HETATM    3  C3  UNL     1     -32.381   8.124   1.560  1.00 20.00     0.079 A 
HETATM    4  N10 UNL     1     -32.201   7.015   0.876  1.00 20.00    -0.249 NA
HETATM    5  S11 UNL     1     -33.177   7.968   3.072  1.00 20.00    -0.084 SA
ENDROOT
BRANCH   2   6
HETATM    6  C9  UNL     1     -32.639   4.567   0.993  1.00 20.00     0.030 C 
HETATM    7  C7  UNL     1     -31.231   4.268   0.472  1.00 20.00     0.016 C 
HETATM    8  C8  UNL     1     -33.682   4.357  -0.108  1.00 20.00     0.016 C 
ENDBRANCH   2   6
BRANCH   3   9
HETATM    9  C6  UNL     1     -31.900   9.487   1.034  1.00 20.00     0.045 A 
HETATM   10  C4  UNL     1     -32.895  10.620   0.947  1.00 20.00     0.012 A 
HETATM   11  C5  UNL     1     -32.406   9.965  -0.307  1.00 20.00     0.012 A 
ENDBRANCH   3   9
TORSDOF 2
ENDMDL
MODEL 9
REMARK VINA RESULT:       2.3      1.366      4.742
REMARK  2 active torsions:
REMARK  status: ('A' for Active; 'I' for Inactive)
REMARK    1  A    between atoms: C2_2  and  C9_9 
REMARK    2  A    between atoms: C3_3  and  C6_6 
ROOT
HETATM    1  C1  UNL     1     -31.899   6.365   1.008  1.00 20.00     0.079 A 
HETATM    2  C2  UNL     1     -32.563   7.125   1.949  1.00 20.00     0.045 A 
HETATM    3  C3  UNL     1     -33.300   5.146   2.543  1.00 20.00     0.079 A 
HETATM    4  N10 UNL     1     -33.366   6.428   2.830  1.00 20.00    -0.249 NA
HETATM    5  S11 UNL     1     -32.289   4.709   1.227  1.00 20.00    -0.084 SA
ENDROOT
BRANCH   2   6
HETATM    6  C9  UNL     1     -32.479   8.634   2.088  1.00 20.00     0.030 C 
HETATM    7  C7  UNL     1     -32.170   9.306   0.748  1.00 20.00     0.016 C 
HETATM    8  C8  UNL     1     -31.458   9.045   3.151  1.00 20.00     0.016 C 
ENDBRANCH   2   6
BRANCH   3   9
HETATM    9  C6  UNL     1     -34.086   4.095   3.345  1.00 20.00     0.045 A 
HETATM   10  C4  UNL     1     -34.471   4.413   4.771  1.00 20.00     0.012 A 
HETATM   11  C5  UNL     1     -33.398   3.404   4.500  1.00 20.00     0.012 A 
ENDBRANCH   3   9
TORSDOF 2
ENDMDL
