MODEL 1
REMARK VINA RESULT:      -0.3      0.000      0.000
REMARK  2 active torsions:
REMARK  status: ('A' for Active; 'I' for Inactive)
REMARK    1  A    between atoms: C2_2  and  C9_9 
REMARK    2  A    between atoms: C3_3  and  C10_10 
ROOT
HETATM    1  C1  UNL     1     -31.809   6.983   0.675  1.00 20.00     0.079 A 
HETATM    2  C2  UNL     1     -32.195   8.139   1.321  1.00 20.00     0.046 A 
HETATM    3  C3  UNL     1     -33.111   6.680   2.680  1.00 20.00     0.079 A 
HETATM    4  N11 UNL     1     -32.941   7.967   2.470  1.00 20.00    -0.249 NA
HETATM    5  S12 UNL     1     -32.397   5.620   1.533  1.00 20.00    -0.084 SA
ENDROOT
BRANCH   3   6
HETATM    6  C10 UNL     1     -33.927   6.136   3.922  1.00 20.00     0.045 C 
HETATM    7  C7  UNL     1     -35.476   6.314   3.944  1.00 20.00     0.011 C 
HETATM    8  C4  UNL     1     -35.550   4.973   4.701  1.00 20.00     0.002 C 
HETATM    9  C8  UNL     1     -34.215   4.607   4.026  1.00 20.00     0.011 C 
ENDBRANCH   3   6
BRANCH   2  10
HETATM   10  C9  UNL     1     -31.823   9.531   0.802  1.00 20.00     0.038 A 
HETATM   11  C5  UNL     1     -32.903  10.588   0.712  1.00 20.00     0.011 A 
HETATM   12  C6  UNL     1     -32.360   9.976  -0.542  1.00 20.00     0.011 A 
ENDBRANCH   2  10
TORSDOF 2
ENDMDL
MODEL 2
REMARK VINA RESULT:       0.5      0.701      5.181
REMARK  2 active torsions:
REMARK  status: ('A' for Active; 'I' for Inactive)
REMARK    1  A    between atoms: C2_2  and  C9_9 
REMARK    2  A    between atoms: C3_3  and  C10_10 
ROOT
HETATM    1  C1  UNL     1     -32.892   5.520   2.290  1.00 20.00     0.079 A 
HETATM    2  C2  UNL     1     -33.462   6.520   3.049  1.00 20.00     0.046 A 
HETATM    3  C3  UNL     1     -32.444   7.773   1.564  1.00 20.00     0.079 A 
HETATM    4  N11 UNL     1     -33.206   7.812   2.635  1.00 20.00    -0.249 NA
HETATM    5  S12 UNL     1     -31.999   6.213   1.002  1.00 20.00    -0.084 SA
ENDROOT
BRANCH   3   6
HETATM    6  C10 UNL     1     -31.963   9.091   0.830  1.00 20.00     0.045 C 
HETATM    7  C7  UNL     1     -32.389   9.329  -0.650  1.00 20.00     0.011 C 
HETATM    8  C4  UNL     1     -32.426  10.835  -0.326  1.00 20.00     0.002 C 
HETATM    9  C8  UNL     1     -32.693  10.434   1.137  1.00 20.00     0.011 C 
ENDBRANCH   3   6
BRANCH   2  10
HETATM   10  C9  UNL     1     -34.327   6.225   4.279  1.00 20.00     0.038 A 
HETATM   11  C5  UNL     1     -34.942   4.849   4.424  1.00 20.00     0.011 A 
HETATM   12  C6  UNL     1     -35.815   6.019   4.092  1.00 20.00     0.011 A 
ENDBRANCH   2  10
TORSDOF 2
ENDMDL
MODEL 3
REMARK VINA RESULT:       0.7      1.976      5.666
REMARK  2 active torsions:
REMARK  status: ('A' for Active; 'I' for Inactive)
REMARK    1  A    between atoms: C2_2  and  C9_9 
REMARK    2  A    between atoms: C3_3  and  C10_10 
ROOT
HETATM    1  C1  UNL     1     -35.304   5.151   4.565  1.00 20.00     0.079 A 
HETATM    2  C2  UNL     1     -34.154   4.494   4.182  1.00 20.00     0.046 A 
HETATM    3  C3  UNL     1     -33.875   6.343   3.036  1.00 20.00     0.079 A 
HETATM    4  N11 UNL     1     -33.333   5.175   3.305  1.00 20.00    -0.249 NA
HETATM    5  S12 UNL     1     -35.370   6.686   3.805  1.00 20.00    -0.084 SA
ENDROOT
BRANCH   3   6
HETATM    6  C10 UNL     1     -33.185   7.379   2.057  1.00 20.00     0.045 C 
HETATM    7  C7  UNL     1     -32.168   8.407   2.641  1.00 20.00     0.011 C 
HETATM    8  C4  UNL     1     -31.406   8.307   1.305  1.00 20.00     0.002 C 
HETATM    9  C8  UNL     1     -32.008   6.897   1.156  1.00 20.00     0.011 C 
ENDBRANCH   3   6
BRANCH   2  10
HETATM   10  C9  UNL     1     -33.801   3.093   4.692  1.00 20.00     0.038 A 
HETATM   11  C5  UNL     1     -32.725   2.951   5.748  1.00 20.00     0.011 A 
HETATM   12  C6  UNL     1     -32.448   2.509   4.344  1.00 20.00     0.011 A 
ENDBRANCH   2  10
TORSDOF 2
ENDMDL
MODEL 4
REMARK VINA RESULT:       0.8      1.560      2.108
REMARK  2 active torsions:
REMARK  status: ('A' for Active; 'I' for Inactive)
REMARK    1  A    between atoms: C2_2  and  C9_9 
REMARK    2  A    between atoms: C3_3  and  C10_10 
ROOT
HETATM    1  C1  UNL     1     -33.236   8.610   2.968  1.00 20.00     0.079 A 
HETATM    2  C2  UNL     1     -32.608   7.989   1.908  1.00 20.00     0.046 A 
HETATM    3  C3  UNL     1     -33.351   6.203   2.944  1.00 20.00     0.079 A 
HETATM    4  N11 UNL     1     -32.673   6.609   1.893  1.00 20.00    -0.249 NA
HETATM    5  S12 UNL     1     -33.941   7.429   3.992  1.00 20.00    -0.084 SA
ENDROOT
BRANCH   3   6
HETATM    6  C10 UNL     1     -33.613   4.668   3.229  1.00 20.00     0.045 C 
HETATM    7  C7  UNL     1     -32.460   3.804   3.825  1.00 20.00     0.011 C 
HETATM    8  C4  UNL     1     -33.541   3.000   4.572  1.00 20.00     0.002 C 
HETATM    9  C8  UNL     1     -34.421   4.262   4.498  1.00 20.00     0.011 C 
ENDBRANCH   3   6
BRANCH   2  10
HETATM   10  C9  UNL     1     -31.881   8.773   0.812  1.00 20.00     0.038 A 
HETATM   11  C5  UNL     1     -32.371  10.162   0.462  1.00 20.00     0.011 A 
HETATM   12  C6  UNL     1     -32.598   9.035  -0.496  1.00 20.00     0.011 A 
ENDBRANCH   2  10
TORSDOF 2
ENDMDL
MODEL 5
REMARK VINA RESULT:       0.9      1.679      5.578
REMARK  2 active torsions:
REMARK  status: ('A' for Active; 'I' for Inactive)
REMARK    1  A    between atoms: C2_2  and  C9_9 
REMARK    2  A    between atoms: C3_3  and  C10_10 
ROOT
HETATM    1  C1  UNL     1     -35.041   6.099   4.263  1.00 20.00     0.079 A 
HETATM    2  C2  UNL     1     -34.054   5.232   3.844  1.00 20.00     0.046 A 
HETATM    3  C3  UNL     1     -33.242   7.088   3.003  1.00 20.00     0.079 A 
HETATM    4  N11 UNL     1     -33.021   5.797   3.121  1.00 20.00    -0.249 NA
HETATM    5  S12 UNL     1     -34.672   7.688   3.739  1.00 20.00    -0.084 SA
ENDROOT
BRANCH   3   6
HETATM    6  C10 UNL     1     -32.242   8.039   2.226  1.00 20.00     0.045 C 
HETATM    7  C7  UNL     1     -31.525   7.500   0.951  1.00 20.00     0.011 C 
HETATM    8  C4  UNL     1     -31.594   8.933   0.390  1.00 20.00     0.002 C 
HETATM    9  C8  UNL     1     -32.823   9.145   1.293  1.00 20.00     0.011 C 
ENDBRANCH   3   6
BRANCH   2  10
HETATM   10  C9  UNL     1     -34.092   3.733   4.156  1.00 20.00     0.038 A 
HETATM   11  C5  UNL     1     -33.280   3.210   5.322  1.00 20.00     0.011 A 
HETATM   12  C6  UNL     1     -32.845   2.907   3.922  1.00 20.00     0.011 A 
ENDBRANCH   2  10
TORSDOF 2
ENDMDL
MODEL 6
REMARK VINA RESULT:       1.3      0.574      1.036
REMARK  2 active torsions:
REMARK  status: ('A' for Active; 'I' for Inactive)
REMARK    1  A    between atoms: C2_2  and  C9_9 
REMARK    2  A    between atoms: C3_3  and  C10_10 
ROOT
HETATM    1  C1  UNL     1     -31.626   7.279   1.026  1.00 20.00     0.079 A 
HETATM    2  C2  UNL     1     -32.466   8.242   1.544  1.00 20.00     0.046 A 
HETATM    3  C3  UNL     1     -33.471   6.463   2.343  1.00 20.00     0.079 A 
HETATM    4  N11 UNL     1     -33.524   7.777   2.299  1.00 20.00    -0.249 NA
HETATM    5  S12 UNL     1     -32.172   5.724   1.499  1.00 20.00    -0.084 SA
ENDROOT
BRANCH   3   6
HETATM    6  C10 UNL     1     -34.544   5.609   3.134  1.00 20.00     0.045 C 
HETATM    7  C7  UNL     1     -34.052   4.512   4.127  1.00 20.00     0.011 C 
HETATM    8  C4  UNL     1     -35.288   4.836   4.989  1.00 20.00     0.002 C 
HETATM    9  C8  UNL     1     -35.257   6.245   4.366  1.00 20.00     0.011 C 
ENDBRANCH   3   6
BRANCH   2  10
HETATM   10  C9  UNL     1     -32.247   9.739   1.300  1.00 20.00     0.038 A 
HETATM   11  C5  UNL     1     -33.273  10.503   0.492  1.00 20.00     0.011 A 
HETATM   12  C6  UNL     1     -31.931  10.211  -0.103  1.00 20.00     0.011 A 
ENDBRANCH   2  10
TORSDOF 2
ENDMDL
MODEL 7
REMARK VINA RESULT:       1.8      1.476      5.445
REMARK  2 active torsions:
REMARK  status: ('A' for Active; 'I' for Inactive)
REMARK    1  A    between atoms: C2_2  and  C9_9 
REMARK    2  A    between atoms: C3_3  and  C10_10 
ROOT
HETATM    1  C1  UNL     1     -33.254   7.170   4.279  1.00 20.00     0.079 A 
HETATM    2  C2  UNL     1     -33.554   6.405   3.172  1.00 20.00     0.046 A 
HETATM    3  C3  UNL     1     -32.589   8.093   2.156  1.00 20.00     0.079 A 
HETATM    4  N11 UNL     1     -33.174   6.932   1.954  1.00 20.00    -0.249 NA
HETATM    5  S12 UNL     1     -32.462   8.609   3.788  1.00 20.00    -0.084 SA
ENDROOT
BRANCH   3   6
HETATM    6  C10 UNL     1     -32.031   8.967   0.959  1.00 20.00     0.045 C 
HETATM    7  C7  UNL     1     -32.581   8.719  -0.478  1.00 20.00     0.011 C 
HETATM    8  C4  UNL     1     -32.395  10.226  -0.736  1.00 20.00     0.002 C 
HETATM    9  C8  UNL     1     -32.550  10.426   0.784  1.00 20.00     0.011 C 
ENDBRANCH   3   6
BRANCH   2  10
HETATM   10  C9  UNL     1     -34.266   5.053   3.278  1.00 20.00     0.038 A 
HETATM   11  C5  UNL     1     -35.056   4.741   4.531  1.00 20.00     0.011 A 
HETATM   12  C6  UNL     1     -33.759   4.038   4.281  1.00 20.00     0.011 A 
ENDBRANCH   2  10
TORSDOF 2
ENDMDL
