MODEL 1
REMARK VINA RESULT:      -2.6      0.000      0.000
REMARK  2 active torsions:
REMARK  status: ('A' for Active; 'I' for Inactive)
REMARK    1  A    between atoms: C1_1  and  C3_3 
REMARK    2  A    between atoms: C3_3  and  C4_4 
ROOT
HETATM    1  C3  UNL     1     -32.959   6.392   1.888  1.00 20.00     0.319 C 
HETATM    2  F7  UNL     1     -33.758   6.624   0.801  1.00 20.00    -0.209 F 
HETATM    3 CL12 UNL     1     -31.846   5.064   1.429  1.00 20.00    -0.067 Cl
ENDROOT
BRANCH   1   4
HETATM    4  C1  UNL     1     -33.797   5.977   3.076  1.00 20.00     0.143 C 
HETATM    5  C2  UNL     1     -34.669   6.776   3.707  1.00 20.00     0.289 C 
HETATM    6  F5  UNL     1     -35.379   6.322   4.762  1.00 20.00    -0.171 F 
HETATM    7  F6  UNL     1     -34.853   8.051   3.298  1.00 20.00    -0.171 F 
HETATM    8 CL11 UNL     1     -33.602   4.346   3.650  1.00 20.00    -0.078 Cl
ENDBRANCH   1   4
BRANCH   1   9
HETATM    9  C4  UNL     1     -32.172   7.676   2.109  1.00 20.00     0.443 C 
HETATM   10  F8  UNL     1     -30.899   7.539   1.671  1.00 20.00    -0.166 F 
HETATM   11  F9  UNL     1     -32.114   8.036   3.408  1.00 20.00    -0.166 F 
HETATM   12  F10 UNL     1     -32.722   8.702   1.421  1.00 20.00    -0.166 F 
ENDBRANCH   1   9
TORSDOF 2
ENDMDL
MODEL 2
REMARK VINA RESULT:      -2.1      1.526      1.751
REMARK  2 active torsions:
REMARK  status: ('A' for Active; 'I' for Inactive)
REMARK    1  A    between atoms: C1_1  and  C3_3 
REMARK    2  A    between atoms: C3_3  and  C4_4 
ROOT
HETATM    1  C3  UNL     1     -32.861   6.510   1.884  1.00 20.00     0.319 C 
HETATM    2  F7  UNL     1     -33.626   6.483   0.749  1.00 20.00    -0.209 F 
HETATM    3 CL12 UNL     1     -31.662   5.187   1.721  1.00 20.00    -0.067 Cl
ENDROOT
BRANCH   1   4
HETATM    4  C1  UNL     1     -33.725   6.276   3.103  1.00 20.00     0.143 C 
HETATM    5  C2  UNL     1     -34.081   5.067   3.560  1.00 20.00     0.289 C 
HETATM    6  F5  UNL     1     -34.857   4.950   4.660  1.00 20.00    -0.171 F 
HETATM    7  F6  UNL     1     -33.671   3.945   2.930  1.00 20.00    -0.171 F 
HETATM    8 CL11 UNL     1     -34.286   7.685   3.956  1.00 20.00    -0.078 Cl
ENDBRANCH   1   4
BRANCH   1   9
HETATM    9  C4  UNL     1     -32.153   7.856   1.880  1.00 20.00     0.443 C 
HETATM   10  F8  UNL     1     -31.076   7.828   1.061  1.00 20.00    -0.166 F 
HETATM   11  F9  UNL     1     -31.718   8.222   3.104  1.00 20.00    -0.166 F 
HETATM   12  F10 UNL     1     -32.973   8.831   1.426  1.00 20.00    -0.166 F 
ENDBRANCH   1   9
TORSDOF 2
ENDMDL
MODEL 3
REMARK VINA RESULT:      -2.1      1.568      3.874
REMARK  2 active torsions:
REMARK  status: ('A' for Active; 'I' for Inactive)
REMARK    1  A    between atoms: C1_1  and  C3_3 
REMARK    2  A    between atoms: C3_3  and  C4_4 
ROOT
HETATM    1  C3  UNL     1     -33.919   7.496   3.601  1.00 20.00     0.319 C 
HETATM    2  F7  UNL     1     -34.677   8.590   3.282  1.00 20.00    -0.209 F 
HETATM    3 CL12 UNL     1     -32.986   7.932   5.068  1.00 20.00    -0.067 Cl
ENDROOT
BRANCH   1   4
HETATM    4  C1  UNL     1     -32.975   7.165   2.467  1.00 20.00     0.143 C 
HETATM    5  C2  UNL     1     -32.028   7.993   2.002  1.00 20.00     0.289 C 
HETATM    6  F5  UNL     1     -31.226   7.616   0.983  1.00 20.00    -0.171 F 
HETATM    7  F6  UNL     1     -31.860   9.219   2.543  1.00 20.00    -0.171 F 
HETATM    8 CL11 UNL     1     -33.144   5.600   1.728  1.00 20.00    -0.078 Cl
ENDBRANCH   1   4
BRANCH   1   9
HETATM    9  C4  UNL     1     -34.905   6.384   3.924  1.00 20.00     0.443 C 
HETATM   10  F8  UNL     1     -35.429   6.552   5.161  1.00 20.00    -0.166 F 
HETATM   11  F9  UNL     1     -34.341   5.159   3.890  1.00 20.00    -0.166 F 
HETATM   12  F10 UNL     1     -35.938   6.386   3.050  1.00 20.00    -0.166 F 
ENDBRANCH   1   9
TORSDOF 2
ENDMDL
MODEL 4
REMARK VINA RESULT:      -2.0      2.059      2.893
REMARK  2 active torsions:
REMARK  status: ('A' for Active; 'I' for Inactive)
REMARK    1  A    between atoms: C1_1  and  C3_3 
REMARK    2  A    between atoms: C3_3  and  C4_4 
ROOT
HETATM    1  C3  UNL     1     -32.455   7.306   2.114  1.00 20.00     0.319 C 
HETATM    2  F7  UNL     1     -31.108   7.409   2.341  1.00 20.00    -0.209 F 
HETATM    3 CL12 UNL     1     -32.869   8.581   0.924  1.00 20.00    -0.067 Cl
ENDROOT
BRANCH   1   4
HETATM    4  C1  UNL     1     -33.220   7.530   3.399  1.00 20.00     0.143 C 
HETATM    5  C2  UNL     1     -32.787   8.283   4.419  1.00 20.00     0.289 C 
HETATM    6  F5  UNL     1     -33.538   8.430   5.532  1.00 20.00    -0.171 F 
HETATM    7  F6  UNL     1     -31.592   8.910   4.353  1.00 20.00    -0.171 F 
HETATM    8 CL11 UNL     1     -34.767   6.746   3.544  1.00 20.00    -0.078 Cl
ENDBRANCH   1   4
BRANCH   1   9
HETATM    9  C4  UNL     1     -32.671   5.931   1.500  1.00 20.00     0.443 C 
HETATM   10  F8  UNL     1     -31.518   5.452   0.978  1.00 20.00    -0.166 F 
HETATM   11  F9  UNL     1     -33.588   5.940   0.510  1.00 20.00    -0.166 F 
HETATM   12  F10 UNL     1     -33.083   5.045   2.435  1.00 20.00    -0.166 F 
ENDBRANCH   1   9
TORSDOF 2
ENDMDL
MODEL 5
REMARK VINA RESULT:      -2.0      1.745      2.323
REMARK  2 active torsions:
REMARK  status: ('A' for Active; 'I' for Inactive)
REMARK    1  A    between atoms: C1_1  and  C3_3 
REMARK    2  A    between atoms: C3_3  and  C4_4 
ROOT
HETATM    1  C3  UNL     1     -31.966   7.969   2.040  1.00 20.00     0.319 C 
HETATM    2  F7  UNL     1     -30.801   7.354   1.666  1.00 20.00    -0.209 F 
HETATM    3 CL12 UNL     1     -31.586   8.927   3.508  1.00 20.00    -0.067 Cl
ENDROOT
BRANCH   1   4
HETATM    4  C1  UNL     1     -33.025   6.937   2.356  1.00 20.00     0.143 C 
HETATM    5  C2  UNL     1     -33.971   7.084   3.294  1.00 20.00     0.289 C 
HETATM    6  F5  UNL     1     -34.881   6.109   3.511  1.00 20.00    -0.171 F 
HETATM    7  F6  UNL     1     -34.033   8.209   4.040  1.00 20.00    -0.171 F 
HETATM    8 CL11 UNL     1     -32.996   5.465   1.430  1.00 20.00    -0.078 Cl
ENDBRANCH   1   4
BRANCH   1   9
HETATM    9  C4  UNL     1     -32.334   8.898   0.894  1.00 20.00     0.443 C 
HETATM   10  F8  UNL     1     -31.242   9.209   0.159  1.00 20.00    -0.166 F 
HETATM   11  F9  UNL     1     -32.878  10.059   1.317  1.00 20.00    -0.166 F 
HETATM   12  F10 UNL     1     -33.221   8.308   0.061  1.00 20.00    -0.166 F 
ENDBRANCH   1   9
TORSDOF 2
ENDMDL
MODEL 6
REMARK VINA RESULT:      -1.5      1.054      3.659
REMARK  2 active torsions:
REMARK  status: ('A' for Active; 'I' for Inactive)
REMARK    1  A    between atoms: C1_1  and  C3_3 
REMARK    2  A    between atoms: C3_3  and  C4_4 
ROOT
HETATM    1  C3  UNL     1     -33.644   6.069   3.532  1.00 20.00     0.319 C 
HETATM    2  F7  UNL     1     -32.852   6.429   4.589  1.00 20.00    -0.209 F 
HETATM    3 CL12 UNL     1     -33.813   4.285   3.606  1.00 20.00    -0.067 Cl
ENDROOT
BRANCH   1   4
HETATM    4  C1  UNL     1     -32.992   6.472   2.228  1.00 20.00     0.143 C 
HETATM    5  C2  UNL     1     -32.274   7.590   2.053  1.00 20.00     0.289 C 
HETATM    6  F5  UNL     1     -31.725   7.873   0.852  1.00 20.00    -0.171 F 
HETATM    7  F6  UNL     1     -32.085   8.454   3.074  1.00 20.00    -0.171 F 
HETATM    8 CL11 UNL     1     -33.201   5.399   0.875  1.00 20.00    -0.078 Cl
ENDBRANCH   1   4
BRANCH   1   9
HETATM    9  C4  UNL     1     -34.993   6.729   3.775  1.00 20.00     0.443 C 
HETATM   10  F8  UNL     1     -35.698   6.048   4.709  1.00 20.00    -0.166 F 
HETATM   11  F9  UNL     1     -35.753   6.790   2.663  1.00 20.00    -0.166 F 
HETATM   12  F10 UNL     1     -34.835   7.991   4.236  1.00 20.00    -0.166 F 
ENDBRANCH   1   9
TORSDOF 2
ENDMDL
MODEL 7
REMARK VINA RESULT:      -1.4      2.165      2.831
REMARK  2 active torsions:
REMARK  status: ('A' for Active; 'I' for Inactive)
REMARK    1  A    between atoms: C1_1  and  C3_3 
REMARK    2  A    between atoms: C3_3  and  C4_4 
ROOT
HETATM    1  C3  UNL     1     -32.291   7.381   1.913  1.00 20.00     0.319 C 
HETATM    2  F7  UNL     1     -30.925   7.469   1.883  1.00 20.00    -0.209 F 
HETATM    3 CL12 UNL     1     -32.900   8.482   0.636  1.00 20.00    -0.067 Cl
ENDROOT
BRANCH   1   4
HETATM    4  C1  UNL     1     -32.815   7.816   3.263  1.00 20.00     0.143 C 
HETATM    5  C2  UNL     1     -34.019   7.488   3.752  1.00 20.00     0.289 C 
HETATM    6  F5  UNL     1     -34.408   7.921   4.971  1.00 20.00    -0.171 F 
HETATM    7  F6  UNL     1     -34.867   6.718   3.034  1.00 20.00    -0.171 F 
HETATM    8 CL11 UNL     1     -31.769   8.812   4.233  1.00 20.00    -0.078 Cl
ENDBRANCH   1   4
BRANCH   1   9
HETATM    9  C4  UNL     1     -32.625   5.940   1.559  1.00 20.00     0.443 C 
HETATM   10  F8  UNL     1     -33.608   5.890   0.630  1.00 20.00    -0.166 F 
HETATM   11  F9  UNL     1     -33.042   5.223   2.623  1.00 20.00    -0.166 F 
HETATM   12  F10 UNL     1     -31.549   5.310   1.035  1.00 20.00    -0.166 F 
ENDBRANCH   1   9
TORSDOF 2
ENDMDL
MODEL 8
REMARK VINA RESULT:      -1.3      2.351      2.978
REMARK  2 active torsions:
REMARK  status: ('A' for Active; 'I' for Inactive)
REMARK    1  A    between atoms: C1_1  and  C3_3 
REMARK    2  A    between atoms: C3_3  and  C4_4 
ROOT
HETATM    1  C3  UNL     1     -31.854   8.052   2.054  1.00 20.00     0.319 C 
HETATM    2  F7  UNL     1     -30.664   7.473   1.703  1.00 20.00    -0.209 F 
HETATM    3 CL12 UNL     1     -31.510   9.110   3.461  1.00 20.00    -0.067 Cl
ENDROOT
BRANCH   1   4
HETATM    4  C1  UNL     1     -32.860   6.991   2.439  1.00 20.00     0.143 C 
HETATM    5  C2  UNL     1     -32.870   5.743   1.952  1.00 20.00     0.289 C 
HETATM    6  F5  UNL     1     -33.807   4.856   2.352  1.00 20.00    -0.171 F 
HETATM    7  F6  UNL     1     -31.943   5.348   1.051  1.00 20.00    -0.171 F 
HETATM    8 CL11 UNL     1     -34.081   7.441   3.595  1.00 20.00    -0.078 Cl
ENDBRANCH   1   4
BRANCH   1   9
HETATM    9  C4  UNL     1     -32.276   8.896   0.861  1.00 20.00     0.443 C 
HETATM   10  F8  UNL     1     -31.217   9.154   0.058  1.00 20.00    -0.166 F 
HETATM   11  F9  UNL     1     -32.806  10.084   1.222  1.00 20.00    -0.166 F 
HETATM   12  F10 UNL     1     -33.195   8.246   0.112  1.00 20.00    -0.166 F 
ENDBRANCH   1   9
TORSDOF 2
ENDMDL
MODEL 9
REMARK VINA RESULT:      -1.2      1.577      3.326
REMARK  2 active torsions:
REMARK  status: ('A' for Active; 'I' for Inactive)
REMARK    1  A    between atoms: C1_1  and  C3_3 
REMARK    2  A    between atoms: C3_3  and  C4_4 
ROOT
HETATM    1  C3  UNL     1     -34.734   6.503   3.815  1.00 20.00     0.319 C 
HETATM    2  F7  UNL     1     -35.252   5.973   4.967  1.00 20.00    -0.209 F 
HETATM    3 CL12 UNL     1     -36.130   6.869   2.750  1.00 20.00    -0.067 Cl
ENDROOT
BRANCH   1   4
HETATM    4  C1  UNL     1     -33.820   5.503   3.144  1.00 20.00     0.143 C 
HETATM    5  C2  UNL     1     -33.103   5.753   2.039  1.00 20.00     0.289 C 
HETATM    6  F5  UNL     1     -32.309   4.800   1.504  1.00 20.00    -0.171 F 
HETATM    7  F6  UNL     1     -33.162   6.963   1.440  1.00 20.00    -0.171 F 
HETATM    8 CL11 UNL     1     -33.705   3.926   3.869  1.00 20.00    -0.078 Cl
ENDBRANCH   1   4
BRANCH   1   9
HETATM    9  C4  UNL     1     -34.041   7.794   4.224  1.00 20.00     0.443 C 
HETATM   10  F8  UNL     1     -34.441   8.822   3.441  1.00 20.00    -0.166 F 
HETATM   11  F9  UNL     1     -32.697   7.717   4.131  1.00 20.00    -0.166 F 
HETATM   12  F10 UNL     1     -34.347   8.122   5.500  1.00 20.00    -0.166 F 
ENDBRANCH   1   9
TORSDOF 2
ENDMDL
