MODEL 1
REMARK VINA RESULT:      -1.0      0.000      0.000
REMARK  0 active torsions:
REMARK  status: ('A' for Active; 'I' for Inactive)
ROOT
HETATM    1  C1  UNL     1     -32.884   7.157   2.344  1.00 20.00     0.094 A 
HETATM    2  C2  UNL     1     -32.854   5.801   1.964  1.00 20.00     0.073 A 
HETATM    3  C3  UNL     1     -33.820   7.211   3.349  1.00 20.00     0.225 A 
HETATM    4  C4  UNL     1     -32.022   5.164   0.928  1.00 20.00     0.074 C 
HETATM    5  C5  UNL     1     -35.274   5.491   4.446  1.00 20.00     0.183 C 
HETATM    6  N6  UNL     1     -33.702   5.049   2.671  1.00 20.00    -0.174 NA
HETATM    7  N7  UNL     1     -34.274   5.934   3.504  1.00 20.00    -0.247 N 
HETATM    8  F8  UNL     1     -34.211   8.286   4.033  1.00 20.00    -0.183 F 
HETATM    9 BR9  UNL     1     -31.870   8.545   1.625  1.00 20.00    -0.044 Br
ENDROOT
TORSDOF 0
ENDMDL
MODEL 2
REMARK VINA RESULT:      -0.7      2.870      3.948
REMARK  0 active torsions:
REMARK  status: ('A' for Active; 'I' for Inactive)
ROOT
HETATM    1  C1  UNL     1     -33.438   6.039   3.038  1.00 20.00     0.094 A 
HETATM    2  C2  UNL     1     -33.474   7.343   3.569  1.00 20.00     0.073 A 
HETATM    3  C3  UNL     1     -32.735   6.166   1.865  1.00 20.00     0.225 A 
HETATM    4  C4  UNL     1     -34.098   7.798   4.825  1.00 20.00     0.074 C 
HETATM    5  C5  UNL     1     -31.662   8.105   0.698  1.00 20.00     0.183 C 
HETATM    6  N6  UNL     1     -32.844   8.231   2.797  1.00 20.00    -0.174 NA
HETATM    7  N7  UNL     1     -32.405   7.486   1.769  1.00 20.00    -0.247 N 
HETATM    8  F8  UNL     1     -32.436   5.203   0.992  1.00 20.00    -0.183 F 
HETATM    9 BR9  UNL     1     -34.187   4.504   3.785  1.00 20.00    -0.044 Br
ENDROOT
TORSDOF 0
ENDMDL
MODEL 3
REMARK VINA RESULT:      -0.3      2.273      2.619
REMARK  0 active torsions:
REMARK  status: ('A' for Active; 'I' for Inactive)
ROOT
HETATM    1  C1  UNL     1     -32.691   6.219   1.867  1.00 20.00     0.094 A 
HETATM    2  C2  UNL     1     -32.354   7.585   1.803  1.00 20.00     0.073 A 
HETATM    3  C3  UNL     1     -33.446   6.105   3.009  1.00 20.00     0.225 A 
HETATM    4  C4  UNL     1     -31.554   8.280   0.778  1.00 20.00     0.074 C 
HETATM    5  C5  UNL     1     -34.201   7.741   4.748  1.00 20.00     0.183 C 
HETATM    6  N6  UNL     1     -32.854   8.288   2.823  1.00 20.00    -0.174 NA
HETATM    7  N7  UNL     1     -33.513   7.360   3.538  1.00 20.00    -0.247 N 
HETATM    8  F8  UNL     1     -33.998   4.998   3.506  1.00 20.00    -0.183 F 
HETATM    9 BR9  UNL     1     -32.205   4.889   0.656  1.00 20.00    -0.044 Br
ENDROOT
TORSDOF 0
ENDMDL
MODEL 4
REMARK VINA RESULT:       0.2      2.367      2.864
REMARK  0 active torsions:
REMARK  status: ('A' for Active; 'I' for Inactive)
ROOT
HETATM    1  C1  UNL     1     -33.392   5.956   2.916  1.00 20.00     0.094 A 
HETATM    2  C2  UNL     1     -32.610   5.842   1.750  1.00 20.00     0.073 A 
HETATM    3  C3  UNL     1     -33.408   7.302   3.189  1.00 20.00     0.225 A 
HETATM    4  C4  UNL     1     -32.261   4.621   1.003  1.00 20.00     0.074 C 
HETATM    5  C5  UNL     1     -32.392   9.300   2.073  1.00 20.00     0.183 C 
HETATM    6  N6  UNL     1     -32.163   7.023   1.313  1.00 20.00    -0.174 NA
HETATM    7  N7  UNL     1     -32.665   7.890   2.208  1.00 20.00    -0.247 N 
HETATM    8  F8  UNL     1     -34.019   7.915   4.203  1.00 20.00    -0.183 F 
HETATM    9 BR9  UNL     1     -34.209   4.569   3.856  1.00 20.00    -0.044 Br
ENDROOT
TORSDOF 0
ENDMDL
MODEL 5
REMARK VINA RESULT:       0.3      1.886      2.762
REMARK  0 active torsions:
REMARK  status: ('A' for Active; 'I' for Inactive)
ROOT
HETATM    1  C1  UNL     1     -32.955   7.052   2.365  1.00 20.00     0.094 A 
HETATM    2  C2  UNL     1     -33.762   7.226   3.507  1.00 20.00     0.073 A 
HETATM    3  C3  UNL     1     -32.877   5.689   2.205  1.00 20.00     0.225 A 
HETATM    4  C4  UNL     1     -34.185   8.488   4.140  1.00 20.00     0.074 C 
HETATM    5  C5  UNL     1     -33.824   3.746   3.469  1.00 20.00     0.183 C 
HETATM    6  N6  UNL     1     -34.166   6.066   4.033  1.00 20.00    -0.174 NA
HETATM    7  N7  UNL     1     -33.613   5.152   3.219  1.00 20.00    -0.247 N 
HETATM    8  F8  UNL     1     -32.217   5.023   1.257  1.00 20.00    -0.183 F 
HETATM    9 BR9  UNL     1     -32.182   8.391   1.326  1.00 20.00    -0.044 Br
ENDROOT
TORSDOF 0
ENDMDL
MODEL 6
REMARK VINA RESULT:       0.3      1.771      3.034
REMARK  0 active torsions:
REMARK  status: ('A' for Active; 'I' for Inactive)
ROOT
HETATM    1  C1  UNL     1     -33.455   7.221   3.549  1.00 20.00     0.094 A 
HETATM    2  C2  UNL     1     -34.206   6.033   3.450  1.00 20.00     0.073 A 
HETATM    3  C3  UNL     1     -32.579   7.162   2.493  1.00 20.00     0.225 A 
HETATM    4  C4  UNL     1     -35.299   5.570   4.324  1.00 20.00     0.074 C 
HETATM    5  C5  UNL     1     -32.179   5.488   0.674  1.00 20.00     0.183 C 
HETATM    6  N6  UNL     1     -33.839   5.277   2.411  1.00 20.00    -0.174 NA
HETATM    7  N7  UNL     1     -32.848   5.990   1.849  1.00 20.00    -0.247 N 
HETATM    8  F8  UNL     1     -31.651   8.060   2.160  1.00 20.00    -0.183 F 
HETATM    9 BR9  UNL     1     -33.634   8.554   4.839  1.00 20.00    -0.044 Br
ENDROOT
TORSDOF 0
ENDMDL
MODEL 7
REMARK VINA RESULT:       0.5      2.344      3.256
REMARK  0 active torsions:
REMARK  status: ('A' for Active; 'I' for Inactive)
ROOT
HETATM    1  C1  UNL     1     -33.198   7.050   2.862  1.00 20.00     0.094 A 
HETATM    2  C2  UNL     1     -32.441   7.724   1.883  1.00 20.00     0.073 A 
HETATM    3  C3  UNL     1     -33.099   5.723   2.518  1.00 20.00     0.225 A 
HETATM    4  C4  UNL     1     -32.194   9.171   1.760  1.00 20.00     0.074 C 
HETATM    5  C5  UNL     1     -31.933   4.502   0.669  1.00 20.00     0.183 C 
HETATM    6  N6  UNL     1     -31.900   6.893   0.988  1.00 20.00    -0.174 NA
HETATM    7  N7  UNL     1     -32.318   5.684   1.401  1.00 20.00    -0.247 N 
HETATM    8  F8  UNL     1     -33.651   4.683   3.143  1.00 20.00    -0.183 F 
HETATM    9 BR9  UNL     1     -34.118   7.816   4.290  1.00 20.00    -0.044 Br
ENDROOT
TORSDOF 0
ENDMDL
MODEL 8
REMARK VINA RESULT:       1.1      1.999      2.525
REMARK  0 active torsions:
REMARK  status: ('A' for Active; 'I' for Inactive)
ROOT
HETATM    1  C1  UNL     1     -32.959   5.774   2.290  1.00 20.00     0.094 A 
HETATM    2  C2  UNL     1     -33.681   5.203   3.356  1.00 20.00     0.073 A 
HETATM    3  C3  UNL     1     -33.064   7.129   2.491  1.00 20.00     0.225 A 
HETATM    4  C4  UNL     1     -33.900   3.775   3.648  1.00 20.00     0.074 C 
HETATM    5  C5  UNL     1     -34.193   8.533   4.231  1.00 20.00     0.183 C 
HETATM    6  N6  UNL     1     -34.205   6.121   4.173  1.00 20.00    -0.174 NA
HETATM    7  N7  UNL     1     -33.812   7.282   3.621  1.00 20.00    -0.247 N 
HETATM    8  F8  UNL     1     -32.546   8.101   1.739  1.00 20.00    -0.183 F 
HETATM    9 BR9  UNL     1     -32.070   4.866   0.927  1.00 20.00    -0.044 Br
ENDROOT
TORSDOF 0
ENDMDL
MODEL 9
REMARK VINA RESULT:       1.4      2.387      2.658
REMARK  0 active torsions:
REMARK  status: ('A' for Active; 'I' for Inactive)
ROOT
HETATM    1  C1  UNL     1     -34.321   5.956   3.462  1.00 20.00     0.094 A 
HETATM    2  C2  UNL     1     -33.208   5.598   2.676  1.00 20.00     0.073 A 
HETATM    3  C3  UNL     1     -34.536   4.865   4.269  1.00 20.00     0.225 A 
HETATM    4  C4  UNL     1     -32.534   6.395   1.636  1.00 20.00     0.074 C 
HETATM    5  C5  UNL     1     -33.398   2.647   4.511  1.00 20.00     0.183 C 
HETATM    6  N6  UNL     1     -32.748   4.377   2.960  1.00 20.00    -0.174 NA
HETATM    7  N7  UNL     1     -33.576   3.957   3.932  1.00 20.00    -0.247 N 
HETATM    8  F8  UNL     1     -35.487   4.716   5.191  1.00 20.00    -0.183 F 
HETATM    9 BR9  UNL     1     -35.269   7.559   3.397  1.00 20.00    -0.044 Br
ENDROOT
TORSDOF 0
ENDMDL
