MODEL 1
REMARK VINA RESULT:      -1.8      0.000      0.000
REMARK  0 active torsions:
REMARK  status: ('A' for Active; 'I' for Inactive)
ROOT
HETATM    1  C1  UNL     1     -34.266   7.307   4.189  1.00 20.00     0.184 A 
HETATM    2  C2  UNL     1     -34.199   6.044   3.574  1.00 20.00     0.175 A 
HETATM    3  C3  UNL     1     -33.302   6.209   2.547  1.00 20.00     0.162 A 
HETATM    4  C4  UNL     1     -31.962   8.186   1.742  1.00 20.00     0.181 C 
HETATM    5  N5  UNL     1     -33.476   8.210   3.603  1.00 20.00    -0.181 NA
HETATM    6  N6  UNL     1     -32.903   7.512   2.608  1.00 20.00    -0.260 N 
HETATM    7  F7  UNL     1     -34.856   4.938   3.910  1.00 20.00    -0.201 F 
HETATM    8 CL8  UNL     1     -32.705   5.149   1.368  1.00 20.00    -0.059 Cl
ENDROOT
TORSDOF 0
ENDMDL
MODEL 2
REMARK VINA RESULT:      -1.6      1.824      2.584
REMARK  0 active torsions:
REMARK  status: ('A' for Active; 'I' for Inactive)
ROOT
HETATM    1  C1  UNL     1     -32.168   7.315   1.560  1.00 20.00     0.184 A 
HETATM    2  C2  UNL     1     -32.761   6.049   1.722  1.00 20.00     0.175 A 
HETATM    3  C3  UNL     1     -33.467   6.147   2.895  1.00 20.00     0.162 A 
HETATM    4  C4  UNL     1     -33.791   8.020   4.550  1.00 20.00     0.181 C 
HETATM    5  N5  UNL     1     -32.471   8.156   2.552  1.00 20.00    -0.181 NA
HETATM    6  N6  UNL     1     -33.261   7.417   3.348  1.00 20.00    -0.260 N 
HETATM    7  F7  UNL     1     -32.660   4.994   0.919  1.00 20.00    -0.201 F 
HETATM    8 CL8  UNL     1     -34.432   5.044   3.745  1.00 20.00    -0.059 Cl
ENDROOT
TORSDOF 0
ENDMDL
MODEL 3
REMARK VINA RESULT:      -1.5      1.886      2.340
REMARK  0 active torsions:
REMARK  status: ('A' for Active; 'I' for Inactive)
ROOT
HETATM    1  C1  UNL     1     -32.732   8.224   2.755  1.00 20.00     0.184 A 
HETATM    2  C2  UNL     1     -33.543   7.507   3.654  1.00 20.00     0.175 A 
HETATM    3  C3  UNL     1     -33.559   6.227   3.156  1.00 20.00     0.162 A 
HETATM    4  C4  UNL     1     -32.486   5.156   1.143  1.00 20.00     0.181 C 
HETATM    5  N5  UNL     1     -32.267   7.464   1.761  1.00 20.00    -0.181 NA
HETATM    6  N6  UNL     1     -32.787   6.255   2.033  1.00 20.00    -0.260 N 
HETATM    7  F7  UNL     1     -34.155   7.965   4.741  1.00 20.00    -0.201 F 
HETATM    8 CL8  UNL     1     -34.313   4.805   3.684  1.00 20.00    -0.059 Cl
ENDROOT
TORSDOF 0
ENDMDL
MODEL 4
REMARK VINA RESULT:      -1.4      2.187      2.487
REMARK  0 active torsions:
REMARK  status: ('A' for Active; 'I' for Inactive)
ROOT
HETATM    1  C1  UNL     1     -34.527   6.043   3.921  1.00 20.00     0.184 A 
HETATM    2  C2  UNL     1     -33.975   7.334   3.821  1.00 20.00     0.175 A 
HETATM    3  C3  UNL     1     -33.103   7.253   2.763  1.00 20.00     0.162 A 
HETATM    4  C4  UNL     1     -32.459   5.376   1.210  1.00 20.00     0.181 C 
HETATM    5  N5  UNL     1     -34.046   5.204   3.001  1.00 20.00    -0.181 NA
HETATM    6  N6  UNL     1     -33.183   5.969   2.312  1.00 20.00    -0.260 N 
HETATM    7  F7  UNL     1     -34.238   8.393   4.579  1.00 20.00    -0.201 F 
HETATM    8 CL8  UNL     1     -32.075   8.389   2.039  1.00 20.00    -0.059 Cl
ENDROOT
TORSDOF 0
ENDMDL
MODEL 5
REMARK VINA RESULT:      -1.3      2.779      3.571
REMARK  0 active torsions:
REMARK  status: ('A' for Active; 'I' for Inactive)
ROOT
HETATM    1  C1  UNL     1     -32.698   6.271   1.637  1.00 20.00     0.184 A 
HETATM    2  C2  UNL     1     -32.563   7.466   2.368  1.00 20.00     0.175 A 
HETATM    3  C3  UNL     1     -33.416   7.316   3.433  1.00 20.00     0.162 A 
HETATM    4  C4  UNL     1     -34.960   5.456   4.145  1.00 20.00     0.181 C 
HETATM    5  N5  UNL     1     -33.568   5.423   2.191  1.00 20.00    -0.181 NA
HETATM    6  N6  UNL     1     -33.988   6.087   3.282  1.00 20.00    -0.260 N 
HETATM    7  F7  UNL     1     -31.785   8.507   2.089  1.00 20.00    -0.201 F 
HETATM    8 CL8  UNL     1     -33.802   8.323   4.740  1.00 20.00    -0.059 Cl
ENDROOT
TORSDOF 0
ENDMDL
MODEL 6
REMARK VINA RESULT:      -1.3      1.855      2.277
REMARK  0 active torsions:
REMARK  status: ('A' for Active; 'I' for Inactive)
ROOT
HETATM    1  C1  UNL     1     -33.645   5.203   2.255  1.00 20.00     0.184 A 
HETATM    2  C2  UNL     1     -34.200   5.780   3.412  1.00 20.00     0.175 A 
HETATM    3  C3  UNL     1     -33.638   7.031   3.476  1.00 20.00     0.162 A 
HETATM    4  C4  UNL     1     -31.989   8.247   2.009  1.00 20.00     0.181 C 
HETATM    5  N5  UNL     1     -32.796   6.020   1.628  1.00 20.00    -0.181 NA
HETATM    6  N6  UNL     1     -32.812   7.124   2.394  1.00 20.00    -0.260 N 
HETATM    7  F7  UNL     1     -35.072   5.236   4.255  1.00 20.00    -0.201 F 
HETATM    8 CL8  UNL     1     -33.810   8.308   4.576  1.00 20.00    -0.059 Cl
ENDROOT
TORSDOF 0
ENDMDL
MODEL 7
REMARK VINA RESULT:      -1.2      2.130      2.745
REMARK  0 active torsions:
REMARK  status: ('A' for Active; 'I' for Inactive)
ROOT
HETATM    1  C1  UNL     1     -33.678   8.025   3.551  1.00 20.00     0.184 A 
HETATM    2  C2  UNL     1     -32.904   7.671   2.430  1.00 20.00     0.175 A 
HETATM    3  C3  UNL     1     -33.027   6.307   2.343  1.00 20.00     0.162 A 
HETATM    4  C4  UNL     1     -34.275   4.606   3.723  1.00 20.00     0.181 C 
HETATM    5  N5  UNL     1     -34.252   6.969   4.134  1.00 20.00    -0.181 NA
HETATM    6  N6  UNL     1     -33.837   5.940   3.378  1.00 20.00    -0.260 N 
HETATM    7  F7  UNL     1     -32.208   8.477   1.634  1.00 20.00    -0.201 F 
HETATM    8 CL8  UNL     1     -32.390   5.167   1.264  1.00 20.00    -0.059 Cl
ENDROOT
TORSDOF 0
ENDMDL
MODEL 8
REMARK VINA RESULT:      -1.0      2.201      2.698
REMARK  0 active torsions:
REMARK  status: ('A' for Active; 'I' for Inactive)
ROOT
HETATM    1  C1  UNL     1     -33.742   5.031   2.743  1.00 20.00     0.184 A 
HETATM    2  C2  UNL     1     -32.887   5.685   1.838  1.00 20.00     0.175 A 
HETATM    3  C3  UNL     1     -32.842   6.983   2.283  1.00 20.00     0.162 A 
HETATM    4  C4  UNL     1     -33.931   8.170   4.222  1.00 20.00     0.181 C 
HETATM    5  N5  UNL     1     -34.208   5.846   3.693  1.00 20.00    -0.181 NA
HETATM    6  N6  UNL     1     -33.643   7.026   3.386  1.00 20.00    -0.260 N 
HETATM    7  F7  UNL     1     -32.262   5.164   0.787  1.00 20.00    -0.201 F 
HETATM    8 CL8  UNL     1     -32.031   8.359   1.718  1.00 20.00    -0.059 Cl
ENDROOT
TORSDOF 0
ENDMDL
MODEL 9
REMARK VINA RESULT:      -0.5      2.480      3.013
REMARK  0 active torsions:
REMARK  status: ('A' for Active; 'I' for Inactive)
ROOT
HETATM    1  C1  UNL     1     -35.396   6.111   4.449  1.00 20.00     0.184 A 
HETATM    2  C2  UNL     1     -34.516   6.707   3.527  1.00 20.00     0.175 A 
HETATM    3  C3  UNL     1     -33.670   5.692   3.154  1.00 20.00     0.162 A 
HETATM    4  C4  UNL     1     -33.511   3.263   3.807  1.00 20.00     0.181 C 
HETATM    5  N5  UNL     1     -35.134   4.817   4.649  1.00 20.00    -0.181 NA
HETATM    6  N6  UNL     1     -34.079   4.592   3.848  1.00 20.00    -0.260 N 
HETATM    7  F7  UNL     1     -34.505   7.969   3.111  1.00 20.00    -0.201 F 
HETATM    8 CL8  UNL     1     -32.356   5.633   2.086  1.00 20.00    -0.059 Cl
ENDROOT
TORSDOF 0
ENDMDL
