MODEL 1
REMARK VINA RESULT:       1.5      0.000      0.000
REMARK  1 active torsions:
REMARK  status: ('A' for Active; 'I' for Inactive)
REMARK    1  A    between atoms: C4_4  and  C10_10 
ROOT
HETATM    1  C1  UNL     1     -31.643   7.404   1.650  1.00 20.00     0.016 C 
HETATM    2  C2  UNL     1     -32.496   6.132   1.678  1.00 20.00     0.017 C 
HETATM    3  C3  UNL     1     -32.441   8.405   2.500  1.00 20.00     0.122 C 
HETATM    4  C4  UNL     1     -33.097   6.243   3.082  1.00 20.00     0.129 C 
HETATM    5  C5  UNL     1     -31.182   7.888   0.284  1.00 20.00     0.013 C 
HETATM    6  C6  UNL     1     -33.533   6.038   0.560  1.00 20.00     0.013 C 
HETATM    7  C7  UNL     1     -33.203   9.493   1.759  1.00 20.00     0.040 C 
HETATM    8  O11 UNL     1     -33.391   7.636   3.266  1.00 20.00    -0.380 OA
ENDROOT
BRANCH   4   9
HETATM    9  C10 UNL     1     -34.343   5.421   3.360  1.00 20.00     0.007 C 
HETATM   10  C8  UNL     1     -33.994   4.155   4.144  1.00 20.00     0.012 C 
HETATM   11  C9  UNL     1     -35.380   6.248   4.119  1.00 20.00     0.012 C 
ENDBRANCH   4   9
TORSDOF 1
ENDMDL
MODEL 2
REMARK VINA RESULT:       2.0      1.344      3.816
REMARK  1 active torsions:
REMARK  status: ('A' for Active; 'I' for Inactive)
REMARK    1  A    between atoms: C4_4  and  C10_10 
ROOT
HETATM    1  C1  UNL     1     -35.043   6.236   3.664  1.00 20.00     0.016 C 
HETATM    2  C2  UNL     1     -33.998   5.428   2.891  1.00 20.00     0.017 C 
HETATM    3  C3  UNL     1     -34.348   7.580   3.934  1.00 20.00     0.122 C 
HETATM    4  C4  UNL     1     -33.306   6.553   2.116  1.00 20.00     0.129 C 
HETATM    5  C5  UNL     1     -35.690   5.553   4.859  1.00 20.00     0.013 C 
HETATM    6  C6  UNL     1     -33.056   4.603   3.769  1.00 20.00     0.013 C 
HETATM    7  C7  UNL     1     -33.837   7.826   5.345  1.00 20.00     0.040 C 
HETATM    8  O11 UNL     1     -33.227   7.657   3.032  1.00 20.00    -0.380 OA
ENDROOT
BRANCH   4   9
HETATM    9  C10 UNL     1     -31.925   6.254   1.562  1.00 20.00     0.007 C 
HETATM   10  C8  UNL     1     -31.987   5.128   0.528  1.00 20.00     0.012 C 
HETATM   11  C9  UNL     1     -31.304   7.508   0.946  1.00 20.00     0.012 C 
ENDBRANCH   4   9
TORSDOF 1
ENDMDL
MODEL 3
REMARK VINA RESULT:       2.1      1.383      2.576
REMARK  1 active torsions:
REMARK  status: ('A' for Active; 'I' for Inactive)
REMARK    1  A    between atoms: C4_4  and  C10_10 
ROOT
HETATM    1  C1  UNL     1     -33.148   7.506   1.628  1.00 20.00     0.016 C 
HETATM    2  C2  UNL     1     -33.695   7.358   3.051  1.00 20.00     0.017 C 
HETATM    3  C3  UNL     1     -32.581   6.115   1.302  1.00 20.00     0.122 C 
HETATM    4  C4  UNL     1     -34.152   5.897   3.013  1.00 20.00     0.129 C 
HETATM    5  C5  UNL     1     -32.234   8.692   1.367  1.00 20.00     0.013 C 
HETATM    6  C6  UNL     1     -32.684   7.668   4.155  1.00 20.00     0.013 C 
HETATM    7  C7  UNL     1     -31.068   5.958   1.336  1.00 20.00     0.040 C 
HETATM    8  O11 UNL     1     -33.148   5.200   2.261  1.00 20.00    -0.380 OA
ENDROOT
BRANCH   4   9
HETATM    9  C10 UNL     1     -34.353   5.208   4.351  1.00 20.00     0.007 C 
HETATM   10  C8  UNL     1     -35.829   5.216   4.750  1.00 20.00     0.012 C 
HETATM   11  C9  UNL     1     -33.822   3.775   4.308  1.00 20.00     0.012 C 
ENDBRANCH   4   9
TORSDOF 1
ENDMDL
MODEL 4
REMARK VINA RESULT:       2.3      1.471      3.993
REMARK  1 active torsions:
REMARK  status: ('A' for Active; 'I' for Inactive)
REMARK    1  A    between atoms: C4_4  and  C10_10 
ROOT
HETATM    1  C1  UNL     1     -34.631   6.634   3.406  1.00 20.00     0.016 C 
HETATM    2  C2  UNL     1     -33.737   6.449   2.176  1.00 20.00     0.017 C 
HETATM    3  C3  UNL     1     -34.006   7.829   4.143  1.00 20.00     0.122 C 
HETATM    4  C4  UNL     1     -33.346   7.904   1.906  1.00 20.00     0.129 C 
HETATM    5  C5  UNL     1     -34.914   5.394   4.238  1.00 20.00     0.013 C 
HETATM    6  C6  UNL     1     -32.547   5.512   2.392  1.00 20.00     0.013 C 
HETATM    7  C7  UNL     1     -33.195   7.526   5.393  1.00 20.00     0.040 C 
HETATM    8  O11 UNL     1     -33.142   8.494   3.199  1.00 20.00    -0.380 OA
ENDROOT
BRANCH   4   9
HETATM    9  C10 UNL     1     -32.117   8.134   1.045  1.00 20.00     0.007 C 
HETATM   10  C8  UNL     1     -32.285   9.386   0.183  1.00 20.00     0.012 C 
HETATM   11  C9  UNL     1     -30.862   8.250   1.910  1.00 20.00     0.012 C 
ENDBRANCH   4   9
TORSDOF 1
ENDMDL
MODEL 5
REMARK VINA RESULT:       2.9      1.522      3.409
REMARK  1 active torsions:
REMARK  status: ('A' for Active; 'I' for Inactive)
REMARK    1  A    between atoms: C4_4  and  C10_10 
ROOT
HETATM    1  C1  UNL     1     -33.129   7.156   3.978  1.00 20.00     0.016 C 
HETATM    2  C2  UNL     1     -32.439   7.227   2.613  1.00 20.00     0.017 C 
HETATM    3  C3  UNL     1     -34.233   6.105   3.782  1.00 20.00     0.122 C 
HETATM    4  C4  UNL     1     -32.589   5.772   2.160  1.00 20.00     0.129 C 
HETATM    5  C5  UNL     1     -33.552   8.478   4.600  1.00 20.00     0.013 C 
HETATM    6  C6  UNL     1     -33.043   8.247   1.648  1.00 20.00     0.013 C 
HETATM    7  C7  UNL     1     -35.659   6.614   3.641  1.00 20.00     0.040 C 
HETATM    8  O11 UNL     1     -33.900   5.370   2.587  1.00 20.00    -0.380 OA
ENDROOT
BRANCH   4   9
HETATM    9  C10 UNL     1     -32.435   5.499   0.674  1.00 20.00     0.007 C 
HETATM   10  C8  UNL     1     -31.380   4.418   0.428  1.00 20.00     0.012 C 
HETATM   11  C9  UNL     1     -33.772   5.087   0.056  1.00 20.00     0.012 C 
ENDBRANCH   4   9
TORSDOF 1
ENDMDL
MODEL 6
REMARK VINA RESULT:       3.0      1.350      2.622
REMARK  1 active torsions:
REMARK  status: ('A' for Active; 'I' for Inactive)
REMARK    1  A    between atoms: C4_4  and  C10_10 
ROOT
HETATM    1  C1  UNL     1     -32.476   7.634   0.925  1.00 20.00     0.016 C 
HETATM    2  C2  UNL     1     -32.840   8.066   2.349  1.00 20.00     0.017 C 
HETATM    3  C3  UNL     1     -32.574   6.101   0.966  1.00 20.00     0.122 C 
HETATM    4  C4  UNL     1     -33.855   6.977   2.708  1.00 20.00     0.129 C 
HETATM    5  C5  UNL     1     -31.200   8.218   0.339  1.00 20.00     0.013 C 
HETATM    6  C6  UNL     1     -31.654   8.156   3.309  1.00 20.00     0.013 C 
HETATM    7  C7  UNL     1     -31.268   5.322   1.006  1.00 20.00     0.040 C 
HETATM    8  O11 UNL     1     -33.333   5.764   2.144  1.00 20.00    -0.380 OA
ENDROOT
BRANCH   4   9
HETATM    9  C10 UNL     1     -34.140   6.768   4.185  1.00 20.00     0.007 C 
HETATM   10  C8  UNL     1     -34.200   8.107   4.921  1.00 20.00     0.012 C 
HETATM   11  C9  UNL     1     -35.444   5.994   4.382  1.00 20.00     0.012 C 
ENDBRANCH   4   9
TORSDOF 1
ENDMDL
MODEL 7
REMARK VINA RESULT:       3.0      1.358      1.841
REMARK  1 active torsions:
REMARK  status: ('A' for Active; 'I' for Inactive)
REMARK    1  A    between atoms: C4_4  and  C10_10 
ROOT
HETATM    1  C1  UNL     1     -31.742   5.939   1.617  1.00 20.00     0.016 C 
HETATM    2  C2  UNL     1     -33.127   5.767   2.249  1.00 20.00     0.017 C 
HETATM    3  C3  UNL     1     -31.484   7.452   1.695  1.00 20.00     0.122 C 
HETATM    4  C4  UNL     1     -33.085   6.885   3.294  1.00 20.00     0.129 C 
HETATM    5  C5  UNL     1     -31.523   5.280   0.263  1.00 20.00     0.013 C 
HETATM    6  C6  UNL     1     -34.292   5.874   1.265  1.00 20.00     0.013 C 
HETATM    7  C7  UNL     1     -31.625   8.247   0.406  1.00 20.00     0.040 C 
HETATM    8  O11 UNL     1     -32.418   7.984   2.655  1.00 20.00    -0.380 OA
ENDROOT
BRANCH   4   9
HETATM    9  C10 UNL     1     -34.419   7.354   3.847  1.00 20.00     0.007 C 
HETATM   10  C8  UNL     1     -35.307   6.162   4.207  1.00 20.00     0.012 C 
HETATM   11  C9  UNL     1     -34.215   8.252   5.068  1.00 20.00     0.012 C 
ENDBRANCH   4   9
TORSDOF 1
ENDMDL
MODEL 8
REMARK VINA RESULT:       3.3      1.596      3.372
REMARK  1 active torsions:
REMARK  status: ('A' for Active; 'I' for Inactive)
REMARK    1  A    between atoms: C4_4  and  C10_10 
ROOT
HETATM    1  C1  UNL     1     -33.912   7.455   3.107  1.00 20.00     0.016 C 
HETATM    2  C2  UNL     1     -33.980   5.959   2.783  1.00 20.00     0.017 C 
HETATM    3  C3  UNL     1     -32.657   7.939   2.365  1.00 20.00     0.122 C 
HETATM    4  C4  UNL     1     -33.398   5.964   1.367  1.00 20.00     0.129 C 
HETATM    5  C5  UNL     1     -34.028   7.843   4.573  1.00 20.00     0.013 C 
HETATM    6  C6  UNL     1     -33.225   5.063   3.765  1.00 20.00     0.013 C 
HETATM    7  C7  UNL     1     -31.416   8.207   3.202  1.00 20.00     0.040 C 
HETATM    8  O11 UNL     1     -32.331   6.925   1.393  1.00 20.00    -0.380 OA
ENDROOT
BRANCH   4   9
HETATM    9  C10 UNL     1     -32.875   4.641   0.837  1.00 20.00     0.007 C 
HETATM   10  C8  UNL     1     -33.678   4.191  -0.384  1.00 20.00     0.012 C 
HETATM   11  C9  UNL     1     -31.390   4.745   0.489  1.00 20.00     0.012 C 
ENDBRANCH   4   9
TORSDOF 1
ENDMDL
MODEL 9
REMARK VINA RESULT:       3.3      1.410      3.980
REMARK  1 active torsions:
REMARK  status: ('A' for Active; 'I' for Inactive)
REMARK    1  A    between atoms: C4_4  and  C10_10 
ROOT
HETATM    1  C1  UNL     1     -33.871   6.393   2.755  1.00 20.00     0.016 C 
HETATM    2  C2  UNL     1     -32.949   6.797   1.601  1.00 20.00     0.017 C 
HETATM    3  C3  UNL     1     -33.930   7.648   3.640  1.00 20.00     0.122 C 
HETATM    4  C4  UNL     1     -33.299   8.283   1.485  1.00 20.00     0.129 C 
HETATM    5  C5  UNL     1     -33.554   5.081   3.456  1.00 20.00     0.013 C 
HETATM    6  C6  UNL     1     -31.466   6.522   1.846  1.00 20.00     0.013 C 
HETATM    7  C7  UNL     1     -33.125   7.627   4.930  1.00 20.00     0.040 C 
HETATM    8  O11 UNL     1     -33.458   8.747   2.835  1.00 20.00    -0.380 OA
ENDROOT
BRANCH   4   9
HETATM    9  C10 UNL     1     -32.300   9.167   0.760  1.00 20.00     0.007 C 
HETATM   10  C8  UNL     1     -32.343   8.910  -0.747  1.00 20.00     0.012 C 
HETATM   11  C9  UNL     1     -32.566  10.643   1.056  1.00 20.00     0.012 C 
ENDBRANCH   4   9
TORSDOF 1
ENDMDL
