MODEL 1
REMARK VINA RESULT:      -0.3      0.000      0.000
REMARK  0 active torsions:
REMARK  status: ('A' for Active; 'I' for Inactive)
ROOT
HETATM    1  C1  UNL     1     -34.517   6.397   3.762  1.00 20.00     0.217 C 
HETATM    2  C2  UNL     1     -33.474   5.590   3.020  1.00 20.00     0.108 C 
HETATM    3  C3  UNL     1     -32.899   8.245   3.495  1.00 20.00     0.131 C 
HETATM    4  C4  UNL     1     -33.064   6.359   1.756  1.00 20.00    -0.001 C 
HETATM    5  C5  UNL     1     -32.394   7.730   2.120  1.00 20.00    -0.028 C 
HETATM    6  C6  UNL     1     -32.239   5.462   0.830  1.00 20.00     0.011 C 
HETATM    7  C7  UNL     1     -32.757   8.762   1.031  1.00 20.00     0.016 C 
HETATM    8  C8  UNL     1     -30.856   7.644   2.195  1.00 20.00     0.016 C 
HETATM    9  N9  UNL     1     -34.205   7.739   3.860  1.00 20.00    -0.360 N 
HETATM   10  O10 UNL     1     -35.531   5.889   4.234  1.00 20.00    -0.274 OA
HETATM   11  H25 UNL     1     -34.892   8.367   4.187  1.00 20.00     0.162 HD
ENDROOT
TORSDOF 0
ENDMDL
MODEL 2
REMARK VINA RESULT:       0.8      2.160      3.293
REMARK  0 active torsions:
REMARK  status: ('A' for Active; 'I' for Inactive)
ROOT
HETATM    1  C1  UNL     1     -32.257   5.855   1.576  1.00 20.00     0.217 C 
HETATM    2  C2  UNL     1     -33.683   5.666   2.045  1.00 20.00     0.108 C 
HETATM    3  C3  UNL     1     -32.592   8.183   2.333  1.00 20.00     0.131 C 
HETATM    4  C4  UNL     1     -33.810   6.225   3.470  1.00 20.00    -0.001 C 
HETATM    5  C5  UNL     1     -33.529   7.768   3.500  1.00 20.00    -0.028 C 
HETATM    6  C6  UNL     1     -35.141   5.798   4.092  1.00 20.00     0.011 C 
HETATM    7  C7  UNL     1     -32.851   8.121   4.841  1.00 20.00     0.016 C 
HETATM    8  C8  UNL     1     -34.814   8.613   3.384  1.00 20.00     0.016 C 
HETATM    9  N9  UNL     1     -31.747   7.107   1.858  1.00 20.00    -0.360 N 
HETATM   10  O10 UNL     1     -31.632   4.973   0.993  1.00 20.00    -0.274 OA
HETATM   11  H25 UNL     1     -30.783   7.271   1.731  1.00 20.00     0.162 HD
ENDROOT
TORSDOF 0
ENDMDL
MODEL 3
REMARK VINA RESULT:       1.1      2.297      3.878
REMARK  0 active torsions:
REMARK  status: ('A' for Active; 'I' for Inactive)
ROOT
HETATM    1  C1  UNL     1     -32.251   7.808   1.702  1.00 20.00     0.217 C 
HETATM    2  C2  UNL     1     -32.214   7.874   3.214  1.00 20.00     0.108 C 
HETATM    3  C3  UNL     1     -33.574   5.757   2.085  1.00 20.00     0.131 C 
HETATM    4  C4  UNL     1     -33.645   7.717   3.748  1.00 20.00    -0.001 C 
HETATM    5  C5  UNL     1     -34.237   6.312   3.375  1.00 20.00    -0.028 C 
HETATM    6  C6  UNL     1     -33.699   8.067   5.236  1.00 20.00     0.011 C 
HETATM    7  C7  UNL     1     -35.754   6.462   3.138  1.00 20.00     0.016 C 
HETATM    8  C8  UNL     1     -34.034   5.263   4.486  1.00 20.00     0.016 C 
HETATM    9  N9  UNL     1     -33.044   6.787   1.216  1.00 20.00    -0.360 N 
HETATM   10  O10 UNL     1     -31.621   8.588   0.993  1.00 20.00    -0.274 OA
HETATM   11  H25 UNL     1     -33.252   6.761   0.253  1.00 20.00     0.162 HD
ENDROOT
TORSDOF 0
ENDMDL
MODEL 4
REMARK VINA RESULT:       1.3      1.380      2.673
REMARK  0 active torsions:
REMARK  status: ('A' for Active; 'I' for Inactive)
ROOT
HETATM    1  C1  UNL     1     -33.770   7.529   4.071  1.00 20.00     0.217 C 
HETATM    2  C2  UNL     1     -33.451   8.259   2.785  1.00 20.00     0.108 C 
HETATM    3  C3  UNL     1     -33.989   5.560   2.594  1.00 20.00     0.131 C 
HETATM    4  C4  UNL     1     -32.368   7.475   2.030  1.00 20.00    -0.001 C 
HETATM    5  C5  UNL     1     -32.883   6.050   1.621  1.00 20.00    -0.028 C 
HETATM    6  C6  UNL     1     -31.807   8.314   0.881  1.00 20.00     0.011 C 
HETATM    7  C7  UNL     1     -31.696   5.064   1.670  1.00 20.00     0.016 C 
HETATM    8  C8  UNL     1     -33.470   6.011   0.196  1.00 20.00     0.016 C 
HETATM    9  N9  UNL     1     -33.915   6.165   3.908  1.00 20.00    -0.360 N 
HETATM   10  O10 UNL     1     -33.895   8.110   5.146  1.00 20.00    -0.274 OA
HETATM   11  H25 UNL     1     -33.969   5.590   4.708  1.00 20.00     0.162 HD
ENDROOT
TORSDOF 0
ENDMDL
MODEL 5
REMARK VINA RESULT:       1.6      1.513      2.709
REMARK  0 active torsions:
REMARK  status: ('A' for Active; 'I' for Inactive)
ROOT
HETATM    1  C1  UNL     1     -33.820   4.879   3.395  1.00 20.00     0.217 C 
HETATM    2  C2  UNL     1     -34.474   6.223   3.632  1.00 20.00     0.108 C 
HETATM    3  C3  UNL     1     -32.722   6.037   1.510  1.00 20.00     0.131 C 
HETATM    4  C4  UNL     1     -33.385   7.304   3.647  1.00 20.00    -0.001 C 
HETATM    5  C5  UNL     1     -32.660   7.397   2.258  1.00 20.00    -0.028 C 
HETATM    6  C6  UNL     1     -33.953   8.626   4.168  1.00 20.00     0.011 C 
HETATM    7  C7  UNL     1     -31.182   7.774   2.496  1.00 20.00     0.016 C 
HETATM    8  C8  UNL     1     -33.276   8.464   1.331  1.00 20.00     0.016 C 
HETATM    9  N9  UNL     1     -32.874   4.898   2.389  1.00 20.00    -0.360 N 
HETATM   10  O10 UNL     1     -34.121   3.877   4.039  1.00 20.00    -0.274 OA
HETATM   11  H25 UNL     1     -32.288   4.113   2.268  1.00 20.00     0.162 HD
ENDROOT
TORSDOF 0
ENDMDL
MODEL 6
REMARK VINA RESULT:       1.7      2.090      3.035
REMARK  0 active torsions:
REMARK  status: ('A' for Active; 'I' for Inactive)
ROOT
HETATM    1  C1  UNL     1     -33.902   3.792   4.190  1.00 20.00     0.217 C 
HETATM    2  C2  UNL     1     -32.938   4.769   3.553  1.00 20.00     0.108 C 
HETATM    3  C3  UNL     1     -35.102   5.835   4.891  1.00 20.00     0.131 C 
HETATM    4  C4  UNL     1     -33.740   5.772   2.711  1.00 20.00    -0.001 C 
HETATM    5  C5  UNL     1     -34.708   6.619   3.610  1.00 20.00    -0.028 C 
HETATM    6  C6  UNL     1     -32.802   6.591   1.822  1.00 20.00     0.011 C 
HETATM    7  C7  UNL     1     -35.984   6.936   2.800  1.00 20.00     0.016 C 
HETATM    8  C8  UNL     1     -34.090   7.958   4.059  1.00 20.00     0.016 C 
HETATM    9  N9  UNL     1     -35.015   4.397   4.740  1.00 20.00    -0.360 N 
HETATM   10  O10 UNL     1     -33.693   2.582   4.216  1.00 20.00    -0.274 OA
HETATM   11  H25 UNL     1     -35.768   3.834   5.038  1.00 20.00     0.162 HD
ENDROOT
TORSDOF 0
ENDMDL
MODEL 7
REMARK VINA RESULT:       1.8      2.233      3.459
REMARK  0 active torsions:
REMARK  status: ('A' for Active; 'I' for Inactive)
ROOT
HETATM    1  C1  UNL     1     -31.998   7.211   1.578  1.00 20.00     0.217 C 
HETATM    2  C2  UNL     1     -32.808   5.956   1.818  1.00 20.00     0.108 C 
HETATM    3  C3  UNL     1     -33.901   8.338   2.680  1.00 20.00     0.131 C 
HETATM    4  C4  UNL     1     -33.246   5.927   3.289  1.00 20.00    -0.001 C 
HETATM    5  C5  UNL     1     -34.186   7.138   3.624  1.00 20.00    -0.028 C 
HETATM    6  C6  UNL     1     -33.811   4.551   3.649  1.00 20.00     0.011 C 
HETATM    7  C7  UNL     1     -33.930   7.573   5.083  1.00 20.00     0.016 C 
HETATM    8  C8  UNL     1     -35.682   6.790   3.491  1.00 20.00     0.016 C 
HETATM    9  N9  UNL     1     -32.558   8.343   2.138  1.00 20.00    -0.360 N 
HETATM   10  O10 UNL     1     -30.951   7.207   0.936  1.00 20.00    -0.274 OA
HETATM   11  H25 UNL     1     -32.029   9.174   2.168  1.00 20.00     0.162 HD
ENDROOT
TORSDOF 0
ENDMDL
MODEL 8
REMARK VINA RESULT:       2.1      2.157      3.230
REMARK  0 active torsions:
REMARK  status: ('A' for Active; 'I' for Inactive)
ROOT
HETATM    1  C1  UNL     1     -32.459   5.386   1.382  1.00 20.00     0.217 C 
HETATM    2  C2  UNL     1     -31.845   6.747   1.625  1.00 20.00     0.108 C 
HETATM    3  C3  UNL     1     -33.501   5.749   3.592  1.00 20.00     0.131 C 
HETATM    4  C4  UNL     1     -32.957   7.722   2.036  1.00 20.00    -0.001 C 
HETATM    5  C5  UNL     1     -33.625   7.283   3.386  1.00 20.00    -0.028 C 
HETATM    6  C6  UNL     1     -32.441   9.162   2.008  1.00 20.00     0.011 C 
HETATM    7  C7  UNL     1     -35.119   7.668   3.347  1.00 20.00     0.016 C 
HETATM    8  C8  UNL     1     -32.994   7.967   4.616  1.00 20.00     0.016 C 
HETATM    9  N9  UNL     1     -33.362   5.008   2.356  1.00 20.00    -0.360 N 
HETATM   10  O10 UNL     1     -32.163   4.693   0.412  1.00 20.00    -0.274 OA
HETATM   11  H25 UNL     1     -33.925   4.212   2.205  1.00 20.00     0.162 HD
ENDROOT
TORSDOF 0
ENDMDL
MODEL 9
REMARK VINA RESULT:       2.2      2.070      3.389
REMARK  0 active torsions:
REMARK  status: ('A' for Active; 'I' for Inactive)
ROOT
HETATM    1  C1  UNL     1     -32.027   8.256   3.342  1.00 20.00     0.217 C 
HETATM    2  C2  UNL     1     -32.689   7.712   2.094  1.00 20.00     0.108 C 
HETATM    3  C3  UNL     1     -34.131   7.573   4.441  1.00 20.00     0.131 C 
HETATM    4  C4  UNL     1     -33.225   6.305   2.396  1.00 20.00    -0.001 C 
HETATM    5  C5  UNL     1     -34.331   6.348   3.508  1.00 20.00    -0.028 C 
HETATM    6  C6  UNL     1     -33.638   5.604   1.100  1.00 20.00     0.011 C 
HETATM    7  C7  UNL     1     -34.238   5.055   4.346  1.00 20.00     0.016 C 
HETATM    8  C8  UNL     1     -35.758   6.434   2.931  1.00 20.00     0.016 C 
HETATM    9  N9  UNL     1     -32.764   8.047   4.491  1.00 20.00    -0.360 N 
HETATM   10  O10 UNL     1     -30.943   8.834   3.315  1.00 20.00    -0.274 OA
HETATM   11  H25 UNL     1     -32.347   8.226   5.366  1.00 20.00     0.162 HD
ENDROOT
TORSDOF 0
ENDMDL
