MODEL 1
REMARK VINA RESULT:      -1.3      0.000      0.000
REMARK  2 active torsions:
REMARK  status: ('A' for Active; 'I' for Inactive)
REMARK    1  A    between atoms: C6_6  and  C7_7 
REMARK    2  A    between atoms: C6_6  and  C8_8 
ROOT
HETATM    1  C1  UNL     1     -35.326   6.079   4.082  1.00 20.00     0.012 C 
HETATM    2  C2  UNL     1     -34.434   6.800   3.723  1.00 20.00    -0.117 C 
HETATM    3  C7  UNL     1     -33.348   7.684   3.291  1.00 20.00     0.103 C 
ENDROOT
BRANCH   3   4
HETATM    4  C6  UNL     1     -32.647   7.131   2.055  1.00 20.00    -0.021 C 
HETATM    5  C4  UNL     1     -33.619   6.597   0.962  1.00 20.00     0.011 C 
HETATM    6  C3  UNL     1     -32.690   5.379   0.798  1.00 20.00     0.002 C 
HETATM    7  C5  UNL     1     -32.149   5.664   2.212  1.00 20.00     0.011 C 
BRANCH   4   8
HETATM    8  C8  UNL     1     -31.586   8.101   1.532  1.00 20.00     0.095 C 
HETATM    9 BR9  UNL     1     -32.444   9.486   0.481  1.00 20.00    -0.096 Br
ENDBRANCH   4   8
ENDBRANCH   3   4
TORSDOF 2
ENDMDL
MODEL 2
REMARK VINA RESULT:      -0.8      1.802      3.261
REMARK  2 active torsions:
REMARK  status: ('A' for Active; 'I' for Inactive)
REMARK    1  A    between atoms: C6_6  and  C7_7 
REMARK    2  A    between atoms: C6_6  and  C8_8 
ROOT
HETATM    1  C1  UNL     1     -32.370   9.528   0.125  1.00 20.00     0.012 C 
HETATM    2  C2  UNL     1     -32.261   8.802   1.075  1.00 20.00    -0.117 C 
HETATM    3  C7  UNL     1     -32.122   7.921   2.238  1.00 20.00     0.103 C 
ENDROOT
BRANCH   3   4
HETATM    4  C6  UNL     1     -32.779   6.569   1.985  1.00 20.00    -0.021 C 
HETATM    5  C4  UNL     1     -31.783   5.451   1.556  1.00 20.00     0.011 C 
HETATM    6  C3  UNL     1     -32.802   5.017   0.486  1.00 20.00     0.002 C 
HETATM    7  C5  UNL     1     -33.416   6.428   0.570  1.00 20.00     0.011 C 
BRANCH   4   8
HETATM    8  C8  UNL     1     -33.709   6.173   3.133  1.00 20.00     0.095 C 
HETATM    9 BR9  UNL     1     -34.091   7.733   4.218  1.00 20.00    -0.096 Br
ENDBRANCH   4   8
ENDBRANCH   3   4
TORSDOF 2
ENDMDL
MODEL 3
REMARK VINA RESULT:      -0.6      1.692      2.585
REMARK  2 active torsions:
REMARK  status: ('A' for Active; 'I' for Inactive)
REMARK    1  A    between atoms: C6_6  and  C7_7 
REMARK    2  A    between atoms: C6_6  and  C8_8 
ROOT
HETATM    1  C1  UNL     1     -35.304   6.321   3.972  1.00 20.00     0.012 C 
HETATM    2  C2  UNL     1     -34.312   6.963   3.758  1.00 20.00    -0.117 C 
HETATM    3  C7  UNL     1     -33.102   7.750   3.505  1.00 20.00     0.103 C 
ENDROOT
BRANCH   3   4
HETATM    4  C6  UNL     1     -32.676   7.649   2.044  1.00 20.00    -0.021 C 
HETATM    5  C4  UNL     1     -31.150   7.851   1.813  1.00 20.00     0.011 C 
HETATM    6  C3  UNL     1     -31.498   8.740   0.604  1.00 20.00     0.002 C 
HETATM    7  C5  UNL     1     -32.889   8.958   1.229  1.00 20.00     0.011 C 
BRANCH   4   8
HETATM    8  C8  UNL     1     -33.250   6.396   1.380  1.00 20.00     0.095 C 
HETATM    9 BR9  UNL     1     -31.854   5.062   1.209  1.00 20.00    -0.096 Br
ENDBRANCH   4   8
ENDBRANCH   3   4
TORSDOF 2
ENDMDL
MODEL 4
REMARK VINA RESULT:      -0.2      2.075      3.485
REMARK  2 active torsions:
REMARK  status: ('A' for Active; 'I' for Inactive)
REMARK    1  A    between atoms: C6_6  and  C7_7 
REMARK    2  A    between atoms: C6_6  and  C8_8 
ROOT
HETATM    1  C1  UNL     1     -33.018   2.865   4.559  1.00 20.00     0.012 C 
HETATM    2  C2  UNL     1     -33.840   3.737   4.476  1.00 20.00    -0.117 C 
HETATM    3  C7  UNL     1     -34.848   4.797   4.379  1.00 20.00     0.103 C 
ENDROOT
BRANCH   3   4
HETATM    4  C6  UNL     1     -34.306   6.003   3.620  1.00 20.00    -0.021 C 
HETATM    5  C4  UNL     1     -33.554   7.030   4.517  1.00 20.00     0.011 C 
HETATM    6  C3  UNL     1     -34.291   8.155   3.765  1.00 20.00     0.002 C 
HETATM    7  C5  UNL     1     -35.361   7.120   3.367  1.00 20.00     0.011 C 
BRANCH   4   8
HETATM    8  C8  UNL     1     -33.532   5.577   2.371  1.00 20.00     0.095 C 
HETATM    9 BR9  UNL     1     -32.272   6.969   1.889  1.00 20.00    -0.096 Br
ENDBRANCH   4   8
ENDBRANCH   3   4
TORSDOF 2
ENDMDL
MODEL 5
REMARK VINA RESULT:      -0.2      2.619      4.201
REMARK  2 active torsions:
REMARK  status: ('A' for Active; 'I' for Inactive)
REMARK    1  A    between atoms: C6_6  and  C7_7 
REMARK    2  A    between atoms: C6_6  and  C8_8 
ROOT
HETATM    1  C1  UNL     1     -31.758   7.738   1.322  1.00 20.00     0.012 C 
HETATM    2  C2  UNL     1     -32.445   6.838   1.723  1.00 20.00    -0.117 C 
HETATM    3  C7  UNL     1     -33.280   5.735   2.206  1.00 20.00     0.103 C 
ENDROOT
BRANCH   3   4
HETATM    4  C6  UNL     1     -34.034   6.130   3.471  1.00 20.00    -0.021 C 
HETATM    5  C4  UNL     1     -34.994   7.341   3.285  1.00 20.00     0.011 C 
HETATM    6  C3  UNL     1     -34.478   7.897   4.626  1.00 20.00     0.002 C 
HETATM    7  C5  UNL     1     -33.216   7.033   4.441  1.00 20.00     0.011 C 
BRANCH   4   8
HETATM    8  C8  UNL     1     -34.680   4.915   4.141  1.00 20.00     0.095 C 
HETATM    9 BR9  UNL     1     -33.370   3.495   4.299  1.00 20.00    -0.096 Br
ENDBRANCH   4   8
ENDBRANCH   3   4
TORSDOF 2
ENDMDL
MODEL 6
REMARK VINA RESULT:      -0.0      1.836      3.443
REMARK  2 active torsions:
REMARK  status: ('A' for Active; 'I' for Inactive)
REMARK    1  A    between atoms: C6_6  and  C7_7 
REMARK    2  A    between atoms: C6_6  and  C8_8 
ROOT
HETATM    1  C1  UNL     1     -32.305   9.500   0.447  1.00 20.00     0.012 C 
HETATM    2  C2  UNL     1     -32.237   8.727   1.364  1.00 20.00    -0.117 C 
HETATM    3  C7  UNL     1     -32.147   7.788   2.485  1.00 20.00     0.103 C 
ENDROOT
BRANCH   3   4
HETATM    4  C6  UNL     1     -33.376   6.888   2.548  1.00 20.00    -0.021 C 
HETATM    5  C4  UNL     1     -34.651   7.596   3.095  1.00 20.00     0.011 C 
HETATM    6  C3  UNL     1     -34.930   6.338   3.939  1.00 20.00     0.002 C 
HETATM    7  C5  UNL     1     -33.436   5.984   3.814  1.00 20.00     0.011 C 
BRANCH   4   8
HETATM    8  C8  UNL     1     -33.591   6.139   1.232  1.00 20.00     0.095 C 
HETATM    9 BR9  UNL     1     -32.091   4.952   0.915  1.00 20.00    -0.096 Br
ENDBRANCH   4   8
ENDBRANCH   3   4
TORSDOF 2
ENDMDL
MODEL 7
REMARK VINA RESULT:       0.2      2.186      2.421
REMARK  2 active torsions:
REMARK  status: ('A' for Active; 'I' for Inactive)
REMARK    1  A    between atoms: C6_6  and  C7_7 
REMARK    2  A    between atoms: C6_6  and  C8_8 
ROOT
HETATM    1  C1  UNL     1     -33.432   3.107   4.541  1.00 20.00     0.012 C 
HETATM    2  C2  UNL     1     -33.804   4.127   4.027  1.00 20.00    -0.117 C 
HETATM    3  C7  UNL     1     -34.265   5.371   3.404  1.00 20.00     0.103 C 
ENDROOT
BRANCH   3   4
HETATM    4  C6  UNL     1     -33.232   5.908   2.419  1.00 20.00    -0.021 C 
HETATM    5  C4  UNL     1     -33.536   5.563   0.931  1.00 20.00     0.011 C 
HETATM    6  C3  UNL     1     -32.045   5.218   0.755  1.00 20.00     0.002 C 
HETATM    7  C5  UNL     1     -31.964   5.016   2.281  1.00 20.00     0.011 C 
BRANCH   4   8
HETATM    8  C8  UNL     1     -32.935   7.387   2.671  1.00 20.00     0.095 C 
HETATM    9 BR9  UNL     1     -33.861   7.966   4.272  1.00 20.00    -0.096 Br
ENDBRANCH   4   8
ENDBRANCH   3   4
TORSDOF 2
ENDMDL
MODEL 8
REMARK VINA RESULT:       0.2      0.865      1.020
REMARK  2 active torsions:
REMARK  status: ('A' for Active; 'I' for Inactive)
REMARK    1  A    between atoms: C6_6  and  C7_7 
REMARK    2  A    between atoms: C6_6  and  C8_8 
ROOT
HETATM    1  C1  UNL     1     -35.375   6.148   4.162  1.00 20.00     0.012 C 
HETATM    2  C2  UNL     1     -34.456   6.834   3.807  1.00 20.00    -0.117 C 
HETATM    3  C7  UNL     1     -33.334   7.676   3.380  1.00 20.00     0.103 C 
ENDROOT
BRANCH   3   4
HETATM    4  C6  UNL     1     -32.855   7.288   1.986  1.00 20.00    -0.021 C 
HETATM    5  C4  UNL     1     -33.050   5.781   1.646  1.00 20.00     0.011 C 
HETATM    6  C3  UNL     1     -31.635   5.783   1.035  1.00 20.00     0.002 C 
HETATM    7  C5  UNL     1     -31.323   7.025   1.892  1.00 20.00     0.011 C 
BRANCH   4   8
HETATM    8  C8  UNL     1     -33.394   8.245   0.922  1.00 20.00     0.095 C 
HETATM    9 BR9  UNL     1     -32.050   9.584   0.522  1.00 20.00    -0.096 Br
ENDBRANCH   4   8
ENDBRANCH   3   4
TORSDOF 2
ENDMDL
MODEL 9
REMARK VINA RESULT:       0.2      1.510      3.387
REMARK  2 active torsions:
REMARK  status: ('A' for Active; 'I' for Inactive)
REMARK    1  A    between atoms: C6_6  and  C7_7 
REMARK    2  A    between atoms: C6_6  and  C8_8 
ROOT
HETATM    1  C1  UNL     1     -31.966   4.906   1.086  1.00 20.00     0.012 C 
HETATM    2  C2  UNL     1     -32.684   5.782   1.486  1.00 20.00    -0.117 C 
HETATM    3  C7  UNL     1     -33.559   6.855   1.967  1.00 20.00     0.103 C 
ENDROOT
BRANCH   3   4
HETATM    4  C6  UNL     1     -34.004   6.599   3.402  1.00 20.00    -0.021 C 
HETATM    5  C4  UNL     1     -33.909   5.108   3.839  1.00 20.00     0.011 C 
HETATM    6  C3  UNL     1     -35.291   5.261   4.501  1.00 20.00     0.002 C 
HETATM    7  C5  UNL     1     -35.546   6.464   3.573  1.00 20.00     0.011 C 
BRANCH   4   8
HETATM    8  C8  UNL     1     -33.349   7.580   4.376  1.00 20.00     0.095 C 
HETATM    9 BR9  UNL     1     -32.057   8.667   3.423  1.00 20.00    -0.096 Br
ENDBRANCH   4   8
ENDBRANCH   3   4
TORSDOF 2
ENDMDL
