MODEL 1
REMARK VINA RESULT:       0.1      0.000      0.000
REMARK  0 active torsions:
REMARK  status: ('A' for Active; 'I' for Inactive)
ROOT
HETATM    1  C1  UNL     1     -33.441   7.606   3.933  1.00 20.00     0.105 C 
HETATM    2  C2  UNL     1     -34.105   6.532   3.466  1.00 20.00     0.056 C 
HETATM    3  C3  UNL     1     -32.220   8.064   3.222  1.00 20.00     0.196 C 
HETATM    4  C4  UNL     1     -32.695   6.124   1.678  1.00 20.00     0.035 C 
HETATM    5  C5  UNL     1     -31.882   7.362   1.941  1.00 20.00     0.205 C 
HETATM    6  C6  UNL     1     -35.364   5.997   4.106  1.00 20.00     0.072 C 
HETATM    7  C7  UNL     1     -32.296   5.241   0.518  1.00 20.00     0.068 C 
HETATM    8  N8  UNL     1     -33.725   5.774   2.381  1.00 20.00    -0.259 NA
HETATM    9  O9  UNL     1     -31.538   8.995   3.645  1.00 20.00    -0.289 OA
HETATM   10 CL10 UNL     1     -33.908   8.525   5.314  1.00 20.00    -0.078 Cl
HETATM   11 CL11 UNL     1     -32.186   8.512   0.622  1.00 20.00    -0.110 Cl
ENDROOT
TORSDOF 0
ENDMDL
MODEL 2
REMARK VINA RESULT:       0.9      2.289      3.103
REMARK  0 active torsions:
REMARK  status: ('A' for Active; 'I' for Inactive)
ROOT
HETATM    1  C1  UNL     1     -33.573   7.466   3.703  1.00 20.00     0.105 C 
HETATM    2  C2  UNL     1     -32.567   7.608   2.821  1.00 20.00     0.056 C 
HETATM    3  C3  UNL     1     -34.426   6.252   3.636  1.00 20.00     0.196 C 
HETATM    4  C4  UNL     1     -32.935   5.618   1.699  1.00 20.00     0.035 C 
HETATM    5  C5  UNL     1     -34.017   5.194   2.654  1.00 20.00     0.205 C 
HETATM    6  C6  UNL     1     -31.634   8.796   2.816  1.00 20.00     0.072 C 
HETATM    7  C7  UNL     1     -32.596   4.697   0.550  1.00 20.00     0.068 C 
HETATM    8  N8  UNL     1     -32.269   6.723   1.808  1.00 20.00    -0.259 NA
HETATM    9  O9  UNL     1     -35.400   6.106   4.372  1.00 20.00    -0.289 OA
HETATM   10 CL10 UNL     1     -33.957   8.598   4.945  1.00 20.00    -0.078 Cl
HETATM   11 CL11 UNL     1     -33.412   3.816   3.597  1.00 20.00    -0.110 Cl
ENDROOT
TORSDOF 0
ENDMDL
MODEL 3
REMARK VINA RESULT:       1.0      2.465      4.324
REMARK  0 active torsions:
REMARK  status: ('A' for Active; 'I' for Inactive)
ROOT
HETATM    1  C1  UNL     1     -32.722   5.963   1.848  1.00 20.00     0.105 C 
HETATM    2  C2  UNL     1     -32.467   7.282   1.931  1.00 20.00     0.056 C 
HETATM    3  C3  UNL     1     -33.475   5.302   2.945  1.00 20.00     0.196 C 
HETATM    4  C4  UNL     1     -33.512   7.610   3.970  1.00 20.00     0.035 C 
HETATM    5  C5  UNL     1     -34.017   6.194   4.022  1.00 20.00     0.205 C 
HETATM    6  C6  UNL     1     -31.724   8.048   0.863  1.00 20.00     0.072 C 
HETATM    7  C7  UNL     1     -33.842   8.529   5.122  1.00 20.00     0.068 C 
HETATM    8  N8  UNL     1     -32.818   8.092   2.988  1.00 20.00    -0.259 NA
HETATM    9  O9  UNL     1     -33.674   4.089   2.952  1.00 20.00    -0.289 OA
HETATM   10 CL10 UNL     1     -32.246   4.951   0.536  1.00 20.00    -0.078 Cl
HETATM   11 CL11 UNL     1     -35.782   6.229   3.828  1.00 20.00    -0.110 Cl
ENDROOT
TORSDOF 0
ENDMDL
MODEL 4
REMARK VINA RESULT:       1.2      0.882      3.403
REMARK  0 active torsions:
REMARK  status: ('A' for Active; 'I' for Inactive)
ROOT
HETATM    1  C1  UNL     1     -32.264   7.267   1.606  1.00 20.00     0.105 C 
HETATM    2  C2  UNL     1     -32.621   5.978   1.750  1.00 20.00     0.056 C 
HETATM    3  C3  UNL     1     -32.924   8.297   2.448  1.00 20.00     0.196 C 
HETATM    4  C4  UNL     1     -34.196   6.338   3.407  1.00 20.00     0.035 C 
HETATM    5  C5  UNL     1     -33.864   7.802   3.507  1.00 20.00     0.205 C 
HETATM    6  C6  UNL     1     -32.000   4.855   0.954  1.00 20.00     0.072 C 
HETATM    7  C7  UNL     1     -35.283   5.789   4.302  1.00 20.00     0.068 C 
HETATM    8  N8  UNL     1     -33.597   5.516   2.606  1.00 20.00    -0.259 NA
HETATM    9  O9  UNL     1     -32.686   9.495   2.309  1.00 20.00    -0.289 OA
HETATM   10 CL10 UNL     1     -31.067   7.838   0.506  1.00 20.00    -0.078 Cl
HETATM   11 CL11 UNL     1     -33.078   8.085   5.074  1.00 20.00    -0.110 Cl
ENDROOT
TORSDOF 0
ENDMDL
MODEL 5
REMARK VINA RESULT:       2.3      2.507      3.003
REMARK  0 active torsions:
REMARK  status: ('A' for Active; 'I' for Inactive)
ROOT
HETATM    1  C1  UNL     1     -33.992   6.163   3.405  1.00 20.00     0.105 C 
HETATM    2  C2  UNL     1     -33.564   7.404   3.700  1.00 20.00     0.056 C 
HETATM    3  C3  UNL     1     -33.554   5.532   2.133  1.00 20.00     0.196 C 
HETATM    4  C4  UNL     1     -32.302   7.697   1.782  1.00 20.00     0.035 C 
HETATM    5  C5  UNL     1     -32.547   6.287   1.318  1.00 20.00     0.205 C 
HETATM    6  C6  UNL     1     -33.938   8.125   4.973  1.00 20.00     0.072 C 
HETATM    7  C7  UNL     1     -31.458   8.599   0.913  1.00 20.00     0.068 C 
HETATM    8  N8  UNL     1     -32.764   8.181   2.891  1.00 20.00    -0.259 NA
HETATM    9  O9  UNL     1     -33.971   4.430   1.782  1.00 20.00    -0.289 OA
HETATM   10 CL10 UNL     1     -35.022   5.214   4.408  1.00 20.00    -0.078 Cl
HETATM   11 CL11 UNL     1     -31.015   5.395   1.428  1.00 20.00    -0.110 Cl
ENDROOT
TORSDOF 0
ENDMDL
MODEL 6
REMARK VINA RESULT:       2.8      2.099      3.378
REMARK  0 active torsions:
REMARK  status: ('A' for Active; 'I' for Inactive)
ROOT
HETATM    1  C1  UNL     1     -32.791   5.863   1.875  1.00 20.00     0.105 C 
HETATM    2  C2  UNL     1     -33.464   5.469   2.972  1.00 20.00     0.056 C 
HETATM    3  C3  UNL     1     -32.479   7.304   1.699  1.00 20.00     0.196 C 
HETATM    4  C4  UNL     1     -33.674   7.576   3.907  1.00 20.00     0.035 C 
HETATM    5  C5  UNL     1     -32.829   8.214   2.839  1.00 20.00     0.205 C 
HETATM    6  C6  UNL     1     -33.816   4.028   3.251  1.00 20.00     0.072 C 
HETATM    7  C7  UNL     1     -34.242   8.460   4.992  1.00 20.00     0.068 C 
HETATM    8  N8  UNL     1     -33.935   6.308   3.958  1.00 20.00    -0.259 NA
HETATM    9  O9  UNL     1     -31.928   7.726   0.684  1.00 20.00    -0.289 OA
HETATM   10 CL10 UNL     1     -32.238   4.808   0.630  1.00 20.00    -0.078 Cl
HETATM   11 CL11 UNL     1     -31.299   8.731   3.580  1.00 20.00    -0.110 Cl
ENDROOT
TORSDOF 0
ENDMDL
