MODEL 1
REMARK VINA RESULT:      -3.0      0.000      0.000
REMARK  2 active torsions:
REMARK  status: ('A' for Active; 'I' for Inactive)
REMARK    1  A    between atoms: C1_1  and  P9_9 
REMARK    2  A    between atoms: C2_2  and  P9_9 
ROOT
HETATM    1  P9  UNL     1     -33.495   6.934   1.839  1.00 20.00     0.209 P 
HETATM    2 CL10 UNL     1     -32.543   5.116   1.398  1.00 20.00    -0.077 Cl
ENDROOT
BRANCH   1   3
HETATM    3  C1  UNL     1     -34.105   6.651   3.467  1.00 20.00     0.429 C 
HETATM    4  F3  UNL     1     -35.436   6.685   3.372  1.00 20.00    -0.165 F 
HETATM    5  F4  UNL     1     -33.662   5.443   3.817  1.00 20.00    -0.165 F 
HETATM    6  F5  UNL     1     -33.629   7.613   4.257  1.00 20.00    -0.165 F 
ENDBRANCH   1   3
BRANCH   1   7
HETATM    7  C2  UNL     1     -32.132   8.024   2.070  1.00 20.00     0.429 C 
HETATM    8  F6  UNL     1     -32.423   9.129   1.379  1.00 20.00    -0.165 F 
HETATM    9  F7  UNL     1     -31.069   7.390   1.569  1.00 20.00    -0.165 F 
HETATM   10  F8  UNL     1     -32.010   8.260   3.376  1.00 20.00    -0.165 F 
ENDBRANCH   1   7
TORSDOF 2
ENDMDL
MODEL 2
REMARK VINA RESULT:      -2.9      1.924      3.484
REMARK  2 active torsions:
REMARK  status: ('A' for Active; 'I' for Inactive)
REMARK    1  A    between atoms: C1_1  and  P9_9 
REMARK    2  A    between atoms: C2_2  and  P9_9 
ROOT
HETATM    1  P9  UNL     1     -33.408   7.205   1.802  1.00 20.00     0.209 P 
HETATM    2 CL10 UNL     1     -33.928   7.330   3.831  1.00 20.00    -0.077 Cl
ENDROOT
BRANCH   1   3
HETATM    3  C1  UNL     1     -32.002   8.262   1.710  1.00 20.00     0.429 C 
HETATM    4  F3  UNL     1     -32.450   9.433   1.254  1.00 20.00    -0.165 F 
HETATM    5  F4  UNL     1     -31.537   8.358   2.957  1.00 20.00    -0.165 F 
HETATM    6  F5  UNL     1     -31.119   7.700   0.883  1.00 20.00    -0.165 F 
ENDBRANCH   1   3
BRANCH   1   7
HETATM    7  C2  UNL     1     -32.739   5.580   1.685  1.00 20.00     0.429 C 
HETATM    8  F6  UNL     1     -33.183   5.081   0.530  1.00 20.00    -0.165 F 
HETATM    9  F7  UNL     1     -33.222   4.911   2.735  1.00 20.00    -0.165 F 
HETATM   10  F8  UNL     1     -31.410   5.680   1.718  1.00 20.00    -0.165 F 
ENDBRANCH   1   7
TORSDOF 2
ENDMDL
MODEL 3
REMARK VINA RESULT:      -2.7      2.035      2.849
REMARK  2 active torsions:
REMARK  status: ('A' for Active; 'I' for Inactive)
REMARK    1  A    between atoms: C1_1  and  P9_9 
REMARK    2  A    between atoms: C2_2  and  P9_9 
ROOT
HETATM    1  P9  UNL     1     -32.365   7.285   2.636  1.00 20.00     0.209 P 
HETATM    2 CL10 UNL     1     -32.506   8.782   1.172  1.00 20.00    -0.077 Cl
ENDROOT
BRANCH   1   3
HETATM    3  C1  UNL     1     -33.802   7.580   3.611  1.00 20.00     0.429 C 
HETATM    4  F3  UNL     1     -33.361   7.903   4.829  1.00 20.00    -0.165 F 
HETATM    5  F4  UNL     1     -34.437   8.596   3.026  1.00 20.00    -0.165 F 
HETATM    6  F5  UNL     1     -34.531   6.464   3.617  1.00 20.00    -0.165 F 
ENDBRANCH   1   3
BRANCH   1   7
HETATM    7  C2  UNL     1     -32.751   5.830   1.723  1.00 20.00     0.429 C 
HETATM    8  F6  UNL     1     -33.214   4.949   2.613  1.00 20.00    -0.165 F 
HETATM    9  F7  UNL     1     -31.601   5.427   1.176  1.00 20.00    -0.165 F 
HETATM   10  F8  UNL     1     -33.662   6.150   0.805  1.00 20.00    -0.165 F 
ENDBRANCH   1   7
TORSDOF 2
ENDMDL
MODEL 4
REMARK VINA RESULT:      -2.6      1.975      3.387
REMARK  2 active torsions:
REMARK  status: ('A' for Active; 'I' for Inactive)
REMARK    1  A    between atoms: C1_1  and  P9_9 
REMARK    2  A    between atoms: C2_2  and  P9_9 
ROOT
HETATM    1  P9  UNL     1     -33.607   7.220   2.211  1.00 20.00     0.209 P 
HETATM    2 CL10 UNL     1     -31.931   8.258   2.930  1.00 20.00    -0.077 Cl
ENDROOT
BRANCH   1   3
HETATM    3  C1  UNL     1     -32.892   5.728   1.607  1.00 20.00     0.429 C 
HETATM    4  F3  UNL     1     -33.501   5.471   0.448  1.00 20.00    -0.165 F 
HETATM    5  F4  UNL     1     -31.594   5.988   1.441  1.00 20.00    -0.165 F 
HETATM    6  F5  UNL     1     -33.105   4.775   2.514  1.00 20.00    -0.165 F 
ENDBRANCH   1   3
BRANCH   1   7
HETATM    7  C2  UNL     1     -34.419   6.743   3.698  1.00 20.00     0.429 C 
HETATM    8  F6  UNL     1     -35.714   6.634   3.392  1.00 20.00    -0.165 F 
HETATM    9  F7  UNL     1     -34.195   7.730   4.569  1.00 20.00    -0.165 F 
HETATM   10  F8  UNL     1     -33.894   5.586   4.100  1.00 20.00    -0.165 F 
ENDBRANCH   1   7
TORSDOF 2
ENDMDL
MODEL 5
REMARK VINA RESULT:      -2.4      0.714      1.935
REMARK  2 active torsions:
REMARK  status: ('A' for Active; 'I' for Inactive)
REMARK    1  A    between atoms: C1_1  and  P9_9 
REMARK    2  A    between atoms: C2_2  and  P9_9 
ROOT
HETATM    1  P9  UNL     1     -33.483   7.087   2.051  1.00 20.00     0.209 P 
HETATM    2 CL10 UNL     1     -32.642   5.166   2.135  1.00 20.00    -0.077 Cl
ENDROOT
BRANCH   1   3
HETATM    3  C1  UNL     1     -34.059   7.315   3.700  1.00 20.00     0.429 C 
HETATM    4  F3  UNL     1     -32.976   7.273   4.478  1.00 20.00    -0.165 F 
HETATM    5  F4  UNL     1     -34.641   8.515   3.720  1.00 20.00    -0.165 F 
HETATM    6  F5  UNL     1     -34.918   6.332   3.974  1.00 20.00    -0.165 F 
ENDBRANCH   1   3
BRANCH   1   7
HETATM    7  C2  UNL     1     -32.058   8.115   1.942  1.00 20.00     0.429 C 
HETATM    8  F6  UNL     1     -31.763   8.469   3.195  1.00 20.00    -0.165 F 
HETATM    9  F7  UNL     1     -32.422   9.164   1.201  1.00 20.00    -0.165 F 
HETATM   10  F8  UNL     1     -31.083   7.408   1.371  1.00 20.00    -0.165 F 
ENDBRANCH   1   7
TORSDOF 2
ENDMDL
MODEL 6
REMARK VINA RESULT:      -2.3      1.856      3.309
REMARK  2 active torsions:
REMARK  status: ('A' for Active; 'I' for Inactive)
REMARK    1  A    between atoms: C1_1  and  P9_9 
REMARK    2  A    between atoms: C2_2  and  P9_9 
ROOT
HETATM    1  P9  UNL     1     -33.094   6.113   3.463  1.00 20.00     0.209 P 
HETATM    2 CL10 UNL     1     -34.025   4.243   3.667  1.00 20.00    -0.077 Cl
ENDROOT
BRANCH   1   3
HETATM    3  C1  UNL     1     -32.827   6.210   1.725  1.00 20.00     0.429 C 
HETATM    4  F3  UNL     1     -32.346   7.432   1.493  1.00 20.00    -0.165 F 
HETATM    5  F4  UNL     1     -31.934   5.260   1.440  1.00 20.00    -0.165 F 
HETATM    6  F5  UNL     1     -33.996   6.002   1.118  1.00 20.00    -0.165 F 
ENDBRANCH   1   3
BRANCH   1   7
HETATM    7  C2  UNL     1     -34.423   7.228   3.762  1.00 20.00     0.429 C 
HETATM    8  F6  UNL     1     -34.265   7.662   5.014  1.00 20.00    -0.165 F 
HETATM    9  F7  UNL     1     -35.540   6.511   3.621  1.00 20.00    -0.165 F 
HETATM   10  F8  UNL     1     -34.340   8.215   2.869  1.00 20.00    -0.165 F 
ENDBRANCH   1   7
TORSDOF 2
ENDMDL
MODEL 7
REMARK VINA RESULT:      -2.3      1.851      3.237
REMARK  2 active torsions:
REMARK  status: ('A' for Active; 'I' for Inactive)
REMARK    1  A    between atoms: C1_1  and  P9_9 
REMARK    2  A    between atoms: C2_2  and  P9_9 
ROOT
HETATM    1  P9  UNL     1     -33.091   6.108   3.478  1.00 20.00     0.209 P 
HETATM    2 CL10 UNL     1     -34.011   4.233   3.683  1.00 20.00    -0.077 Cl
ENDROOT
BRANCH   1   3
HETATM    3  C1  UNL     1     -32.807   6.197   1.742  1.00 20.00     0.429 C 
HETATM    4  F3  UNL     1     -33.992   5.990   1.164  1.00 20.00    -0.165 F 
HETATM    5  F4  UNL     1     -32.349   7.429   1.512  1.00 20.00    -0.165 F 
HETATM    6  F5  UNL     1     -31.916   5.258   1.423  1.00 20.00    -0.165 F 
ENDBRANCH   1   3
BRANCH   1   7
HETATM    7  C2  UNL     1     -34.431   7.215   3.757  1.00 20.00     0.429 C 
HETATM    8  F6  UNL     1     -34.289   8.198   2.865  1.00 20.00    -0.165 F 
HETATM    9  F7  UNL     1     -34.286   7.655   5.009  1.00 20.00    -0.165 F 
HETATM   10  F8  UNL     1     -35.567   6.537   3.589  1.00 20.00    -0.165 F 
ENDBRANCH   1   7
TORSDOF 2
ENDMDL
MODEL 8
REMARK VINA RESULT:      -2.3      0.796      3.328
REMARK  2 active torsions:
REMARK  status: ('A' for Active; 'I' for Inactive)
REMARK    1  A    between atoms: C1_1  and  P9_9 
REMARK    2  A    between atoms: C2_2  and  P9_9 
ROOT
HETATM    1  P9  UNL     1     -32.717   6.319   2.461  1.00 20.00     0.209 P 
HETATM    2 CL10 UNL     1     -33.568   5.696   0.646  1.00 20.00    -0.077 Cl
ENDROOT
BRANCH   1   3
HETATM    3  C1  UNL     1     -32.164   7.946   2.075  1.00 20.00     0.429 C 
HETATM    4  F3  UNL     1     -31.570   8.404   3.178  1.00 20.00    -0.165 F 
HETATM    5  F4  UNL     1     -31.302   7.807   1.066  1.00 20.00    -0.165 F 
HETATM    6  F5  UNL     1     -33.229   8.672   1.734  1.00 20.00    -0.165 F 
ENDBRANCH   1   3
BRANCH   1   7
HETATM    7  C2  UNL     1     -34.136   6.571   3.473  1.00 20.00     0.429 C 
HETATM    8  F6  UNL     1     -34.347   5.414   4.105  1.00 20.00    -0.165 F 
HETATM    9  F7  UNL     1     -35.132   6.870   2.636  1.00 20.00    -0.165 F 
HETATM   10  F8  UNL     1     -33.868   7.568   4.316  1.00 20.00    -0.165 F 
ENDBRANCH   1   7
TORSDOF 2
ENDMDL
MODEL 9
REMARK VINA RESULT:      -2.0      1.957      2.201
REMARK  2 active torsions:
REMARK  status: ('A' for Active; 'I' for Inactive)
REMARK    1  A    between atoms: C1_1  and  P9_9 
REMARK    2  A    between atoms: C2_2  and  P9_9 
ROOT
HETATM    1  P9  UNL     1     -34.273   5.964   2.815  1.00 20.00     0.209 P 
HETATM    2 CL10 UNL     1     -33.707   4.344   4.022  1.00 20.00    -0.077 Cl
ENDROOT
BRANCH   1   3
HETATM    3  C1  UNL     1     -34.101   7.328   3.916  1.00 20.00     0.429 C 
HETATM    4  F3  UNL     1     -34.469   8.409   3.224  1.00 20.00    -0.165 F 
HETATM    5  F4  UNL     1     -34.928   7.082   4.933  1.00 20.00    -0.165 F 
HETATM    6  F5  UNL     1     -32.826   7.385   4.303  1.00 20.00    -0.165 F 
ENDBRANCH   1   3
BRANCH   1   7
HETATM    7  C2  UNL     1     -32.902   6.113   1.720  1.00 20.00     0.429 C 
HETATM    8  F6  UNL     1     -33.371   5.835   0.502  1.00 20.00    -0.165 F 
HETATM    9  F7  UNL     1     -32.010   5.208   2.128  1.00 20.00    -0.165 F 
HETATM   10  F8  UNL     1     -32.436   7.359   1.812  1.00 20.00    -0.165 F 
ENDBRANCH   1   7
TORSDOF 2
ENDMDL
