MODEL 1
REMARK VINA RESULT:      -2.0      0.000      0.000
REMARK  1 active torsions:
REMARK  status: ('A' for Active; 'I' for Inactive)
REMARK    1  A    between atoms: C1_1  and  S3_3 
ROOT
HETATM    1  C1  UNL     1     -34.031   6.929   3.638  1.00 20.00     0.295 C 
HETATM    2  O2  UNL     1     -33.632   7.914   4.249  1.00 20.00    -0.266 OA
HETATM    3 CL4  UNL     1     -35.439   5.990   4.044  1.00 20.00    -0.031 Cl
ENDROOT
BRANCH   1   4
HETATM    4  S3  UNL     1     -33.190   6.307   2.207  1.00 20.00     0.036 SA
HETATM    5 CL5  UNL     1     -31.985   7.883   1.753  1.00 20.00    -0.034 Cl
ENDBRANCH   1   4
TORSDOF 1
ENDMDL
MODEL 2
REMARK VINA RESULT:      -2.0      1.860      3.427
REMARK  1 active torsions:
REMARK  status: ('A' for Active; 'I' for Inactive)
REMARK    1  A    between atoms: C1_1  and  S3_3 
ROOT
HETATM    1  C1  UNL     1     -33.016   6.931   2.365  1.00 20.00     0.295 C 
HETATM    2  O2  UNL     1     -33.179   5.795   1.935  1.00 20.00    -0.266 OA
HETATM    3 CL4  UNL     1     -31.976   8.137   1.663  1.00 20.00    -0.031 Cl
ENDROOT
BRANCH   1   4
HETATM    4  S3  UNL     1     -33.852   7.517   3.815  1.00 20.00     0.036 SA
HETATM    5 CL5  UNL     1     -35.353   6.152   3.972  1.00 20.00    -0.034 Cl
ENDBRANCH   1   4
TORSDOF 1
ENDMDL
MODEL 3
REMARK VINA RESULT:      -2.0      2.143      2.987
REMARK  1 active torsions:
REMARK  status: ('A' for Active; 'I' for Inactive)
REMARK    1  A    between atoms: C1_1  and  S3_3 
ROOT
HETATM    1  C1  UNL     1     -32.748   7.442   2.311  1.00 20.00     0.295 C 
HETATM    2  O2  UNL     1     -32.100   8.315   1.745  1.00 20.00    -0.266 OA
HETATM    3 CL4  UNL     1     -32.986   5.820   1.726  1.00 20.00    -0.031 Cl
ENDROOT
BRANCH   1   4
HETATM    4  S3  UNL     1     -33.559   7.730   3.861  1.00 20.00     0.036 SA
HETATM    5 CL5  UNL     1     -35.057   6.356   3.773  1.00 20.00    -0.034 Cl
ENDBRANCH   1   4
TORSDOF 1
ENDMDL
MODEL 4
REMARK VINA RESULT:      -1.9      1.689      1.689
REMARK  1 active torsions:
REMARK  status: ('A' for Active; 'I' for Inactive)
REMARK    1  A    between atoms: C1_1  and  S3_3 
ROOT
HETATM    1  C1  UNL     1     -34.328   6.722   3.669  1.00 20.00     0.295 C 
HETATM    2  O2  UNL     1     -35.398   6.175   3.909  1.00 20.00    -0.266 OA
HETATM    3 CL4  UNL     1     -33.646   8.047   4.568  1.00 20.00    -0.031 Cl
ENDROOT
BRANCH   1   4
HETATM    4  S3  UNL     1     -33.295   6.215   2.320  1.00 20.00     0.036 SA
HETATM    5 CL5  UNL     1     -32.191   7.899   2.026  1.00 20.00    -0.034 Cl
ENDBRANCH   1   4
TORSDOF 1
ENDMDL
MODEL 5
REMARK VINA RESULT:      -1.8      2.711      2.926
REMARK  1 active torsions:
REMARK  status: ('A' for Active; 'I' for Inactive)
REMARK    1  A    between atoms: C1_1  and  S3_3 
ROOT
HETATM    1  C1  UNL     1     -34.431   4.607   4.193  1.00 20.00     0.295 C 
HETATM    2  O2  UNL     1     -35.543   4.784   4.677  1.00 20.00    -0.266 OA
HETATM    3 CL4  UNL     1     -33.416   3.222   4.475  1.00 20.00    -0.031 Cl
ENDROOT
BRANCH   1   4
HETATM    4  S3  UNL     1     -33.682   5.785   3.100  1.00 20.00     0.036 SA
HETATM    5 CL5  UNL     1     -34.165   7.531   4.027  1.00 20.00    -0.034 Cl
ENDBRANCH   1   4
TORSDOF 1
ENDMDL
MODEL 6
REMARK VINA RESULT:      -1.8      2.031      2.973
REMARK  1 active torsions:
REMARK  status: ('A' for Active; 'I' for Inactive)
REMARK    1  A    between atoms: C1_1  and  S3_3 
ROOT
HETATM    1  C1  UNL     1     -33.963   6.618   3.460  1.00 20.00     0.295 C 
HETATM    2  O2  UNL     1     -33.798   7.721   3.968  1.00 20.00    -0.266 OA
HETATM    3 CL4  UNL     1     -33.171   6.038   2.023  1.00 20.00    -0.031 Cl
ENDROOT
BRANCH   1   4
HETATM    4  S3  UNL     1     -35.077   5.424   4.150  1.00 20.00     0.036 SA
HETATM    5 CL5  UNL     1     -33.873   3.786   4.247  1.00 20.00    -0.034 Cl
ENDBRANCH   1   4
TORSDOF 1
ENDMDL
MODEL 7
REMARK VINA RESULT:      -1.7      2.412      2.412
REMARK  1 active torsions:
REMARK  status: ('A' for Active; 'I' for Inactive)
REMARK    1  A    between atoms: C1_1  and  S3_3 
ROOT
HETATM    1  C1  UNL     1     -32.906   6.926   2.215  1.00 20.00     0.295 C 
HETATM    2  O2  UNL     1     -33.021   5.924   1.518  1.00 20.00    -0.266 OA
HETATM    3 CL4  UNL     1     -33.927   7.344   3.560  1.00 20.00    -0.031 Cl
ENDROOT
BRANCH   1   4
HETATM    4  S3  UNL     1     -31.634   8.127   1.929  1.00 20.00     0.036 SA
HETATM    5 CL5  UNL     1     -32.554   9.353   0.591  1.00 20.00    -0.034 Cl
ENDBRANCH   1   4
TORSDOF 1
ENDMDL
MODEL 8
REMARK VINA RESULT:      -1.6      2.256      2.963
REMARK  1 active torsions:
REMARK  status: ('A' for Active; 'I' for Inactive)
REMARK    1  A    between atoms: C1_1  and  S3_3 
ROOT
HETATM    1  C1  UNL     1     -34.572   6.429   3.821  1.00 20.00     0.295 C 
HETATM    2  O2  UNL     1     -35.727   6.139   4.108  1.00 20.00    -0.266 OA
HETATM    3 CL4  UNL     1     -33.818   7.973   4.100  1.00 20.00    -0.031 Cl
ENDROOT
BRANCH   1   4
HETATM    4  S3  UNL     1     -33.475   5.269   3.050  1.00 20.00     0.036 SA
HETATM    5 CL5  UNL     1     -33.762   3.631   4.223  1.00 20.00    -0.034 Cl
ENDBRANCH   1   4
TORSDOF 1
ENDMDL
MODEL 9
REMARK VINA RESULT:      -1.6      2.708      2.771
REMARK  1 active torsions:
REMARK  status: ('A' for Active; 'I' for Inactive)
REMARK    1  A    between atoms: C1_1  and  S3_3 
ROOT
HETATM    1  C1  UNL     1     -33.870   5.195   3.281  1.00 20.00     0.295 C 
HETATM    2  O2  UNL     1     -33.198   5.467   2.293  1.00 20.00    -0.266 OA
HETATM    3 CL4  UNL     1     -33.783   3.711   4.186  1.00 20.00    -0.031 Cl
ENDROOT
BRANCH   1   4
HETATM    4  S3  UNL     1     -35.069   6.322   3.941  1.00 20.00     0.036 SA
HETATM    5 CL5  UNL     1     -33.884   7.904   4.424  1.00 20.00    -0.034 Cl
ENDBRANCH   1   4
TORSDOF 1
ENDMDL
