MODEL 1
REMARK VINA RESULT:      -0.8      0.000      0.000
REMARK  1 active torsions:
REMARK  status: ('A' for Active; 'I' for Inactive)
REMARK    1  A    between atoms: C4_4  and  C8_8 
ROOT
HETATM    1  C1  UNL     1     -34.511   6.746   3.282  1.00 20.00     0.030 A 
HETATM    2  C2  UNL     1     -33.017   4.863   3.210  1.00 20.00     0.055 A 
HETATM    3  C3  UNL     1     -35.310   6.011   4.141  1.00 20.00     0.119 A 
HETATM    4  C4  UNL     1     -33.343   6.155   2.813  1.00 20.00    -0.010 A 
HETATM    5  C5  UNL     1     -33.883   4.211   4.072  1.00 20.00     0.126 A 
HETATM    6  N9  UNL     1     -35.026   4.754   4.550  1.00 20.00    -0.249 NA
HETATM    7 CL12 UNL     1     -33.561   2.616   4.615  1.00 20.00    -0.062 Cl
ENDROOT
BRANCH   4   8
HETATM    8  C8  UNL     1     -32.410   6.933   1.849  1.00 20.00     0.173 C 
HETATM    9  C6  UNL     1     -33.069   7.894   0.848  1.00 20.00     0.218 C 
HETATM   10  O10 UNL     1     -32.124   8.936   1.186  1.00 20.00    -0.384 OA
HETATM   11  C7  UNL     1     -31.751   8.214   2.384  1.00 20.00     0.218 C 
HETATM   12  F11 UNL     1     -31.559   6.037   1.306  1.00 20.00    -0.233 F 
ENDBRANCH   4   8
TORSDOF 1
ENDMDL
MODEL 2
REMARK VINA RESULT:      -0.4      1.184      1.312
REMARK  1 active torsions:
REMARK  status: ('A' for Active; 'I' for Inactive)
REMARK    1  A    between atoms: C4_4  and  C8_8 
ROOT
HETATM    1  C1  UNL     1     -34.648   7.226   3.646  1.00 20.00     0.030 A 
HETATM    2  C2  UNL     1     -33.013   5.489   3.342  1.00 20.00     0.055 A 
HETATM    3  C3  UNL     1     -35.483   6.269   4.200  1.00 20.00     0.119 A 
HETATM    4  C4  UNL     1     -33.391   6.821   3.212  1.00 20.00    -0.010 A 
HETATM    5  C5  UNL     1     -33.921   4.609   3.909  1.00 20.00     0.126 A 
HETATM    6  N9  UNL     1     -35.151   4.966   4.343  1.00 20.00    -0.249 NA
HETATM    7 CL12 UNL     1     -33.541   2.948   4.108  1.00 20.00    -0.062 Cl
ENDROOT
BRANCH   4   8
HETATM    8  C8  UNL     1     -32.415   7.850   2.586  1.00 20.00     0.173 C 
HETATM    9  C6  UNL     1     -31.535   7.372   1.420  1.00 20.00     0.218 C 
HETATM   10  O10 UNL     1     -31.872   8.549   0.649  1.00 20.00    -0.384 OA
HETATM   11  C7  UNL     1     -32.985   8.816   1.536  1.00 20.00     0.218 C 
HETATM   12  F11 UNL     1     -31.747   8.438   3.600  1.00 20.00    -0.233 F 
ENDBRANCH   4   8
TORSDOF 1
ENDMDL
MODEL 3
REMARK VINA RESULT:       0.2      2.204      2.897
REMARK  1 active torsions:
REMARK  status: ('A' for Active; 'I' for Inactive)
REMARK    1  A    between atoms: C4_4  and  C8_8 
ROOT
HETATM    1  C1  UNL     1     -32.032   6.386   1.095  1.00 20.00     0.030 A 
HETATM    2  C2  UNL     1     -33.421   7.780   2.477  1.00 20.00     0.055 A 
HETATM    3  C3  UNL     1     -32.517   5.297   1.799  1.00 20.00     0.119 A 
HETATM    4  C4  UNL     1     -32.498   7.648   1.446  1.00 20.00    -0.010 A 
HETATM    5  C5  UNL     1     -33.844   6.628   3.120  1.00 20.00     0.126 A 
HETATM    6  N9  UNL     1     -33.415   5.385   2.806  1.00 20.00    -0.249 NA
HETATM    7 CL12 UNL     1     -34.981   6.695   4.404  1.00 20.00    -0.062 Cl
ENDROOT
BRANCH   4   8
HETATM    8  C8  UNL     1     -31.989   8.903   0.691  1.00 20.00     0.173 C 
HETATM    9  C6  UNL     1     -32.681   9.262  -0.633  1.00 20.00     0.218 C 
HETATM   10  O10 UNL     1     -32.802  10.645  -0.225  1.00 20.00    -0.384 OA
HETATM   11  C7  UNL     1     -32.528  10.269   1.146  1.00 20.00     0.218 C 
HETATM   12  F11 UNL     1     -30.643   8.814   0.625  1.00 20.00    -0.233 F 
ENDBRANCH   4   8
TORSDOF 1
ENDMDL
MODEL 4
REMARK VINA RESULT:       0.7      3.907      4.916
REMARK  1 active torsions:
REMARK  status: ('A' for Active; 'I' for Inactive)
REMARK    1  A    between atoms: C4_4  and  C8_8 
ROOT
HETATM    1  C1  UNL     1     -32.566   6.201   2.070  1.00 20.00     0.030 A 
HETATM    2  C2  UNL     1     -33.311   8.477   2.285  1.00 20.00     0.055 A 
HETATM    3  C3  UNL     1     -31.770   6.618   1.016  1.00 20.00     0.119 A 
HETATM    4  C4  UNL     1     -33.347   7.154   2.713  1.00 20.00    -0.010 A 
HETATM    5  C5  UNL     1     -32.482   8.793   1.221  1.00 20.00     0.126 A 
HETATM    6  N9  UNL     1     -31.707   7.893   0.572  1.00 20.00    -0.249 NA
HETATM    7 CL12 UNL     1     -32.374  10.398   0.626  1.00 20.00    -0.062 Cl
ENDROOT
BRANCH   4   8
HETATM    8  C8  UNL     1     -34.256   6.744   3.899  1.00 20.00     0.173 C 
HETATM    9  C6  UNL     1     -35.729   6.434   3.589  1.00 20.00     0.218 C 
HETATM   10  O10 UNL     1     -35.664   5.217   4.369  1.00 20.00    -0.384 OA
HETATM   11  C7  UNL     1     -34.218   5.274   4.344  1.00 20.00     0.218 C 
HETATM   12  F11 UNL     1     -34.058   7.644   4.886  1.00 20.00    -0.233 F 
ENDBRANCH   4   8
TORSDOF 1
ENDMDL
MODEL 5
REMARK VINA RESULT:       0.9      3.315      4.241
REMARK  1 active torsions:
REMARK  status: ('A' for Active; 'I' for Inactive)
REMARK    1  A    between atoms: C4_4  and  C8_8 
ROOT
HETATM    1  C1  UNL     1     -32.848   7.969   2.689  1.00 20.00     0.030 A 
HETATM    2  C2  UNL     1     -32.953   5.626   2.158  1.00 20.00     0.055 A 
HETATM    3  C3  UNL     1     -31.897   8.098   1.690  1.00 20.00     0.119 A 
HETATM    4  C4  UNL     1     -33.382   6.707   2.921  1.00 20.00    -0.010 A 
HETATM    5  C5  UNL     1     -31.997   5.859   1.183  1.00 20.00     0.126 A 
HETATM    6  N9  UNL     1     -31.456   7.072   0.928  1.00 20.00    -0.249 NA
HETATM    7 CL12 UNL     1     -31.409   4.586   0.195  1.00 20.00    -0.062 Cl
ENDROOT
BRANCH   4   8
HETATM    8  C8  UNL     1     -34.450   6.504   4.026  1.00 20.00     0.173 C 
HETATM    9  C6  UNL     1     -35.890   6.216   3.574  1.00 20.00     0.218 C 
HETATM   10  O10 UNL     1     -35.992   5.118   4.511  1.00 20.00    -0.384 OA
HETATM   11  C7  UNL     1     -34.552   5.110   4.664  1.00 20.00     0.218 C 
HETATM   12  F11 UNL     1     -34.320   7.524   4.901  1.00 20.00    -0.233 F 
ENDBRANCH   4   8
TORSDOF 1
ENDMDL
MODEL 6
REMARK VINA RESULT:       1.1      1.573      1.829
REMARK  1 active torsions:
REMARK  status: ('A' for Active; 'I' for Inactive)
REMARK    1  A    between atoms: C4_4  and  C8_8 
ROOT
HETATM    1  C1  UNL     1     -33.616   8.441   3.270  1.00 20.00     0.030 A 
HETATM    2  C2  UNL     1     -33.071   6.313   2.291  1.00 20.00     0.055 A 
HETATM    3  C3  UNL     1     -34.322   7.752   4.243  1.00 20.00     0.119 A 
HETATM    4  C4  UNL     1     -32.981   7.701   2.280  1.00 20.00    -0.010 A 
HETATM    5  C5  UNL     1     -33.801   5.719   3.308  1.00 20.00     0.126 A 
HETATM    6  N9  UNL     1     -34.432   6.405   4.288  1.00 20.00    -0.249 NA
HETATM    7 CL12 UNL     1     -33.967   4.014   3.401  1.00 20.00    -0.062 Cl
ENDROOT
BRANCH   4   8
HETATM    8  C8  UNL     1     -32.176   8.420   1.167  1.00 20.00     0.173 C 
HETATM    9  C6  UNL     1     -32.772   8.420  -0.249  1.00 20.00     0.218 C 
HETATM   10  O10 UNL     1     -32.525   9.839  -0.382  1.00 20.00    -0.384 OA
HETATM   11  C7  UNL     1     -32.337   9.944   1.050  1.00 20.00     0.218 C 
HETATM   12  F11 UNL     1     -30.901   7.985   1.250  1.00 20.00    -0.233 F 
ENDBRANCH   4   8
TORSDOF 1
ENDMDL
MODEL 7
REMARK VINA RESULT:       1.8      2.227      2.776
REMARK  1 active torsions:
REMARK  status: ('A' for Active; 'I' for Inactive)
REMARK    1  A    between atoms: C4_4  and  C8_8 
ROOT
HETATM    1  C1  UNL     1     -32.080   8.818   3.548  1.00 20.00     0.030 A 
HETATM    2  C2  UNL     1     -33.714   7.382   2.523  1.00 20.00     0.055 A 
HETATM    3  C3  UNL     1     -32.608   8.453   4.776  1.00 20.00     0.119 A 
HETATM    4  C4  UNL     1     -32.648   8.267   2.405  1.00 20.00    -0.010 A 
HETATM    5  C5  UNL     1     -34.170   7.081   3.797  1.00 20.00     0.126 A 
HETATM    6  N9  UNL     1     -33.642   7.596   4.931  1.00 20.00    -0.249 NA
HETATM    7 CL12 UNL     1     -35.480   6.001   4.038  1.00 20.00    -0.062 Cl
ENDROOT
BRANCH   4   8
HETATM    8  C8  UNL     1     -32.096   8.639   1.005  1.00 20.00     0.173 C 
HETATM    9  C6  UNL     1     -32.978   8.316  -0.211  1.00 20.00     0.218 C 
HETATM   10  O10 UNL     1     -32.764   9.642  -0.751  1.00 20.00    -0.384 OA
HETATM   11  C7  UNL     1     -32.277  10.091   0.537  1.00 20.00     0.218 C 
HETATM   12  F11 UNL     1     -30.832   8.169   0.935  1.00 20.00    -0.233 F 
ENDBRANCH   4   8
TORSDOF 1
ENDMDL
MODEL 8
REMARK VINA RESULT:       2.0      3.574      4.500
REMARK  1 active torsions:
REMARK  status: ('A' for Active; 'I' for Inactive)
REMARK    1  A    between atoms: C4_4  and  C8_8 
ROOT
HETATM    1  C1  UNL     1     -34.337   6.935   4.367  1.00 20.00     0.030 A 
HETATM    2  C2  UNL     1     -32.935   5.980   2.662  1.00 20.00     0.055 A 
HETATM    3  C3  UNL     1     -33.986   8.184   3.881  1.00 20.00     0.119 A 
HETATM    4  C4  UNL     1     -33.799   5.817   3.740  1.00 20.00    -0.010 A 
HETATM    5  C5  UNL     1     -32.645   7.271   2.252  1.00 20.00     0.126 A 
HETATM    6  N9  UNL     1     -33.151   8.382   2.836  1.00 20.00    -0.249 NA
HETATM    7 CL12 UNL     1     -31.590   7.568   0.933  1.00 20.00    -0.062 Cl
ENDROOT
BRANCH   4   8
HETATM    8  C8  UNL     1     -34.158   4.395   4.242  1.00 20.00     0.173 C 
HETATM    9  C6  UNL     1     -33.683   3.205   3.394  1.00 20.00     0.218 C 
HETATM   10  O10 UNL     1     -33.181   2.532   4.572  1.00 20.00    -0.384 OA
HETATM   11  C7  UNL     1     -33.251   3.773   5.315  1.00 20.00     0.218 C 
HETATM   12  F11 UNL     1     -35.475   4.395   4.538  1.00 20.00    -0.233 F 
ENDBRANCH   4   8
TORSDOF 1
ENDMDL
