MODEL 1
REMARK VINA RESULT:       2.0      0.000      0.000
REMARK  1 active torsions:
REMARK  status: ('A' for Active; 'I' for Inactive)
REMARK    1  A    between atoms: C2_2  and  C6_6 
ROOT
HETATM    1  C3  UNL     1     -32.713   4.861   2.433  1.00 20.00     0.006 C 
HETATM    2  C4  UNL     1     -31.393   5.382   1.851  1.00 20.00     0.006 C 
HETATM    3  C5  UNL     1     -33.136   5.992   0.394  1.00 20.00     0.010 C 
HETATM    4  C6  UNL     1     -33.769   7.197   2.329  1.00 20.00     0.025 C 
HETATM    5  C7  UNL     1     -33.774   5.757   1.765  1.00 20.00    -0.005 C 
HETATM    6  C8  UNL     1     -31.848   6.577   0.994  1.00 20.00    -0.006 C 
HETATM    7  C9  UNL     1     -32.383   7.754   1.880  1.00 20.00    -0.036 C 
HETATM    8  C11 UNL     1     -32.571   9.019   1.016  1.00 20.00     0.016 C 
HETATM    9  C12 UNL     1     -31.420   8.126   3.021  1.00 20.00     0.016 C 
ENDROOT
BRANCH   4  10
HETATM   10  C2  UNL     1     -34.118   7.278   3.781  1.00 20.00    -0.088 C 
HETATM   11  C1  UNL     1     -33.528   8.156   4.605  1.00 20.00     0.014 C 
HETATM   12  C10 UNL     1     -35.168   6.321   4.263  1.00 20.00     0.043 C 
ENDBRANCH   4  10
TORSDOF 1
ENDMDL
MODEL 2
REMARK VINA RESULT:       2.3      1.115      2.854
REMARK  1 active torsions:
REMARK  status: ('A' for Active; 'I' for Inactive)
REMARK    1  A    between atoms: C2_2  and  C6_6 
ROOT
HETATM    1  C3  UNL     1     -33.068   9.139   2.177  1.00 20.00     0.006 C 
HETATM    2  C4  UNL     1     -32.756   8.802   0.714  1.00 20.00     0.006 C 
HETATM    3  C5  UNL     1     -30.971   8.044   2.044  1.00 20.00     0.010 C 
HETATM    4  C6  UNL     1     -32.723   6.699   2.891  1.00 20.00     0.025 C 
HETATM    5  C7  UNL     1     -32.189   8.148   2.965  1.00 20.00    -0.005 C 
HETATM    6  C8  UNL     1     -31.809   7.595   0.837  1.00 20.00    -0.006 C 
HETATM    7  C9  UNL     1     -32.554   6.330   1.384  1.00 20.00    -0.036 C 
HETATM    8  C11 UNL     1     -31.653   5.084   1.239  1.00 20.00     0.016 C 
HETATM    9  C12 UNL     1     -33.860   6.032   0.627  1.00 20.00     0.016 C 
ENDROOT
BRANCH   4  10
HETATM   10  C2  UNL     1     -34.074   6.522   3.507  1.00 20.00    -0.088 C 
HETATM   11  C1  UNL     1     -34.874   7.564   3.776  1.00 20.00     0.014 C 
HETATM   12  C10 UNL     1     -34.485   5.110   3.805  1.00 20.00     0.043 C 
ENDBRANCH   4  10
TORSDOF 1
ENDMDL
MODEL 3
REMARK VINA RESULT:       3.0      0.400      1.087
REMARK  1 active torsions:
REMARK  status: ('A' for Active; 'I' for Inactive)
REMARK    1  A    between atoms: C2_2  and  C6_6 
ROOT
HETATM    1  C3  UNL     1     -32.590   5.167   2.271  1.00 20.00     0.006 C 
HETATM    2  C4  UNL     1     -31.292   5.743   1.691  1.00 20.00     0.006 C 
HETATM    3  C5  UNL     1     -33.084   6.469   0.354  1.00 20.00     0.010 C 
HETATM    4  C6  UNL     1     -33.651   7.499   2.408  1.00 20.00     0.025 C 
HETATM    5  C7  UNL     1     -33.674   6.113   1.721  1.00 20.00    -0.005 C 
HETATM    6  C8  UNL     1     -31.777   7.006   0.958  1.00 20.00    -0.006 C 
HETATM    7  C9  UNL     1     -32.282   8.099   1.961  1.00 20.00    -0.036 C 
HETATM    8  C11 UNL     1     -32.502   9.434   1.218  1.00 20.00     0.016 C 
HETATM    9  C12 UNL     1     -31.280   8.374   3.096  1.00 20.00     0.016 C 
ENDROOT
BRANCH   4  10
HETATM   10  C2  UNL     1     -33.950   7.452   3.872  1.00 20.00    -0.088 C 
HETATM   11  C1  UNL     1     -34.927   6.682   4.372  1.00 20.00     0.014 C 
HETATM   12  C10 UNL     1     -33.091   8.313   4.750  1.00 20.00     0.043 C 
ENDBRANCH   4  10
TORSDOF 1
ENDMDL
MODEL 4
REMARK VINA RESULT:       3.2      0.949      3.261
REMARK  1 active torsions:
REMARK  status: ('A' for Active; 'I' for Inactive)
REMARK    1  A    between atoms: C2_2  and  C6_6 
ROOT
HETATM    1  C3  UNL     1     -33.327   7.439   4.349  1.00 20.00     0.006 C 
HETATM    2  C4  UNL     1     -33.267   5.906   4.318  1.00 20.00     0.006 C 
HETATM    3  C5  UNL     1     -35.145   6.596   3.083  1.00 20.00     0.010 C 
HETATM    4  C6  UNL     1     -33.415   7.560   1.787  1.00 20.00     0.025 C 
HETATM    5  C7  UNL     1     -34.180   7.785   3.113  1.00 20.00    -0.005 C 
HETATM    6  C8  UNL     1     -34.011   5.562   3.016  1.00 20.00    -0.006 C 
HETATM    7  C9  UNL     1     -33.203   6.015   1.752  1.00 20.00    -0.036 C 
HETATM    8  C11 UNL     1     -33.841   5.418   0.479  1.00 20.00     0.016 C 
HETATM    9  C12 UNL     1     -31.737   5.549   1.783  1.00 20.00     0.016 C 
ENDROOT
BRANCH   4  10
HETATM   10  C2  UNL     1     -32.213   8.435   1.628  1.00 20.00    -0.088 C 
HETATM   11  C1  UNL     1     -31.187   8.394   2.490  1.00 20.00     0.014 C 
HETATM   12  C10 UNL     1     -32.220   9.361   0.448  1.00 20.00     0.043 C 
ENDBRANCH   4  10
TORSDOF 1
ENDMDL
MODEL 5
REMARK VINA RESULT:       3.5      1.152      2.104
REMARK  1 active torsions:
REMARK  status: ('A' for Active; 'I' for Inactive)
REMARK    1  A    between atoms: C2_2  and  C6_6 
ROOT
HETATM    1  C3  UNL     1     -31.811   5.744   1.830  1.00 20.00     0.006 C 
HETATM    2  C4  UNL     1     -31.284   7.137   2.194  1.00 20.00     0.006 C 
HETATM    3  C5  UNL     1     -33.199   7.399   0.856  1.00 20.00     0.010 C 
HETATM    4  C6  UNL     1     -34.146   6.310   2.731  1.00 20.00     0.025 C 
HETATM    5  C7  UNL     1     -33.289   6.004   1.480  1.00 20.00    -0.005 C 
HETATM    6  C8  UNL     1     -32.545   8.013   2.103  1.00 20.00    -0.006 C 
HETATM    7  C9  UNL     1     -33.571   7.669   3.237  1.00 20.00    -0.036 C 
HETATM    8  C11 UNL     1     -34.686   8.736   3.279  1.00 20.00     0.016 C 
HETATM    9  C12 UNL     1     -32.926   7.635   4.634  1.00 20.00     0.016 C 
ENDROOT
BRANCH   4  10
HETATM   10  C2  UNL     1     -34.219   5.176   3.704  1.00 20.00    -0.088 C 
HETATM   11  C1  UNL     1     -33.311   4.190   3.714  1.00 20.00     0.014 C 
HETATM   12  C10 UNL     1     -35.366   5.207   4.670  1.00 20.00     0.043 C 
ENDBRANCH   4  10
TORSDOF 1
ENDMDL
MODEL 6
REMARK VINA RESULT:       3.8      1.083      3.674
REMARK  1 active torsions:
REMARK  status: ('A' for Active; 'I' for Inactive)
REMARK    1  A    between atoms: C2_2  and  C6_6 
ROOT
HETATM    1  C3  UNL     1     -31.932   8.101   3.026  1.00 20.00     0.006 C 
HETATM    2  C4  UNL     1     -32.473   7.901   4.447  1.00 20.00     0.006 C 
HETATM    3  C5  UNL     1     -34.209   8.754   3.110  1.00 20.00     0.010 C 
HETATM    4  C6  UNL     1     -33.826   6.686   2.026  1.00 20.00     0.025 C 
HETATM    5  C7  UNL     1     -33.206   8.098   2.158  1.00 20.00    -0.005 C 
HETATM    6  C8  UNL     1     -33.982   7.710   4.214  1.00 20.00    -0.006 C 
HETATM    7  C9  UNL     1     -34.287   6.359   3.480  1.00 20.00    -0.036 C 
HETATM    8  C11 UNL     1     -35.805   6.077   3.506  1.00 20.00     0.016 C 
HETATM    9  C12 UNL     1     -33.593   5.154   4.137  1.00 20.00     0.016 C 
ENDROOT
BRANCH   4  10
HETATM   10  C2  UNL     1     -32.939   5.701   1.335  1.00 20.00    -0.088 C 
HETATM   11  C1  UNL     1     -31.636   5.588   1.633  1.00 20.00     0.014 C 
HETATM   12  C10 UNL     1     -33.591   4.843   0.291  1.00 20.00     0.043 C 
ENDBRANCH   4  10
TORSDOF 1
ENDMDL
MODEL 7
REMARK VINA RESULT:       4.3      1.076      3.434
REMARK  1 active torsions:
REMARK  status: ('A' for Active; 'I' for Inactive)
REMARK    1  A    between atoms: C2_2  and  C6_6 
ROOT
HETATM    1  C3  UNL     1     -35.078   6.635   3.135  1.00 20.00     0.006 C 
HETATM    2  C4  UNL     1     -34.957   8.161   3.222  1.00 20.00     0.006 C 
HETATM    3  C5  UNL     1     -33.353   7.211   4.654  1.00 20.00     0.010 C 
HETATM    4  C6  UNL     1     -32.587   6.395   2.569  1.00 20.00     0.025 C 
HETATM    5  C7  UNL     1     -33.699   6.142   3.614  1.00 20.00    -0.005 C 
HETATM    6  C8  UNL     1     -33.493   8.364   3.648  1.00 20.00    -0.006 C 
HETATM    7  C9  UNL     1     -32.497   7.952   2.510  1.00 20.00    -0.036 C 
HETATM    8  C11 UNL     1     -31.069   8.418   2.866  1.00 20.00     0.016 C 
HETATM    9  C12 UNL     1     -32.852   8.582   1.151  1.00 20.00     0.016 C 
ENDROOT
BRANCH   4  10
HETATM   10  C2  UNL     1     -32.786   5.657   1.285  1.00 20.00    -0.088 C 
HETATM   11  C1  UNL     1     -33.934   5.728   0.596  1.00 20.00     0.014 C 
HETATM   12  C10 UNL     1     -31.627   4.831   0.810  1.00 20.00     0.043 C 
ENDBRANCH   4  10
TORSDOF 1
ENDMDL
MODEL 8
REMARK VINA RESULT:       4.6      1.130      3.017
REMARK  1 active torsions:
REMARK  status: ('A' for Active; 'I' for Inactive)
REMARK    1  A    between atoms: C2_2  and  C6_6 
ROOT
HETATM    1  C3  UNL     1     -32.665   7.613   1.016  1.00 20.00     0.006 C 
HETATM    2  C4  UNL     1     -33.802   6.673   0.598  1.00 20.00     0.006 C 
HETATM    3  C5  UNL     1     -32.048   5.370   1.466  1.00 20.00     0.010 C 
HETATM    4  C6  UNL     1     -32.621   6.629   3.385  1.00 20.00     0.025 C 
HETATM    5  C7  UNL     1     -31.872   6.777   2.040  1.00 20.00    -0.005 C 
HETATM    6  C8  UNL     1     -33.582   5.448   1.504  1.00 20.00    -0.006 C 
HETATM    7  C9  UNL     1     -33.874   5.781   3.007  1.00 20.00    -0.036 C 
HETATM    8  C11 UNL     1     -33.907   4.479   3.837  1.00 20.00     0.016 C 
HETATM    9  C12 UNL     1     -35.230   6.480   3.210  1.00 20.00     0.016 C 
ENDROOT
BRANCH   4  10
HETATM   10  C2  UNL     1     -32.842   7.924   4.099  1.00 20.00    -0.088 C 
HETATM   11  C1  UNL     1     -33.881   8.110   4.926  1.00 20.00     0.014 C 
HETATM   12  C10 UNL     1     -31.833   9.003   3.838  1.00 20.00     0.043 C 
ENDBRANCH   4  10
TORSDOF 1
ENDMDL
MODEL 9
REMARK VINA RESULT:       4.9      1.133      3.226
REMARK  1 active torsions:
REMARK  status: ('A' for Active; 'I' for Inactive)
REMARK    1  A    between atoms: C2_2  and  C6_6 
ROOT
HETATM    1  C3  UNL     1     -33.185   6.245   0.389  1.00 20.00     0.006 C 
HETATM    2  C4  UNL     1     -34.042   5.797   1.580  1.00 20.00     0.006 C 
HETATM    3  C5  UNL     1     -31.790   5.804   2.254  1.00 20.00     0.010 C 
HETATM    4  C6  UNL     1     -32.090   8.102   1.780  1.00 20.00     0.025 C 
HETATM    5  C7  UNL     1     -31.890   6.751   1.055  1.00 20.00    -0.005 C 
HETATM    6  C8  UNL     1     -33.177   6.190   2.790  1.00 20.00    -0.006 C 
HETATM    7  C9  UNL     1     -33.068   7.746   2.942  1.00 20.00    -0.036 C 
HETATM    8  C11 UNL     1     -32.429   8.098   4.303  1.00 20.00     0.016 C 
HETATM    9  C12 UNL     1     -34.437   8.447   2.892  1.00 20.00     0.016 C 
ENDROOT
BRANCH   4  10
HETATM   10  C2  UNL     1     -32.468   9.226   0.869  1.00 20.00    -0.088 C 
HETATM   11  C1  UNL     1     -32.828  10.430   1.337  1.00 20.00     0.014 C 
HETATM   12  C10 UNL     1     -32.419   8.929  -0.601  1.00 20.00     0.043 C 
ENDBRANCH   4  10
TORSDOF 1
ENDMDL
