MODEL 1
REMARK VINA RESULT:       0.9      0.000      0.000
REMARK  0 active torsions:
REMARK  status: ('A' for Active; 'I' for Inactive)
ROOT
HETATM    1  C1  UNL     1     -33.627   5.276   3.312  1.00 20.00    -0.071 C 
HETATM    2  C2  UNL     1     -33.776   4.359   4.274  1.00 20.00    -0.027 C 
HETATM    3  C3  UNL     1     -31.630   5.791   1.955  1.00 20.00     0.009 C 
HETATM    4  C4  UNL     1     -32.069   7.263   1.848  1.00 20.00     0.006 C 
HETATM    5  C5  UNL     1     -33.835   5.910   1.068  1.00 20.00     0.014 C 
HETATM    6  C6  UNL     1     -32.968   5.032   1.967  1.00 20.00     0.015 C 
HETATM    7  C7  UNL     1     -33.611   7.171   1.917  1.00 20.00    -0.002 C 
HETATM    8  C8  UNL     1     -34.113   6.722   3.331  1.00 20.00    -0.021 C 
HETATM    9  C9  UNL     1     -33.309   2.948   4.161  1.00 20.00     0.036 C 
HETATM   10  C10 UNL     1     -33.508   7.537   4.481  1.00 20.00     0.020 C 
HETATM   11  C11 UNL     1     -35.648   6.811   3.421  1.00 20.00     0.020 C 
ENDROOT
TORSDOF 0
ENDMDL
MODEL 2
REMARK VINA RESULT:       1.8      1.657      3.457
REMARK  0 active torsions:
REMARK  status: ('A' for Active; 'I' for Inactive)
ROOT
HETATM    1  C1  UNL     1     -33.113   7.132   2.490  1.00 20.00    -0.071 C 
HETATM    2  C2  UNL     1     -34.047   6.668   3.327  1.00 20.00    -0.027 C 
HETATM    3  C3  UNL     1     -32.872   9.395   1.533  1.00 20.00     0.009 C 
HETATM    4  C4  UNL     1     -32.227   8.802   0.267  1.00 20.00     0.006 C 
HETATM    5  C5  UNL     1     -30.994   8.063   2.135  1.00 20.00     0.014 C 
HETATM    6  C6  UNL     1     -32.380   8.452   2.644  1.00 20.00     0.015 C 
HETATM    7  C7  UNL     1     -31.528   7.529   0.796  1.00 20.00    -0.002 C 
HETATM    8  C8  UNL     1     -32.554   6.437   1.251  1.00 20.00    -0.021 C 
HETATM    9  C9  UNL     1     -34.509   7.391   4.546  1.00 20.00     0.036 C 
HETATM   10  C10 UNL     1     -33.633   6.138   0.202  1.00 20.00     0.020 C 
HETATM   11  C11 UNL     1     -31.835   5.122   1.605  1.00 20.00     0.020 C 
ENDROOT
TORSDOF 0
ENDMDL
MODEL 3
REMARK VINA RESULT:       2.4      1.386      2.633
REMARK  0 active torsions:
REMARK  status: ('A' for Active; 'I' for Inactive)
ROOT
HETATM    1  C1  UNL     1     -33.374   6.976   2.606  1.00 20.00    -0.071 C 
HETATM    2  C2  UNL     1     -34.103   7.429   3.632  1.00 20.00    -0.027 C 
HETATM    3  C3  UNL     1     -32.328   4.761   2.305  1.00 20.00     0.009 C 
HETATM    4  C4  UNL     1     -31.197   5.396   1.475  1.00 20.00     0.006 C 
HETATM    5  C5  UNL     1     -33.255   5.987   0.487  1.00 20.00     0.014 C 
HETATM    6  C6  UNL     1     -33.549   5.623   1.942  1.00 20.00     0.015 C 
HETATM    7  C7  UNL     1     -31.890   6.612   0.818  1.00 20.00    -0.002 C 
HETATM    8  C8  UNL     1     -32.265   7.715   1.863  1.00 20.00    -0.021 C 
HETATM    9  C9  UNL     1     -35.205   6.659   4.278  1.00 20.00     0.036 C 
HETATM   10  C10 UNL     1     -31.099   8.111   2.778  1.00 20.00     0.020 C 
HETATM   11  C11 UNL     1     -32.789   8.981   1.160  1.00 20.00     0.020 C 
ENDROOT
TORSDOF 0
ENDMDL
MODEL 4
REMARK VINA RESULT:       2.6      0.824      2.912
REMARK  0 active torsions:
REMARK  status: ('A' for Active; 'I' for Inactive)
ROOT
HETATM    1  C1  UNL     1     -33.491   5.154   3.351  1.00 20.00    -0.071 C 
HETATM    2  C2  UNL     1     -33.077   3.888   3.469  1.00 20.00    -0.027 C 
HETATM    3  C3  UNL     1     -35.674   6.137   3.953  1.00 20.00     0.009 C 
HETATM    4  C4  UNL     1     -35.530   7.174   2.824  1.00 20.00     0.006 C 
HETATM    5  C5  UNL     1     -33.629   7.328   4.210  1.00 20.00     0.014 C 
HETATM    6  C6  UNL     1     -34.223   5.937   4.425  1.00 20.00     0.015 C 
HETATM    7  C7  UNL     1     -33.999   7.363   2.718  1.00 20.00    -0.002 C 
HETATM    8  C8  UNL     1     -33.284   6.086   2.161  1.00 20.00    -0.021 C 
HETATM    9  C9  UNL     1     -33.281   3.054   4.689  1.00 20.00     0.036 C 
HETATM   10  C10 UNL     1     -33.913   5.549   0.869  1.00 20.00     0.020 C 
HETATM   11  C11 UNL     1     -31.791   6.364   1.901  1.00 20.00     0.020 C 
ENDROOT
TORSDOF 0
ENDMDL
MODEL 5
REMARK VINA RESULT:       3.4      1.300      3.898
REMARK  0 active torsions:
REMARK  status: ('A' for Active; 'I' for Inactive)
ROOT
HETATM    1  C1  UNL     1     -32.945   7.509   1.795  1.00 20.00    -0.071 C 
HETATM    2  C2  UNL     1     -32.267   8.306   0.963  1.00 20.00    -0.027 C 
HETATM    3  C3  UNL     1     -33.145   7.642   4.252  1.00 20.00     0.009 C 
HETATM    4  C4  UNL     1     -33.294   6.111   4.333  1.00 20.00     0.006 C 
HETATM    5  C5  UNL     1     -34.946   6.933   2.867  1.00 20.00     0.014 C 
HETATM    6  C6  UNL     1     -33.841   7.986   2.924  1.00 20.00     0.015 C 
HETATM    7  C7  UNL     1     -33.966   5.756   2.987  1.00 20.00    -0.002 C 
HETATM    8  C8  UNL     1     -33.008   5.985   1.770  1.00 20.00    -0.021 C 
HETATM    9  C9  UNL     1     -32.293   9.796   1.027  1.00 20.00     0.036 C 
HETATM   10  C10 UNL     1     -31.632   5.331   1.944  1.00 20.00     0.020 C 
HETATM   11  C11 UNL     1     -33.640   5.458   0.468  1.00 20.00     0.020 C 
ENDROOT
TORSDOF 0
ENDMDL
MODEL 6
REMARK VINA RESULT:       3.5      1.474      3.684
REMARK  0 active torsions:
REMARK  status: ('A' for Active; 'I' for Inactive)
ROOT
HETATM    1  C1  UNL     1     -32.788   8.000   1.829  1.00 20.00    -0.071 C 
HETATM    2  C2  UNL     1     -32.842   9.273   1.422  1.00 20.00    -0.027 C 
HETATM    3  C3  UNL     1     -33.270   5.942   0.553  1.00 20.00     0.009 C 
HETATM    4  C4  UNL     1     -33.744   5.243   1.841  1.00 20.00     0.006 C 
HETATM    5  C5  UNL     1     -31.557   6.044   2.203  1.00 20.00     0.014 C 
HETATM    6  C6  UNL     1     -32.145   6.863   1.056  1.00 20.00     0.015 C 
HETATM    7  C7  UNL     1     -32.901   5.929   2.940  1.00 20.00    -0.002 C 
HETATM    8  C8  UNL     1     -33.304   7.428   3.145  1.00 20.00    -0.021 C 
HETATM    9  C9  UNL     1     -32.271   9.762   0.134  1.00 20.00     0.036 C 
HETATM   10  C10 UNL     1     -34.813   7.634   3.330  1.00 20.00     0.020 C 
HETATM   11  C11 UNL     1     -32.574   8.031   4.360  1.00 20.00     0.020 C 
ENDROOT
TORSDOF 0
ENDMDL
MODEL 7
REMARK VINA RESULT:       3.9      1.311      2.776
REMARK  0 active torsions:
REMARK  status: ('A' for Active; 'I' for Inactive)
ROOT
HETATM    1  C1  UNL     1     -33.565   6.484   2.624  1.00 20.00    -0.071 C 
HETATM    2  C2  UNL     1     -33.221   5.500   1.786  1.00 20.00    -0.027 C 
HETATM    3  C3  UNL     1     -32.111   7.923   4.006  1.00 20.00     0.009 C 
HETATM    4  C4  UNL     1     -33.221   8.042   5.067  1.00 20.00     0.006 C 
HETATM    5  C5  UNL     1     -34.108   8.731   2.995  1.00 20.00     0.014 C 
HETATM    6  C6  UNL     1     -32.900   7.847   2.689  1.00 20.00     0.015 C 
HETATM    7  C7  UNL     1     -34.515   7.915   4.232  1.00 20.00    -0.002 C 
HETATM    8  C8  UNL     1     -34.700   6.476   3.643  1.00 20.00    -0.021 C 
HETATM    9  C9  UNL     1     -32.122   5.603   0.783  1.00 20.00     0.036 C 
HETATM   10  C10 UNL     1     -34.549   5.364   4.690  1.00 20.00     0.020 C 
HETATM   11  C11 UNL     1     -36.077   6.331   2.969  1.00 20.00     0.020 C 
ENDROOT
TORSDOF 0
ENDMDL
