MODEL 1
REMARK VINA RESULT:      -0.7      0.000      0.000
REMARK  2 active torsions:
REMARK  status: ('A' for Active; 'I' for Inactive)
REMARK    1  A    between atoms: C3_3  and  C4_4 
REMARK    2  A    between atoms: C5_5  and  C9_9 
ROOT
HETATM    1  C1  UNL     1     -32.132   7.024   1.084  1.00 20.00    -0.024 C 
HETATM    2  C2  UNL     1     -32.415   8.293   1.425  1.00 20.00    -0.087 C 
HETATM    3  C6  UNL     1     -32.626   5.827   1.842  1.00 20.00     0.036 C 
HETATM    4  C7  UNL     1     -33.241   8.624   2.642  1.00 20.00     0.034 C 
HETATM    5  C8  UNL     1     -33.431   7.442   3.597  1.00 20.00     0.013 C 
HETATM    6  C9  UNL     1     -33.756   6.155   2.831  1.00 20.00     0.018 C 
HETATM    7  C10 UNL     1     -31.932   9.459   0.615  1.00 20.00     0.043 C 
ENDROOT
BRANCH   6   8
HETATM    8  C5  UNL     1     -33.996   5.010   3.769  1.00 20.00    -0.076 C 
HETATM    9  C3  UNL     1     -33.187   3.955   3.967  1.00 20.00     0.044 C 
HETATM   10  C11 UNL     1     -35.289   5.113   4.536  1.00 20.00     0.044 C 
BRANCH   9  11
HETATM   11  C4  UNL     1     -33.451   2.838   4.901  1.00 20.00     0.259 C 
HETATM   12  O12 UNL     1     -33.497   1.676   4.515  1.00 20.00    -0.302 OA
ENDBRANCH   9  11
ENDBRANCH   6   8
TORSDOF 2
ENDMDL
MODEL 2
REMARK VINA RESULT:      -0.1      3.250      5.681
REMARK  2 active torsions:
REMARK  status: ('A' for Active; 'I' for Inactive)
REMARK    1  A    between atoms: C3_3  and  C4_4 
REMARK    2  A    between atoms: C5_5  and  C9_9 
ROOT
HETATM    1  C1  UNL     1     -33.541   5.154   2.721  1.00 20.00    -0.024 C 
HETATM    2  C2  UNL     1     -34.244   5.536   3.802  1.00 20.00    -0.087 C 
HETATM    3  C6  UNL     1     -32.842   6.112   1.800  1.00 20.00     0.036 C 
HETATM    4  C7  UNL     1     -34.420   6.989   4.164  1.00 20.00     0.034 C 
HETATM    5  C8  UNL     1     -34.024   7.955   3.044  1.00 20.00     0.013 C 
HETATM    6  C9  UNL     1     -32.709   7.529   2.381  1.00 20.00     0.018 C 
HETATM    7  C10 UNL     1     -34.894   4.541   4.717  1.00 20.00     0.043 C 
ENDROOT
BRANCH   6   8
HETATM    8  C5  UNL     1     -32.294   8.505   1.321  1.00 20.00    -0.076 C 
HETATM    9  C3  UNL     1     -32.889   9.676   1.033  1.00 20.00     0.044 C 
HETATM   10  C11 UNL     1     -31.083   8.071   0.536  1.00 20.00     0.044 C 
BRANCH   9  11
HETATM   11  C4  UNL     1     -32.455  10.619  -0.021  1.00 20.00     0.259 C 
HETATM   12  O12 UNL     1     -32.890  10.548  -1.165  1.00 20.00    -0.302 OA
ENDBRANCH   9  11
ENDBRANCH   6   8
TORSDOF 2
ENDMDL
MODEL 3
REMARK VINA RESULT:       0.9      3.216      5.809
REMARK  2 active torsions:
REMARK  status: ('A' for Active; 'I' for Inactive)
REMARK    1  A    between atoms: C3_3  and  C4_4 
REMARK    2  A    between atoms: C5_5  and  C9_9 
ROOT
HETATM    1  C1  UNL     1     -34.096   6.049   3.950  1.00 20.00    -0.024 C 
HETATM    2  C2  UNL     1     -33.696   4.821   3.574  1.00 20.00    -0.087 C 
HETATM    3  C6  UNL     1     -33.698   7.309   3.239  1.00 20.00     0.036 C 
HETATM    4  C7  UNL     1     -32.769   4.610   2.405  1.00 20.00     0.034 C 
HETATM    5  C8  UNL     1     -32.089   5.893   1.919  1.00 20.00     0.013 C 
HETATM    6  C9  UNL     1     -33.081   7.058   1.853  1.00 20.00     0.018 C 
HETATM    7  C10 UNL     1     -34.150   3.585   4.292  1.00 20.00     0.043 C 
ENDROOT
BRANCH   6   8
HETATM    8  C5  UNL     1     -32.428   8.300   1.325  1.00 20.00    -0.076 C 
HETATM    9  C3  UNL     1     -32.873   9.074   0.321  1.00 20.00     0.044 C 
HETATM   10  C11 UNL     1     -31.148   8.662   2.035  1.00 20.00     0.044 C 
BRANCH   9  11
HETATM   11  C4  UNL     1     -32.204  10.296  -0.179  1.00 20.00     0.259 C 
HETATM   12  O12 UNL     1     -32.262  11.356   0.434  1.00 20.00    -0.302 OA
ENDBRANCH   9  11
ENDBRANCH   6   8
TORSDOF 2
ENDMDL
MODEL 4
REMARK VINA RESULT:       1.0      0.897      1.734
REMARK  2 active torsions:
REMARK  status: ('A' for Active; 'I' for Inactive)
REMARK    1  A    between atoms: C3_3  and  C4_4 
REMARK    2  A    between atoms: C5_5  and  C9_9 
ROOT
HETATM    1  C1  UNL     1     -33.449   9.325   1.909  1.00 20.00    -0.024 C 
HETATM    2  C2  UNL     1     -32.481   9.144   0.994  1.00 20.00    -0.087 C 
HETATM    3  C6  UNL     1     -33.939   8.246   2.830  1.00 20.00     0.036 C 
HETATM    4  C7  UNL     1     -31.820   7.805   0.790  1.00 20.00     0.034 C 
HETATM    5  C8  UNL     1     -32.561   6.644   1.460  1.00 20.00     0.013 C 
HETATM    6  C9  UNL     1     -33.015   7.018   2.876  1.00 20.00     0.018 C 
HETATM    7  C10 UNL     1     -31.995  10.262   0.120  1.00 20.00     0.043 C 
ENDROOT
BRANCH   6   8
HETATM    8  C5  UNL     1     -33.691   5.864   3.553  1.00 20.00    -0.076 C 
HETATM    9  C3  UNL     1     -33.186   4.630   3.728  1.00 20.00     0.044 C 
HETATM   10  C11 UNL     1     -35.072   6.184   4.065  1.00 20.00     0.044 C 
BRANCH   9  11
HETATM   11  C4  UNL     1     -33.880   3.510   4.401  1.00 20.00     0.259 C 
HETATM   12  O12 UNL     1     -33.262   2.557   4.861  1.00 20.00    -0.302 OA
ENDBRANCH   9  11
ENDBRANCH   6   8
TORSDOF 2
ENDMDL
MODEL 5
REMARK VINA RESULT:       1.5      3.101      5.488
REMARK  2 active torsions:
REMARK  status: ('A' for Active; 'I' for Inactive)
REMARK    1  A    between atoms: C3_3  and  C4_4 
REMARK    2  A    between atoms: C5_5  and  C9_9 
ROOT
HETATM    1  C1  UNL     1     -32.902   4.808   2.407  1.00 20.00    -0.024 C 
HETATM    2  C2  UNL     1     -33.602   4.802   3.555  1.00 20.00    -0.087 C 
HETATM    3  C6  UNL     1     -32.543   6.057   1.656  1.00 20.00     0.036 C 
HETATM    4  C7  UNL     1     -34.125   6.073   4.174  1.00 20.00     0.034 C 
HETATM    5  C8  UNL     1     -34.074   7.282   3.236  1.00 20.00     0.013 C 
HETATM    6  C9  UNL     1     -32.743   7.342   2.477  1.00 20.00     0.018 C 
HETATM    7  C10 UNL     1     -33.905   3.532   4.292  1.00 20.00     0.043 C 
ENDROOT
BRANCH   6   8
HETATM    8  C5  UNL     1     -32.672   8.555   1.599  1.00 20.00    -0.076 C 
HETATM    9  C3  UNL     1     -32.065   8.643   0.403  1.00 20.00     0.044 C 
HETATM   10  C11 UNL     1     -33.369   9.762   2.172  1.00 20.00     0.044 C 
BRANCH   9  11
HETATM   11  C4  UNL     1     -32.010   9.856  -0.441  1.00 20.00     0.259 C 
HETATM   12  O12 UNL     1     -32.992  10.255  -1.057  1.00 20.00    -0.302 OA
ENDBRANCH   9  11
ENDBRANCH   6   8
TORSDOF 2
ENDMDL
MODEL 6
REMARK VINA RESULT:       2.1      1.037      1.618
REMARK  2 active torsions:
REMARK  status: ('A' for Active; 'I' for Inactive)
REMARK    1  A    between atoms: C3_3  and  C4_4 
REMARK    2  A    between atoms: C5_5  and  C9_9 
ROOT
HETATM    1  C1  UNL     1     -31.853   8.090   0.590  1.00 20.00    -0.024 C 
HETATM    2  C2  UNL     1     -32.521   9.118   1.142  1.00 20.00    -0.087 C 
HETATM    3  C6  UNL     1     -31.956   6.673   1.075  1.00 20.00     0.036 C 
HETATM    4  C7  UNL     1     -33.419   8.933   2.339  1.00 20.00     0.034 C 
HETATM    5  C8  UNL     1     -33.239   7.584   3.040  1.00 20.00     0.013 C 
HETATM    6  C9  UNL     1     -33.141   6.438   2.027  1.00 20.00     0.018 C 
HETATM    7  C10 UNL     1     -32.417  10.513   0.601  1.00 20.00     0.043 C 
ENDROOT
BRANCH   6   8
HETATM    8  C5  UNL     1     -33.020   5.112   2.715  1.00 20.00    -0.076 C 
HETATM    9  C3  UNL     1     -33.823   4.635   3.682  1.00 20.00     0.044 C 
HETATM   10  C11 UNL     1     -31.863   4.277   2.228  1.00 20.00     0.044 C 
BRANCH   9  11
HETATM   11  C4  UNL     1     -33.678   3.320   4.343  1.00 20.00     0.259 C 
HETATM   12  O12 UNL     1     -32.826   3.124   5.202  1.00 20.00    -0.302 OA
ENDBRANCH   9  11
ENDBRANCH   6   8
TORSDOF 2
ENDMDL
