MODEL 1
REMARK VINA RESULT:      -0.3      0.000      0.000
REMARK  0 active torsions:
REMARK  status: ('A' for Active; 'I' for Inactive)
ROOT
HETATM    1  C1  UNL     1     -34.319   6.380   3.542  1.00 20.00     0.227 C 
HETATM    2 CL2  UNL     1     -35.997   6.731   3.082  1.00 20.00    -0.076 Cl
HETATM    3 CL3  UNL     1     -33.748   7.564   4.733  1.00 20.00    -0.076 Cl
HETATM    4 BR4  UNL     1     -34.246   4.602   4.338  1.00 20.00    -0.037 Br
HETATM    5 BR5  UNL     1     -33.196   6.499   1.951  1.00 20.00    -0.037 Br
ENDROOT
TORSDOF 0
ENDMDL
MODEL 2
REMARK VINA RESULT:      -0.3      0.001      2.748
REMARK  0 active torsions:
REMARK  status: ('A' for Active; 'I' for Inactive)
ROOT
HETATM    1  C1  UNL     1     -34.319   6.380   3.541  1.00 20.00     0.227 C 
HETATM    2 CL2  UNL     1     -33.747   7.564   4.733  1.00 20.00    -0.076 Cl
HETATM    3 CL3  UNL     1     -35.997   6.731   3.082  1.00 20.00    -0.076 Cl
HETATM    4 BR4  UNL     1     -33.196   6.499   1.952  1.00 20.00    -0.037 Br
HETATM    5 BR5  UNL     1     -34.246   4.601   4.338  1.00 20.00    -0.037 Br
ENDROOT
TORSDOF 0
ENDMDL
MODEL 3
REMARK VINA RESULT:      -0.2      1.872      2.440
REMARK  0 active torsions:
REMARK  status: ('A' for Active; 'I' for Inactive)
ROOT
HETATM    1  C1  UNL     1     -34.269   6.291   3.507  1.00 20.00     0.227 C 
HETATM    2 CL2  UNL     1     -35.975   6.641   3.167  1.00 20.00    -0.076 Cl
HETATM    3 CL3  UNL     1     -33.330   6.290   2.002  1.00 20.00    -0.076 Cl
HETATM    4 BR4  UNL     1     -33.567   7.677   4.685  1.00 20.00    -0.037 Br
HETATM    5 BR5  UNL     1     -34.144   4.524   4.326  1.00 20.00    -0.037 Br
ENDROOT
TORSDOF 0
ENDMDL
MODEL 4
REMARK VINA RESULT:      -0.2      1.872      2.270
REMARK  0 active torsions:
REMARK  status: ('A' for Active; 'I' for Inactive)
ROOT
HETATM    1  C1  UNL     1     -34.270   6.290   3.507  1.00 20.00     0.227 C 
HETATM    2 CL2  UNL     1     -33.330   6.289   2.002  1.00 20.00    -0.076 Cl
HETATM    3 CL3  UNL     1     -35.976   6.641   3.166  1.00 20.00    -0.076 Cl
HETATM    4 BR4  UNL     1     -34.143   4.525   4.326  1.00 20.00    -0.037 Br
HETATM    5 BR5  UNL     1     -33.567   7.677   4.684  1.00 20.00    -0.037 Br
ENDROOT
TORSDOF 0
ENDMDL
MODEL 5
REMARK VINA RESULT:      -0.1      1.905      2.338
REMARK  0 active torsions:
REMARK  status: ('A' for Active; 'I' for Inactive)
ROOT
HETATM    1  C1  UNL     1     -34.288   6.317   3.507  1.00 20.00     0.227 C 
HETATM    2 CL2  UNL     1     -34.198   4.749   4.331  1.00 20.00    -0.076 Cl
HETATM    3 CL3  UNL     1     -35.970   6.698   3.091  1.00 20.00    -0.076 Cl
HETATM    4 BR4  UNL     1     -33.611   7.696   4.708  1.00 20.00    -0.037 Br
HETATM    5 BR5  UNL     1     -33.241   6.223   1.864  1.00 20.00    -0.037 Br
ENDROOT
TORSDOF 0
ENDMDL
MODEL 6
REMARK VINA RESULT:      -0.1      1.905      2.335
REMARK  0 active torsions:
REMARK  status: ('A' for Active; 'I' for Inactive)
ROOT
HETATM    1  C1  UNL     1     -34.287   6.317   3.507  1.00 20.00     0.227 C 
HETATM    2 CL2  UNL     1     -35.970   6.697   3.091  1.00 20.00    -0.076 Cl
HETATM    3 CL3  UNL     1     -34.198   4.748   4.332  1.00 20.00    -0.076 Cl
HETATM    4 BR4  UNL     1     -33.242   6.223   1.864  1.00 20.00    -0.037 Br
HETATM    5 BR5  UNL     1     -33.611   7.697   4.708  1.00 20.00    -0.037 Br
ENDROOT
TORSDOF 0
ENDMDL
MODEL 7
REMARK VINA RESULT:      -0.0      3.276      3.819
REMARK  0 active torsions:
REMARK  status: ('A' for Active; 'I' for Inactive)
ROOT
HETATM    1  C1  UNL     1     -32.292   7.875   2.109  1.00 20.00     0.227 C 
HETATM    2 CL2  UNL     1     -30.943   8.445   3.110  1.00 20.00    -0.076 Cl
HETATM    3 CL3  UNL     1     -31.887   6.320   1.357  1.00 20.00    -0.076 Cl
HETATM    4 BR4  UNL     1     -33.858   7.634   3.245  1.00 20.00    -0.037 Br
HETATM    5 BR5  UNL     1     -32.624   9.185   0.701  1.00 20.00    -0.037 Br
ENDROOT
TORSDOF 0
ENDMDL
MODEL 8
REMARK VINA RESULT:      -0.0      3.276      4.000
REMARK  0 active torsions:
REMARK  status: ('A' for Active; 'I' for Inactive)
ROOT
HETATM    1  C1  UNL     1     -32.292   7.876   2.108  1.00 20.00     0.227 C 
HETATM    2 CL2  UNL     1     -31.887   6.320   1.357  1.00 20.00    -0.076 Cl
HETATM    3 CL3  UNL     1     -30.942   8.445   3.110  1.00 20.00    -0.076 Cl
HETATM    4 BR4  UNL     1     -32.624   9.184   0.701  1.00 20.00    -0.037 Br
HETATM    5 BR5  UNL     1     -33.858   7.634   3.245  1.00 20.00    -0.037 Br
ENDROOT
TORSDOF 0
ENDMDL
MODEL 9
REMARK VINA RESULT:       0.1      3.011      3.443
REMARK  0 active torsions:
REMARK  status: ('A' for Active; 'I' for Inactive)
ROOT
HETATM    1  C1  UNL     1     -32.877   6.280   1.659  1.00 20.00     0.227 C 
HETATM    2 CL2  UNL     1     -31.617   5.031   1.629  1.00 20.00    -0.076 Cl
HETATM    3 CL3  UNL     1     -33.928   6.127   0.237  1.00 20.00    -0.076 Cl
HETATM    4 BR4  UNL     1     -33.957   6.043   3.265  1.00 20.00    -0.037 Br
HETATM    5 BR5  UNL     1     -32.024   8.034   1.622  1.00 20.00    -0.037 Br
ENDROOT
TORSDOF 0
ENDMDL
