MODEL 1
REMARK VINA RESULT:       1.5      0.000      0.000
REMARK  0 active torsions:
REMARK  status: ('A' for Active; 'I' for Inactive)
ROOT
HETATM    1  C1  UNL     1     -34.592   5.211   4.247  1.00 20.00     0.023 C 
HETATM    2  C2  UNL     1     -33.630   4.354   3.884  1.00 20.00     0.047 C 
HETATM    3  C3  UNL     1     -34.568   6.561   3.549  1.00 20.00     0.040 C 
HETATM    4  C4  UNL     1     -33.386   2.991   4.416  1.00 20.00     0.076 C 
HETATM    5  C5  UNL     1     -34.154   7.632   4.566  1.00 20.00     0.029 C 
HETATM    6  C6  UNL     1     -35.938   6.908   2.970  1.00 20.00     0.029 C 
HETATM    7  O7  UNL     1     -32.766   4.813   2.900  1.00 20.00    -0.305 OA
HETATM    8  P8  UNL     1     -33.258   6.247   2.286  1.00 20.00     0.165 P 
HETATM    9  S9  UNL     1     -31.887   7.552   1.890  1.00 20.00    -0.049 SA
HETATM   10 CL10 UNL     1     -34.175   5.638   0.602  1.00 20.00    -0.054 Cl
ENDROOT
TORSDOF 0
ENDMDL
MODEL 2
REMARK VINA RESULT:       2.5      2.825      3.545
REMARK  0 active torsions:
REMARK  status: ('A' for Active; 'I' for Inactive)
ROOT
HETATM    1  C1  UNL     1     -33.613   5.738   2.625  1.00 20.00     0.023 C 
HETATM    2  C2  UNL     1     -34.080   6.752   3.363  1.00 20.00     0.047 C 
HETATM    3  C3  UNL     1     -32.701   6.128   1.474  1.00 20.00     0.040 C 
HETATM    4  C4  UNL     1     -35.009   6.677   4.518  1.00 20.00     0.076 C 
HETATM    5  C5  UNL     1     -33.440   5.872   0.155  1.00 20.00     0.029 C 
HETATM    6  C6  UNL     1     -31.404   5.321   1.499  1.00 20.00     0.029 C 
HETATM    7  O7  UNL     1     -33.640   8.013   2.988  1.00 20.00    -0.305 OA
HETATM    8  P8  UNL     1     -32.492   7.929   1.825  1.00 20.00     0.165 P 
HETATM    9  S9  UNL     1     -32.562   9.258   0.421  1.00 20.00    -0.049 SA
HETATM   10 CL10 UNL     1     -30.824   8.140   2.930  1.00 20.00    -0.054 Cl
ENDROOT
TORSDOF 0
ENDMDL
MODEL 3
REMARK VINA RESULT:       2.9      2.321      2.892
REMARK  0 active torsions:
REMARK  status: ('A' for Active; 'I' for Inactive)
ROOT
HETATM    1  C1  UNL     1     -33.506   7.841   3.035  1.00 20.00     0.023 C 
HETATM    2  C2  UNL     1     -34.118   6.700   3.373  1.00 20.00     0.047 C 
HETATM    3  C3  UNL     1     -32.448   7.724   1.951  1.00 20.00     0.040 C 
HETATM    4  C4  UNL     1     -35.158   6.504   4.413  1.00 20.00     0.076 C 
HETATM    5  C5  UNL     1     -31.070   7.950   2.584  1.00 20.00     0.029 C 
HETATM    6  C6  UNL     1     -32.676   8.750   0.843  1.00 20.00     0.029 C 
HETATM    7  O7  UNL     1     -33.718   5.577   2.662  1.00 20.00    -0.305 OA
HETATM    8  P8  UNL     1     -32.706   5.969   1.438  1.00 20.00     0.165 P 
HETATM    9  S9  UNL     1     -31.222   4.773   1.104  1.00 20.00    -0.049 SA
HETATM   10 CL10 UNL     1     -33.984   5.975  -0.117  1.00 20.00    -0.054 Cl
ENDROOT
TORSDOF 0
ENDMDL
MODEL 4
REMARK VINA RESULT:       3.5      2.742      3.060
REMARK  0 active torsions:
REMARK  status: ('A' for Active; 'I' for Inactive)
ROOT
HETATM    1  C1  UNL     1     -32.762   4.703   2.864  1.00 20.00     0.023 C 
HETATM    2  C2  UNL     1     -33.457   4.230   3.905  1.00 20.00     0.047 C 
HETATM    3  C3  UNL     1     -33.313   5.967   2.226  1.00 20.00     0.040 C 
HETATM    4  C4  UNL     1     -33.179   3.005   4.696  1.00 20.00     0.076 C 
HETATM    5  C5  UNL     1     -33.870   5.615   0.841  1.00 20.00     0.029 C 
HETATM    6  C6  UNL     1     -32.228   7.033   2.085  1.00 20.00     0.029 C 
HETATM    7  O7  UNL     1     -34.565   4.980   4.271  1.00 20.00    -0.305 OA
HETATM    8  P8  UNL     1     -34.645   6.384   3.434  1.00 20.00     0.165 P 
HETATM    9  S9  UNL     1     -36.397   6.969   2.862  1.00 20.00    -0.049 SA
HETATM   10 CL10 UNL     1     -33.866   7.664   4.777  1.00 20.00    -0.054 Cl
ENDROOT
TORSDOF 0
ENDMDL
MODEL 5
REMARK VINA RESULT:       3.5      3.073      3.861
REMARK  0 active torsions:
REMARK  status: ('A' for Active; 'I' for Inactive)
ROOT
HETATM    1  C1  UNL     1     -32.355   7.294   1.726  1.00 20.00     0.023 C 
HETATM    2  C2  UNL     1     -32.361   7.820   2.956  1.00 20.00     0.047 C 
HETATM    3  C3  UNL     1     -33.090   5.973   1.573  1.00 20.00     0.040 C 
HETATM    4  C4  UNL     1     -31.703   9.071   3.408  1.00 20.00     0.076 C 
HETATM    5  C5  UNL     1     -32.060   4.863   1.331  1.00 20.00     0.029 C 
HETATM    6  C6  UNL     1     -34.074   6.021   0.405  1.00 20.00     0.029 C 
HETATM    7  O7  UNL     1     -33.065   7.097   3.909  1.00 20.00    -0.305 OA
HETATM    8  P8  UNL     1     -33.880   5.848   3.237  1.00 20.00     0.165 P 
HETATM    9  S9  UNL     1     -33.920   4.188   4.227  1.00 20.00    -0.049 SA
HETATM   10 CL10 UNL     1     -35.724   6.641   3.092  1.00 20.00    -0.054 Cl
ENDROOT
TORSDOF 0
ENDMDL
