MODEL 1
REMARK VINA RESULT:      -1.1      0.000      0.000
REMARK  1 active torsions:
REMARK  status: ('A' for Active; 'I' for Inactive)
REMARK    1  A    between atoms: C2_2  and  C3_3 
ROOT
HETATM    1  C1  UNL     1     -35.634   6.703   3.347  1.00 20.00     0.051 C 
HETATM    2  C3  UNL     1     -34.135   6.439   3.480  1.00 20.00     0.122 C 
HETATM    3 CL5  UNL     1     -33.431   7.604   4.652  1.00 20.00    -0.101 Cl
HETATM    4 CL6  UNL     1     -33.914   4.785   4.162  1.00 20.00    -0.101 Cl
ENDROOT
BRANCH   2   5
HETATM    5  C2  UNL     1     -33.387   6.502   2.142  1.00 20.00     0.156 C 
HETATM    6 CL4  UNL     1     -32.235   7.861   2.031  1.00 20.00    -0.127 Cl
ENDBRANCH   2   5
TORSDOF 1
ENDMDL
MODEL 2
REMARK VINA RESULT:      -1.0      1.411      1.972
REMARK  1 active torsions:
REMARK  status: ('A' for Active; 'I' for Inactive)
REMARK    1  A    between atoms: C2_2  and  C3_3 
ROOT
HETATM    1  C1  UNL     1     -33.838   7.489   4.520  1.00 20.00     0.051 C 
HETATM    2  C3  UNL     1     -34.288   6.432   3.512  1.00 20.00     0.122 C 
HETATM    3 CL5  UNL     1     -34.241   4.814   4.290  1.00 20.00    -0.101 Cl
HETATM    4 CL6  UNL     1     -36.002   6.771   3.069  1.00 20.00    -0.101 Cl
ENDROOT
BRANCH   2   5
HETATM    5  C2  UNL     1     -33.457   6.434   2.221  1.00 20.00     0.156 C 
HETATM    6 CL4  UNL     1     -32.307   7.796   2.116  1.00 20.00    -0.127 Cl
ENDBRANCH   2   5
TORSDOF 1
ENDMDL
MODEL 3
REMARK VINA RESULT:      -1.0      1.959      3.016
REMARK  1 active torsions:
REMARK  status: ('A' for Active; 'I' for Inactive)
REMARK    1  A    between atoms: C2_2  and  C3_3 
ROOT
HETATM    1  C1  UNL     1     -34.075   7.471   4.484  1.00 20.00     0.051 C 
HETATM    2  C3  UNL     1     -34.685   6.322   3.683  1.00 20.00     0.122 C 
HETATM    3 CL5  UNL     1     -36.220   6.874   2.932  1.00 20.00    -0.101 Cl
HETATM    4 CL6  UNL     1     -33.550   5.901   2.348  1.00 20.00    -0.101 Cl
ENDROOT
BRANCH   2   5
HETATM    5  C2  UNL     1     -34.919   5.057   4.520  1.00 20.00     0.156 C 
HETATM    6 CL4  UNL     1     -33.776   3.736   4.152  1.00 20.00    -0.127 Cl
ENDBRANCH   2   5
TORSDOF 1
ENDMDL
MODEL 4
REMARK VINA RESULT:      -0.9      1.422      1.996
REMARK  1 active torsions:
REMARK  status: ('A' for Active; 'I' for Inactive)
REMARK    1  A    between atoms: C2_2  and  C3_3 
ROOT
HETATM    1  C1  UNL     1     -34.240   5.029   4.222  1.00 20.00     0.051 C 
HETATM    2  C3  UNL     1     -34.306   6.375   3.503  1.00 20.00     0.122 C 
HETATM    3 CL5  UNL     1     -36.015   6.745   3.095  1.00 20.00    -0.101 Cl
HETATM    4 CL6  UNL     1     -33.733   7.649   4.642  1.00 20.00    -0.101 Cl
ENDROOT
BRANCH   2   5
HETATM    5  C2  UNL     1     -33.427   6.435   2.247  1.00 20.00     0.156 C 
HETATM    6 CL4  UNL     1     -32.352   7.860   2.196  1.00 20.00    -0.127 Cl
ENDBRANCH   2   5
TORSDOF 1
ENDMDL
MODEL 5
REMARK VINA RESULT:      -0.8      1.340      2.897
REMARK  1 active torsions:
REMARK  status: ('A' for Active; 'I' for Inactive)
REMARK    1  A    between atoms: C2_2  and  C3_3 
ROOT
HETATM    1  C1  UNL     1     -35.887   6.905   3.017  1.00 20.00     0.051 C 
HETATM    2  C3  UNL     1     -34.626   6.341   3.668  1.00 20.00     0.122 C 
HETATM    3 CL5  UNL     1     -33.408   5.992   2.395  1.00 20.00    -0.101 Cl
HETATM    4 CL6  UNL     1     -33.934   7.609   4.746  1.00 20.00    -0.101 Cl
ENDROOT
BRANCH   2   5
HETATM    5  C2  UNL     1     -34.891   5.091   4.519  1.00 20.00     0.156 C 
HETATM    6 CL4  UNL     1     -33.792   3.733   4.151  1.00 20.00    -0.127 Cl
ENDBRANCH   2   5
TORSDOF 1
ENDMDL
MODEL 6
REMARK VINA RESULT:      -0.8      1.662      3.195
REMARK  1 active torsions:
REMARK  status: ('A' for Active; 'I' for Inactive)
REMARK    1  A    between atoms: C2_2  and  C3_3 
ROOT
HETATM    1  C1  UNL     1     -31.742   5.165   1.457  1.00 20.00     0.051 C 
HETATM    2  C3  UNL     1     -32.849   6.193   1.689  1.00 20.00     0.122 C 
HETATM    3 CL5  UNL     1     -32.127   7.836   1.749  1.00 20.00    -0.101 Cl
HETATM    4 CL6  UNL     1     -33.967   6.144   0.276  1.00 20.00    -0.101 Cl
ENDROOT
BRANCH   2   5
HETATM    5  C2  UNL     1     -33.674   5.920   2.954  1.00 20.00     0.156 C 
HETATM    6 CL4  UNL     1     -34.106   7.399   3.856  1.00 20.00    -0.127 Cl
ENDBRANCH   2   5
TORSDOF 1
ENDMDL
MODEL 7
REMARK VINA RESULT:      -0.7      1.949      3.238
REMARK  1 active torsions:
REMARK  status: ('A' for Active; 'I' for Inactive)
REMARK    1  A    between atoms: C2_2  and  C3_3 
ROOT
HETATM    1  C1  UNL     1     -32.203   7.676   1.721  1.00 20.00     0.051 C 
HETATM    2  C3  UNL     1     -32.841   6.288   1.700  1.00 20.00     0.122 C 
HETATM    3 CL5  UNL     1     -33.899   6.145   0.256  1.00 20.00    -0.101 Cl
HETATM    4 CL6  UNL     1     -31.527   5.066   1.532  1.00 20.00    -0.101 Cl
ENDROOT
BRANCH   2   5
HETATM    5  C2  UNL     1     -33.627   5.964   2.978  1.00 20.00     0.156 C 
HETATM    6 CL4  UNL     1     -34.141   7.413   3.886  1.00 20.00    -0.127 Cl
ENDBRANCH   2   5
TORSDOF 1
ENDMDL
MODEL 8
REMARK VINA RESULT:      -0.6      1.561      3.254
REMARK  1 active torsions:
REMARK  status: ('A' for Active; 'I' for Inactive)
REMARK    1  A    between atoms: C2_2  and  C3_3 
ROOT
HETATM    1  C1  UNL     1     -33.780   6.090   0.477  1.00 20.00     0.051 C 
HETATM    2  C3  UNL     1     -32.868   6.165   1.700  1.00 20.00     0.122 C 
HETATM    3 CL5  UNL     1     -31.510   5.007   1.497  1.00 20.00    -0.101 Cl
HETATM    4 CL6  UNL     1     -32.161   7.821   1.774  1.00 20.00    -0.101 Cl
ENDROOT
BRANCH   2   5
HETATM    5  C2  UNL     1     -33.604   5.906   3.022  1.00 20.00     0.156 C 
HETATM    6 CL4  UNL     1     -34.111   7.398   3.860  1.00 20.00    -0.127 Cl
ENDBRANCH   2   5
TORSDOF 1
ENDMDL
MODEL 9
REMARK VINA RESULT:      -0.5      2.017      3.491
REMARK  1 active torsions:
REMARK  status: ('A' for Active; 'I' for Inactive)
REMARK    1  A    between atoms: C2_2  and  C3_3 
ROOT
HETATM    1  C1  UNL     1     -30.985   8.259   2.770  1.00 20.00     0.051 C 
HETATM    2  C3  UNL     1     -32.341   7.943   2.142  1.00 20.00     0.122 C 
HETATM    3 CL5  UNL     1     -32.649   9.086   0.791  1.00 20.00    -0.101 Cl
HETATM    4 CL6  UNL     1     -32.263   6.284   1.441  1.00 20.00    -0.101 Cl
ENDROOT
BRANCH   2   5
HETATM    5  C2  UNL     1     -33.498   7.976   3.150  1.00 20.00     0.156 C 
HETATM    6 CL4  UNL     1     -34.207   6.369   3.474  1.00 20.00    -0.127 Cl
ENDBRANCH   2   5
TORSDOF 1
ENDMDL
