MODEL 1
REMARK VINA RESULT:      -3.0      0.000      0.000
REMARK  1 active torsions:
REMARK  status: ('A' for Active; 'I' for Inactive)
REMARK    1  A    between atoms: C1_1  and  C2_2 
ROOT
HETATM    1  C1  UNL     1     -34.130   7.431   3.647  1.00 20.00     0.314 C 
HETATM    2  F3  UNL     1     -33.668   7.957   4.812  1.00 20.00    -0.228 F 
HETATM    3 CL5  UNL     1     -35.322   6.169   4.026  1.00 20.00    -0.085 Cl
ENDROOT
BRANCH   1   4
HETATM    4  C2  UNL     1     -32.970   6.851   2.862  1.00 20.00     0.314 C 
HETATM    5  F4  UNL     1     -33.438   5.928   1.980  1.00 20.00    -0.228 F 
HETATM    6 CL6  UNL     1     -32.127   8.126   1.954  1.00 20.00    -0.085 Cl
ENDBRANCH   1   4
TORSDOF 1
ENDMDL
MODEL 2
REMARK VINA RESULT:      -2.8      0.653      3.298
REMARK  1 active torsions:
REMARK  status: ('A' for Active; 'I' for Inactive)
REMARK    1  A    between atoms: C1_1  and  C2_2 
ROOT
HETATM    1  C1  UNL     1     -33.428   6.723   2.270  1.00 20.00     0.314 C 
HETATM    2  F3  UNL     1     -32.998   5.446   2.096  1.00 20.00    -0.228 F 
HETATM    3 CL5  UNL     1     -32.089   7.831   1.897  1.00 20.00    -0.085 Cl
ENDROOT
BRANCH   1   4
HETATM    4  C2  UNL     1     -33.891   6.908   3.701  1.00 20.00     0.314 C 
HETATM    5  F4  UNL     1     -34.144   8.225   3.928  1.00 20.00    -0.228 F 
HETATM    6 CL6  UNL     1     -35.380   5.985   4.004  1.00 20.00    -0.085 Cl
ENDBRANCH   1   4
TORSDOF 1
ENDMDL
MODEL 3
REMARK VINA RESULT:      -2.8      1.849      3.004
REMARK  1 active torsions:
REMARK  status: ('A' for Active; 'I' for Inactive)
REMARK    1  A    between atoms: C1_1  and  C2_2 
ROOT
HETATM    1  C1  UNL     1     -31.903   7.833   1.765  1.00 20.00     0.314 C 
HETATM    2  F3  UNL     1     -31.741   8.326   3.021  1.00 20.00    -0.228 F 
HETATM    3 CL5  UNL     1     -32.319   9.175   0.677  1.00 20.00    -0.085 Cl
ENDROOT
BRANCH   1   4
HETATM    4  C2  UNL     1     -33.003   6.790   1.771  1.00 20.00     0.314 C 
HETATM    5  F4  UNL     1     -32.461   5.561   1.562  1.00 20.00    -0.228 F 
HETATM    6 CL6  UNL     1     -33.848   6.778   3.334  1.00 20.00    -0.085 Cl
ENDBRANCH   1   4
TORSDOF 1
ENDMDL
MODEL 4
REMARK VINA RESULT:      -2.7      2.130      2.901
REMARK  1 active torsions:
REMARK  status: ('A' for Active; 'I' for Inactive)
REMARK    1  A    between atoms: C1_1  and  C2_2 
ROOT
HETATM    1  C1  UNL     1     -33.479   5.409   3.413  1.00 20.00     0.314 C 
HETATM    2  F3  UNL     1     -33.218   5.256   2.088  1.00 20.00    -0.228 F 
HETATM    3 CL5  UNL     1     -33.901   3.824   4.096  1.00 20.00    -0.085 Cl
ENDROOT
BRANCH   1   4
HETATM    4  C2  UNL     1     -34.622   6.389   3.592  1.00 20.00     0.314 C 
HETATM    5  F4  UNL     1     -35.584   5.824   4.368  1.00 20.00    -0.228 F 
HETATM    6 CL6  UNL     1     -34.055   7.876   4.383  1.00 20.00    -0.085 Cl
ENDBRANCH   1   4
TORSDOF 1
ENDMDL
MODEL 5
REMARK VINA RESULT:      -2.6      1.589      1.589
REMARK  1 active torsions:
REMARK  status: ('A' for Active; 'I' for Inactive)
REMARK    1  A    between atoms: C1_1  and  C2_2 
ROOT
HETATM    1  C1  UNL     1     -33.829   7.729   3.623  1.00 20.00     0.314 C 
HETATM    2  F3  UNL     1     -33.037   7.901   4.714  1.00 20.00    -0.228 F 
HETATM    3 CL5  UNL     1     -34.740   6.216   3.813  1.00 20.00    -0.085 Cl
ENDROOT
BRANCH   1   4
HETATM    4  C2  UNL     1     -32.967   7.681   2.377  1.00 20.00     0.314 C 
HETATM    5  F4  UNL     1     -31.715   8.119   2.677  1.00 20.00    -0.228 F 
HETATM    6 CL6  UNL     1     -32.852   6.019   1.757  1.00 20.00    -0.085 Cl
ENDBRANCH   1   4
TORSDOF 1
ENDMDL
MODEL 6
REMARK VINA RESULT:      -2.6      2.252      2.877
REMARK  1 active torsions:
REMARK  status: ('A' for Active; 'I' for Inactive)
REMARK    1  A    between atoms: C1_1  and  C2_2 
ROOT
HETATM    1  C1  UNL     1     -34.954   6.198   4.079  1.00 20.00     0.314 C 
HETATM    2  F3  UNL     1     -36.163   6.480   3.523  1.00 20.00    -0.228 F 
HETATM    3 CL5  UNL     1     -33.965   7.674   4.066  1.00 20.00    -0.085 Cl
ENDROOT
BRANCH   1   4
HETATM    4  C2  UNL     1     -34.281   5.096   3.286  1.00 20.00     0.314 C 
HETATM    5  F4  UNL     1     -33.178   5.594   2.666  1.00 20.00    -0.228 F 
HETATM    6 CL6  UNL     1     -33.779   3.769   4.356  1.00 20.00    -0.085 Cl
ENDBRANCH   1   4
TORSDOF 1
ENDMDL
MODEL 7
REMARK VINA RESULT:      -2.5      2.345      2.571
REMARK  1 active torsions:
REMARK  status: ('A' for Active; 'I' for Inactive)
REMARK    1  A    between atoms: C1_1  and  C2_2 
ROOT
HETATM    1  C1  UNL     1     -34.491   4.785   3.732  1.00 20.00     0.314 C 
HETATM    2  F3  UNL     1     -35.487   5.185   4.566  1.00 20.00    -0.228 F 
HETATM    3 CL5  UNL     1     -33.586   3.472   4.515  1.00 20.00    -0.085 Cl
ENDROOT
BRANCH   1   4
HETATM    4  C2  UNL     1     -33.580   5.960   3.437  1.00 20.00     0.314 C 
HETATM    5  F4  UNL     1     -33.391   6.059   2.094  1.00 20.00    -0.228 F 
HETATM    6 CL6  UNL     1     -34.301   7.476   4.021  1.00 20.00    -0.085 Cl
ENDBRANCH   1   4
TORSDOF 1
ENDMDL
MODEL 8
REMARK VINA RESULT:      -2.5      0.707      2.105
REMARK  1 active torsions:
REMARK  status: ('A' for Active; 'I' for Inactive)
REMARK    1  A    between atoms: C1_1  and  C2_2 
ROOT
HETATM    1  C1  UNL     1     -33.799   6.328   3.472  1.00 20.00     0.314 C 
HETATM    2  F3  UNL     1     -33.649   5.824   2.219  1.00 20.00    -0.228 F 
HETATM    3 CL5  UNL     1     -35.503   6.172   3.949  1.00 20.00    -0.085 Cl
ENDROOT
BRANCH   1   4
HETATM    4  C2  UNL     1     -33.372   7.783   3.483  1.00 20.00     0.314 C 
HETATM    5  F4  UNL     1     -32.844   8.089   4.698  1.00 20.00    -0.228 F 
HETATM    6 CL6  UNL     1     -32.141   8.086   2.238  1.00 20.00    -0.085 Cl
ENDBRANCH   1   4
TORSDOF 1
ENDMDL
MODEL 9
REMARK VINA RESULT:      -2.4      1.918      2.885
REMARK  1 active torsions:
REMARK  status: ('A' for Active; 'I' for Inactive)
REMARK    1  A    between atoms: C1_1  and  C2_2 
ROOT
HETATM    1  C1  UNL     1     -33.842   7.067   3.707  1.00 20.00     0.314 C 
HETATM    2  F3  UNL     1     -34.311   8.326   3.499  1.00 20.00    -0.228 F 
HETATM    3 CL5  UNL     1     -33.214   6.432   2.171  1.00 20.00    -0.085 Cl
ENDROOT
BRANCH   1   4
HETATM    4  C2  UNL     1     -34.964   6.191   4.228  1.00 20.00     0.314 C 
HETATM    5  F4  UNL     1     -36.074   6.377   3.465  1.00 20.00    -0.228 F 
HETATM    6 CL6  UNL     1     -34.508   4.475   4.156  1.00 20.00    -0.085 Cl
ENDBRANCH   1   4
TORSDOF 1
ENDMDL
