MODEL 1
REMARK VINA RESULT:      -1.9      0.000      0.000
REMARK  2 active torsions:
REMARK  status: ('A' for Active; 'I' for Inactive)
REMARK    1  A    between atoms: C3_3  and  C9_9 
REMARK    2  A    between atoms: C3_3  and  C10_10 
ROOT
HETATM    1  C3  UNL     1     -32.917   6.537   2.119  1.00 20.00     0.135 C 
HETATM    2  O11 UNL     1     -33.119   5.803   1.153  1.00 20.00    -0.297 OA
ENDROOT
BRANCH   1   3
HETATM    3  C9  UNL     1     -31.963   7.742   2.030  1.00 20.00     0.063 C 
HETATM    4  C4  UNL     1     -31.357   8.057   0.638  1.00 20.00     0.045 C 
HETATM    5  C1  UNL     1     -32.295   9.237   0.633  1.00 20.00    -0.088 C 
HETATM    6  C2  UNL     1     -32.706  10.063  -0.332  1.00 20.00     0.014 C 
HETATM    7  C5  UNL     1     -32.598   9.155   2.108  1.00 20.00     0.045 C 
ENDBRANCH   1   3
BRANCH   1   8
HETATM    8  C10 UNL     1     -33.578   6.310   3.415  1.00 20.00     0.056 C 
HETATM    9  C7  UNL     1     -35.043   6.806   3.520  1.00 20.00     0.012 C 
HETATM   10  C6  UNL     1     -35.330   5.546   4.364  1.00 20.00     0.002 C 
HETATM   11  C8  UNL     1     -34.140   4.882   3.641  1.00 20.00     0.012 C 
ENDBRANCH   1   8
TORSDOF 2
ENDMDL
MODEL 2
REMARK VINA RESULT:      -1.1      1.600      4.753
REMARK  2 active torsions:
REMARK  status: ('A' for Active; 'I' for Inactive)
REMARK    1  A    between atoms: C3_3  and  C9_9 
REMARK    2  A    between atoms: C3_3  and  C10_10 
ROOT
HETATM    1  C3  UNL     1     -33.226   7.723   3.625  1.00 20.00     0.135 C 
HETATM    2  O11 UNL     1     -33.308   8.104   4.792  1.00 20.00    -0.297 OA
ENDROOT
BRANCH   1   3
HETATM    3  C9  UNL     1     -34.150   6.626   3.068  1.00 20.00     0.063 C 
HETATM    4  C4  UNL     1     -33.473   5.319   2.581  1.00 20.00     0.045 C 
HETATM    5  C1  UNL     1     -34.057   4.698   3.825  1.00 20.00    -0.088 C 
HETATM    6  C2  UNL     1     -33.820   3.548   4.460  1.00 20.00     0.014 C 
HETATM    7  C5  UNL     1     -35.009   5.837   4.090  1.00 20.00     0.045 C 
ENDBRANCH   1   3
BRANCH   1   8
HETATM    8  C10 UNL     1     -32.243   8.299   2.692  1.00 20.00     0.056 C 
HETATM    9  C7  UNL     1     -31.803   7.378   1.525  1.00 20.00     0.012 C 
HETATM   10  C6  UNL     1     -31.788   8.639   0.635  1.00 20.00     0.002 C 
HETATM   11  C8  UNL     1     -32.820   9.246   1.608  1.00 20.00     0.012 C 
ENDBRANCH   1   8
TORSDOF 2
ENDMDL
MODEL 3
REMARK VINA RESULT:      -1.0      1.414      1.698
REMARK  2 active torsions:
REMARK  status: ('A' for Active; 'I' for Inactive)
REMARK    1  A    between atoms: C3_3  and  C9_9 
REMARK    2  A    between atoms: C3_3  and  C10_10 
ROOT
HETATM    1  C3  UNL     1     -33.190   7.297   3.299  1.00 20.00     0.135 C 
HETATM    2  O11 UNL     1     -33.129   8.087   4.240  1.00 20.00    -0.297 OA
ENDROOT
BRANCH   1   3
HETATM    3  C9  UNL     1     -32.196   7.363   2.125  1.00 20.00     0.063 C 
HETATM    4  C4  UNL     1     -32.796   7.541   0.707  1.00 20.00     0.045 C 
HETATM    5  C1  UNL     1     -32.259   8.948   0.791  1.00 20.00    -0.088 C 
HETATM    6  C2  UNL     1     -32.489  10.049   0.072  1.00 20.00     0.014 C 
HETATM    7  C5  UNL     1     -31.367   8.664   1.972  1.00 20.00     0.045 C 
ENDBRANCH   1   3
BRANCH   1   8
HETATM    8  C10 UNL     1     -34.212   6.238   3.243  1.00 20.00     0.056 C 
HETATM    9  C7  UNL     1     -33.824   4.891   3.903  1.00 20.00     0.012 C 
HETATM   10  C6  UNL     1     -35.286   4.794   4.388  1.00 20.00     0.002 C 
HETATM   11  C8  UNL     1     -35.337   6.333   4.306  1.00 20.00     0.012 C 
ENDBRANCH   1   8
TORSDOF 2
ENDMDL
MODEL 4
REMARK VINA RESULT:      -0.7      0.873      1.262
REMARK  2 active torsions:
REMARK  status: ('A' for Active; 'I' for Inactive)
REMARK    1  A    between atoms: C3_3  and  C9_9 
REMARK    2  A    between atoms: C3_3  and  C10_10 
ROOT
HETATM    1  C3  UNL     1     -32.294   6.612   1.666  1.00 20.00     0.135 C 
HETATM    2  O11 UNL     1     -31.899   5.505   1.301  1.00 20.00    -0.297 OA
ENDROOT
BRANCH   1   3
HETATM    3  C9  UNL     1     -31.435   7.876   1.479  1.00 20.00     0.063 C 
HETATM    4  C4  UNL     1     -31.449   8.532   0.075  1.00 20.00     0.045 C 
HETATM    5  C1  UNL     1     -32.281   9.610   0.722  1.00 20.00    -0.088 C 
HETATM    6  C2  UNL     1     -33.035  10.594   0.225  1.00 20.00     0.014 C 
HETATM    7  C5  UNL     1     -31.952   9.185   2.131  1.00 20.00     0.045 C 
ENDBRANCH   1   3
BRANCH   1   8
HETATM    8  C10 UNL     1     -33.612   6.793   2.297  1.00 20.00     0.056 C 
HETATM    9  C7  UNL     1     -34.156   5.573   3.084  1.00 20.00     0.012 C 
HETATM   10  C6  UNL     1     -34.717   6.580   4.110  1.00 20.00     0.002 C 
HETATM   11  C8  UNL     1     -33.610   7.551   3.650  1.00 20.00     0.012 C 
ENDBRANCH   1   8
TORSDOF 2
ENDMDL
MODEL 5
REMARK VINA RESULT:      -0.6      1.423      4.686
REMARK  2 active torsions:
REMARK  status: ('A' for Active; 'I' for Inactive)
REMARK    1  A    between atoms: C3_3  and  C9_9 
REMARK    2  A    between atoms: C3_3  and  C10_10 
ROOT
HETATM    1  C3  UNL     1     -32.256   8.122   2.216  1.00 20.00     0.135 C 
HETATM    2  O11 UNL     1     -31.642   8.142   3.282  1.00 20.00    -0.297 OA
ENDROOT
BRANCH   1   3
HETATM    3  C9  UNL     1     -33.440   7.166   1.985  1.00 20.00     0.063 C 
HETATM    4  C4  UNL     1     -33.100   5.676   1.728  1.00 20.00     0.045 C 
HETATM    5  C1  UNL     1     -33.628   5.442   3.121  1.00 20.00    -0.088 C 
HETATM    6  C2  UNL     1     -33.540   4.409   3.962  1.00 20.00     0.014 C 
HETATM    7  C5  UNL     1     -34.297   6.790   3.222  1.00 20.00     0.045 C 
ENDBRANCH   1   3
BRANCH   1   8
HETATM    8  C10 UNL     1     -31.896   9.013   1.101  1.00 20.00     0.056 C 
HETATM    9  C7  UNL     1     -32.509   8.650  -0.276  1.00 20.00     0.012 C 
HETATM   10  C6  UNL     1     -32.664  10.166  -0.522  1.00 20.00     0.002 C 
HETATM   11  C8  UNL     1     -32.702  10.335   1.010  1.00 20.00     0.012 C 
ENDBRANCH   1   8
TORSDOF 2
ENDMDL
MODEL 6
REMARK VINA RESULT:      -0.5      1.391      1.832
REMARK  2 active torsions:
REMARK  status: ('A' for Active; 'I' for Inactive)
REMARK    1  A    between atoms: C3_3  and  C9_9 
REMARK    2  A    between atoms: C3_3  and  C10_10 
ROOT
HETATM    1  C3  UNL     1     -33.612   6.737   3.184  1.00 20.00     0.135 C 
HETATM    2  O11 UNL     1     -34.250   7.614   3.765  1.00 20.00    -0.297 OA
ENDROOT
BRANCH   1   3
HETATM    3  C9  UNL     1     -32.331   7.060   2.394  1.00 20.00     0.063 C 
HETATM    4  C4  UNL     1     -32.470   7.197   0.856  1.00 20.00     0.045 C 
HETATM    5  C1  UNL     1     -32.283   8.674   1.095  1.00 20.00    -0.088 C 
HETATM    6  C2  UNL     1     -32.489   9.748   0.329  1.00 20.00     0.014 C 
HETATM    7  C5  UNL     1     -31.777   8.504   2.504  1.00 20.00     0.045 C 
ENDBRANCH   1   3
BRANCH   1   8
HETATM    8  C10 UNL     1     -34.034   5.326   3.213  1.00 20.00     0.056 C 
HETATM    9  C7  UNL     1     -32.940   4.303   3.612  1.00 20.00     0.012 C 
HETATM   10  C6  UNL     1     -34.041   3.535   4.373  1.00 20.00     0.002 C 
HETATM   11  C8  UNL     1     -34.791   4.878   4.489  1.00 20.00     0.012 C 
ENDBRANCH   1   8
TORSDOF 2
ENDMDL
MODEL 7
REMARK VINA RESULT:      -0.5      1.036      4.662
REMARK  2 active torsions:
REMARK  status: ('A' for Active; 'I' for Inactive)
REMARK    1  A    between atoms: C3_3  and  C9_9 
REMARK    2  A    between atoms: C3_3  and  C10_10 
ROOT
HETATM    1  C3  UNL     1     -32.544   7.689   1.941  1.00 20.00     0.135 C 
HETATM    2  O11 UNL     1     -32.154   6.550   1.689  1.00 20.00    -0.297 OA
ENDROOT
BRANCH   1   3
HETATM    3  C9  UNL     1     -33.624   7.955   3.006  1.00 20.00     0.063 C 
HETATM    4  C4  UNL     1     -34.993   7.255   2.806  1.00 20.00     0.045 C 
HETATM    5  C1  UNL     1     -34.569   6.371   3.952  1.00 20.00    -0.088 C 
HETATM    6  C2  UNL     1     -35.032   5.210   4.419  1.00 20.00     0.014 C 
HETATM    7  C5  UNL     1     -33.440   7.271   4.386  1.00 20.00     0.045 C 
ENDBRANCH   1   3
BRANCH   1   8
HETATM    8  C10 UNL     1     -31.998   8.866   1.244  1.00 20.00     0.056 C 
HETATM    9  C7  UNL     1     -32.200   8.892  -0.293  1.00 20.00     0.012 C 
HETATM   10  C6  UNL     1     -32.430  10.412  -0.161  1.00 20.00     0.002 C 
HETATM   11  C8  UNL     1     -32.876  10.143   1.291  1.00 20.00     0.012 C 
ENDBRANCH   1   8
TORSDOF 2
ENDMDL
MODEL 8
REMARK VINA RESULT:       0.2      1.237      4.489
REMARK  2 active torsions:
REMARK  status: ('A' for Active; 'I' for Inactive)
REMARK    1  A    between atoms: C3_3  and  C9_9 
REMARK    2  A    between atoms: C3_3  and  C10_10 
ROOT
HETATM    1  C3  UNL     1     -32.149   7.864   1.796  1.00 20.00     0.135 C 
HETATM    2  O11 UNL     1     -31.190   7.309   1.262  1.00 20.00    -0.297 OA
ENDROOT
BRANCH   1   3
HETATM    3  C9  UNL     1     -32.596   7.503   3.224  1.00 20.00     0.063 C 
HETATM    4  C4  UNL     1     -33.897   8.171   3.741  1.00 20.00     0.045 C 
HETATM    5  C1  UNL     1     -34.518   6.807   3.572  1.00 20.00    -0.088 C 
HETATM    6  C2  UNL     1     -35.784   6.385   3.551  1.00 20.00     0.014 C 
HETATM    7  C5  UNL     1     -33.197   6.090   3.442  1.00 20.00     0.045 C 
ENDBRANCH   1   3
BRANCH   1   8
HETATM    8  C10 UNL     1     -32.922   8.909   1.103  1.00 20.00     0.056 C 
HETATM    9  C7  UNL     1     -32.444  10.365   1.335  1.00 20.00     0.012 C 
HETATM   10  C6  UNL     1     -32.787  10.633  -0.146  1.00 20.00     0.002 C 
HETATM   11  C8  UNL     1     -32.569   9.126  -0.391  1.00 20.00     0.012 C 
ENDBRANCH   1   8
TORSDOF 2
ENDMDL
MODEL 9
REMARK VINA RESULT:       0.8      1.995      4.188
REMARK  2 active torsions:
REMARK  status: ('A' for Active; 'I' for Inactive)
REMARK    1  A    between atoms: C3_3  and  C9_9 
REMARK    2  A    between atoms: C3_3  and  C10_10 
ROOT
HETATM    1  C3  UNL     1     -32.847   7.343   2.225  1.00 20.00     0.135 C 
HETATM    2  O11 UNL     1     -32.072   8.187   1.780  1.00 20.00    -0.297 OA
ENDROOT
BRANCH   1   3
HETATM    3  C9  UNL     1     -34.011   7.728   3.156  1.00 20.00     0.063 C 
HETATM    4  C4  UNL     1     -35.356   6.987   2.941  1.00 20.00     0.045 C 
HETATM    5  C1  UNL     1     -35.023   6.266   4.223  1.00 20.00    -0.088 C 
HETATM    6  C2  UNL     1     -35.517   5.168   4.799  1.00 20.00     0.014 C 
HETATM    7  C5  UNL     1     -33.937   7.233   4.624  1.00 20.00     0.045 C 
ENDBRANCH   1   3
BRANCH   1   8
HETATM    8  C10 UNL     1     -32.711   5.915   1.891  1.00 20.00     0.056 C 
HETATM    9  C7  UNL     1     -33.283   5.488   0.515  1.00 20.00     0.012 C 
HETATM   10  C6  UNL     1     -32.078   4.531   0.395  1.00 20.00     0.002 C 
HETATM   11  C8  UNL     1     -31.325   5.481   1.348  1.00 20.00     0.012 C 
ENDBRANCH   1   8
TORSDOF 2
ENDMDL
