MODEL 1
REMARK VINA RESULT:      -2.0      0.000      0.000
REMARK  2 active torsions:
REMARK  status: ('A' for Active; 'I' for Inactive)
REMARK    1  A    between atoms: C2_2  and  O6_6 
REMARK    2  A    between atoms: C5_5  and  O6_6 
ROOT
HETATM    1  C1  UNL     1     -34.124   7.475   4.536  1.00 20.00     0.099 A 
HETATM    2  C2  UNL     1     -33.491   6.790   3.358  1.00 20.00     0.181 A 
HETATM    3  C3  UNL     1     -34.872   6.397   3.806  1.00 20.00     0.207 A 
HETATM    4  F7  UNL     1     -35.928   6.825   3.008  1.00 20.00    -0.223 F 
HETATM    5 CL8  UNL     1     -35.092   4.844   4.590  1.00 20.00    -0.080 Cl
ENDROOT
BRANCH   2   6
HETATM    6  O6  UNL     1     -33.413   7.563   2.150  1.00 20.00    -0.382 OA
BRANCH   6   7
HETATM    7  C5  UNL     1     -32.074   7.919   1.862  1.00 20.00     0.164 C 
HETATM    8  C4  UNL     1     -32.068   9.034   0.838  1.00 20.00     0.033 C 
ENDBRANCH   6   7
ENDBRANCH   2   6
TORSDOF 2
ENDMDL
MODEL 2
REMARK VINA RESULT:      -1.9      3.028      4.208
REMARK  2 active torsions:
REMARK  status: ('A' for Active; 'I' for Inactive)
REMARK    1  A    between atoms: C2_2  and  O6_6 
REMARK    2  A    between atoms: C5_5  and  O6_6 
ROOT
HETATM    1  C1  UNL     1     -31.968   8.332   3.205  1.00 20.00     0.099 A 
HETATM    2  C2  UNL     1     -33.307   7.853   2.722  1.00 20.00     0.181 A 
HETATM    3  C3  UNL     1     -32.150   7.948   1.765  1.00 20.00     0.207 A 
HETATM    4  F7  UNL     1     -31.566   6.746   1.379  1.00 20.00    -0.223 F 
HETATM    5 CL8  UNL     1     -32.165   9.212   0.551  1.00 20.00    -0.080 Cl
ENDROOT
BRANCH   2   6
HETATM    6  O6  UNL     1     -33.685   6.529   3.130  1.00 20.00    -0.382 OA
BRANCH   6   7
HETATM    7  C5  UNL     1     -34.885   6.553   3.879  1.00 20.00     0.164 C 
HETATM    8  C4  UNL     1     -35.158   5.165   4.420  1.00 20.00     0.033 C 
ENDBRANCH   6   7
ENDBRANCH   2   6
TORSDOF 2
ENDMDL
MODEL 3
REMARK VINA RESULT:      -1.9      0.807      1.178
REMARK  2 active torsions:
REMARK  status: ('A' for Active; 'I' for Inactive)
REMARK    1  A    between atoms: C2_2  and  O6_6 
REMARK    2  A    between atoms: C5_5  and  O6_6 
ROOT
HETATM    1  C1  UNL     1     -34.178   7.560   4.655  1.00 20.00     0.099 A 
HETATM    2  C2  UNL     1     -33.420   6.920   3.527  1.00 20.00     0.181 A 
HETATM    3  C3  UNL     1     -34.830   6.489   3.828  1.00 20.00     0.207 A 
HETATM    4  F7  UNL     1     -35.812   6.921   2.943  1.00 20.00    -0.223 F 
HETATM    5 CL8  UNL     1     -35.092   4.912   4.546  1.00 20.00    -0.080 Cl
ENDROOT
BRANCH   2   6
HETATM    6  O6  UNL     1     -33.242   7.728   2.352  1.00 20.00    -0.382 OA
BRANCH   6   7
HETATM    7  C5  UNL     1     -32.092   7.326   1.631  1.00 20.00     0.164 C 
HETATM    8  C4  UNL     1     -32.178   5.840   1.353  1.00 20.00     0.033 C 
ENDBRANCH   6   7
ENDBRANCH   2   6
TORSDOF 2
ENDMDL
MODEL 4
REMARK VINA RESULT:      -1.8      1.720      2.067
REMARK  2 active torsions:
REMARK  status: ('A' for Active; 'I' for Inactive)
REMARK    1  A    between atoms: C2_2  and  O6_6 
REMARK    2  A    between atoms: C5_5  and  O6_6 
ROOT
HETATM    1  C1  UNL     1     -32.867   6.126   2.530  1.00 20.00     0.099 A 
HETATM    2  C2  UNL     1     -33.275   7.478   2.019  1.00 20.00     0.181 A 
HETATM    3  C3  UNL     1     -33.652   7.054   3.411  1.00 20.00     0.207 A 
HETATM    4  F7  UNL     1     -32.945   7.645   4.452  1.00 20.00    -0.223 F 
HETATM    5 CL8  UNL     1     -35.330   6.676   3.749  1.00 20.00    -0.080 Cl
ENDROOT
BRANCH   2   6
HETATM    6  O6  UNL     1     -32.225   8.454   1.917  1.00 20.00    -0.382 OA
BRANCH   6   7
HETATM    7  C5  UNL     1     -31.993   8.808   0.566  1.00 20.00     0.164 C 
HETATM    8  C4  UNL     1     -32.559  10.189   0.314  1.00 20.00     0.033 C 
ENDBRANCH   6   7
ENDBRANCH   2   6
TORSDOF 2
ENDMDL
MODEL 5
REMARK VINA RESULT:      -1.8      2.883      4.016
REMARK  2 active torsions:
REMARK  status: ('A' for Active; 'I' for Inactive)
REMARK    1  A    between atoms: C2_2  and  O6_6 
REMARK    2  A    between atoms: C5_5  and  O6_6 
ROOT
HETATM    1  C1  UNL     1     -33.753   5.904   2.585  1.00 20.00     0.099 A 
HETATM    2  C2  UNL     1     -33.646   5.249   3.933  1.00 20.00     0.181 A 
HETATM    3  C3  UNL     1     -34.496   6.478   3.758  1.00 20.00     0.207 A 
HETATM    4  F7  UNL     1     -35.873   6.284   3.758  1.00 20.00    -0.223 F 
HETATM    5 CL8  UNL     1     -33.939   7.991   4.448  1.00 20.00    -0.080 Cl
ENDROOT
BRANCH   2   6
HETATM    6  O6  UNL     1     -34.352   4.008   4.086  1.00 20.00    -0.382 OA
BRANCH   6   7
HETATM    7  C5  UNL     1     -33.450   2.931   4.264  1.00 20.00     0.164 C 
HETATM    8  C4  UNL     1     -32.711   3.118   5.573  1.00 20.00     0.033 C 
ENDBRANCH   6   7
ENDBRANCH   2   6
TORSDOF 2
ENDMDL
MODEL 6
REMARK VINA RESULT:      -1.5      3.000      4.061
REMARK  2 active torsions:
REMARK  status: ('A' for Active; 'I' for Inactive)
REMARK    1  A    between atoms: C2_2  and  O6_6 
REMARK    2  A    between atoms: C5_5  and  O6_6 
ROOT
HETATM    1  C1  UNL     1     -35.086   7.032   3.320  1.00 20.00     0.099 A 
HETATM    2  C2  UNL     1     -34.118   5.883   3.298  1.00 20.00     0.181 A 
HETATM    3  C3  UNL     1     -33.629   7.275   3.592  1.00 20.00     0.207 A 
HETATM    4  F7  UNL     1     -33.297   7.547   4.915  1.00 20.00    -0.223 F 
HETATM    5 CL8  UNL     1     -32.672   8.104   2.380  1.00 20.00    -0.080 Cl
ENDROOT
BRANCH   2   6
HETATM    6  O6  UNL     1     -34.184   4.985   4.417  1.00 20.00    -0.382 OA
BRANCH   6   7
HETATM    7  C5  UNL     1     -33.842   3.667   4.029  1.00 20.00     0.164 C 
HETATM    8  C4  UNL     1     -32.986   3.041   5.109  1.00 20.00     0.033 C 
ENDBRANCH   6   7
ENDBRANCH   2   6
TORSDOF 2
ENDMDL
MODEL 7
REMARK VINA RESULT:      -1.4      3.373      4.306
REMARK  2 active torsions:
REMARK  status: ('A' for Active; 'I' for Inactive)
REMARK    1  A    between atoms: C2_2  and  O6_6 
REMARK    2  A    between atoms: C5_5  and  O6_6 
ROOT
HETATM    1  C1  UNL     1     -31.592   8.569   2.555  1.00 20.00     0.099 A 
HETATM    2  C2  UNL     1     -32.769   7.839   1.972  1.00 20.00     0.181 A 
HETATM    3  C3  UNL     1     -31.931   8.735   1.101  1.00 20.00     0.207 A 
HETATM    4  F7  UNL     1     -31.077   8.103   0.203  1.00 20.00    -0.223 F 
HETATM    5 CL8  UNL     1     -32.610  10.259   0.563  1.00 20.00    -0.080 Cl
ENDROOT
BRANCH   2   6
HETATM    6  O6  UNL     1     -32.598   6.426   1.777  1.00 20.00    -0.382 OA
BRANCH   6   7
HETATM    7  C5  UNL     1     -33.514   5.692   2.569  1.00 20.00     0.164 C 
HETATM    8  C4  UNL     1     -34.252   6.647   3.483  1.00 20.00     0.033 C 
ENDBRANCH   6   7
ENDBRANCH   2   6
TORSDOF 2
ENDMDL
MODEL 8
REMARK VINA RESULT:      -1.4      2.514      3.093
REMARK  2 active torsions:
REMARK  status: ('A' for Active; 'I' for Inactive)
REMARK    1  A    between atoms: C2_2  and  O6_6 
REMARK    2  A    between atoms: C5_5  and  O6_6 
ROOT
HETATM    1  C1  UNL     1     -31.156   7.842   2.002  1.00 20.00     0.099 A 
HETATM    2  C2  UNL     1     -32.231   8.444   1.142  1.00 20.00     0.181 A 
HETATM    3  C3  UNL     1     -32.563   7.323   2.088  1.00 20.00     0.207 A 
HETATM    4  F7  UNL     1     -33.268   7.669   3.236  1.00 20.00    -0.223 F 
HETATM    5 CL8  UNL     1     -32.919   5.740   1.424  1.00 20.00    -0.080 Cl
ENDROOT
BRANCH   2   6
HETATM    6  O6  UNL     1     -32.683   9.753   1.527  1.00 20.00    -0.382 OA
BRANCH   6   7
HETATM    7  C5  UNL     1     -32.656  10.642   0.425  1.00 20.00     0.164 C 
HETATM    8  C4  UNL     1     -32.646   9.838  -0.858  1.00 20.00     0.033 C 
ENDBRANCH   6   7
ENDBRANCH   2   6
TORSDOF 2
ENDMDL
MODEL 9
REMARK VINA RESULT:      -1.1      1.304      1.494
REMARK  2 active torsions:
REMARK  status: ('A' for Active; 'I' for Inactive)
REMARK    1  A    between atoms: C2_2  and  O6_6 
REMARK    2  A    between atoms: C5_5  and  O6_6 
ROOT
HETATM    1  C1  UNL     1     -35.350   6.437   3.809  1.00 20.00     0.099 A 
HETATM    2  C2  UNL     1     -33.951   6.950   4.000  1.00 20.00     0.181 A 
HETATM    3  C3  UNL     1     -34.182   5.626   3.326  1.00 20.00     0.207 A 
HETATM    4  F7  UNL     1     -33.997   5.592   1.948  1.00 20.00    -0.223 F 
HETATM    5 CL8  UNL     1     -33.761   4.158   4.188  1.00 20.00    -0.080 Cl
ENDROOT
BRANCH   2   6
HETATM    6  O6  UNL     1     -33.558   8.036   3.146  1.00 20.00    -0.382 OA
BRANCH   6   7
HETATM    7  C5  UNL     1     -32.153   8.066   2.979  1.00 20.00     0.164 C 
HETATM    8  C4  UNL     1     -31.830   8.028   1.500  1.00 20.00     0.033 C 
ENDBRANCH   6   7
ENDBRANCH   2   6
TORSDOF 2
ENDMDL
