MODEL 1
REMARK VINA RESULT:      -1.8      0.000      0.000
REMARK  2 active torsions:
REMARK  status: ('A' for Active; 'I' for Inactive)
REMARK    1  A    between atoms: C2_2  and  O6_6 
REMARK    2  A    between atoms: C5_5  and  O6_6 
ROOT
HETATM    1  C1  UNL     1     -33.422   5.779   3.287  1.00 20.00     0.099 A 
HETATM    2  C2  UNL     1     -33.518   6.989   2.403  1.00 20.00     0.181 A 
HETATM    3  C3  UNL     1     -34.345   6.906   3.657  1.00 20.00     0.207 A 
HETATM    4  F7  UNL     1     -35.700   6.661   3.470  1.00 20.00    -0.223 F 
HETATM    5 CL8  UNL     1     -33.942   7.894   5.048  1.00 20.00    -0.080 Cl
ENDROOT
BRANCH   2   6
HETATM    6  O6  UNL     1     -32.381   7.866   2.410  1.00 20.00    -0.382 OA
BRANCH   6   7
HETATM    7  C5  UNL     1     -31.897   8.079   1.096  1.00 20.00     0.164 C 
HETATM    8  C4  UNL     1     -32.372   9.431   0.610  1.00 20.00     0.033 C 
ENDBRANCH   6   7
ENDBRANCH   2   6
TORSDOF 2
ENDMDL
MODEL 2
REMARK VINA RESULT:      -1.7      2.824      3.880
REMARK  2 active torsions:
REMARK  status: ('A' for Active; 'I' for Inactive)
REMARK    1  A    between atoms: C2_2  and  O6_6 
REMARK    2  A    between atoms: C5_5  and  O6_6 
ROOT
HETATM    1  C1  UNL     1     -32.669   6.524   1.489  1.00 20.00     0.099 A 
HETATM    2  C2  UNL     1     -32.732   7.238   2.809  1.00 20.00     0.181 A 
HETATM    3  C3  UNL     1     -31.940   7.825   1.673  1.00 20.00     0.207 A 
HETATM    4  F7  UNL     1     -30.558   7.730   1.791  1.00 20.00    -0.223 F 
HETATM    5 CL8  UNL     1     -32.528   9.242   0.824  1.00 20.00    -0.080 Cl
ENDROOT
BRANCH   2   6
HETATM    6  O6  UNL     1     -33.989   7.852   3.133  1.00 20.00    -0.382 OA
BRANCH   6   7
HETATM    7  C5  UNL     1     -34.508   7.336   4.345  1.00 20.00     0.164 C 
HETATM    8  C4  UNL     1     -35.317   6.092   4.044  1.00 20.00     0.033 C 
ENDBRANCH   6   7
ENDBRANCH   2   6
TORSDOF 2
ENDMDL
MODEL 3
REMARK VINA RESULT:      -1.7      2.829      3.946
REMARK  2 active torsions:
REMARK  status: ('A' for Active; 'I' for Inactive)
REMARK    1  A    between atoms: C2_2  and  O6_6 
REMARK    2  A    between atoms: C5_5  and  O6_6 
ROOT
HETATM    1  C1  UNL     1     -33.675   6.021   1.074  1.00 20.00     0.099 A 
HETATM    2  C2  UNL     1     -33.402   5.871   2.543  1.00 20.00     0.181 A 
HETATM    3  C3  UNL     1     -32.295   6.282   1.611  1.00 20.00     0.207 A 
HETATM    4  F7  UNL     1     -31.347   5.304   1.335  1.00 20.00    -0.223 F 
HETATM    5 CL8  UNL     1     -31.699   7.930   1.620  1.00 20.00    -0.080 Cl
ENDROOT
BRANCH   2   6
HETATM    6  O6  UNL     1     -33.966   6.880   3.395  1.00 20.00    -0.382 OA
BRANCH   6   7
HETATM    7  C5  UNL     1     -35.160   6.422   4.002  1.00 20.00     0.164 C 
HETATM    8  C4  UNL     1     -34.985   4.972   4.400  1.00 20.00     0.033 C 
ENDBRANCH   6   7
ENDBRANCH   2   6
TORSDOF 2
ENDMDL
MODEL 4
REMARK VINA RESULT:      -1.6      1.250      1.458
REMARK  2 active torsions:
REMARK  status: ('A' for Active; 'I' for Inactive)
REMARK    1  A    between atoms: C2_2  and  O6_6 
REMARK    2  A    between atoms: C5_5  and  O6_6 
ROOT
HETATM    1  C1  UNL     1     -34.434   4.969   4.150  1.00 20.00     0.099 A 
HETATM    2  C2  UNL     1     -34.064   5.520   2.803  1.00 20.00     0.181 A 
HETATM    3  C3  UNL     1     -34.822   6.374   3.782  1.00 20.00     0.207 A 
HETATM    4  F7  UNL     1     -36.168   6.570   3.493  1.00 20.00    -0.223 F 
HETATM    5 CL8  UNL     1     -34.024   7.704   4.597  1.00 20.00    -0.080 Cl
ENDROOT
BRANCH   2   6
HETATM    6  O6  UNL     1     -32.672   5.811   2.602  1.00 20.00    -0.382 OA
BRANCH   6   7
HETATM    7  C5  UNL     1     -32.467   6.479   1.370  1.00 20.00     0.164 C 
HETATM    8  C4  UNL     1     -31.957   7.877   1.648  1.00 20.00     0.033 C 
ENDBRANCH   6   7
ENDBRANCH   2   6
TORSDOF 2
ENDMDL
MODEL 5
REMARK VINA RESULT:      -1.5      1.919      2.405
REMARK  2 active torsions:
REMARK  status: ('A' for Active; 'I' for Inactive)
REMARK    1  A    between atoms: C2_2  and  O6_6 
REMARK    2  A    between atoms: C5_5  and  O6_6 
ROOT
HETATM    1  C1  UNL     1     -31.333   7.554   1.942  1.00 20.00     0.099 A 
HETATM    2  C2  UNL     1     -32.364   8.318   1.161  1.00 20.00     0.181 A 
HETATM    3  C3  UNL     1     -32.781   7.159   2.025  1.00 20.00     0.207 A 
HETATM    4  F7  UNL     1     -33.128   5.997   1.346  1.00 20.00    -0.223 F 
HETATM    5 CL8  UNL     1     -33.640   7.441   3.526  1.00 20.00    -0.080 Cl
ENDROOT
BRANCH   2   6
HETATM    6  O6  UNL     1     -32.658   9.642   1.632  1.00 20.00    -0.382 OA
BRANCH   6   7
HETATM    7  C5  UNL     1     -32.650  10.574   0.566  1.00 20.00     0.164 C 
HETATM    8  C4  UNL     1     -32.634   9.819  -0.746  1.00 20.00     0.033 C 
ENDBRANCH   6   7
ENDBRANCH   2   6
TORSDOF 2
ENDMDL
MODEL 6
REMARK VINA RESULT:      -1.5      1.737      1.940
REMARK  2 active torsions:
REMARK  status: ('A' for Active; 'I' for Inactive)
REMARK    1  A    between atoms: C2_2  and  O6_6 
REMARK    2  A    between atoms: C5_5  and  O6_6 
ROOT
HETATM    1  C1  UNL     1     -34.169   7.328   4.298  1.00 20.00     0.099 A 
HETATM    2  C2  UNL     1     -33.796   6.219   3.357  1.00 20.00     0.181 A 
HETATM    3  C3  UNL     1     -35.205   6.326   3.873  1.00 20.00     0.207 A 
HETATM    4  F7  UNL     1     -35.567   5.388   4.833  1.00 20.00    -0.223 F 
HETATM    5 CL8  UNL     1     -36.497   6.856   2.813  1.00 20.00    -0.080 Cl
ENDROOT
BRANCH   2   6
HETATM    6  O6  UNL     1     -33.553   6.605   1.995  1.00 20.00    -0.382 OA
BRANCH   6   7
HETATM    7  C5  UNL     1     -32.176   6.850   1.775  1.00 20.00     0.164 C 
HETATM    8  C4  UNL     1     -31.978   8.323   1.489  1.00 20.00     0.033 C 
ENDBRANCH   6   7
ENDBRANCH   2   6
TORSDOF 2
ENDMDL
MODEL 7
REMARK VINA RESULT:      -1.4      2.752      3.902
REMARK  2 active torsions:
REMARK  status: ('A' for Active; 'I' for Inactive)
REMARK    1  A    between atoms: C2_2  and  O6_6 
REMARK    2  A    between atoms: C5_5  and  O6_6 
ROOT
HETATM    1  C1  UNL     1     -31.298   8.342   2.715  1.00 20.00     0.099 A 
HETATM    2  C2  UNL     1     -32.789   8.218   2.852  1.00 20.00     0.181 A 
HETATM    3  C3  UNL     1     -32.111   7.779   1.583  1.00 20.00     0.207 A 
HETATM    4  F7  UNL     1     -32.282   8.618   0.488  1.00 20.00    -0.223 F 
HETATM    5 CL8  UNL     1     -31.956   6.073   1.208  1.00 20.00    -0.080 Cl
ENDROOT
BRANCH   2   6
HETATM    6  O6  UNL     1     -33.256   7.196   3.747  1.00 20.00    -0.382 OA
BRANCH   6   7
HETATM    7  C5  UNL     1     -34.615   7.402   4.086  1.00 20.00     0.164 C 
HETATM    8  C4  UNL     1     -35.338   6.073   4.049  1.00 20.00     0.033 C 
ENDBRANCH   6   7
ENDBRANCH   2   6
TORSDOF 2
ENDMDL
MODEL 8
REMARK VINA RESULT:      -1.3      2.591      3.974
REMARK  2 active torsions:
REMARK  status: ('A' for Active; 'I' for Inactive)
REMARK    1  A    between atoms: C2_2  and  O6_6 
REMARK    2  A    between atoms: C5_5  and  O6_6 
ROOT
HETATM    1  C1  UNL     1     -35.236   6.935   3.381  1.00 20.00     0.099 A 
HETATM    2  C2  UNL     1     -34.168   5.879   3.343  1.00 20.00     0.181 A 
HETATM    3  C3  UNL     1     -33.799   7.314   3.608  1.00 20.00     0.207 A 
HETATM    4  F7  UNL     1     -33.179   7.979   2.557  1.00 20.00    -0.223 F 
HETATM    5 CL8  UNL     1     -33.311   7.819   5.214  1.00 20.00    -0.080 Cl
ENDROOT
BRANCH   2   6
HETATM    6  O6  UNL     1     -34.144   4.969   4.453  1.00 20.00    -0.382 OA
BRANCH   6   7
HETATM    7  C5  UNL     1     -33.826   3.657   4.025  1.00 20.00     0.164 C 
HETATM    8  C4  UNL     1     -32.970   2.989   5.080  1.00 20.00     0.033 C 
ENDBRANCH   6   7
ENDBRANCH   2   6
TORSDOF 2
ENDMDL
MODEL 9
REMARK VINA RESULT:      -1.2      2.884      4.296
REMARK  2 active torsions:
REMARK  status: ('A' for Active; 'I' for Inactive)
REMARK    1  A    between atoms: C2_2  and  O6_6 
REMARK    2  A    between atoms: C5_5  and  O6_6 
ROOT
HETATM    1  C1  UNL     1     -33.513   5.649   2.330  1.00 20.00     0.099 A 
HETATM    2  C2  UNL     1     -33.362   5.062   3.704  1.00 20.00     0.181 A 
HETATM    3  C3  UNL     1     -34.072   6.376   3.521  1.00 20.00     0.207 A 
HETATM    4  F7  UNL     1     -33.366   7.503   3.924  1.00 20.00    -0.223 F 
HETATM    5 CL8  UNL     1     -35.813   6.472   3.701  1.00 20.00    -0.080 Cl
ENDROOT
BRANCH   2   6
HETATM    6  O6  UNL     1     -34.163   3.905   3.987  1.00 20.00    -0.382 OA
BRANCH   6   7
HETATM    7  C5  UNL     1     -33.354   2.814   4.388  1.00 20.00     0.164 C 
HETATM    8  C4  UNL     1     -32.666   3.164   5.690  1.00 20.00     0.033 C 
ENDBRANCH   6   7
ENDBRANCH   2   6
TORSDOF 2
ENDMDL
