MODEL 1
REMARK VINA RESULT:       1.9      0.000      0.000
REMARK  0 active torsions:
REMARK  status: ('A' for Active; 'I' for Inactive)
ROOT
HETATM    1  C1  UNL     1     -33.617   5.352   3.391  1.00 20.00    -0.071 C 
HETATM    2  C2  UNL     1     -33.944   4.401   4.273  1.00 20.00    -0.027 C 
HETATM    3  C3  UNL     1     -33.324   5.168   0.947  1.00 20.00     0.009 C 
HETATM    4  C4  UNL     1     -33.793   6.623   0.770  1.00 20.00     0.006 C 
HETATM    5  C5  UNL     1     -31.985   6.612   2.282  1.00 20.00     0.014 C 
HETATM    6  C6  UNL     1     -32.581   5.207   2.293  1.00 20.00     0.015 C 
HETATM    7  C7  UNL     1     -33.349   7.294   2.090  1.00 20.00    -0.002 C 
HETATM    8  C8  UNL     1     -34.164   6.775   3.322  1.00 20.00    -0.021 C 
HETATM    9  C9  UNL     1     -33.327   3.043   4.302  1.00 20.00     0.036 C 
HETATM   10  C10 UNL     1     -33.825   7.584   4.586  1.00 20.00     0.020 C 
HETATM   11  C11 UNL     1     -35.684   6.816   3.108  1.00 20.00     0.020 C 
ENDROOT
TORSDOF 0
ENDMDL
MODEL 2
REMARK VINA RESULT:       2.2      0.810      2.879
REMARK  0 active torsions:
REMARK  status: ('A' for Active; 'I' for Inactive)
ROOT
HETATM    1  C1  UNL     1     -33.594   5.256   3.295  1.00 20.00    -0.071 C 
HETATM    2  C2  UNL     1     -33.128   4.034   3.572  1.00 20.00    -0.027 C 
HETATM    3  C3  UNL     1     -33.837   7.201   4.796  1.00 20.00     0.009 C 
HETATM    4  C4  UNL     1     -33.603   8.156   3.613  1.00 20.00     0.006 C 
HETATM    5  C5  UNL     1     -35.397   6.732   3.061  1.00 20.00     0.014 C 
HETATM    6  C6  UNL     1     -34.587   6.026   4.146  1.00 20.00     0.015 C 
HETATM    7  C7  UNL     1     -34.157   7.362   2.408  1.00 20.00    -0.002 C 
HETATM    8  C8  UNL     1     -33.278   6.110   2.071  1.00 20.00    -0.021 C 
HETATM    9  C9  UNL     1     -33.522   3.242   4.774  1.00 20.00     0.036 C 
HETATM   10  C10 UNL     1     -33.749   5.444   0.767  1.00 20.00     0.020 C 
HETATM   11  C11 UNL     1     -31.782   6.432   1.943  1.00 20.00     0.020 C 
ENDROOT
TORSDOF 0
ENDMDL
MODEL 3
REMARK VINA RESULT:       2.3      1.516      3.261
REMARK  0 active torsions:
REMARK  status: ('A' for Active; 'I' for Inactive)
ROOT
HETATM    1  C1  UNL     1     -33.493   6.533   2.612  1.00 20.00    -0.071 C 
HETATM    2  C2  UNL     1     -34.328   5.758   3.313  1.00 20.00    -0.027 C 
HETATM    3  C3  UNL     1     -31.955   8.286   3.423  1.00 20.00     0.009 C 
HETATM    4  C4  UNL     1     -30.987   7.986   2.264  1.00 20.00     0.006 C 
HETATM    5  C5  UNL     1     -33.104   8.464   1.346  1.00 20.00     0.014 C 
HETATM    6  C6  UNL     1     -33.335   8.031   2.792  1.00 20.00     0.015 C 
HETATM    7  C7  UNL     1     -31.929   7.495   1.141  1.00 20.00    -0.002 C 
HETATM    8  C8  UNL     1     -32.572   6.107   1.473  1.00 20.00    -0.021 C 
HETATM    9  C9  UNL     1     -35.233   6.262   4.386  1.00 20.00     0.036 C 
HETATM   10  C10 UNL     1     -33.360   5.564   0.268  1.00 20.00     0.020 C 
HETATM   11  C11 UNL     1     -31.547   5.047   1.905  1.00 20.00     0.020 C 
ENDROOT
TORSDOF 0
ENDMDL
MODEL 4
REMARK VINA RESULT:       2.5      1.470      3.973
REMARK  0 active torsions:
REMARK  status: ('A' for Active; 'I' for Inactive)
ROOT
HETATM    1  C1  UNL     1     -32.856   7.693   1.822  1.00 20.00    -0.071 C 
HETATM    2  C2  UNL     1     -32.450   8.470   0.813  1.00 20.00    -0.027 C 
HETATM    3  C3  UNL     1     -34.813   7.968   3.301  1.00 20.00     0.009 C 
HETATM    4  C4  UNL     1     -34.926   6.440   3.453  1.00 20.00     0.006 C 
HETATM    5  C5  UNL     1     -32.746   7.081   4.079  1.00 20.00     0.014 C 
HETATM    6  C6  UNL     1     -33.296   8.191   3.186  1.00 20.00     0.015 C 
HETATM    7  C7  UNL     1     -33.462   5.966   3.301  1.00 20.00    -0.002 C 
HETATM    8  C8  UNL     1     -32.923   6.169   1.845  1.00 20.00    -0.021 C 
HETATM    9  C9  UNL     1     -32.370   9.958   0.885  1.00 20.00     0.036 C 
HETATM   10  C10 UNL     1     -31.534   5.529   1.680  1.00 20.00     0.020 C 
HETATM   11  C11 UNL     1     -33.855   5.600   0.765  1.00 20.00     0.020 C 
ENDROOT
TORSDOF 0
ENDMDL
MODEL 5
REMARK VINA RESULT:       3.4      1.501      2.445
REMARK  0 active torsions:
REMARK  status: ('A' for Active; 'I' for Inactive)
ROOT
HETATM    1  C1  UNL     1     -33.385   6.962   2.787  1.00 20.00    -0.071 C 
HETATM    2  C2  UNL     1     -34.320   7.330   3.670  1.00 20.00    -0.027 C 
HETATM    3  C3  UNL     1     -33.611   5.513   0.802  1.00 20.00     0.009 C 
HETATM    4  C4  UNL     1     -32.491   6.294   0.091  1.00 20.00     0.006 C 
HETATM    5  C5  UNL     1     -31.653   5.521   2.153  1.00 20.00     0.014 C 
HETATM    6  C6  UNL     1     -33.174   5.550   2.276  1.00 20.00     0.015 C 
HETATM    7  C7  UNL     1     -31.603   6.772   1.263  1.00 20.00    -0.002 C 
HETATM    8  C8  UNL     1     -32.320   7.847   2.148  1.00 20.00    -0.021 C 
HETATM    9  C9  UNL     1     -35.302   6.391   4.286  1.00 20.00     0.036 C 
HETATM   10  C10 UNL     1     -31.352   8.430   3.193  1.00 20.00     0.020 C 
HETATM   11  C11 UNL     1     -32.919   9.005   1.336  1.00 20.00     0.020 C 
ENDROOT
TORSDOF 0
ENDMDL
MODEL 6
REMARK VINA RESULT:       3.4      1.424      3.297
REMARK  0 active torsions:
REMARK  status: ('A' for Active; 'I' for Inactive)
ROOT
HETATM    1  C1  UNL     1     -32.717   6.603   1.939  1.00 20.00    -0.071 C 
HETATM    2  C2  UNL     1     -31.929   5.896   1.121  1.00 20.00    -0.027 C 
HETATM    3  C3  UNL     1     -33.682   5.948   4.114  1.00 20.00     0.009 C 
HETATM    4  C4  UNL     1     -33.637   7.412   4.587  1.00 20.00     0.006 C 
HETATM    5  C5  UNL     1     -34.852   7.328   2.569  1.00 20.00     0.014 C 
HETATM    6  C6  UNL     1     -33.973   6.080   2.610  1.00 20.00     0.015 C 
HETATM    7  C7  UNL     1     -33.805   8.207   3.272  1.00 20.00    -0.002 C 
HETATM    8  C8  UNL     1     -32.560   8.068   2.333  1.00 20.00    -0.021 C 
HETATM    9  C9  UNL     1     -32.177   4.473   0.748  1.00 20.00     0.036 C 
HETATM   10  C10 UNL     1     -32.680   9.007   1.120  1.00 20.00     0.020 C 
HETATM   11  C11 UNL     1     -31.227   8.353   3.042  1.00 20.00     0.020 C 
ENDROOT
TORSDOF 0
ENDMDL
MODEL 7
REMARK VINA RESULT:       3.6      1.019      2.870
REMARK  0 active torsions:
REMARK  status: ('A' for Active; 'I' for Inactive)
ROOT
HETATM    1  C1  UNL     1     -33.249   7.227   3.606  1.00 20.00    -0.071 C 
HETATM    2  C2  UNL     1     -33.118   7.763   4.824  1.00 20.00    -0.027 C 
HETATM    3  C3  UNL     1     -31.496   6.656   1.964  1.00 20.00     0.009 C 
HETATM    4  C4  UNL     1     -32.361   5.501   1.427  1.00 20.00     0.006 C 
HETATM    5  C5  UNL     1     -33.629   7.483   1.310  1.00 20.00     0.014 C 
HETATM    6  C6  UNL     1     -32.541   7.714   2.356  1.00 20.00     0.015 C 
HETATM    7  C7  UNL     1     -33.802   6.001   1.675  1.00 20.00    -0.002 C 
HETATM    8  C8  UNL     1     -34.152   6.066   3.200  1.00 20.00    -0.021 C 
HETATM    9  C9  UNL     1     -32.244   8.932   5.131  1.00 20.00     0.036 C 
HETATM   10  C10 UNL     1     -35.641   6.394   3.408  1.00 20.00     0.020 C 
HETATM   11  C11 UNL     1     -33.826   4.769   3.956  1.00 20.00     0.020 C 
ENDROOT
TORSDOF 0
ENDMDL
MODEL 8
REMARK VINA RESULT:       3.7      1.261      3.251
REMARK  0 active torsions:
REMARK  status: ('A' for Active; 'I' for Inactive)
ROOT
HETATM    1  C1  UNL     1     -33.149   7.315   2.786  1.00 20.00    -0.071 C 
HETATM    2  C2  UNL     1     -32.098   7.973   2.284  1.00 20.00    -0.027 C 
HETATM    3  C3  UNL     1     -33.387   4.904   3.258  1.00 20.00     0.009 C 
HETATM    4  C4  UNL     1     -34.348   5.216   4.419  1.00 20.00     0.006 C 
HETATM    5  C5  UNL     1     -35.199   6.229   2.470  1.00 20.00     0.014 C 
HETATM    6  C6  UNL     1     -33.705   6.013   2.241  1.00 20.00     0.015 C 
HETATM    7  C7  UNL     1     -35.026   6.529   3.967  1.00 20.00    -0.002 C 
HETATM    8  C8  UNL     1     -34.029   7.737   3.958  1.00 20.00    -0.021 C 
HETATM    9  C9  UNL     1     -31.314   7.514   1.101  1.00 20.00     0.036 C 
HETATM   10  C10 UNL     1     -34.769   9.057   3.677  1.00 20.00     0.020 C 
HETATM   11  C11 UNL     1     -33.241   7.887   5.268  1.00 20.00     0.020 C 
ENDROOT
TORSDOF 0
ENDMDL
MODEL 9
REMARK VINA RESULT:       4.0      1.372      3.448
REMARK  0 active torsions:
REMARK  status: ('A' for Active; 'I' for Inactive)
ROOT
HETATM    1  C1  UNL     1     -32.858   7.631   2.005  1.00 20.00    -0.071 C 
HETATM    2  C2  UNL     1     -32.382   8.837   1.679  1.00 20.00    -0.027 C 
HETATM    3  C3  UNL     1     -31.754   5.429   1.837  1.00 20.00     0.009 C 
HETATM    4  C4  UNL     1     -32.554   4.924   3.051  1.00 20.00     0.006 C 
HETATM    5  C5  UNL     1     -34.084   5.716   1.444  1.00 20.00     0.014 C 
HETATM    6  C6  UNL     1     -32.743   6.385   1.148  1.00 20.00     0.015 C 
HETATM    7  C7  UNL     1     -33.867   5.734   2.965  1.00 20.00    -0.002 C 
HETATM    8  C8  UNL     1     -33.644   7.256   3.258  1.00 20.00    -0.021 C 
HETATM    9  C9  UNL     1     -31.660   9.133   0.407  1.00 20.00     0.036 C 
HETATM   10  C10 UNL     1     -34.988   8.002   3.340  1.00 20.00     0.020 C 
HETATM   11  C11 UNL     1     -32.859   7.519   4.552  1.00 20.00     0.020 C 
ENDROOT
TORSDOF 0
ENDMDL
