MODEL 1
REMARK VINA RESULT:      -2.8      0.000      0.000
REMARK  1 active torsions:
REMARK  status: ('A' for Active; 'I' for Inactive)
REMARK    1  A    between atoms: C1_1  and  C2_2 
ROOT
HETATM    1  C1  UNL     1     -32.734   7.351   2.793  1.00 20.00     0.314 C 
HETATM    2  F3  UNL     1     -32.458   8.424   2.004  1.00 20.00    -0.228 F 
HETATM    3 CL5  UNL     1     -33.066   5.950   1.750  1.00 20.00    -0.085 Cl
ENDROOT
BRANCH   1   4
HETATM    4  C2  UNL     1     -33.933   7.665   3.666  1.00 20.00     0.314 C 
HETATM    5  F4  UNL     1     -33.506   8.026   4.905  1.00 20.00    -0.228 F 
HETATM    6 CL6  UNL     1     -34.985   6.242   3.821  1.00 20.00    -0.085 Cl
ENDBRANCH   1   4
TORSDOF 1
ENDMDL
MODEL 2
REMARK VINA RESULT:      -2.7      0.033      2.584
REMARK  1 active torsions:
REMARK  status: ('A' for Active; 'I' for Inactive)
REMARK    1  A    between atoms: C1_1  and  C2_2 
ROOT
HETATM    1  C1  UNL     1     -33.904   7.674   3.654  1.00 20.00     0.314 C 
HETATM    2  F3  UNL     1     -33.466   8.027   4.893  1.00 20.00    -0.228 F 
HETATM    3 CL5  UNL     1     -34.959   6.252   3.809  1.00 20.00    -0.085 Cl
ENDROOT
BRANCH   1   4
HETATM    4  C2  UNL     1     -32.713   7.363   2.770  1.00 20.00     0.314 C 
HETATM    5  F4  UNL     1     -32.454   8.431   1.970  1.00 20.00    -0.228 F 
HETATM    6 CL6  UNL     1     -33.046   5.952   1.742  1.00 20.00    -0.085 Cl
ENDBRANCH   1   4
TORSDOF 1
ENDMDL
MODEL 3
REMARK VINA RESULT:      -2.7      2.363      3.418
REMARK  1 active torsions:
REMARK  status: ('A' for Active; 'I' for Inactive)
REMARK    1  A    between atoms: C1_1  and  C2_2 
ROOT
HETATM    1  C1  UNL     1     -33.546   5.961   3.329  1.00 20.00     0.314 C 
HETATM    2  F3  UNL     1     -33.608   4.604   3.404  1.00 20.00    -0.228 F 
HETATM    3 CL5  UNL     1     -35.129   6.629   3.783  1.00 20.00    -0.085 Cl
ENDROOT
BRANCH   1   4
HETATM    4  C2  UNL     1     -33.179   6.369   1.916  1.00 20.00     0.314 C 
HETATM    5  F4  UNL     1     -32.506   5.353   1.313  1.00 20.00    -0.228 F 
HETATM    6 CL6  UNL     1     -32.138   7.810   1.930  1.00 20.00    -0.085 Cl
ENDBRANCH   1   4
TORSDOF 1
ENDMDL
MODEL 4
REMARK VINA RESULT:      -2.7      2.358      2.358
REMARK  1 active torsions:
REMARK  status: ('A' for Active; 'I' for Inactive)
REMARK    1  A    between atoms: C1_1  and  C2_2 
ROOT
HETATM    1  C1  UNL     1     -33.185   6.380   1.922  1.00 20.00     0.314 C 
HETATM    2  F3  UNL     1     -32.523   5.359   1.312  1.00 20.00    -0.228 F 
HETATM    3 CL5  UNL     1     -32.130   7.810   1.941  1.00 20.00    -0.085 Cl
ENDROOT
BRANCH   1   4
HETATM    4  C2  UNL     1     -33.553   5.968   3.333  1.00 20.00     0.314 C 
HETATM    5  F4  UNL     1     -33.604   4.611   3.408  1.00 20.00    -0.228 F 
HETATM    6 CL6  UNL     1     -35.143   6.621   3.784  1.00 20.00    -0.085 Cl
ENDBRANCH   1   4
TORSDOF 1
ENDMDL
MODEL 5
REMARK VINA RESULT:      -2.7      2.246      2.246
REMARK  1 active torsions:
REMARK  status: ('A' for Active; 'I' for Inactive)
REMARK    1  A    between atoms: C1_1  and  C2_2 
ROOT
HETATM    1  C1  UNL     1     -33.457   6.576   2.174  1.00 20.00     0.314 C 
HETATM    2  F3  UNL     1     -32.854   5.391   1.886  1.00 20.00    -0.228 F 
HETATM    3 CL5  UNL     1     -32.238   7.868   2.097  1.00 20.00    -0.085 Cl
ENDROOT
BRANCH   1   4
HETATM    4  C2  UNL     1     -34.072   6.503   3.558  1.00 20.00     0.314 C 
HETATM    5  F4  UNL     1     -35.423   6.410   3.446  1.00 20.00    -0.228 F 
HETATM    6 CL6  UNL     1     -33.677   7.958   4.497  1.00 20.00    -0.085 Cl
ENDBRANCH   1   4
TORSDOF 1
ENDMDL
MODEL 6
REMARK VINA RESULT:      -2.7      2.247      3.241
REMARK  1 active torsions:
REMARK  status: ('A' for Active; 'I' for Inactive)
REMARK    1  A    between atoms: C1_1  and  C2_2 
ROOT
HETATM    1  C1  UNL     1     -34.130   6.518   3.589  1.00 20.00     0.314 C 
HETATM    2  F3  UNL     1     -35.483   6.467   3.456  1.00 20.00    -0.228 F 
HETATM    3 CL5  UNL     1     -33.706   7.960   4.538  1.00 20.00    -0.085 Cl
ENDROOT
BRANCH   1   4
HETATM    4  C2  UNL     1     -33.493   6.575   2.215  1.00 20.00     0.314 C 
HETATM    5  F4  UNL     1     -32.896   5.384   1.944  1.00 20.00    -0.228 F 
HETATM    6 CL6  UNL     1     -32.263   7.856   2.147  1.00 20.00    -0.085 Cl
ENDBRANCH   1   4
TORSDOF 1
ENDMDL
MODEL 7
REMARK VINA RESULT:      -2.6      1.594      1.594
REMARK  1 active torsions:
REMARK  status: ('A' for Active; 'I' for Inactive)
REMARK    1  A    between atoms: C1_1  and  C2_2 
ROOT
HETATM    1  C1  UNL     1     -33.459   6.882   2.291  1.00 20.00     0.314 C 
HETATM    2  F3  UNL     1     -33.096   5.581   2.462  1.00 20.00    -0.228 F 
HETATM    3 CL5  UNL     1     -31.993   7.849   2.017  1.00 20.00    -0.085 Cl
ENDROOT
BRANCH   1   4
HETATM    4  C2  UNL     1     -34.195   7.364   3.525  1.00 20.00     0.314 C 
HETATM    5  F4  UNL     1     -33.295   7.680   4.493  1.00 20.00    -0.228 F 
HETATM    6 CL6  UNL     1     -35.275   6.096   4.146  1.00 20.00    -0.085 Cl
ENDBRANCH   1   4
TORSDOF 1
ENDMDL
MODEL 8
REMARK VINA RESULT:      -2.6      1.595      2.898
REMARK  1 active torsions:
REMARK  status: ('A' for Active; 'I' for Inactive)
REMARK    1  A    between atoms: C1_1  and  C2_2 
ROOT
HETATM    1  C1  UNL     1     -34.176   7.362   3.505  1.00 20.00     0.314 C 
HETATM    2  F3  UNL     1     -33.271   7.678   4.471  1.00 20.00    -0.228 F 
HETATM    3 CL5  UNL     1     -35.259   6.100   4.133  1.00 20.00    -0.085 Cl
ENDROOT
BRANCH   1   4
HETATM    4  C2  UNL     1     -33.443   6.873   2.272  1.00 20.00     0.314 C 
HETATM    5  F4  UNL     1     -33.088   5.572   2.444  1.00 20.00    -0.228 F 
HETATM    6 CL6  UNL     1     -31.973   7.831   1.995  1.00 20.00    -0.085 Cl
ENDBRANCH   1   4
TORSDOF 1
ENDMDL
MODEL 9
REMARK VINA RESULT:      -2.6      1.905      2.730
REMARK  1 active torsions:
REMARK  status: ('A' for Active; 'I' for Inactive)
REMARK    1  A    between atoms: C1_1  and  C2_2 
ROOT
HETATM    1  C1  UNL     1     -34.584   5.954   3.451  1.00 20.00     0.314 C 
HETATM    2  F3  UNL     1     -35.787   6.232   4.023  1.00 20.00    -0.228 F 
HETATM    3 CL5  UNL     1     -34.033   4.365   4.027  1.00 20.00    -0.085 Cl
ENDROOT
BRANCH   1   4
HETATM    4  C2  UNL     1     -33.588   7.034   3.826  1.00 20.00     0.314 C 
HETATM    5  F4  UNL     1     -34.243   8.061   4.430  1.00 20.00    -0.228 F 
HETATM    6 CL6  UNL     1     -32.765   7.658   2.381  1.00 20.00    -0.085 Cl
ENDBRANCH   1   4
TORSDOF 1
ENDMDL
