MODEL 1
REMARK VINA RESULT:      -3.7      0.000      0.000
REMARK  2 active torsions:
REMARK  status: ('A' for Active; 'I' for Inactive)
REMARK    1  A    between atoms: C1_1  and  C2_2 
REMARK    2  A    between atoms: C1_1  and  C3_3 
ROOT
HETATM    1  C1  UNL     1     -33.463   5.830   3.030  1.00 20.00     0.168 C 
ENDROOT
BRANCH   1   2
HETATM    2  C2  UNL     1     -34.477   6.850   3.512  1.00 20.00     0.360 C 
HETATM    3  F4  UNL     1     -35.487   6.203   4.149  1.00 20.00    -0.214 F 
HETATM    4  F5  UNL     1     -33.907   7.671   4.427  1.00 20.00    -0.214 F 
ENDBRANCH   1   2
BRANCH   1   5
HETATM    5  C3  UNL     1     -32.763   6.209   1.734  1.00 20.00     0.325 C 
HETATM    6  F6  UNL     1     -31.772   5.320   1.470  1.00 20.00    -0.188 F 
HETATM    7  F7  UNL     1     -33.653   6.106   0.711  1.00 20.00    -0.188 F 
HETATM    8 CL8  UNL     1     -32.100   7.850   1.760  1.00 20.00    -0.048 Cl
ENDBRANCH   1   5
TORSDOF 2
ENDMDL
MODEL 2
REMARK VINA RESULT:      -3.2      1.583      2.154
REMARK  2 active torsions:
REMARK  status: ('A' for Active; 'I' for Inactive)
REMARK    1  A    between atoms: C1_1  and  C2_2 
REMARK    2  A    between atoms: C1_1  and  C3_3 
ROOT
HETATM    1  C1  UNL     1     -33.415   7.086   2.202  1.00 20.00     0.168 C 
ENDROOT
BRANCH   1   2
HETATM    2  C2  UNL     1     -33.789   6.952   3.666  1.00 20.00     0.360 C 
HETATM    3  F4  UNL     1     -34.469   8.061   4.054  1.00 20.00    -0.214 F 
HETATM    4  F5  UNL     1     -34.632   5.904   3.833  1.00 20.00    -0.214 F 
ENDBRANCH   1   2
BRANCH   1   5
HETATM    5  C3  UNL     1     -32.147   7.887   1.950  1.00 20.00     0.325 C 
HETATM    6  F6  UNL     1     -31.682   8.392   3.121  1.00 20.00    -0.188 F 
HETATM    7  F7  UNL     1     -31.184   7.046   1.487  1.00 20.00    -0.188 F 
HETATM    8 CL8  UNL     1     -32.378   9.198   0.784  1.00 20.00    -0.048 Cl
ENDBRANCH   1   5
TORSDOF 2
ENDMDL
MODEL 3
REMARK VINA RESULT:      -3.1      2.229      2.747
REMARK  2 active torsions:
REMARK  status: ('A' for Active; 'I' for Inactive)
REMARK    1  A    between atoms: C1_1  and  C2_2 
REMARK    2  A    between atoms: C1_1  and  C3_3 
ROOT
HETATM    1  C1  UNL     1     -33.976   6.272   3.404  1.00 20.00     0.168 C 
ENDROOT
BRANCH   1   2
HETATM    2  C2  UNL     1     -35.256   6.095   4.199  1.00 20.00     0.360 C 
HETATM    3  F4  UNL     1     -36.315   6.415   3.413  1.00 20.00    -0.214 F 
HETATM    4  F5  UNL     1     -35.409   4.793   4.543  1.00 20.00    -0.214 F 
ENDBRANCH   1   2
BRANCH   1   5
HETATM    5  C3  UNL     1     -33.401   7.679   3.448  1.00 20.00     0.325 C 
HETATM    6  F6  UNL     1     -34.403   8.589   3.350  1.00 20.00    -0.188 F 
HETATM    7  F7  UNL     1     -32.822   7.876   4.663  1.00 20.00    -0.188 F 
HETATM    8 CL8  UNL     1     -32.200   7.976   2.182  1.00 20.00    -0.048 Cl
ENDBRANCH   1   5
TORSDOF 2
ENDMDL
MODEL 4
REMARK VINA RESULT:      -3.0      1.935      3.407
REMARK  2 active torsions:
REMARK  status: ('A' for Active; 'I' for Inactive)
REMARK    1  A    between atoms: C1_1  and  C2_2 
REMARK    2  A    between atoms: C1_1  and  C3_3 
ROOT
HETATM    1  C1  UNL     1     -33.513   6.638   2.187  1.00 20.00     0.168 C 
ENDROOT
BRANCH   1   2
HETATM    2  C2  UNL     1     -32.327   7.583   2.199  1.00 20.00     0.360 C 
HETATM    3  F4  UNL     1     -31.298   7.012   1.521  1.00 20.00    -0.214 F 
HETATM    4  F5  UNL     1     -32.639   8.724   1.539  1.00 20.00    -0.214 F 
ENDBRANCH   1   2
BRANCH   1   5
HETATM    5  C3  UNL     1     -34.271   6.568   3.504  1.00 20.00     0.325 C 
HETATM    6  F6  UNL     1     -35.604   6.670   3.274  1.00 20.00    -0.188 F 
HETATM    7  F7  UNL     1     -34.070   5.342   4.059  1.00 20.00    -0.188 F 
HETATM    8 CL8  UNL     1     -33.768   7.813   4.658  1.00 20.00    -0.048 Cl
ENDBRANCH   1   5
TORSDOF 2
ENDMDL
MODEL 5
REMARK VINA RESULT:      -3.0      1.749      3.526
REMARK  2 active torsions:
REMARK  status: ('A' for Active; 'I' for Inactive)
REMARK    1  A    between atoms: C1_1  and  C2_2 
REMARK    2  A    between atoms: C1_1  and  C3_3 
ROOT
HETATM    1  C1  UNL     1     -33.640   6.938   2.551  1.00 20.00     0.168 C 
ENDROOT
BRANCH   1   2
HETATM    2  C2  UNL     1     -32.839   5.845   1.869  1.00 20.00     0.360 C 
HETATM    3  F4  UNL     1     -33.465   5.488   0.718  1.00 20.00    -0.214 F 
HETATM    4  F5  UNL     1     -31.620   6.318   1.515  1.00 20.00    -0.214 F 
ENDBRANCH   1   2
BRANCH   1   5
HETATM    5  C3  UNL     1     -34.534   6.449   3.680  1.00 20.00     0.325 C 
HETATM    6  F6  UNL     1     -34.362   7.232   4.774  1.00 20.00    -0.188 F 
HETATM    7  F7  UNL     1     -35.833   6.595   3.304  1.00 20.00    -0.188 F 
HETATM    8 CL8  UNL     1     -34.243   4.755   4.107  1.00 20.00    -0.048 Cl
ENDBRANCH   1   5
TORSDOF 2
ENDMDL
MODEL 6
REMARK VINA RESULT:      -3.0      2.278      3.683
REMARK  2 active torsions:
REMARK  status: ('A' for Active; 'I' for Inactive)
REMARK    1  A    between atoms: C1_1  and  C2_2 
REMARK    2  A    between atoms: C1_1  and  C3_3 
ROOT
HETATM    1  C1  UNL     1     -33.233   6.964   2.509  1.00 20.00     0.168 C 
ENDROOT
BRANCH   1   2
HETATM    2  C2  UNL     1     -32.106   7.922   2.172  1.00 20.00     0.360 C 
HETATM    3  F4  UNL     1     -31.155   7.257   1.468  1.00 20.00    -0.214 F 
HETATM    4  F5  UNL     1     -32.565   8.909   1.364  1.00 20.00    -0.214 F 
ENDBRANCH   1   2
BRANCH   1   5
HETATM    5  C3  UNL     1     -34.080   7.388   3.699  1.00 20.00     0.325 C 
HETATM    6  F6  UNL     1     -33.277   7.692   4.750  1.00 20.00    -0.188 F 
HETATM    7  F7  UNL     1     -34.742   8.532   3.379  1.00 20.00    -0.188 F 
HETATM    8 CL8  UNL     1     -35.256   6.157   4.184  1.00 20.00    -0.048 Cl
ENDBRANCH   1   5
TORSDOF 2
ENDMDL
MODEL 7
REMARK VINA RESULT:      -3.0      1.296      1.517
REMARK  2 active torsions:
REMARK  status: ('A' for Active; 'I' for Inactive)
REMARK    1  A    between atoms: C1_1  and  C2_2 
REMARK    2  A    between atoms: C1_1  and  C3_3 
ROOT
HETATM    1  C1  UNL     1     -33.566   5.814   3.136  1.00 20.00     0.168 C 
ENDROOT
BRANCH   1   2
HETATM    2  C2  UNL     1     -34.681   6.738   3.588  1.00 20.00     0.360 C 
HETATM    3  F4  UNL     1     -35.579   6.027   4.317  1.00 20.00    -0.214 F 
HETATM    4  F5  UNL     1     -34.184   7.693   4.412  1.00 20.00    -0.214 F 
ENDBRANCH   1   2
BRANCH   1   5
HETATM    5  C3  UNL     1     -32.916   6.213   1.820  1.00 20.00     0.325 C 
HETATM    6  F6  UNL     1     -33.849   6.236   0.835  1.00 20.00    -0.188 F 
HETATM    7  F7  UNL     1     -32.447   7.485   1.933  1.00 20.00    -0.188 F 
HETATM    8 CL8  UNL     1     -31.583   5.145   1.355  1.00 20.00    -0.048 Cl
ENDBRANCH   1   5
TORSDOF 2
ENDMDL
MODEL 8
REMARK VINA RESULT:      -2.9      1.841      2.227
REMARK  2 active torsions:
REMARK  status: ('A' for Active; 'I' for Inactive)
REMARK    1  A    between atoms: C1_1  and  C2_2 
REMARK    2  A    between atoms: C1_1  and  C3_3 
ROOT
HETATM    1  C1  UNL     1     -33.249   7.540   3.417  1.00 20.00     0.168 C 
ENDROOT
BRANCH   1   2
HETATM    2  C2  UNL     1     -34.362   6.510   3.413  1.00 20.00     0.360 C 
HETATM    3  F4  UNL     1     -33.848   5.300   3.754  1.00 20.00    -0.214 F 
HETATM    4  F5  UNL     1     -35.281   6.820   4.360  1.00 20.00    -0.214 F 
ENDBRANCH   1   2
BRANCH   1   5
HETATM    5  C3  UNL     1     -32.427   7.579   2.138  1.00 20.00     0.325 C 
HETATM    6  F6  UNL     1     -32.873   8.576   1.334  1.00 20.00    -0.188 F 
HETATM    7  F7  UNL     1     -31.141   7.888   2.454  1.00 20.00    -0.188 F 
HETATM    8 CL8  UNL     1     -32.450   6.044   1.255  1.00 20.00    -0.048 Cl
ENDBRANCH   1   5
TORSDOF 2
ENDMDL
MODEL 9
REMARK VINA RESULT:      -2.9      3.389      4.263
REMARK  2 active torsions:
REMARK  status: ('A' for Active; 'I' for Inactive)
REMARK    1  A    between atoms: C1_1  and  C2_2 
REMARK    2  A    between atoms: C1_1  and  C3_3 
ROOT
HETATM    1  C1  UNL     1     -31.774   8.824   0.622  1.00 20.00     0.168 C 
ENDROOT
BRANCH   1   2
HETATM    2  C2  UNL     1     -32.778   9.941   0.407  1.00 20.00     0.360 C 
HETATM    3  F4  UNL     1     -32.197  11.127   0.720  1.00 20.00    -0.214 F 
HETATM    4  F5  UNL     1     -33.117  10.011  -0.903  1.00 20.00    -0.214 F 
ENDBRANCH   1   2
BRANCH   1   5
HETATM    5  C3  UNL     1     -32.061   7.949   1.833  1.00 20.00     0.325 C 
HETATM    6  F6  UNL     1     -31.128   8.172   2.793  1.00 20.00    -0.188 F 
HETATM    7  F7  UNL     1     -33.256   8.319   2.366  1.00 20.00    -0.188 F 
HETATM    8 CL8  UNL     1     -32.113   6.223   1.441  1.00 20.00    -0.048 Cl
ENDBRANCH   1   5
TORSDOF 2
ENDMDL
