MODEL 1
REMARK VINA RESULT:      -2.7      0.000      0.000
REMARK  1 active torsions:
REMARK  status: ('A' for Active; 'I' for Inactive)
REMARK    1  A    between atoms: C4_4  and  C6_6 
ROOT
HETATM    1  C1  UNL     1     -33.501   5.620   2.395  1.00 20.00     0.070 A 
HETATM    2  C2  UNL     1     -33.448   7.804   3.335  1.00 20.00     0.129 A 
HETATM    3  C3  UNL     1     -31.888   7.242   1.746  1.00 20.00     0.170 A 
HETATM    4  C4  UNL     1     -34.039   6.552   3.275  1.00 20.00     0.027 A 
HETATM    5  C5  UNL     1     -32.405   5.964   1.611  1.00 20.00     0.190 A 
HETATM    6  N7  UNL     1     -32.383   8.174   2.590  1.00 20.00    -0.268 NA
HETATM    7  O8  UNL     1     -31.890   5.126   0.792  1.00 20.00    -0.287 OA
ENDROOT
BRANCH   4   8
HETATM    8  C6  UNL     1     -35.211   6.217   4.127  1.00 20.00     0.388 C 
HETATM    9  F9  UNL     1     -35.221   4.893   4.443  1.00 20.00    -0.209 F 
HETATM   10  F10 UNL     1     -36.377   6.461   3.470  1.00 20.00    -0.209 F 
ENDBRANCH   4   8
TORSDOF 1
ENDMDL
MODEL 2
REMARK VINA RESULT:      -2.2      1.607      1.993
REMARK  1 active torsions:
REMARK  status: ('A' for Active; 'I' for Inactive)
REMARK    1  A    between atoms: C4_4  and  C6_6 
ROOT
HETATM    1  C1  UNL     1     -33.439   7.651   2.946  1.00 20.00     0.070 A 
HETATM    2  C2  UNL     1     -33.485   5.330   2.427  1.00 20.00     0.129 A 
HETATM    3  C3  UNL     1     -31.944   6.671   1.377  1.00 20.00     0.170 A 
HETATM    4  C4  UNL     1     -34.003   6.396   3.146  1.00 20.00     0.027 A 
HETATM    5  C5  UNL     1     -32.388   7.800   2.047  1.00 20.00     0.190 A 
HETATM    6  N7  UNL     1     -32.467   5.437   1.545  1.00 20.00    -0.268 NA
HETATM    7  O8  UNL     1     -31.850   8.944   1.845  1.00 20.00    -0.287 OA
ENDROOT
BRANCH   4   8
HETATM    8  C6  UNL     1     -35.127   6.202   4.100  1.00 20.00     0.388 C 
HETATM    9  F9  UNL     1     -35.216   4.901   4.491  1.00 20.00    -0.209 F 
HETATM   10  F10 UNL     1     -36.318   6.508   3.518  1.00 20.00    -0.209 F 
ENDBRANCH   4   8
TORSDOF 1
ENDMDL
MODEL 3
REMARK VINA RESULT:      -2.1      3.028      3.653
REMARK  1 active torsions:
REMARK  status: ('A' for Active; 'I' for Inactive)
REMARK    1  A    between atoms: C4_4  and  C6_6 
ROOT
HETATM    1  C1  UNL     1     -33.200   5.025   3.114  1.00 20.00     0.070 A 
HETATM    2  C2  UNL     1     -34.560   6.959   3.374  1.00 20.00     0.129 A 
HETATM    3  C3  UNL     1     -35.120   5.046   4.516  1.00 20.00     0.170 A 
HETATM    4  C4  UNL     1     -33.456   6.353   2.795  1.00 20.00     0.027 A 
HETATM    5  C5  UNL     1     -34.043   4.351   3.991  1.00 20.00     0.190 A 
HETATM    6  N7  UNL     1     -35.401   6.337   4.230  1.00 20.00    -0.268 NA
HETATM    7  O8  UNL     1     -33.830   3.128   4.302  1.00 20.00    -0.287 OA
ENDROOT
BRANCH   4   8
HETATM    8  C6  UNL     1     -32.574   7.102   1.860  1.00 20.00     0.388 C 
HETATM    9  F9  UNL     1     -31.583   6.304   1.379  1.00 20.00    -0.209 F 
HETATM   10  F10 UNL     1     -31.957   8.136   2.495  1.00 20.00    -0.209 F 
ENDBRANCH   4   8
TORSDOF 1
ENDMDL
MODEL 4
REMARK VINA RESULT:      -1.8      2.822      3.594
REMARK  1 active torsions:
REMARK  status: ('A' for Active; 'I' for Inactive)
REMARK    1  A    between atoms: C4_4  and  C6_6 
ROOT
HETATM    1  C1  UNL     1     -33.908   5.677   2.658  1.00 20.00     0.070 A 
HETATM    2  C2  UNL     1     -32.447   7.525   2.336  1.00 20.00     0.129 A 
HETATM    3  C3  UNL     1     -34.022   7.634   4.004  1.00 20.00     0.170 A 
HETATM    4  C4  UNL     1     -32.857   6.258   1.957  1.00 20.00     0.027 A 
HETATM    5  C5  UNL     1     -34.506   6.371   3.704  1.00 20.00     0.190 A 
HETATM    6  N7  UNL     1     -33.004   8.230   3.345  1.00 20.00    -0.268 NA
HETATM    7  O8  UNL     1     -35.475   5.860   4.367  1.00 20.00    -0.287 OA
ENDROOT
BRANCH   4   8
HETATM    8  C6  UNL     1     -32.196   5.542   0.834  1.00 20.00     0.388 C 
HETATM    9  F9  UNL     1     -33.053   4.668   0.239  1.00 20.00    -0.209 F 
HETATM   10  F10 UNL     1     -31.145   4.800   1.280  1.00 20.00    -0.209 F 
ENDBRANCH   4   8
TORSDOF 1
ENDMDL
MODEL 5
REMARK VINA RESULT:      -1.7      3.421      4.306
REMARK  1 active torsions:
REMARK  status: ('A' for Active; 'I' for Inactive)
REMARK    1  A    between atoms: C4_4  and  C6_6 
ROOT
HETATM    1  C1  UNL     1     -33.286   8.018   2.883  1.00 20.00     0.070 A 
HETATM    2  C2  UNL     1     -32.247   6.557   1.319  1.00 20.00     0.129 A 
HETATM    3  C3  UNL     1     -33.674   5.672   2.886  1.00 20.00     0.170 A 
HETATM    4  C4  UNL     1     -32.430   7.843   1.801  1.00 20.00     0.027 A 
HETATM    5  C5  UNL     1     -33.924   6.916   3.442  1.00 20.00     0.190 A 
HETATM    6  N7  UNL     1     -32.850   5.464   1.836  1.00 20.00    -0.268 NA
HETATM    7  O8  UNL     1     -34.718   7.048   4.438  1.00 20.00    -0.287 OA
ENDROOT
BRANCH   4   8
HETATM    8  C6  UNL     1     -31.732   9.001   1.180  1.00 20.00     0.388 C 
HETATM    9  F9  UNL     1     -32.624   9.923   0.728  1.00 20.00    -0.209 F 
HETATM   10  F10 UNL     1     -31.007   8.609   0.098  1.00 20.00    -0.209 F 
ENDBRANCH   4   8
TORSDOF 1
ENDMDL
MODEL 6
REMARK VINA RESULT:      -1.7      1.924      2.272
REMARK  1 active torsions:
REMARK  status: ('A' for Active; 'I' for Inactive)
REMARK    1  A    between atoms: C4_4  and  C6_6 
ROOT
HETATM    1  C1  UNL     1     -32.917   8.015   2.500  1.00 20.00     0.070 A 
HETATM    2  C2  UNL     1     -33.543   5.722   2.585  1.00 20.00     0.129 A 
HETATM    3  C3  UNL     1     -31.899   6.371   1.117  1.00 20.00     0.170 A 
HETATM    4  C4  UNL     1     -33.711   7.016   3.051  1.00 20.00     0.027 A 
HETATM    5  C5  UNL     1     -31.991   7.695   1.514  1.00 20.00     0.190 A 
HETATM    6  N7  UNL     1     -32.653   5.373   1.629  1.00 20.00    -0.268 NA
HETATM    7  O8  UNL     1     -31.247   8.595   0.990  1.00 20.00    -0.287 OA
ENDROOT
BRANCH   4   8
HETATM    8  C6  UNL     1     -34.712   7.325   4.107  1.00 20.00     0.388 C 
HETATM    9  F9  UNL     1     -34.115   7.885   5.195  1.00 20.00    -0.209 F 
HETATM   10  F10 UNL     1     -35.321   6.191   4.549  1.00 20.00    -0.209 F 
ENDBRANCH   4   8
TORSDOF 1
ENDMDL
MODEL 7
REMARK VINA RESULT:      -1.5      2.949      3.571
REMARK  1 active torsions:
REMARK  status: ('A' for Active; 'I' for Inactive)
REMARK    1  A    between atoms: C4_4  and  C6_6 
ROOT
HETATM    1  C1  UNL     1     -33.102   5.401   2.880  1.00 20.00     0.070 A 
HETATM    2  C2  UNL     1     -34.099   7.525   3.265  1.00 20.00     0.129 A 
HETATM    3  C3  UNL     1     -34.993   5.677   4.295  1.00 20.00     0.170 A 
HETATM    4  C4  UNL     1     -33.118   6.770   2.643  1.00 20.00     0.027 A 
HETATM    5  C5  UNL     1     -34.054   4.835   3.721  1.00 20.00     0.190 A 
HETATM    6  N7  UNL     1     -35.040   7.011   4.088  1.00 20.00    -0.268 NA
HETATM    7  O8  UNL     1     -34.062   3.577   3.958  1.00 20.00    -0.287 OA
ENDROOT
BRANCH   4   8
HETATM    8  C6  UNL     1     -32.114   7.406   1.748  1.00 20.00     0.388 C 
HETATM    9  F9  UNL     1     -31.137   8.020   2.470  1.00 20.00    -0.209 F 
HETATM   10  F10 UNL     1     -32.687   8.375   0.983  1.00 20.00    -0.209 F 
ENDBRANCH   4   8
TORSDOF 1
ENDMDL
MODEL 8
REMARK VINA RESULT:      -1.1      2.654      3.220
REMARK  1 active torsions:
REMARK  status: ('A' for Active; 'I' for Inactive)
REMARK    1  A    between atoms: C4_4  and  C6_6 
ROOT
HETATM    1  C1  UNL     1     -33.105   4.894   3.250  1.00 20.00     0.070 A 
HETATM    2  C2  UNL     1     -35.062   5.039   4.594  1.00 20.00     0.129 A 
HETATM    3  C3  UNL     1     -34.603   6.736   3.115  1.00 20.00     0.170 A 
HETATM    4  C4  UNL     1     -33.925   4.339   4.227  1.00 20.00     0.027 A 
HETATM    5  C5  UNL     1     -33.444   6.115   2.678  1.00 20.00     0.190 A 
HETATM    6  N7  UNL     1     -35.423   6.228   4.061  1.00 20.00    -0.268 NA
HETATM    7  O8  UNL     1     -32.708   6.648   1.777  1.00 20.00    -0.287 OA
ENDROOT
BRANCH   4   8
HETATM    8  C6  UNL     1     -33.591   3.034   4.858  1.00 20.00     0.388 C 
HETATM    9  F9  UNL     1     -32.407   3.104   5.526  1.00 20.00    -0.209 F 
HETATM   10  F10 UNL     1     -33.442   2.061   3.919  1.00 20.00    -0.209 F 
ENDBRANCH   4   8
TORSDOF 1
ENDMDL
MODEL 9
REMARK VINA RESULT:      -0.7      3.065      3.855
REMARK  1 active torsions:
REMARK  status: ('A' for Active; 'I' for Inactive)
REMARK    1  A    between atoms: C4_4  and  C6_6 
ROOT
HETATM    1  C1  UNL     1     -32.218   6.932   1.114  1.00 20.00     0.070 A 
HETATM    2  C2  UNL     1     -33.158   8.250   2.857  1.00 20.00     0.129 A 
HETATM    3  C3  UNL     1     -33.439   5.971   2.914  1.00 20.00     0.170 A 
HETATM    4  C4  UNL     1     -32.433   8.185   1.678  1.00 20.00     0.027 A 
HETATM    5  C5  UNL     1     -32.727   5.799   1.738  1.00 20.00     0.190 A 
HETATM    6  N7  UNL     1     -33.668   7.171   3.491  1.00 20.00    -0.268 NA
HETATM    7  O8  UNL     1     -32.544   4.633   1.241  1.00 20.00    -0.287 OA
ENDROOT
BRANCH   4   8
HETATM    8  C6  UNL     1     -31.902   9.417   1.036  1.00 20.00     0.388 C 
HETATM    9  F9  UNL     1     -32.913  10.252   0.673  1.00 20.00    -0.209 F 
HETATM   10  F10 UNL     1     -31.225   9.119  -0.106  1.00 20.00    -0.209 F 
ENDBRANCH   4   8
TORSDOF 1
ENDMDL
