MODEL 1
REMARK VINA RESULT:      -2.2      0.000      0.000
REMARK  1 active torsions:
REMARK  status: ('A' for Active; 'I' for Inactive)
REMARK    1  A    between atoms: C1_1  and  C2_2 
ROOT
HETATM    1  C2  UNL     1     -34.239   6.536   3.422  1.00 20.00     0.285 C 
HETATM    2  F3  UNL     1     -35.573   6.702   3.214  1.00 20.00    -0.204 F 
HETATM    3 CL6  UNL     1     -33.724   7.664   4.713  1.00 20.00    -0.063 Cl
HETATM    4 CL7  UNL     1     -33.965   4.870   4.020  1.00 20.00    -0.063 Cl
ENDROOT
BRANCH   1   5
HETATM    5  C1  UNL     1     -33.479   6.794   2.116  1.00 20.00     0.249 C 
HETATM    6 CL4  UNL     1     -32.654   5.317   1.529  1.00 20.00    -0.102 Cl
HETATM    7 CL5  UNL     1     -32.227   8.060   2.321  1.00 20.00    -0.102 Cl
ENDBRANCH   1   5
TORSDOF 1
ENDMDL
MODEL 2
REMARK VINA RESULT:      -2.0      1.371      1.789
REMARK  1 active torsions:
REMARK  status: ('A' for Active; 'I' for Inactive)
REMARK    1  A    between atoms: C1_1  and  C2_2 
ROOT
HETATM    1  C2  UNL     1     -34.015   6.554   3.428  1.00 20.00     0.285 C 
HETATM    2  F3  UNL     1     -33.659   5.321   3.879  1.00 20.00    -0.204 F 
HETATM    3 CL6  UNL     1     -35.802   6.631   3.348  1.00 20.00    -0.063 Cl
HETATM    4 CL7  UNL     1     -33.475   7.771   4.625  1.00 20.00    -0.063 Cl
ENDROOT
BRANCH   1   5
HETATM    5  C1  UNL     1     -33.382   6.800   2.054  1.00 20.00     0.249 C 
HETATM    6 CL4  UNL     1     -32.586   5.324   1.420  1.00 20.00    -0.102 Cl
HETATM    7 CL5  UNL     1     -32.139   8.089   2.121  1.00 20.00    -0.102 Cl
ENDBRANCH   1   5
TORSDOF 1
ENDMDL
MODEL 3
REMARK VINA RESULT:      -2.0      2.307      3.561
REMARK  1 active torsions:
REMARK  status: ('A' for Active; 'I' for Inactive)
REMARK    1  A    between atoms: C1_1  and  C2_2 
ROOT
HETATM    1  C2  UNL     1     -32.096   7.968   1.886  1.00 20.00     0.285 C 
HETATM    2  F3  UNL     1     -30.916   7.409   1.502  1.00 20.00    -0.204 F 
HETATM    3 CL6  UNL     1     -31.889   8.647   3.530  1.00 20.00    -0.063 Cl
HETATM    4 CL7  UNL     1     -32.460   9.330   0.782  1.00 20.00    -0.063 Cl
ENDROOT
BRANCH   1   5
HETATM    5  C1  UNL     1     -33.202   6.908   1.852  1.00 20.00     0.249 C 
HETATM    6 CL4  UNL     1     -34.003   6.738   3.446  1.00 20.00    -0.102 Cl
HETATM    7 CL5  UNL     1     -32.558   5.297   1.405  1.00 20.00    -0.102 Cl
ENDBRANCH   1   5
TORSDOF 1
ENDMDL
MODEL 4
REMARK VINA RESULT:      -1.9      1.375      1.797
REMARK  1 active torsions:
REMARK  status: ('A' for Active; 'I' for Inactive)
REMARK    1  A    between atoms: C1_1  and  C2_2 
ROOT
HETATM    1  C2  UNL     1     -33.998   6.428   3.397  1.00 20.00     0.285 C 
HETATM    2  F3  UNL     1     -33.450   7.236   4.346  1.00 20.00    -0.204 F 
HETATM    3 CL6  UNL     1     -33.728   4.726   3.881  1.00 20.00    -0.063 Cl
HETATM    4 CL7  UNL     1     -35.766   6.709   3.370  1.00 20.00    -0.063 Cl
ENDROOT
BRANCH   1   5
HETATM    5  C1  UNL     1     -33.361   6.731   2.036  1.00 20.00     0.249 C 
HETATM    6 CL4  UNL     1     -32.516   5.299   1.369  1.00 20.00    -0.102 Cl
HETATM    7 CL5  UNL     1     -32.158   8.055   2.150  1.00 20.00    -0.102 Cl
ENDBRANCH   1   5
TORSDOF 1
ENDMDL
MODEL 5
REMARK VINA RESULT:      -1.9      2.198      3.565
REMARK  1 active torsions:
REMARK  status: ('A' for Active; 'I' for Inactive)
REMARK    1  A    between atoms: C1_1  and  C2_2 
ROOT
HETATM    1  C2  UNL     1     -32.307   7.827   2.213  1.00 20.00     0.285 C 
HETATM    2  F3  UNL     1     -31.159   8.151   2.868  1.00 20.00    -0.204 F 
HETATM    3 CL6  UNL     1     -32.573   9.028   0.913  1.00 20.00    -0.063 Cl
HETATM    4 CL7  UNL     1     -32.081   6.230   1.435  1.00 20.00    -0.063 Cl
ENDROOT
BRANCH   1   5
HETATM    5  C1  UNL     1     -33.475   7.807   3.205  1.00 20.00     0.249 C 
HETATM    6 CL4  UNL     1     -32.953   8.293   4.849  1.00 20.00    -0.102 Cl
HETATM    7 CL5  UNL     1     -34.202   6.174   3.337  1.00 20.00    -0.102 Cl
ENDBRANCH   1   5
TORSDOF 1
ENDMDL
MODEL 6
REMARK VINA RESULT:      -1.8      1.277      1.968
REMARK  1 active torsions:
REMARK  status: ('A' for Active; 'I' for Inactive)
REMARK    1  A    between atoms: C1_1  and  C2_2 
ROOT
HETATM    1  C2  UNL     1     -33.776   7.550   3.564  1.00 20.00     0.285 C 
HETATM    2  F3  UNL     1     -34.505   8.558   3.011  1.00 20.00    -0.204 F 
HETATM    3 CL6  UNL     1     -33.171   8.100   5.156  1.00 20.00    -0.063 Cl
HETATM    4 CL7  UNL     1     -34.866   6.159   3.851  1.00 20.00    -0.063 Cl
ENDROOT
BRANCH   1   5
HETATM    5  C1  UNL     1     -32.624   7.175   2.625  1.00 20.00     0.249 C 
HETATM    6 CL4  UNL     1     -32.224   8.515   1.504  1.00 20.00    -0.102 Cl
HETATM    7 CL5  UNL     1     -33.027   5.745   1.624  1.00 20.00    -0.102 Cl
ENDBRANCH   1   5
TORSDOF 1
ENDMDL
MODEL 7
REMARK VINA RESULT:      -1.7      1.431      3.435
REMARK  1 active torsions:
REMARK  status: ('A' for Active; 'I' for Inactive)
REMARK    1  A    between atoms: C1_1  and  C2_2 
ROOT
HETATM    1  C2  UNL     1     -33.001   6.291   1.716  1.00 20.00     0.285 C 
HETATM    2  F3  UNL     1     -33.651   6.274   0.521  1.00 20.00    -0.204 F 
HETATM    3 CL6  UNL     1     -31.762   4.998   1.703  1.00 20.00    -0.063 Cl
HETATM    4 CL7  UNL     1     -32.146   7.857   1.871  1.00 20.00    -0.063 Cl
ENDROOT
BRANCH   1   5
HETATM    5  C1  UNL     1     -34.010   6.088   2.852  1.00 20.00     0.249 C 
HETATM    6 CL4  UNL     1     -33.960   7.439   4.028  1.00 20.00    -0.102 Cl
HETATM    7 CL5  UNL     1     -33.686   4.578   3.761  1.00 20.00    -0.102 Cl
ENDBRANCH   1   5
TORSDOF 1
ENDMDL
MODEL 8
REMARK VINA RESULT:      -1.6      1.466      3.179
REMARK  1 active torsions:
REMARK  status: ('A' for Active; 'I' for Inactive)
REMARK    1  A    between atoms: C1_1  and  C2_2 
ROOT
HETATM    1  C2  UNL     1     -32.905   6.225   1.907  1.00 20.00     0.285 C 
HETATM    2  F3  UNL     1     -33.931   6.174   1.014  1.00 20.00    -0.204 F 
HETATM    3 CL6  UNL     1     -31.685   5.003   1.435  1.00 20.00    -0.063 Cl
HETATM    4 CL7  UNL     1     -32.132   7.835   1.786  1.00 20.00    -0.063 Cl
ENDROOT
BRANCH   1   5
HETATM    5  C1  UNL     1     -33.440   5.964   3.320  1.00 20.00     0.249 C 
HETATM    6 CL4  UNL     1     -33.738   4.220   3.602  1.00 20.00    -0.102 Cl
HETATM    7 CL5  UNL     1     -34.987   6.823   3.607  1.00 20.00    -0.102 Cl
ENDBRANCH   1   5
TORSDOF 1
ENDMDL
MODEL 9
REMARK VINA RESULT:      -1.6      1.767      3.355
REMARK  1 active torsions:
REMARK  status: ('A' for Active; 'I' for Inactive)
REMARK    1  A    between atoms: C1_1  and  C2_2 
ROOT
HETATM    1  C2  UNL     1     -32.981   6.060   1.828  1.00 20.00     0.285 C 
HETATM    2  F3  UNL     1     -32.032   5.120   2.090  1.00 20.00    -0.204 F 
HETATM    3 CL6  UNL     1     -32.184   7.661   1.759  1.00 20.00    -0.063 Cl
HETATM    4 CL7  UNL     1     -33.669   5.730   0.208  1.00 20.00    -0.063 Cl
ENDROOT
BRANCH   1   5
HETATM    5  C1  UNL     1     -34.060   6.017   2.915  1.00 20.00     0.249 C 
HETATM    6 CL4  UNL     1     -33.946   7.428   4.014  1.00 20.00    -0.102 Cl
HETATM    7 CL5  UNL     1     -33.921   4.543   3.925  1.00 20.00    -0.102 Cl
ENDBRANCH   1   5
TORSDOF 1
ENDMDL
