MODEL 1
REMARK VINA RESULT:      -1.1      0.000      0.000
REMARK  0 active torsions:
REMARK  status: ('A' for Active; 'I' for Inactive)
ROOT
HETATM    1  C1  UNL     1     -34.230   7.629   4.750  1.00 20.00     0.047 C 
HETATM    2  C2  UNL     1     -32.943   8.302   4.682  1.00 20.00     0.042 C 
HETATM    3  C3  UNL     1     -31.843   6.872   1.456  1.00 20.00     0.010 C 
HETATM    4  C4  UNL     1     -32.358   5.647   1.313  1.00 20.00     0.114 C 
HETATM    5  C5  UNL     1     -34.602   6.751   3.811  1.00 20.00     0.142 C 
HETATM    6  C6  UNL     1     -32.223   8.312   3.545  1.00 20.00     0.107 C 
HETATM    7  C7  UNL     1     -33.667   6.530   2.696  1.00 20.00     0.087 C 
HETATM    8  C8  UNL     1     -32.757   7.685   2.300  1.00 20.00     0.127 C 
HETATM    9  N9  UNL     1     -33.489   5.418   2.053  1.00 20.00    -0.262 NA
HETATM   10  F10 UNL     1     -35.709   5.995   3.876  1.00 20.00    -0.204 F 
HETATM   11  F11 UNL     1     -31.030   8.944   3.523  1.00 20.00    -0.210 F 
ENDROOT
TORSDOF 0
ENDMDL
MODEL 2
REMARK VINA RESULT:      -0.8      2.235      2.981
REMARK  0 active torsions:
REMARK  status: ('A' for Active; 'I' for Inactive)
ROOT
HETATM    1  C1  UNL     1     -34.128   6.180   3.610  1.00 20.00     0.047 C 
HETATM    2  C2  UNL     1     -33.801   5.362   2.452  1.00 20.00     0.042 C 
HETATM    3  C3  UNL     1     -31.652   7.830   0.734  1.00 20.00     0.010 C 
HETATM    4  C4  UNL     1     -32.076   9.066   1.019  1.00 20.00     0.114 C 
HETATM    5  C5  UNL     1     -33.692   7.441   3.711  1.00 20.00     0.142 C 
HETATM    6  C6  UNL     1     -32.817   5.717   1.607  1.00 20.00     0.107 C 
HETATM    7  C7  UNL     1     -32.842   7.944   2.620  1.00 20.00     0.087 C 
HETATM    8  C8  UNL     1     -31.987   6.931   1.869  1.00 20.00     0.127 C 
HETATM    9  N9  UNL     1     -32.796   9.163   2.182  1.00 20.00    -0.262 NA
HETATM   10  F10 UNL     1     -34.061   8.296   4.678  1.00 20.00    -0.204 F 
HETATM   11  F11 UNL     1     -32.546   4.934   0.541  1.00 20.00    -0.210 F 
ENDROOT
TORSDOF 0
ENDMDL
MODEL 3
REMARK VINA RESULT:      -0.7      1.623      3.974
REMARK  0 active torsions:
REMARK  status: ('A' for Active; 'I' for Inactive)
ROOT
HETATM    1  C1  UNL     1     -32.655   6.001   1.453  1.00 20.00     0.047 C 
HETATM    2  C2  UNL     1     -33.506   5.223   2.338  1.00 20.00     0.042 C 
HETATM    3  C3  UNL     1     -33.944   7.805   4.946  1.00 20.00     0.010 C 
HETATM    4  C4  UNL     1     -32.850   8.573   5.001  1.00 20.00     0.114 C 
HETATM    5  C5  UNL     1     -32.255   7.234   1.784  1.00 20.00     0.142 C 
HETATM    6  C6  UNL     1     -34.167   5.805   3.354  1.00 20.00     0.107 C 
HETATM    7  C7  UNL     1     -32.744   7.774   3.063  1.00 20.00     0.087 C 
HETATM    8  C8  UNL     1     -34.096   7.282   3.563  1.00 20.00     0.127 C 
HETATM    9  N9  UNL     1     -32.105   8.582   3.850  1.00 20.00    -0.262 NA
HETATM   10  F10 UNL     1     -31.365   7.957   1.086  1.00 20.00    -0.204 F 
HETATM   11  F11 UNL     1     -34.945   5.048   4.158  1.00 20.00    -0.210 F 
ENDROOT
TORSDOF 0
ENDMDL
MODEL 4
REMARK VINA RESULT:       0.0      2.199      2.960
REMARK  0 active torsions:
REMARK  status: ('A' for Active; 'I' for Inactive)
ROOT
HETATM    1  C1  UNL     1     -32.789   8.093   2.587  1.00 20.00     0.047 C 
HETATM    2  C2  UNL     1     -31.937   7.185   1.836  1.00 20.00     0.042 C 
HETATM    3  C3  UNL     1     -33.620   4.047   2.828  1.00 20.00     0.010 C 
HETATM    4  C4  UNL     1     -34.127   4.182   4.058  1.00 20.00     0.114 C 
HETATM    5  C5  UNL     1     -33.768   7.632   3.374  1.00 20.00     0.142 C 
HETATM    6  C6  UNL     1     -32.283   5.897   1.657  1.00 20.00     0.107 C 
HETATM    7  C7  UNL     1     -33.962   6.173   3.414  1.00 20.00     0.087 C 
HETATM    8  C8  UNL     1     -33.586   5.379   2.170  1.00 20.00     0.127 C 
HETATM    9  N9  UNL     1     -34.361   5.479   4.434  1.00 20.00    -0.262 NA
HETATM   10  F10 UNL     1     -34.503   8.396   4.197  1.00 20.00    -0.204 F 
HETATM   11  F11 UNL     1     -31.463   5.084   0.956  1.00 20.00    -0.210 F 
ENDROOT
TORSDOF 0
ENDMDL
MODEL 5
REMARK VINA RESULT:       0.1      1.616      3.021
REMARK  0 active torsions:
REMARK  status: ('A' for Active; 'I' for Inactive)
ROOT
HETATM    1  C1  UNL     1     -32.365   5.339   1.458  1.00 20.00     0.047 C 
HETATM    2  C2  UNL     1     -32.135   6.720   1.063  1.00 20.00     0.042 C 
HETATM    3  C3  UNL     1     -33.932   8.312   3.872  1.00 20.00     0.010 C 
HETATM    4  C4  UNL     1     -34.936   7.520   4.265  1.00 20.00     0.114 C 
HETATM    5  C5  UNL     1     -33.107   5.042   2.531  1.00 20.00     0.142 C 
HETATM    6  C6  UNL     1     -32.385   7.735   1.908  1.00 20.00     0.107 C 
HETATM    7  C7  UNL     1     -33.645   6.172   3.306  1.00 20.00     0.087 C 
HETATM    8  C8  UNL     1     -32.848   7.469   3.303  1.00 20.00     0.127 C 
HETATM    9  N9  UNL     1     -34.774   6.198   3.942  1.00 20.00    -0.262 NA
HETATM   10  F10 UNL     1     -33.474   3.798   2.879  1.00 20.00    -0.204 F 
HETATM   11  F11 UNL     1     -32.163   9.004   1.502  1.00 20.00    -0.210 F 
ENDROOT
TORSDOF 0
ENDMDL
MODEL 6
REMARK VINA RESULT:       0.1      2.034      2.873
REMARK  0 active torsions:
REMARK  status: ('A' for Active; 'I' for Inactive)
ROOT
HETATM    1  C1  UNL     1     -33.935   5.054   2.715  1.00 20.00     0.047 C 
HETATM    2  C2  UNL     1     -34.219   5.909   3.857  1.00 20.00     0.042 C 
HETATM    3  C3  UNL     1     -32.351   8.876   2.687  1.00 20.00     0.010 C 
HETATM    4  C4  UNL     1     -31.311   8.484   1.944  1.00 20.00     0.114 C 
HETATM    5  C5  UNL     1     -33.142   5.468   1.721  1.00 20.00     0.142 C 
HETATM    6  C6  UNL     1     -33.961   7.229   3.817  1.00 20.00     0.107 C 
HETATM    7  C7  UNL     1     -32.603   6.835   1.821  1.00 20.00     0.087 C 
HETATM    8  C8  UNL     1     -33.435   7.865   2.573  1.00 20.00     0.127 C 
HETATM    9  N9  UNL     1     -31.450   7.239   1.389  1.00 20.00    -0.262 NA
HETATM   10  F10 UNL     1     -32.727   4.692   0.708  1.00 20.00    -0.204 F 
HETATM   11  F11 UNL     1     -34.235   7.989   4.899  1.00 20.00    -0.210 F 
ENDROOT
TORSDOF 0
ENDMDL
MODEL 7
REMARK VINA RESULT:       0.1      1.857      3.081
REMARK  0 active torsions:
REMARK  status: ('A' for Active; 'I' for Inactive)
ROOT
HETATM    1  C1  UNL     1     -35.172   6.367   4.477  1.00 20.00     0.047 C 
HETATM    2  C2  UNL     1     -35.059   4.919   4.413  1.00 20.00     0.042 C 
HETATM    3  C3  UNL     1     -32.279   4.779   1.981  1.00 20.00     0.010 C 
HETATM    4  C4  UNL     1     -32.354   5.830   1.158  1.00 20.00     0.114 C 
HETATM    5  C5  UNL     1     -34.409   7.155   3.710  1.00 20.00     0.142 C 
HETATM    6  C6  UNL     1     -33.997   4.330   3.833  1.00 20.00     0.107 C 
HETATM    7  C7  UNL     1     -33.431   6.490   2.834  1.00 20.00     0.087 C 
HETATM    8  C8  UNL     1     -32.872   5.150   3.293  1.00 20.00     0.127 C 
HETATM    9  N9  UNL     1     -33.044   6.900   1.667  1.00 20.00    -0.262 NA
HETATM   10  F10 UNL     1     -34.550   8.486   3.615  1.00 20.00    -0.204 F 
HETATM   11  F11 UNL     1     -33.930   2.982   3.791  1.00 20.00    -0.210 F 
ENDROOT
TORSDOF 0
ENDMDL
MODEL 8
REMARK VINA RESULT:       0.4      0.912      2.998
REMARK  0 active torsions:
REMARK  status: ('A' for Active; 'I' for Inactive)
ROOT
HETATM    1  C1  UNL     1     -33.317   8.388   4.625  1.00 20.00     0.047 C 
HETATM    2  C2  UNL     1     -34.540   7.605   4.549  1.00 20.00     0.042 C 
HETATM    3  C3  UNL     1     -33.534   5.448   1.721  1.00 20.00     0.010 C 
HETATM    4  C4  UNL     1     -32.708   6.124   0.916  1.00 20.00     0.114 C 
HETATM    5  C5  UNL     1     -32.322   8.204   3.749  1.00 20.00     0.142 C 
HETATM    6  C6  UNL     1     -34.599   6.479   3.815  1.00 20.00     0.107 C 
HETATM    7  C7  UNL     1     -32.511   7.153   2.735  1.00 20.00     0.087 C 
HETATM    8  C8  UNL     1     -33.389   5.966   3.107  1.00 20.00     0.127 C 
HETATM    9  N9  UNL     1     -32.056   7.168   1.521  1.00 20.00    -0.262 NA
HETATM   10  F10 UNL     1     -31.227   8.975   3.672  1.00 20.00    -0.204 F 
HETATM   11  F11 UNL     1     -35.755   5.781   3.767  1.00 20.00    -0.210 F 
ENDROOT
TORSDOF 0
ENDMDL
MODEL 9
REMARK VINA RESULT:       0.9      1.782      2.274
REMARK  0 active torsions:
REMARK  status: ('A' for Active; 'I' for Inactive)
ROOT
HETATM    1  C1  UNL     1     -34.833   5.044   4.488  1.00 20.00     0.047 C 
HETATM    2  C2  UNL     1     -34.875   6.493   4.601  1.00 20.00     0.042 C 
HETATM    3  C3  UNL     1     -32.638   7.243   1.757  1.00 20.00     0.010 C 
HETATM    4  C4  UNL     1     -31.742   6.259   1.622  1.00 20.00     0.114 C 
HETATM    5  C5  UNL     1     -34.065   4.443   3.572  1.00 20.00     0.142 C 
HETATM    6  C6  UNL     1     -34.404   7.280   3.617  1.00 20.00     0.107 C 
HETATM    7  C7  UNL     1     -33.299   5.315   2.667  1.00 20.00     0.087 C 
HETATM    8  C8  UNL     1     -33.881   6.687   2.351  1.00 20.00     0.127 C 
HETATM    9  N9  UNL     1     -32.133   5.060   2.160  1.00 20.00    -0.262 NA
HETATM   10  F10 UNL     1     -33.872   3.117   3.496  1.00 20.00    -0.204 F 
HETATM   11  F11 UNL     1     -34.457   8.622   3.762  1.00 20.00    -0.210 F 
ENDROOT
TORSDOF 0
ENDMDL
