MODEL 1
REMARK VINA RESULT:       0.5      0.000      0.000
REMARK  1 active torsions:
REMARK  status: ('A' for Active; 'I' for Inactive)
REMARK    1  A    between atoms: C4_4  and  C9_9 
ROOT
HETATM    1  C1  UNL     1     -33.269   4.610   3.248  1.00 20.00     0.065 A 
HETATM    2  C2  UNL     1     -34.640   6.571   3.271  1.00 20.00     0.095 A 
HETATM    3  C3  UNL     1     -35.115   4.815   4.755  1.00 20.00     0.142 A 
HETATM    4  C4  UNL     1     -33.563   5.872   2.742  1.00 20.00    -0.031 A 
HETATM    5  C5  UNL     1     -34.051   4.071   4.264  1.00 20.00     0.187 A 
HETATM    6  N10 UNL     1     -35.376   6.028   4.249  1.00 20.00    -0.371 N 
HETATM    7  O11 UNL     1     -33.797   2.911   4.742  1.00 20.00    -0.287 OA
HETATM    8  H24 UNL     1     -36.163   6.557   4.624  1.00 20.00     0.164 HD
ENDROOT
BRANCH   4   9
HETATM    9  C9  UNL     1     -32.711   6.486   1.618  1.00 20.00    -0.023 C 
HETATM   10  C6  UNL     1     -33.573   6.661   0.350  1.00 20.00     0.019 C 
HETATM   11  C7  UNL     1     -31.521   5.556   1.300  1.00 20.00     0.019 C 
HETATM   12  C8  UNL     1     -32.125   7.874   1.966  1.00 20.00     0.019 C 
ENDBRANCH   4   9
TORSDOF 1
ENDMDL
MODEL 2
REMARK VINA RESULT:       0.7      1.054      1.469
REMARK  1 active torsions:
REMARK  status: ('A' for Active; 'I' for Inactive)
REMARK    1  A    between atoms: C4_4  and  C9_9 
ROOT
HETATM    1  C1  UNL     1     -33.183   5.440   3.087  1.00 20.00     0.065 A 
HETATM    2  C2  UNL     1     -34.417   7.463   3.420  1.00 20.00     0.095 A 
HETATM    3  C3  UNL     1     -35.196   5.467   4.380  1.00 20.00     0.142 A 
HETATM    4  C4  UNL     1     -33.326   6.806   2.867  1.00 20.00    -0.031 A 
HETATM    5  C5  UNL     1     -34.125   4.759   3.851  1.00 20.00     0.187 A 
HETATM    6  N10 UNL     1     -35.309   6.782   4.151  1.00 20.00    -0.371 N 
HETATM    7  O11 UNL     1     -34.011   3.502   4.064  1.00 20.00    -0.287 OA
HETATM    8  H24 UNL     1     -36.104   7.283   4.549  1.00 20.00     0.164 HD
ENDROOT
BRANCH   4   9
HETATM    9  C9  UNL     1     -32.296   7.579   2.026  1.00 20.00    -0.023 C 
HETATM   10  C6  UNL     1     -31.532   6.598   1.111  1.00 20.00     0.019 C 
HETATM   11  C7  UNL     1     -31.291   8.290   2.959  1.00 20.00     0.019 C 
HETATM   12  C8  UNL     1     -32.918   8.662   1.115  1.00 20.00     0.019 C 
ENDBRANCH   4   9
TORSDOF 1
ENDMDL
MODEL 3
REMARK VINA RESULT:       0.8      1.033      1.118
REMARK  1 active torsions:
REMARK  status: ('A' for Active; 'I' for Inactive)
REMARK    1  A    between atoms: C4_4  and  C9_9 
ROOT
HETATM    1  C1  UNL     1     -33.183   5.401   3.082  1.00 20.00     0.065 A 
HETATM    2  C2  UNL     1     -34.397   7.437   3.411  1.00 20.00     0.095 A 
HETATM    3  C3  UNL     1     -35.192   5.452   4.381  1.00 20.00     0.142 A 
HETATM    4  C4  UNL     1     -33.314   6.768   2.856  1.00 20.00    -0.031 A 
HETATM    5  C5  UNL     1     -34.130   4.732   3.851  1.00 20.00     0.187 A 
HETATM    6  N10 UNL     1     -35.294   6.767   4.147  1.00 20.00    -0.371 N 
HETATM    7  O11 UNL     1     -34.026   3.475   4.069  1.00 20.00    -0.287 OA
HETATM    8  H24 UNL     1     -36.082   7.277   4.545  1.00 20.00     0.164 HD
ENDROOT
BRANCH   4   9
HETATM    9  C9  UNL     1     -32.280   7.527   2.009  1.00 20.00    -0.023 C 
HETATM   10  C6  UNL     1     -32.995   8.581   1.137  1.00 20.00     0.019 C 
HETATM   11  C7  UNL     1     -31.528   6.536   1.094  1.00 20.00     0.019 C 
HETATM   12  C8  UNL     1     -31.214   8.274   2.845  1.00 20.00     0.019 C 
ENDBRANCH   4   9
TORSDOF 1
ENDMDL
MODEL 4
REMARK VINA RESULT:       0.9      2.356      3.995
REMARK  1 active torsions:
REMARK  status: ('A' for Active; 'I' for Inactive)
REMARK    1  A    between atoms: C4_4  and  C9_9 
ROOT
HETATM    1  C1  UNL     1     -33.091   5.555   1.997  1.00 20.00     0.065 A 
HETATM    2  C2  UNL     1     -32.812   7.857   2.584  1.00 20.00     0.095 A 
HETATM    3  C3  UNL     1     -31.431   6.913   0.937  1.00 20.00     0.142 A 
HETATM    4  C4  UNL     1     -33.475   6.651   2.763  1.00 20.00    -0.031 A 
HETATM    5  C5  UNL     1     -32.059   5.682   1.073  1.00 20.00     0.187 A 
HETATM    6  N10 UNL     1     -31.821   7.952   1.688  1.00 20.00    -0.371 N 
HETATM    7  O11 UNL     1     -31.691   4.685   0.361  1.00 20.00    -0.287 OA
HETATM    8  H24 UNL     1     -31.346   8.846   1.573  1.00 20.00     0.164 HD
ENDROOT
BRANCH   4   9
HETATM    9  C9  UNL     1     -34.615   6.532   3.789  1.00 20.00    -0.023 C 
HETATM   10  C6  UNL     1     -34.374   7.520   4.950  1.00 20.00     0.019 C 
HETATM   11  C7  UNL     1     -34.663   5.093   4.348  1.00 20.00     0.019 C 
HETATM   12  C8  UNL     1     -36.014   6.843   3.209  1.00 20.00     0.019 C 
ENDBRANCH   4   9
TORSDOF 1
ENDMDL
MODEL 5
REMARK VINA RESULT:       1.0      2.824      4.461
REMARK  1 active torsions:
REMARK  status: ('A' for Active; 'I' for Inactive)
REMARK    1  A    between atoms: C4_4  and  C9_9 
ROOT
HETATM    1  C1  UNL     1     -32.976   7.766   2.362  1.00 20.00     0.065 A 
HETATM    2  C2  UNL     1     -33.055   5.385   2.132  1.00 20.00     0.095 A 
HETATM    3  C3  UNL     1     -31.541   6.619   0.829  1.00 20.00     0.142 A 
HETATM    4  C4  UNL     1     -33.526   6.543   2.736  1.00 20.00    -0.031 A 
HETATM    5  C5  UNL     1     -31.973   7.809   1.399  1.00 20.00     0.187 A 
HETATM    6  N10 UNL     1     -32.088   5.456   1.207  1.00 20.00    -0.371 N 
HETATM    7  O11 UNL     1     -31.456   8.924   1.042  1.00 20.00    -0.287 OA
HETATM    8  H24 UNL     1     -31.756   4.594   0.776  1.00 20.00     0.164 HD
ENDROOT
BRANCH   4   9
HETATM    9  C9  UNL     1     -34.635   6.472   3.798  1.00 20.00    -0.023 C 
HETATM   10  C6  UNL     1     -34.343   7.488   4.923  1.00 20.00     0.019 C 
HETATM   11  C7  UNL     1     -34.690   5.051   4.399  1.00 20.00     0.019 C 
HETATM   12  C8  UNL     1     -36.046   6.791   3.252  1.00 20.00     0.019 C 
ENDBRANCH   4   9
TORSDOF 1
ENDMDL
MODEL 6
REMARK VINA RESULT:       1.0      2.813      4.445
REMARK  1 active torsions:
REMARK  status: ('A' for Active; 'I' for Inactive)
REMARK    1  A    between atoms: C4_4  and  C9_9 
ROOT
HETATM    1  C1  UNL     1     -32.982   7.761   2.376  1.00 20.00     0.065 A 
HETATM    2  C2  UNL     1     -33.101   5.381   2.150  1.00 20.00     0.095 A 
HETATM    3  C3  UNL     1     -31.564   6.587   0.847  1.00 20.00     0.142 A 
HETATM    4  C4  UNL     1     -33.553   6.548   2.750  1.00 20.00    -0.031 A 
HETATM    5  C5  UNL     1     -31.977   7.785   1.414  1.00 20.00     0.187 A 
HETATM    6  N10 UNL     1     -32.132   5.434   1.226  1.00 20.00    -0.371 N 
HETATM    7  O11 UNL     1     -31.440   8.890   1.056  1.00 20.00    -0.287 OA
HETATM    8  H24 UNL     1     -31.814   4.566   0.797  1.00 20.00     0.164 HD
ENDROOT
BRANCH   4   9
HETATM    9  C9  UNL     1     -34.665   6.499   3.812  1.00 20.00    -0.023 C 
HETATM   10  C6  UNL     1     -36.015   6.881   3.168  1.00 20.00     0.019 C 
HETATM   11  C7  UNL     1     -34.344   7.493   4.949  1.00 20.00     0.019 C 
HETATM   12  C8  UNL     1     -34.848   5.107   4.461  1.00 20.00     0.019 C 
ENDBRANCH   4   9
TORSDOF 1
ENDMDL
MODEL 7
REMARK VINA RESULT:       1.2      2.825      4.460
REMARK  1 active torsions:
REMARK  status: ('A' for Active; 'I' for Inactive)
REMARK    1  A    between atoms: C4_4  and  C9_9 
ROOT
HETATM    1  C1  UNL     1     -32.983   7.772   2.348  1.00 20.00     0.065 A 
HETATM    2  C2  UNL     1     -33.072   5.392   2.127  1.00 20.00     0.095 A 
HETATM    3  C3  UNL     1     -31.577   6.617   0.795  1.00 20.00     0.142 A 
HETATM    4  C4  UNL     1     -33.530   6.553   2.735  1.00 20.00    -0.031 A 
HETATM    5  C5  UNL     1     -31.996   7.809   1.369  1.00 20.00     0.187 A 
HETATM    6  N10 UNL     1     -32.121   5.457   1.186  1.00 20.00    -0.371 N 
HETATM    7  O11 UNL     1     -31.482   8.922   0.999  1.00 20.00    -0.287 OA
HETATM    8  H24 UNL     1     -31.799   4.592   0.752  1.00 20.00     0.164 HD
ENDROOT
BRANCH   4   9
HETATM    9  C9  UNL     1     -34.621   6.489   3.817  1.00 20.00    -0.023 C 
HETATM   10  C6  UNL     1     -34.687   5.063   4.405  1.00 20.00     0.019 C 
HETATM   11  C7  UNL     1     -35.990   6.846   3.197  1.00 20.00     0.019 C 
HETATM   12  C8  UNL     1     -34.389   7.459   4.998  1.00 20.00     0.019 C 
ENDBRANCH   4   9
TORSDOF 1
ENDMDL
MODEL 8
REMARK VINA RESULT:       1.5      1.407      1.929
REMARK  1 active torsions:
REMARK  status: ('A' for Active; 'I' for Inactive)
REMARK    1  A    between atoms: C4_4  and  C9_9 
ROOT
HETATM    1  C1  UNL     1     -34.105   5.328   3.129  1.00 20.00     0.065 A 
HETATM    2  C2  UNL     1     -33.374   7.607   3.151  1.00 20.00     0.095 A 
HETATM    3  C3  UNL     1     -34.907   6.872   4.770  1.00 20.00     0.142 A 
HETATM    4  C4  UNL     1     -33.331   6.344   2.576  1.00 20.00    -0.031 A 
HETATM    5  C5  UNL     1     -34.903   5.591   4.237  1.00 20.00     0.187 A 
HETATM    6  N10 UNL     1     -34.153   7.832   4.218  1.00 20.00    -0.371 N 
HETATM    7  O11 UNL     1     -35.623   4.670   4.758  1.00 20.00    -0.287 OA
HETATM    8  H24 UNL     1     -34.171   8.766   4.625  1.00 20.00     0.164 HD
ENDROOT
BRANCH   4   9
HETATM    9  C9  UNL     1     -32.440   6.075   1.351  1.00 20.00    -0.023 C 
HETATM   10  C6  UNL     1     -31.702   7.371   0.951  1.00 20.00     0.019 C 
HETATM   11  C7  UNL     1     -33.312   5.601   0.168  1.00 20.00     0.019 C 
HETATM   12  C8  UNL     1     -31.363   4.991   1.587  1.00 20.00     0.019 C 
ENDBRANCH   4   9
TORSDOF 1
ENDMDL
MODEL 9
REMARK VINA RESULT:       1.8      1.895      2.697
REMARK  1 active torsions:
REMARK  status: ('A' for Active; 'I' for Inactive)
REMARK    1  A    between atoms: C4_4  and  C9_9 
ROOT
HETATM    1  C1  UNL     1     -33.789   7.377   3.152  1.00 20.00     0.065 A 
HETATM    2  C2  UNL     1     -32.518   5.892   1.772  1.00 20.00     0.095 A 
HETATM    3  C3  UNL     1     -34.162   5.014   3.200  1.00 20.00     0.142 A 
HETATM    4  C4  UNL     1     -32.795   7.184   2.197  1.00 20.00    -0.031 A 
HETATM    5  C5  UNL     1     -34.481   6.283   3.662  1.00 20.00     0.187 A 
HETATM    6  N10 UNL     1     -33.200   4.857   2.280  1.00 20.00    -0.371 N 
HETATM    7  O11 UNL     1     -35.397   6.441   4.542  1.00 20.00    -0.287 OA
HETATM    8  H24 UNL     1     -32.980   3.916   1.955  1.00 20.00     0.164 HD
ENDROOT
BRANCH   4   9
HETATM    9  C9  UNL     1     -32.017   8.379   1.620  1.00 20.00    -0.023 C 
HETATM   10  C6  UNL     1     -31.259   7.939   0.350  1.00 20.00     0.019 C 
HETATM   11  C7  UNL     1     -31.004   8.893   2.665  1.00 20.00     0.019 C 
HETATM   12  C8  UNL     1     -32.913   9.575   1.225  1.00 20.00     0.019 C 
ENDBRANCH   4   9
TORSDOF 1
ENDMDL
