MODEL 1
REMARK VINA RESULT:      -2.0      0.000      0.000
REMARK  2 active torsions:
REMARK  status: ('A' for Active; 'I' for Inactive)
REMARK    1  A    between atoms: C7_7  and  O10_10 
REMARK    2  A    between atoms: C9_9  and  O10_10 
ROOT
HETATM    1  C1  UNL     1     -34.354   7.400   4.123  1.00 20.00     0.000 C 
HETATM    2  C2  UNL     1     -33.261   8.052   3.439  1.00 20.00     0.022 C 
HETATM    3  C3  UNL     1     -34.682   6.128   3.850  1.00 20.00     0.008 C 
HETATM    4  C4  UNL     1     -32.712   7.503   2.346  1.00 20.00     0.048 C 
HETATM    5  C7  UNL     1     -33.959   5.326   2.804  1.00 20.00     0.184 C 
HETATM    6  C8  UNL     1     -33.191   6.193   1.783  1.00 20.00     0.247 C 
HETATM    7  F11 UNL     1     -32.158   5.455   1.285  1.00 20.00    -0.240 F 
HETATM    8 CL12 UNL     1     -31.436   8.294   1.501  1.00 20.00    -0.086 Cl
ENDROOT
BRANCH   5   9
HETATM    9  O10 UNL     1     -33.052   4.464   3.491  1.00 20.00    -0.373 OA
BRANCH   9  10
HETATM   10  C9  UNL     1     -33.732   3.639   4.424  1.00 20.00     0.122 A 
HETATM   11  C5  UNL     1     -33.298   2.202   4.477  1.00 20.00     0.034 A 
HETATM   12  C6  UNL     1     -32.918   3.143   5.584  1.00 20.00     0.034 A 
ENDBRANCH   9  10
ENDBRANCH   5   9
TORSDOF 2
ENDMDL
MODEL 2
REMARK VINA RESULT:      -1.1      2.961      5.009
REMARK  2 active torsions:
REMARK  status: ('A' for Active; 'I' for Inactive)
REMARK    1  A    between atoms: C7_7  and  O10_10 
REMARK    2  A    between atoms: C9_9  and  O10_10 
ROOT
HETATM    1  C1  UNL     1     -32.648   8.560   4.304  1.00 20.00     0.000 C 
HETATM    2  C2  UNL     1     -33.829   7.750   4.494  1.00 20.00     0.022 C 
HETATM    3  C3  UNL     1     -31.905   8.452   3.193  1.00 20.00     0.008 C 
HETATM    4  C4  UNL     1     -34.076   6.701   3.697  1.00 20.00     0.048 C 
HETATM    5  C7  UNL     1     -32.237   7.469   2.105  1.00 20.00     0.184 C 
HETATM    6  C8  UNL     1     -33.153   6.317   2.572  1.00 20.00     0.247 C 
HETATM    7  F11 UNL     1     -33.846   5.854   1.492  1.00 20.00    -0.240 F 
HETATM    8 CL12 UNL     1     -35.460   5.705   3.941  1.00 20.00    -0.086 Cl
ENDROOT
BRANCH   5   9
HETATM    9  O10 UNL     1     -32.873   8.203   1.059  1.00 20.00    -0.373 OA
BRANCH   9  10
HETATM   10  C9  UNL     1     -32.085   9.310   0.653  1.00 20.00     0.122 A 
HETATM   11  C5  UNL     1     -32.467   9.956  -0.648  1.00 20.00     0.034 A 
HETATM   12  C6  UNL     1     -32.773  10.645   0.650  1.00 20.00     0.034 A 
ENDBRANCH   9  10
ENDBRANCH   5   9
TORSDOF 2
ENDMDL
MODEL 3
REMARK VINA RESULT:      -0.1      2.666      4.991
REMARK  2 active torsions:
REMARK  status: ('A' for Active; 'I' for Inactive)
REMARK    1  A    between atoms: C7_7  and  O10_10 
REMARK    2  A    between atoms: C9_9  and  O10_10 
ROOT
HETATM    1  C1  UNL     1     -34.164   6.606   3.623  1.00 20.00     0.000 C 
HETATM    2  C2  UNL     1     -33.845   5.610   2.626  1.00 20.00     0.022 C 
HETATM    3  C3  UNL     1     -33.570   7.808   3.617  1.00 20.00     0.008 C 
HETATM    4  C4  UNL     1     -32.778   5.758   1.828  1.00 20.00     0.048 C 
HETATM    5  C7  UNL     1     -32.525   8.175   2.600  1.00 20.00     0.184 C 
HETATM    6  C8  UNL     1     -31.869   6.953   1.920  1.00 20.00     0.247 C 
HETATM    7  F11 UNL     1     -31.420   7.336   0.690  1.00 20.00    -0.240 F 
HETATM    8 CL12 UNL     1     -32.366   4.556   0.664  1.00 20.00    -0.086 Cl
ENDROOT
BRANCH   5   9
HETATM    9  O10 UNL     1     -33.163   8.993   1.620  1.00 20.00    -0.373 OA
BRANCH   9  10
HETATM   10  C9  UNL     1     -32.213   9.621   0.774  1.00 20.00     0.122 A 
HETATM   11  C5  UNL     1     -32.668   9.925  -0.624  1.00 20.00     0.034 A 
HETATM   12  C6  UNL     1     -32.517  11.036   0.374  1.00 20.00     0.034 A 
ENDBRANCH   9  10
ENDBRANCH   5   9
TORSDOF 2
ENDMDL
