MODEL 1
REMARK VINA RESULT:      -0.5      0.000      0.000
REMARK  0 active torsions:
REMARK  status: ('A' for Active; 'I' for Inactive)
ROOT
HETATM    1  C1  UNL     1     -33.422   8.033   2.631  1.00 20.00     0.057 A 
HETATM    2  C2  UNL     1     -34.931   6.657   4.177  1.00 20.00     0.008 A 
HETATM    3  C3  UNL     1     -33.541   4.407   3.166  1.00 20.00     0.143 A 
HETATM    4  C4  UNL     1     -33.984   6.898   3.280  1.00 20.00    -0.005 A 
HETATM    5  C5  UNL     1     -32.476   7.521   1.823  1.00 20.00     0.127 A 
HETATM    6  C6  UNL     1     -33.239   5.777   2.729  1.00 20.00     0.085 A 
HETATM    7  C7  UNL     1     -35.246   5.258   4.630  1.00 20.00     0.176 A 
HETATM    8  N8  UNL     1     -34.454   4.165   4.032  1.00 20.00    -0.296 NA
HETATM    9  N9  UNL     1     -32.337   6.135   1.859  1.00 20.00    -0.235 NA
HETATM   10 CL10 UNL     1     -31.485   8.464   0.799  1.00 20.00    -0.062 Cl
ENDROOT
TORSDOF 0
ENDMDL
MODEL 2
REMARK VINA RESULT:      -0.1      1.240      1.985
REMARK  0 active torsions:
REMARK  status: ('A' for Active; 'I' for Inactive)
ROOT
HETATM    1  C1  UNL     1     -32.126   6.407   1.462  1.00 20.00     0.057 A 
HETATM    2  C2  UNL     1     -33.631   4.938   2.924  1.00 20.00     0.008 A 
HETATM    3  C3  UNL     1     -34.522   7.371   4.066  1.00 20.00     0.143 A 
HETATM    4  C4  UNL     1     -33.090   6.052   2.447  1.00 20.00    -0.005 A 
HETATM    5  C5  UNL     1     -32.073   7.751   1.518  1.00 20.00     0.127 A 
HETATM    6  C6  UNL     1     -33.513   7.328   2.999  1.00 20.00     0.085 A 
HETATM    7  C7  UNL     1     -34.664   4.973   4.017  1.00 20.00     0.176 A 
HETATM    8  N8  UNL     1     -35.050   6.301   4.533  1.00 20.00    -0.296 NA
HETATM    9  N9  UNL     1     -32.914   8.349   2.454  1.00 20.00    -0.235 NA
HETATM   10 CL10 UNL     1     -31.057   8.705   0.531  1.00 20.00    -0.062 Cl
ENDROOT
TORSDOF 0
ENDMDL
MODEL 3
REMARK VINA RESULT:       0.1      2.453      3.802
REMARK  0 active torsions:
REMARK  status: ('A' for Active; 'I' for Inactive)
ROOT
HETATM    1  C1  UNL     1     -34.386   7.144   4.069  1.00 20.00     0.057 A 
HETATM    2  C2  UNL     1     -32.717   8.484   2.661  1.00 20.00     0.008 A 
HETATM    3  C3  UNL     1     -32.153   6.018   1.387  1.00 20.00     0.143 A 
HETATM    4  C4  UNL     1     -33.392   7.425   3.089  1.00 20.00    -0.005 A 
HETATM    5  C5  UNL     1     -34.611   5.823   3.947  1.00 20.00     0.127 A 
HETATM    6  C6  UNL     1     -33.141   6.135   2.468  1.00 20.00     0.085 A 
HETATM    7  C7  UNL     1     -31.704   8.373   1.555  1.00 20.00     0.176 A 
HETATM    8  N8  UNL     1     -31.496   7.036   0.967  1.00 20.00    -0.296 NA
HETATM    9  N9  UNL     1     -33.861   5.171   2.970  1.00 20.00    -0.235 NA
HETATM   10 CL10 UNL     1     -35.730   4.956   4.903  1.00 20.00    -0.062 Cl
ENDROOT
TORSDOF 0
ENDMDL
MODEL 4
REMARK VINA RESULT:       0.5      2.624      4.240
REMARK  0 active torsions:
REMARK  status: ('A' for Active; 'I' for Inactive)
ROOT
HETATM    1  C1  UNL     1     -33.838   5.079   2.895  1.00 20.00     0.057 A 
HETATM    2  C2  UNL     1     -32.120   6.125   1.309  1.00 20.00     0.008 A 
HETATM    3  C3  UNL     1     -32.708   8.558   2.633  1.00 20.00     0.143 A 
HETATM    4  C4  UNL     1     -33.022   6.070   2.280  1.00 20.00    -0.005 A 
HETATM    5  C5  UNL     1     -34.526   5.751   3.837  1.00 20.00     0.127 A 
HETATM    6  C6  UNL     1     -33.360   7.292   2.993  1.00 20.00     0.085 A 
HETATM    7  C7  UNL     1     -31.448   7.417   0.934  1.00 20.00     0.176 A 
HETATM    8  N8  UNL     1     -31.836   8.621   1.696  1.00 20.00    -0.296 NA
HETATM    9  N9  UNL     1     -34.255   7.115   3.923  1.00 20.00    -0.235 NA
HETATM   10 CL10 UNL     1     -35.668   5.027   4.880  1.00 20.00    -0.062 Cl
ENDROOT
TORSDOF 0
ENDMDL
MODEL 5
REMARK VINA RESULT:       1.1      1.977      2.556
REMARK  0 active torsions:
REMARK  status: ('A' for Active; 'I' for Inactive)
ROOT
HETATM    1  C1  UNL     1     -31.799   6.562   1.407  1.00 20.00     0.057 A 
HETATM    2  C2  UNL     1     -32.887   8.131   3.115  1.00 20.00     0.008 A 
HETATM    3  C3  UNL     1     -34.582   5.944   3.715  1.00 20.00     0.143 A 
HETATM    4  C4  UNL     1     -32.682   7.015   2.428  1.00 20.00    -0.005 A 
HETATM    5  C5  UNL     1     -32.172   5.287   1.186  1.00 20.00     0.127 A 
HETATM    6  C6  UNL     1     -33.525   5.861   2.698  1.00 20.00     0.085 A 
HETATM    7  C7  UNL     1     -33.967   8.225   4.156  1.00 20.00     0.176 A 
HETATM    8  N8  UNL     1     -34.787   7.019   4.383  1.00 20.00    -0.296 NA
HETATM    9  N9  UNL     1     -33.231   4.825   1.964  1.00 20.00    -0.235 NA
HETATM   10 CL10 UNL     1     -31.429   4.264   0.038  1.00 20.00    -0.062 Cl
ENDROOT
TORSDOF 0
ENDMDL
MODEL 6
REMARK VINA RESULT:       1.6      2.666      3.744
REMARK  0 active torsions:
REMARK  status: ('A' for Active; 'I' for Inactive)
ROOT
HETATM    1  C1  UNL     1     -34.497   4.579   4.539  1.00 20.00     0.057 A 
HETATM    2  C2  UNL     1     -34.682   7.051   3.892  1.00 20.00     0.008 A 
HETATM    3  C3  UNL     1     -32.573   6.506   2.083  1.00 20.00     0.143 A 
HETATM    4  C4  UNL     1     -34.222   5.807   3.872  1.00 20.00    -0.005 A 
HETATM    5  C5  UNL     1     -33.623   3.707   4.004  1.00 20.00     0.127 A 
HETATM    6  C6  UNL     1     -33.140   5.474   2.960  1.00 20.00     0.085 A 
HETATM    7  C7  UNL     1     -34.107   8.114   2.998  1.00 20.00     0.176 A 
HETATM    8  N8  UNL     1     -33.010   7.711   2.096  1.00 20.00    -0.296 NA
HETATM    9  N9  UNL     1     -32.773   4.225   3.029  1.00 20.00    -0.235 NA
HETATM   10 CL10 UNL     1     -33.522   2.063   4.458  1.00 20.00    -0.062 Cl
ENDROOT
TORSDOF 0
ENDMDL
MODEL 7
REMARK VINA RESULT:       1.7      1.314      1.991
REMARK  0 active torsions:
REMARK  status: ('A' for Active; 'I' for Inactive)
ROOT
HETATM    1  C1  UNL     1     -32.298   6.958   2.383  1.00 20.00     0.057 A 
HETATM    2  C2  UNL     1     -33.119   4.740   3.368  1.00 20.00     0.008 A 
HETATM    3  C3  UNL     1     -35.339   6.231   4.300  1.00 20.00     0.143 A 
HETATM    4  C4  UNL     1     -33.131   6.035   3.076  1.00 20.00    -0.005 A 
HETATM    5  C5  UNL     1     -32.947   8.133   2.485  1.00 20.00     0.127 A 
HETATM    6  C6  UNL     1     -34.249   6.845   3.530  1.00 20.00     0.085 A 
HETATM    7  C7  UNL     1     -34.230   4.103   4.156  1.00 20.00     0.176 A 
HETATM    8  N8  UNL     1     -35.335   4.981   4.587  1.00 20.00    -0.296 NA
HETATM    9  N9  UNL     1     -34.151   8.098   3.185  1.00 20.00    -0.235 NA
HETATM   10 CL10 UNL     1     -32.374   9.598   1.819  1.00 20.00    -0.062 Cl
ENDROOT
TORSDOF 0
ENDMDL
MODEL 8
REMARK VINA RESULT:       1.7      2.145      2.846
REMARK  0 active torsions:
REMARK  status: ('A' for Active; 'I' for Inactive)
ROOT
HETATM    1  C1  UNL     1     -33.201   4.707   1.853  1.00 20.00     0.057 A 
HETATM    2  C2  UNL     1     -34.473   6.080   3.602  1.00 20.00     0.008 A 
HETATM    3  C3  UNL     1     -32.680   8.170   2.942  1.00 20.00     0.143 A 
HETATM    4  C4  UNL     1     -33.564   5.812   2.673  1.00 20.00    -0.005 A 
HETATM    5  C5  UNL     1     -32.161   5.158   1.129  1.00 20.00     0.127 A 
HETATM    6  C6  UNL     1     -32.620   6.852   2.297  1.00 20.00     0.085 A 
HETATM    7  C7  UNL     1     -34.541   7.426   4.269  1.00 20.00     0.176 A 
HETATM    8  N8  UNL     1     -33.554   8.437   3.841  1.00 20.00    -0.296 NA
HETATM    9  N9  UNL     1     -31.777   6.474   1.377  1.00 20.00    -0.235 NA
HETATM   10 CL10 UNL     1     -31.330   4.217  -0.030  1.00 20.00    -0.062 Cl
ENDROOT
TORSDOF 0
ENDMDL
MODEL 9
REMARK VINA RESULT:       2.2      2.829      4.098
REMARK  0 active torsions:
REMARK  status: ('A' for Active; 'I' for Inactive)
ROOT
HETATM    1  C1  UNL     1     -32.723   3.932   3.182  1.00 20.00     0.057 A 
HETATM    2  C2  UNL     1     -32.839   6.353   2.352  1.00 20.00     0.008 A 
HETATM    3  C3  UNL     1     -35.016   6.629   4.141  1.00 20.00     0.143 A 
HETATM    4  C4  UNL     1     -33.171   5.277   3.054  1.00 20.00    -0.005 A 
HETATM    5  C5  UNL     1     -33.543   3.394   4.103  1.00 20.00     0.127 A 
HETATM    6  C6  UNL     1     -34.281   5.366   3.988  1.00 20.00     0.085 A 
HETATM    7  C7  UNL     1     -33.586   7.649   2.502  1.00 20.00     0.176 A 
HETATM    8  N8  UNL     1     -34.703   7.672   3.466  1.00 20.00    -0.296 NA
HETATM    9  N9  UNL     1     -34.514   4.250   4.620  1.00 20.00    -0.235 NA
HETATM   10 CL10 UNL     1     -33.443   1.774   4.636  1.00 20.00    -0.062 Cl
ENDROOT
TORSDOF 0
ENDMDL
