MODEL 1
REMARK VINA RESULT:      -2.0      0.000      0.000
REMARK  2 active torsions:
REMARK  status: ('A' for Active; 'I' for Inactive)
REMARK    1  A    between atoms: C7_7  and  O10_10 
REMARK    2  A    between atoms: C8_8  and  O10_10 
ROOT
HETATM    1  C1  UNL     1     -32.030   6.767   1.667  1.00 20.00     0.024 C 
HETATM    2  C2  UNL     1     -32.788   5.671   1.796  1.00 20.00     0.118 C 
HETATM    3  C3  UNL     1     -34.117   6.525   3.424  1.00 20.00     0.188 C 
HETATM    4  C4  UNL     1     -33.195   7.693   3.671  1.00 20.00     0.127 C 
HETATM    5  C7  UNL     1     -32.328   8.001   2.455  1.00 20.00     0.154 C 
HETATM    6  N9  UNL     1     -33.909   5.567   2.577  1.00 20.00    -0.237 NA
HETATM    7  F11 UNL     1     -35.220   6.445   4.182  1.00 20.00    -0.189 F 
ENDROOT
BRANCH   5   8
HETATM    8  O10 UNL     1     -33.005   8.939   1.623  1.00 20.00    -0.376 OA
BRANCH   8   9
HETATM    9  C8  UNL     1     -32.139   9.475   0.633  1.00 20.00     0.122 A 
HETATM   10  C5  UNL     1     -32.771   9.812  -0.688  1.00 20.00     0.034 A 
HETATM   11  C6  UNL     1     -32.376  10.909   0.256  1.00 20.00     0.034 A 
ENDBRANCH   8   9
ENDBRANCH   5   8
TORSDOF 2
ENDMDL
MODEL 2
REMARK VINA RESULT:      -1.7      2.732      4.956
REMARK  2 active torsions:
REMARK  status: ('A' for Active; 'I' for Inactive)
REMARK    1  A    between atoms: C7_7  and  O10_10 
REMARK    2  A    between atoms: C8_8  and  O10_10 
ROOT
HETATM    1  C1  UNL     1     -32.898   6.205   1.628  1.00 20.00     0.024 C 
HETATM    2  C2  UNL     1     -32.463   7.441   1.905  1.00 20.00     0.118 C 
HETATM    3  C3  UNL     1     -33.567   7.613   3.880  1.00 20.00     0.188 C 
HETATM    4  C4  UNL     1     -34.417   6.399   3.598  1.00 20.00     0.127 C 
HETATM    5  C7  UNL     1     -33.754   5.458   2.598  1.00 20.00     0.154 C 
HETATM    6  N9  UNL     1     -32.684   8.117   3.077  1.00 20.00    -0.237 NA
HETATM    7  F11 UNL     1     -33.778   8.254   5.039  1.00 20.00    -0.189 F 
ENDROOT
BRANCH   5   8
HETATM    8  O10 UNL     1     -32.952   4.514   3.303  1.00 20.00    -0.376 OA
BRANCH   8   9
HETATM    9  C8  UNL     1     -33.728   3.755   4.219  1.00 20.00     0.122 A 
HETATM   10  C5  UNL     1     -33.334   2.315   4.385  1.00 20.00     0.034 A 
HETATM   11  C6  UNL     1     -33.024   3.307   5.467  1.00 20.00     0.034 A 
ENDBRANCH   8   9
ENDBRANCH   5   8
TORSDOF 2
ENDMDL
MODEL 3
REMARK VINA RESULT:      -0.4      2.288      3.167
REMARK  2 active torsions:
REMARK  status: ('A' for Active; 'I' for Inactive)
REMARK    1  A    between atoms: C7_7  and  O10_10 
REMARK    2  A    between atoms: C8_8  and  O10_10 
ROOT
HETATM    1  C1  UNL     1     -35.266   6.479   3.665  1.00 20.00     0.024 C 
HETATM    2  C2  UNL     1     -35.620   5.505   4.514  1.00 20.00     0.118 C 
HETATM    3  C3  UNL     1     -33.845   4.170   4.051  1.00 20.00     0.188 C 
HETATM    4  C4  UNL     1     -33.467   4.967   2.827  1.00 20.00     0.127 C 
HETATM    5  C7  UNL     1     -33.988   6.397   2.895  1.00 20.00     0.154 C 
HETATM    6  N9  UNL     1     -34.867   4.400   4.814  1.00 20.00    -0.237 NA
HETATM    7  F11 UNL     1     -33.089   3.102   4.345  1.00 20.00    -0.189 F 
ENDROOT
BRANCH   5   8
HETATM    8  O10 UNL     1     -33.009   7.224   3.519  1.00 20.00    -0.376 OA
BRANCH   8   9
HETATM    9  C8  UNL     1     -32.600   8.281   2.663  1.00 20.00     0.122 A 
HETATM   10  C5  UNL     1     -31.118   8.443   2.474  1.00 20.00     0.034 A 
HETATM   11  C6  UNL     1     -31.957   7.870   1.370  1.00 20.00     0.034 A 
ENDBRANCH   8   9
ENDBRANCH   5   8
TORSDOF 2
ENDMDL
MODEL 4
REMARK VINA RESULT:       0.8      1.667      2.330
REMARK  2 active torsions:
REMARK  status: ('A' for Active; 'I' for Inactive)
REMARK    1  A    between atoms: C7_7  and  O10_10 
REMARK    2  A    between atoms: C8_8  and  O10_10 
ROOT
HETATM    1  C1  UNL     1     -32.980   4.930   3.677  1.00 20.00     0.024 C 
HETATM    2  C2  UNL     1     -34.094   4.303   4.075  1.00 20.00     0.118 C 
HETATM    3  C3  UNL     1     -35.452   6.102   3.815  1.00 20.00     0.188 C 
HETATM    4  C4  UNL     1     -34.290   7.054   3.672  1.00 20.00     0.127 C 
HETATM    5  C7  UNL     1     -33.027   6.345   3.198  1.00 20.00     0.154 C 
HETATM    6  N9  UNL     1     -35.359   4.829   4.038  1.00 20.00    -0.237 NA
HETATM    7  F11 UNL     1     -36.684   6.625   3.758  1.00 20.00    -0.189 F 
ENDROOT
BRANCH   5   8
HETATM    8  O10 UNL     1     -32.987   6.361   1.773  1.00 20.00    -0.376 OA
BRANCH   8   9
HETATM    9  C8  UNL     1     -31.917   7.161   1.293  1.00 20.00     0.122 A 
HETATM   10  C5  UNL     1     -32.267   8.568   0.900  1.00 20.00     0.034 A 
HETATM   11  C6  UNL     1     -31.508   8.310   2.168  1.00 20.00     0.034 A 
ENDBRANCH   8   9
ENDBRANCH   5   8
TORSDOF 2
ENDMDL
