MODEL 1
REMARK VINA RESULT:      -1.6      0.000      0.000
REMARK  0 active torsions:
REMARK  status: ('A' for Active; 'I' for Inactive)
ROOT
HETATM    1  C1  UNL     1     -31.971   7.839   1.873  1.00 20.00     0.124 C 
HETATM    2  C2  UNL     1     -33.524   6.398   2.499  1.00 20.00     0.044 C 
HETATM    3  C3  UNL     1     -34.538   5.878   3.442  1.00 20.00     0.057 C 
HETATM    4  C4  UNL     1     -34.588   7.062   4.425  1.00 20.00     0.007 C 
HETATM    5  C5  UNL     1     -33.382   7.970   4.091  1.00 20.00     0.016 C 
HETATM    6  C6  UNL     1     -33.270   7.851   2.590  1.00 20.00     0.077 C 
HETATM    7  N7  UNL     1     -31.696   6.694   1.330  1.00 20.00    -0.166 NA
HETATM    8  N8  UNL     1     -32.706   5.750   1.736  1.00 20.00    -0.159 NA
ENDROOT
TORSDOF 0
ENDMDL
MODEL 2
REMARK VINA RESULT:      -1.6      1.658      2.835
REMARK  0 active torsions:
REMARK  status: ('A' for Active; 'I' for Inactive)
ROOT
HETATM    1  C1  UNL     1     -34.226   7.669   4.132  1.00 20.00     0.124 C 
HETATM    2  C2  UNL     1     -33.330   6.192   2.755  1.00 20.00     0.044 C 
HETATM    3  C3  UNL     1     -32.494   5.804   1.597  1.00 20.00     0.057 C 
HETATM    4  C4  UNL     1     -31.823   7.161   1.316  1.00 20.00     0.007 C 
HETATM    5  C5  UNL     1     -32.583   8.217   2.149  1.00 20.00     0.016 C 
HETATM    6  C6  UNL     1     -32.948   7.463   3.406  1.00 20.00     0.077 C 
HETATM    7  N7  UNL     1     -35.021   6.647   4.069  1.00 20.00    -0.166 NA
HETATM    8  N8  UNL     1     -34.441   5.681   3.172  1.00 20.00    -0.159 NA
ENDROOT
TORSDOF 0
ENDMDL
MODEL 3
REMARK VINA RESULT:      -1.3      1.859      3.319
REMARK  0 active torsions:
REMARK  status: ('A' for Active; 'I' for Inactive)
ROOT
HETATM    1  C1  UNL     1     -34.626   6.111   3.618  1.00 20.00     0.124 C 
HETATM    2  C2  UNL     1     -33.199   7.629   2.884  1.00 20.00     0.044 C 
HETATM    3  C3  UNL     1     -32.039   8.068   2.077  1.00 20.00     0.057 C 
HETATM    4  C4  UNL     1     -31.834   6.798   1.232  1.00 20.00     0.007 C 
HETATM    5  C5  UNL     1     -32.702   5.691   1.872  1.00 20.00     0.016 C 
HETATM    6  C6  UNL     1     -33.915   6.447   2.360  1.00 20.00     0.077 C 
HETATM    7  N7  UNL     1     -34.501   7.019   4.535  1.00 20.00    -0.166 NA
HETATM    8  N8  UNL     1     -33.570   8.012   4.061  1.00 20.00    -0.159 NA
ENDROOT
TORSDOF 0
ENDMDL
MODEL 4
REMARK VINA RESULT:      -1.2      1.097      1.873
REMARK  0 active torsions:
REMARK  status: ('A' for Active; 'I' for Inactive)
ROOT
HETATM    1  C1  UNL     1     -32.330   6.361   1.431  1.00 20.00     0.124 C 
HETATM    2  C2  UNL     1     -33.018   7.530   3.175  1.00 20.00     0.044 C 
HETATM    3  C3  UNL     1     -33.979   7.848   4.253  1.00 20.00     0.057 C 
HETATM    4  C4  UNL     1     -34.898   6.619   4.133  1.00 20.00     0.007 C 
HETATM    5  C5  UNL     1     -34.527   5.912   2.810  1.00 20.00     0.016 C 
HETATM    6  C6  UNL     1     -33.034   6.125   2.715  1.00 20.00     0.077 C 
HETATM    7  N7  UNL     1     -31.850   7.561   1.323  1.00 20.00    -0.166 NA
HETATM    8  N8  UNL     1     -32.297   8.328   2.458  1.00 20.00    -0.159 NA
ENDROOT
TORSDOF 0
ENDMDL
MODEL 5
REMARK VINA RESULT:      -0.6      0.855      1.913
REMARK  0 active torsions:
REMARK  status: ('A' for Active; 'I' for Inactive)
ROOT
HETATM    1  C1  UNL     1     -33.118   5.339   1.688  1.00 20.00     0.124 C 
HETATM    2  C2  UNL     1     -32.798   7.137   2.932  1.00 20.00     0.044 C 
HETATM    3  C3  UNL     1     -33.220   8.139   3.936  1.00 20.00     0.057 C 
HETATM    4  C4  UNL     1     -34.510   7.461   4.431  1.00 20.00     0.007 C 
HETATM    5  C5  UNL     1     -34.823   6.317   3.440  1.00 20.00     0.016 C 
HETATM    6  C6  UNL     1     -33.451   5.816   3.053  1.00 20.00     0.077 C 
HETATM    7  N7  UNL     1     -32.294   6.119   1.060  1.00 20.00    -0.166 NA
HETATM    8  N8  UNL     1     -32.083   7.293   1.868  1.00 20.00    -0.159 NA
ENDROOT
TORSDOF 0
ENDMDL
MODEL 6
REMARK VINA RESULT:      -0.1      2.402      3.058
REMARK  0 active torsions:
REMARK  status: ('A' for Active; 'I' for Inactive)
ROOT
HETATM    1  C1  UNL     1     -33.167   4.056   3.429  1.00 20.00     0.124 C 
HETATM    2  C2  UNL     1     -34.766   5.497   3.928  1.00 20.00     0.044 C 
HETATM    3  C3  UNL     1     -35.315   6.864   4.061  1.00 20.00     0.057 C 
HETATM    4  C4  UNL     1     -34.196   7.648   3.352  1.00 20.00     0.007 C 
HETATM    5  C5  UNL     1     -33.011   6.672   3.174  1.00 20.00     0.016 C 
HETATM    6  C6  UNL     1     -33.693   5.348   2.922  1.00 20.00     0.077 C 
HETATM    7  N7  UNL     1     -33.913   3.524   4.346  1.00 20.00    -0.166 NA
HETATM    8  N8  UNL     1     -34.958   4.460   4.676  1.00 20.00    -0.159 NA
ENDROOT
TORSDOF 0
ENDMDL
MODEL 7
REMARK VINA RESULT:       0.4      1.258      2.922
REMARK  0 active torsions:
REMARK  status: ('A' for Active; 'I' for Inactive)
ROOT
HETATM    1  C1  UNL     1     -33.747   7.310   3.446  1.00 20.00     0.124 C 
HETATM    2  C2  UNL     1     -32.351   6.948   1.772  1.00 20.00     0.044 C 
HETATM    3  C3  UNL     1     -31.543   7.380   0.611  1.00 20.00     0.057 C 
HETATM    4  C4  UNL     1     -31.685   8.905   0.769  1.00 20.00     0.007 C 
HETATM    5  C5  UNL     1     -32.799   9.144   1.813  1.00 20.00     0.016 C 
HETATM    6  C6  UNL     1     -32.614   7.997   2.779  1.00 20.00     0.077 C 
HETATM    7  N7  UNL     1     -33.912   6.088   3.044  1.00 20.00    -0.166 NA
HETATM    8  N8  UNL     1     -33.004   5.847   1.952  1.00 20.00    -0.159 NA
ENDROOT
TORSDOF 0
ENDMDL
MODEL 8
REMARK VINA RESULT:       0.5      1.741      2.791
REMARK  0 active torsions:
REMARK  status: ('A' for Active; 'I' for Inactive)
ROOT
HETATM    1  C1  UNL     1     -34.621   7.490   4.309  1.00 20.00     0.124 C 
HETATM    2  C2  UNL     1     -33.516   6.229   2.870  1.00 20.00     0.044 C 
HETATM    3  C3  UNL     1     -33.017   4.932   2.365  1.00 20.00     0.057 C 
HETATM    4  C4  UNL     1     -33.810   3.989   3.286  1.00 20.00     0.007 C 
HETATM    5  C5  UNL     1     -34.428   4.866   4.399  1.00 20.00     0.016 C 
HETATM    6  C6  UNL     1     -34.752   6.154   3.678  1.00 20.00     0.077 C 
HETATM    7  N7  UNL     1     -33.669   8.207   3.798  1.00 20.00    -0.166 NA
HETATM    8  N8  UNL     1     -32.944   7.389   2.859  1.00 20.00    -0.159 NA
ENDROOT
TORSDOF 0
ENDMDL
MODEL 9
REMARK VINA RESULT:       0.6      1.650      2.258
REMARK  0 active torsions:
REMARK  status: ('A' for Active; 'I' for Inactive)
ROOT
HETATM    1  C1  UNL     1     -31.717   7.967   1.410  1.00 20.00     0.124 C 
HETATM    2  C2  UNL     1     -33.063   7.269   3.018  1.00 20.00     0.044 C 
HETATM    3  C3  UNL     1     -34.014   6.308   3.617  1.00 20.00     0.057 C 
HETATM    4  C4  UNL     1     -33.854   5.149   2.617  1.00 20.00     0.007 C 
HETATM    5  C5  UNL     1     -33.066   5.706   1.410  1.00 20.00     0.016 C 
HETATM    6  C6  UNL     1     -32.111   6.687   2.048  1.00 20.00     0.077 C 
HETATM    7  N7  UNL     1     -32.174   9.010   2.031  1.00 20.00    -0.166 NA
HETATM    8  N8  UNL     1     -33.053   8.560   3.080  1.00 20.00    -0.159 NA
ENDROOT
TORSDOF 0
ENDMDL
