MODEL 1
REMARK VINA RESULT:      -1.8      0.000      0.000
REMARK  1 active torsions:
REMARK  status: ('A' for Active; 'I' for Inactive)
REMARK    1  A    between atoms: C1_1  and  C5_5 
ROOT
HETATM    1  C3  UNL     1     -34.190   7.505   4.402  1.00 20.00     0.009 A 
HETATM    2  C4  UNL     1     -35.054   6.507   3.691  1.00 20.00     0.009 A 
HETATM    3  C5  UNL     1     -33.584   6.582   3.380  1.00 20.00     0.009 A 
ENDROOT
BRANCH   3   4
HETATM    4  C1  UNL     1     -33.162   7.129   2.100  1.00 20.00    -0.015 C 
HETATM    5  C2  UNL     1     -32.232   8.083   1.974  1.00 20.00     0.052 C 
HETATM    6 BR6  UNL     1     -31.678   8.795   0.354  1.00 20.00    -0.064 Br
ENDBRANCH   3   4
TORSDOF 1
ENDMDL
MODEL 2
REMARK VINA RESULT:      -1.7      3.458      3.987
REMARK  1 active torsions:
REMARK  status: ('A' for Active; 'I' for Inactive)
REMARK    1  A    between atoms: C1_1  and  C5_5 
ROOT
HETATM    1  C3  UNL     1     -35.358   6.698   3.951  1.00 20.00     0.009 A 
HETATM    2  C4  UNL     1     -34.081   7.482   4.000  1.00 20.00     0.009 A 
HETATM    3  C5  UNL     1     -34.181   6.267   3.117  1.00 20.00     0.009 A 
ENDROOT
BRANCH   3   4
HETATM    4  C1  UNL     1     -33.457   5.062   3.490  1.00 20.00    -0.015 C 
HETATM    5  C2  UNL     1     -33.995   4.068   4.205  1.00 20.00     0.052 C 
HETATM    6 BR6  UNL     1     -33.090   2.524   4.691  1.00 20.00    -0.064 Br
ENDBRANCH   3   4
TORSDOF 1
ENDMDL
MODEL 3
REMARK VINA RESULT:      -1.6      2.648      3.771
REMARK  1 active torsions:
REMARK  status: ('A' for Active; 'I' for Inactive)
REMARK    1  A    between atoms: C1_1  and  C5_5 
ROOT
HETATM    1  C3  UNL     1     -31.786   7.361   1.207  1.00 20.00     0.009 A 
HETATM    2  C4  UNL     1     -32.225   8.794   1.181  1.00 20.00     0.009 A 
HETATM    3  C5  UNL     1     -32.140   8.059   2.492  1.00 20.00     0.009 A 
ENDROOT
BRANCH   3   4
HETATM    4  C1  UNL     1     -33.370   7.694   3.177  1.00 20.00    -0.015 C 
HETATM    5  C2  UNL     1     -33.803   6.434   3.296  1.00 20.00     0.052 C 
HETATM    6 BR6  UNL     1     -35.367   5.945   4.164  1.00 20.00    -0.064 Br
ENDBRANCH   3   4
TORSDOF 1
ENDMDL
MODEL 4
REMARK VINA RESULT:      -1.4      2.824      4.108
REMARK  1 active torsions:
REMARK  status: ('A' for Active; 'I' for Inactive)
REMARK    1  A    between atoms: C1_1  and  C5_5 
ROOT
HETATM    1  C3  UNL     1     -32.622   9.704  -0.539  1.00 20.00     0.009 A 
HETATM    2  C4  UNL     1     -32.645  10.662   0.614  1.00 20.00     0.009 A 
HETATM    3  C5  UNL     1     -31.921   9.350   0.745  1.00 20.00     0.009 A 
ENDROOT
BRANCH   3   4
HETATM    4  C1  UNL     1     -32.488   8.313   1.594  1.00 20.00    -0.015 C 
HETATM    5  C2  UNL     1     -32.308   7.005   1.382  1.00 20.00     0.052 C 
HETATM    6 BR6  UNL     1     -33.021   5.666   2.451  1.00 20.00    -0.064 Br
ENDBRANCH   3   4
TORSDOF 1
ENDMDL
MODEL 5
REMARK VINA RESULT:      -1.4      1.643      2.272
REMARK  1 active torsions:
REMARK  status: ('A' for Active; 'I' for Inactive)
REMARK    1  A    between atoms: C1_1  and  C5_5 
ROOT
HETATM    1  C3  UNL     1     -33.311   6.536   2.512  1.00 20.00     0.009 A 
HETATM    2  C4  UNL     1     -32.679   5.637   1.492  1.00 20.00     0.009 A 
HETATM    3  C5  UNL     1     -31.976   6.897   1.921  1.00 20.00     0.009 A 
ENDROOT
BRANCH   3   4
HETATM    4  C1  UNL     1     -31.895   8.012   0.990  1.00 20.00    -0.015 C 
HETATM    5  C2  UNL     1     -32.619   9.130   1.113  1.00 20.00     0.052 C 
HETATM    6 BR6  UNL     1     -32.533  10.564  -0.061  1.00 20.00    -0.064 Br
ENDBRANCH   3   4
TORSDOF 1
ENDMDL
MODEL 6
REMARK VINA RESULT:      -1.2      2.555      3.655
REMARK  1 active torsions:
REMARK  status: ('A' for Active; 'I' for Inactive)
REMARK    1  A    between atoms: C1_1  and  C5_5 
ROOT
HETATM    1  C3  UNL     1     -32.329   8.633   1.130  1.00 20.00     0.009 A 
HETATM    2  C4  UNL     1     -31.378   8.329   2.247  1.00 20.00     0.009 A 
HETATM    3  C5  UNL     1     -32.076   7.204   1.531  1.00 20.00     0.009 A 
ENDROOT
BRANCH   3   4
HETATM    4  C1  UNL     1     -33.124   6.470   2.222  1.00 20.00    -0.015 C 
HETATM    5  C2  UNL     1     -33.869   6.994   3.202  1.00 20.00     0.052 C 
HETATM    6 BR6  UNL     1     -35.210   6.077   4.098  1.00 20.00    -0.064 Br
ENDBRANCH   3   4
TORSDOF 1
ENDMDL
MODEL 7
REMARK VINA RESULT:      -1.1      1.333      1.782
REMARK  1 active torsions:
REMARK  status: ('A' for Active; 'I' for Inactive)
REMARK    1  A    between atoms: C1_1  and  C5_5 
ROOT
HETATM    1  C3  UNL     1     -34.288   4.485   4.247  1.00 20.00     0.009 A 
HETATM    2  C4  UNL     1     -35.362   5.472   4.593  1.00 20.00     0.009 A 
HETATM    3  C5  UNL     1     -34.638   5.582   3.279  1.00 20.00     0.009 A 
ENDROOT
BRANCH   3   4
HETATM    4  C1  UNL     1     -33.698   6.674   3.080  1.00 20.00    -0.015 C 
HETATM    5  C2  UNL     1     -32.938   6.804   1.987  1.00 20.00     0.052 C 
HETATM    6 BR6  UNL     1     -31.733   8.187   1.712  1.00 20.00    -0.064 Br
ENDBRANCH   3   4
TORSDOF 1
ENDMDL
MODEL 8
REMARK VINA RESULT:      -1.0      1.868      2.192
REMARK  1 active torsions:
REMARK  status: ('A' for Active; 'I' for Inactive)
REMARK    1  A    between atoms: C1_1  and  C5_5 
ROOT
HETATM    1  C3  UNL     1     -34.980   6.492   4.061  1.00 20.00     0.009 A 
HETATM    2  C4  UNL     1     -34.079   7.592   4.536  1.00 20.00     0.009 A 
HETATM    3  C5  UNL     1     -34.105   7.221   3.078  1.00 20.00     0.009 A 
ENDROOT
BRANCH   3   4
HETATM    4  C1  UNL     1     -32.961   6.530   2.505  1.00 20.00    -0.015 C 
HETATM    5  C2  UNL     1     -33.050   5.681   1.475  1.00 20.00     0.052 C 
HETATM    6 BR6  UNL     1     -31.605   4.789   0.729  1.00 20.00    -0.064 Br
ENDBRANCH   3   4
TORSDOF 1
ENDMDL
MODEL 9
REMARK VINA RESULT:      -0.9      3.201      3.863
REMARK  1 active torsions:
REMARK  status: ('A' for Active; 'I' for Inactive)
REMARK    1  A    between atoms: C1_1  and  C5_5 
ROOT
HETATM    1  C3  UNL     1     -32.840   7.933   2.617  1.00 20.00     0.009 A 
HETATM    2  C4  UNL     1     -31.840   7.514   1.581  1.00 20.00     0.009 A 
HETATM    3  C5  UNL     1     -33.082   6.693   1.800  1.00 20.00     0.009 A 
ENDROOT
BRANCH   3   4
HETATM    4  C1  UNL     1     -32.965   5.393   2.442  1.00 20.00    -0.015 C 
HETATM    5  C2  UNL     1     -33.693   5.024   3.502  1.00 20.00     0.052 C 
HETATM    6 BR6  UNL     1     -33.561   3.373   4.336  1.00 20.00    -0.064 Br
ENDBRANCH   3   4
TORSDOF 1
ENDMDL
