MODEL 1
REMARK VINA RESULT:      -3.4      0.000      0.000
REMARK  1 active torsions:
REMARK  status: ('A' for Active; 'I' for Inactive)
REMARK    1  A    between atoms: C1_1  and  C3_3 
ROOT
HETATM    1  C2  UNL     1     -33.897   7.588   4.363  1.00 20.00     0.098 A 
HETATM    2  C3  UNL     1     -33.954   7.431   2.857  1.00 20.00     0.133 A 
HETATM    3  C4  UNL     1     -34.555   6.407   3.753  1.00 20.00     0.255 A 
HETATM    4  F7  UNL     1     -33.996   5.155   3.879  1.00 20.00    -0.205 F 
HETATM    5  F8  UNL     1     -35.921   6.255   3.824  1.00 20.00    -0.205 F 
ENDROOT
BRANCH   2   6
HETATM    6  C1  UNL     1     -32.724   7.124   2.123  1.00 20.00     0.133 C 
HETATM    7  C5  UNL     1     -32.663   5.790   1.431  1.00 20.00     0.091 C 
HETATM    8  O6  UNL     1     -31.787   7.921   2.072  1.00 20.00    -0.298 OA
ENDBRANCH   2   6
TORSDOF 1
ENDMDL
MODEL 2
REMARK VINA RESULT:      -2.9      2.632      3.441
REMARK  1 active torsions:
REMARK  status: ('A' for Active; 'I' for Inactive)
REMARK    1  A    between atoms: C1_1  and  C3_3 
ROOT
HETATM    1  C2  UNL     1     -32.406   6.419   1.845  1.00 20.00     0.098 A 
HETATM    2  C3  UNL     1     -33.551   7.303   2.292  1.00 20.00     0.133 A 
HETATM    3  C4  UNL     1     -32.214   7.881   1.995  1.00 20.00     0.255 A 
HETATM    4  F7  UNL     1     -31.415   8.380   3.000  1.00 20.00    -0.205 F 
HETATM    5  F8  UNL     1     -32.026   8.678   0.889  1.00 20.00    -0.205 F 
ENDROOT
BRANCH   2   6
HETATM    6  C1  UNL     1     -34.019   7.222   3.678  1.00 20.00     0.133 C 
HETATM    7  C5  UNL     1     -35.126   6.243   3.962  1.00 20.00     0.091 C 
HETATM    8  O6  UNL     1     -33.528   7.917   4.567  1.00 20.00    -0.298 OA
ENDBRANCH   2   6
TORSDOF 1
ENDMDL
MODEL 3
REMARK VINA RESULT:      -2.4      1.919      2.255
REMARK  1 active torsions:
REMARK  status: ('A' for Active; 'I' for Inactive)
REMARK    1  A    between atoms: C1_1  and  C3_3 
ROOT
HETATM    1  C2  UNL     1     -34.864   6.321   3.682  1.00 20.00     0.098 A 
HETATM    2  C3  UNL     1     -33.377   6.469   3.437  1.00 20.00     0.133 A 
HETATM    3  C4  UNL     1     -34.173   7.596   3.991  1.00 20.00     0.255 A 
HETATM    4  F7  UNL     1     -34.425   8.725   3.244  1.00 20.00    -0.205 F 
HETATM    5  F8  UNL     1     -34.002   7.998   5.296  1.00 20.00    -0.205 F 
ENDROOT
BRANCH   2   6
HETATM    6  C1  UNL     1     -32.881   6.535   2.060  1.00 20.00     0.133 C 
HETATM    7  C5  UNL     1     -32.055   7.738   1.695  1.00 20.00     0.091 C 
HETATM    8  O6  UNL     1     -33.126   5.648   1.242  1.00 20.00    -0.298 OA
ENDBRANCH   2   6
TORSDOF 1
ENDMDL
MODEL 4
REMARK VINA RESULT:      -2.2      2.107      3.134
REMARK  1 active torsions:
REMARK  status: ('A' for Active; 'I' for Inactive)
REMARK    1  A    between atoms: C1_1  and  C3_3 
ROOT
HETATM    1  C2  UNL     1     -32.256   7.761   1.823  1.00 20.00     0.098 A 
HETATM    2  C3  UNL     1     -32.695   6.913   2.999  1.00 20.00     0.133 A 
HETATM    3  C4  UNL     1     -32.624   6.338   1.630  1.00 20.00     0.255 A 
HETATM    4  F7  UNL     1     -33.766   6.001   0.938  1.00 20.00    -0.205 F 
HETATM    5  F8  UNL     1     -31.662   5.405   1.312  1.00 20.00    -0.205 F 
ENDROOT
BRANCH   2   6
HETATM    6  C1  UNL     1     -34.000   7.167   3.615  1.00 20.00     0.133 C 
HETATM    7  C5  UNL     1     -34.920   5.986   3.763  1.00 20.00     0.091 C 
HETATM    8  O6  UNL     1     -34.327   8.291   3.997  1.00 20.00    -0.298 OA
ENDBRANCH   2   6
TORSDOF 1
ENDMDL
MODEL 5
REMARK VINA RESULT:      -2.1      2.289      2.726
REMARK  1 active torsions:
REMARK  status: ('A' for Active; 'I' for Inactive)
REMARK    1  A    between atoms: C1_1  and  C3_3 
ROOT
HETATM    1  C2  UNL     1     -35.489   6.608   3.547  1.00 20.00     0.098 A 
HETATM    2  C3  UNL     1     -34.452   5.789   4.286  1.00 20.00     0.133 A 
HETATM    3  C4  UNL     1     -34.204   7.219   3.966  1.00 20.00     0.255 A 
HETATM    4  F7  UNL     1     -33.268   7.587   3.025  1.00 20.00    -0.205 F 
HETATM    5  F8  UNL     1     -34.174   8.165   4.965  1.00 20.00    -0.205 F 
ENDROOT
BRANCH   2   6
HETATM    6  C1  UNL     1     -33.720   4.744   3.565  1.00 20.00     0.133 C 
HETATM    7  C5  UNL     1     -33.606   3.406   4.245  1.00 20.00     0.091 C 
HETATM    8  O6  UNL     1     -33.227   4.948   2.457  1.00 20.00    -0.298 OA
ENDBRANCH   2   6
TORSDOF 1
ENDMDL
MODEL 6
REMARK VINA RESULT:      -1.8      2.392      2.904
REMARK  1 active torsions:
REMARK  status: ('A' for Active; 'I' for Inactive)
REMARK    1  A    between atoms: C1_1  and  C3_3 
ROOT
HETATM    1  C2  UNL     1     -33.324   6.001   2.617  1.00 20.00     0.098 A 
HETATM    2  C3  UNL     1     -33.143   7.041   1.532  1.00 20.00     0.133 A 
HETATM    3  C4  UNL     1     -32.641   5.653   1.348  1.00 20.00     0.255 A 
HETATM    4  F7  UNL     1     -31.291   5.380   1.335  1.00 20.00    -0.205 F 
HETATM    5  F8  UNL     1     -33.240   4.807   0.442  1.00 20.00    -0.205 F 
ENDROOT
BRANCH   2   6
HETATM    6  C1  UNL     1     -32.194   8.136   1.743  1.00 20.00     0.133 C 
HETATM    7  C5  UNL     1     -32.089   9.162   0.647  1.00 20.00     0.091 C 
HETATM    8  O6  UNL     1     -31.517   8.217   2.768  1.00 20.00    -0.298 OA
ENDBRANCH   2   6
TORSDOF 1
ENDMDL
MODEL 7
REMARK VINA RESULT:      -1.8      2.438      3.262
REMARK  1 active torsions:
REMARK  status: ('A' for Active; 'I' for Inactive)
REMARK    1  A    between atoms: C1_1  and  C3_3 
ROOT
HETATM    1  C2  UNL     1     -33.222   7.663   2.233  1.00 20.00     0.098 A 
HETATM    2  C3  UNL     1     -33.149   6.505   3.206  1.00 20.00     0.133 A 
HETATM    3  C4  UNL     1     -32.758   6.329   1.783  1.00 20.00     0.255 A 
HETATM    4  F7  UNL     1     -33.525   5.578   0.921  1.00 20.00    -0.205 F 
HETATM    5  F8  UNL     1     -31.440   6.129   1.438  1.00 20.00    -0.205 F 
ENDROOT
BRANCH   2   6
HETATM    6  C1  UNL     1     -34.391   5.906   3.700  1.00 20.00     0.133 C 
HETATM    7  C5  UNL     1     -34.339   4.449   4.072  1.00 20.00     0.091 C 
HETATM    8  O6  UNL     1     -35.427   6.562   3.808  1.00 20.00    -0.298 OA
ENDBRANCH   2   6
TORSDOF 1
ENDMDL
MODEL 8
REMARK VINA RESULT:      -1.7      1.674      1.688
REMARK  1 active torsions:
REMARK  status: ('A' for Active; 'I' for Inactive)
REMARK    1  A    between atoms: C1_1  and  C3_3 
ROOT
HETATM    1  C2  UNL     1     -34.219   7.300   4.114  1.00 20.00     0.098 A 
HETATM    2  C3  UNL     1     -34.158   6.551   2.799  1.00 20.00     0.133 A 
HETATM    3  C4  UNL     1     -35.275   6.323   3.754  1.00 20.00     0.255 A 
HETATM    4  F7  UNL     1     -35.391   5.136   4.444  1.00 20.00    -0.205 F 
HETATM    5  F8  UNL     1     -36.549   6.750   3.456  1.00 20.00    -0.205 F 
ENDROOT
BRANCH   2   6
HETATM    6  C1  UNL     1     -33.137   5.517   2.612  1.00 20.00     0.133 C 
HETATM    7  C5  UNL     1     -32.139   5.743   1.509  1.00 20.00     0.091 C 
HETATM    8  O6  UNL     1     -33.095   4.514   3.325  1.00 20.00    -0.298 OA
ENDBRANCH   2   6
TORSDOF 1
ENDMDL
MODEL 9
REMARK VINA RESULT:      -1.6      1.557      2.396
REMARK  1 active torsions:
REMARK  status: ('A' for Active; 'I' for Inactive)
REMARK    1  A    between atoms: C1_1  and  C3_3 
ROOT
HETATM    1  C2  UNL     1     -33.458   6.010   1.078  1.00 20.00     0.098 A 
HETATM    2  C3  UNL     1     -32.256   6.509   1.853  1.00 20.00     0.133 A 
HETATM    3  C4  UNL     1     -33.410   5.887   2.555  1.00 20.00     0.255 A 
HETATM    4  F7  UNL     1     -34.253   6.638   3.344  1.00 20.00    -0.205 F 
HETATM    5  F8  UNL     1     -33.284   4.652   3.149  1.00 20.00    -0.205 F 
ENDROOT
BRANCH   2   6
HETATM    6  C1  UNL     1     -32.028   7.952   1.964  1.00 20.00     0.133 C 
HETATM    7  C5  UNL     1     -32.042   8.741   0.683  1.00 20.00     0.091 C 
HETATM    8  O6  UNL     1     -31.836   8.494   3.053  1.00 20.00    -0.298 OA
ENDBRANCH   2   6
TORSDOF 1
ENDMDL
