MODEL 1
REMARK VINA RESULT:      -1.5      0.000      0.000
REMARK  0 active torsions:
REMARK  status: ('A' for Active; 'I' for Inactive)
ROOT
HETATM    1  C1  UNL     1     -33.946   7.676   3.923  1.00 20.00     0.050 C 
HETATM    2  C2  UNL     1     -34.862   6.470   3.995  1.00 20.00     0.171 C 
HETATM    3  C3  UNL     1     -33.270   7.449   2.591  1.00 20.00     0.128 C 
HETATM    4  C4  UNL     1     -33.065   5.945   2.610  1.00 20.00     0.235 C 
HETATM    5  O5  UNL     1     -34.179   5.394   3.333  1.00 20.00    -0.369 OA
HETATM    6 CL6  UNL     1     -31.760   8.353   2.432  1.00 20.00    -0.121 Cl
HETATM    7 CL7  UNL     1     -32.998   5.258   0.979  1.00 20.00    -0.094 Cl
ENDROOT
TORSDOF 0
ENDMDL
MODEL 2
REMARK VINA RESULT:      -1.4      1.638      2.498
REMARK  0 active torsions:
REMARK  status: ('A' for Active; 'I' for Inactive)
ROOT
HETATM    1  C1  UNL     1     -32.892   6.009   1.661  1.00 20.00     0.050 C 
HETATM    2  C2  UNL     1     -33.591   5.188   2.727  1.00 20.00     0.171 C 
HETATM    3  C3  UNL     1     -32.503   7.238   2.448  1.00 20.00     0.128 C 
HETATM    4  C4  UNL     1     -33.729   7.436   3.322  1.00 20.00     0.235 C 
HETATM    5  O5  UNL     1     -34.239   6.122   3.605  1.00 20.00    -0.369 OA
HETATM    6 CL6  UNL     1     -32.159   8.628   1.412  1.00 20.00    -0.121 Cl
HETATM    7 CL7  UNL     1     -33.346   8.278   4.832  1.00 20.00    -0.094 Cl
ENDROOT
TORSDOF 0
ENDMDL
MODEL 3
REMARK VINA RESULT:      -1.3      2.284      2.883
REMARK  0 active torsions:
REMARK  status: ('A' for Active; 'I' for Inactive)
ROOT
HETATM    1  C1  UNL     1     -33.379   5.742   2.747  1.00 20.00     0.050 C 
HETATM    2  C2  UNL     1     -32.611   5.494   1.463  1.00 20.00     0.171 C 
HETATM    3  C3  UNL     1     -33.566   7.240   2.689  1.00 20.00     0.128 C 
HETATM    4  C4  UNL     1     -32.225   7.690   2.136  1.00 20.00     0.235 C 
HETATM    5  O5  UNL     1     -31.785   6.648   1.248  1.00 20.00    -0.369 OA
HETATM    6 CL6  UNL     1     -33.934   7.941   4.269  1.00 20.00    -0.121 Cl
HETATM    7 CL7  UNL     1     -32.342   9.226   1.263  1.00 20.00    -0.094 Cl
ENDROOT
TORSDOF 0
ENDMDL
MODEL 4
REMARK VINA RESULT:      -1.3      2.080      2.547
REMARK  0 active torsions:
REMARK  status: ('A' for Active; 'I' for Inactive)
ROOT
HETATM    1  C1  UNL     1     -32.553   7.868   2.285  1.00 20.00     0.050 C 
HETATM    2  C2  UNL     1     -31.950   6.764   1.439  1.00 20.00     0.171 C 
HETATM    3  C3  UNL     1     -33.159   7.071   3.416  1.00 20.00     0.128 C 
HETATM    4  C4  UNL     1     -33.709   5.865   2.674  1.00 20.00     0.235 C 
HETATM    5  O5  UNL     1     -32.812   5.623   1.577  1.00 20.00    -0.369 OA
HETATM    6 CL6  UNL     1     -34.402   7.971   4.293  1.00 20.00    -0.121 Cl
HETATM    7 CL7  UNL     1     -33.809   4.431   3.708  1.00 20.00    -0.094 Cl
ENDROOT
TORSDOF 0
ENDMDL
MODEL 5
REMARK VINA RESULT:      -1.3      2.251      3.409
REMARK  0 active torsions:
REMARK  status: ('A' for Active; 'I' for Inactive)
ROOT
HETATM    1  C1  UNL     1     -32.545   5.727   1.654  1.00 20.00     0.050 C 
HETATM    2  C2  UNL     1     -32.253   7.182   1.345  1.00 20.00     0.171 C 
HETATM    3  C3  UNL     1     -33.645   5.863   2.682  1.00 20.00     0.128 C 
HETATM    4  C4  UNL     1     -33.158   7.055   3.487  1.00 20.00     0.235 C 
HETATM    5  O5  UNL     1     -32.469   7.913   2.563  1.00 20.00    -0.369 OA
HETATM    6 CL6  UNL     1     -33.847   4.403   3.657  1.00 20.00    -0.121 Cl
HETATM    7 CL7  UNL     1     -34.491   7.932   4.256  1.00 20.00    -0.094 Cl
ENDROOT
TORSDOF 0
ENDMDL
MODEL 6
REMARK VINA RESULT:      -1.2      2.087      2.555
REMARK  0 active torsions:
REMARK  status: ('A' for Active; 'I' for Inactive)
ROOT
HETATM    1  C1  UNL     1     -33.399   8.097   3.904  1.00 20.00     0.050 C 
HETATM    2  C2  UNL     1     -32.148   8.426   3.114  1.00 20.00     0.171 C 
HETATM    3  C3  UNL     1     -33.643   6.667   3.481  1.00 20.00     0.128 C 
HETATM    4  C4  UNL     1     -33.290   6.726   2.005  1.00 20.00     0.235 C 
HETATM    5  O5  UNL     1     -32.237   7.695   1.880  1.00 20.00    -0.369 OA
HETATM    6 CL6  UNL     1     -35.305   6.145   3.776  1.00 20.00    -0.121 Cl
HETATM    7 CL7  UNL     1     -32.751   5.157   1.383  1.00 20.00    -0.094 Cl
ENDROOT
TORSDOF 0
ENDMDL
MODEL 7
REMARK VINA RESULT:      -1.1      2.016      2.884
REMARK  0 active torsions:
REMARK  status: ('A' for Active; 'I' for Inactive)
ROOT
HETATM    1  C1  UNL     1     -31.958   7.547   1.736  1.00 20.00     0.050 C 
HETATM    2  C2  UNL     1     -32.346   8.612   2.743  1.00 20.00     0.171 C 
HETATM    3  C3  UNL     1     -33.146   6.617   1.824  1.00 20.00     0.128 C 
HETATM    4  C4  UNL     1     -33.429   6.632   3.316  1.00 20.00     0.235 C 
HETATM    5  O5  UNL     1     -33.086   7.948   3.779  1.00 20.00    -0.369 OA
HETATM    6 CL6  UNL     1     -32.792   5.001   1.202  1.00 20.00    -0.121 Cl
HETATM    7 CL7  UNL     1     -35.126   6.281   3.679  1.00 20.00    -0.094 Cl
ENDROOT
TORSDOF 0
ENDMDL
MODEL 8
REMARK VINA RESULT:      -0.8      1.174      2.488
REMARK  0 active torsions:
REMARK  status: ('A' for Active; 'I' for Inactive)
ROOT
HETATM    1  C1  UNL     1     -34.323   5.809   3.271  1.00 20.00     0.050 C 
HETATM    2  C2  UNL     1     -34.351   7.002   4.206  1.00 20.00     0.171 C 
HETATM    3  C3  UNL     1     -33.038   6.059   2.517  1.00 20.00     0.128 C 
HETATM    4  C4  UNL     1     -33.085   7.566   2.334  1.00 20.00     0.235 C 
HETATM    5  O5  UNL     1     -33.743   8.094   3.497  1.00 20.00    -0.369 OA
HETATM    6 CL6  UNL     1     -32.963   5.176   0.988  1.00 20.00    -0.121 Cl
HETATM    7 CL7  UNL     1     -31.468   8.271   2.176  1.00 20.00    -0.094 Cl
ENDROOT
TORSDOF 0
ENDMDL
MODEL 9
REMARK VINA RESULT:      -0.8      1.738      2.740
REMARK  0 active torsions:
REMARK  status: ('A' for Active; 'I' for Inactive)
ROOT
HETATM    1  C1  UNL     1     -33.955   4.274   3.443  1.00 20.00     0.050 C 
HETATM    2  C2  UNL     1     -34.874   4.536   4.619  1.00 20.00     0.171 C 
HETATM    3  C3  UNL     1     -33.351   5.643   3.234  1.00 20.00     0.128 C 
HETATM    4  C4  UNL     1     -34.551   6.541   3.480  1.00 20.00     0.235 C 
HETATM    5  O5  UNL     1     -35.350   5.883   4.477  1.00 20.00    -0.369 OA
HETATM    6 CL6  UNL     1     -32.655   5.841   1.621  1.00 20.00    -0.121 Cl
HETATM    7 CL7  UNL     1     -34.077   8.152   4.043  1.00 20.00    -0.094 Cl
ENDROOT
TORSDOF 0
ENDMDL
