MODEL 1
REMARK VINA RESULT:      -1.2      0.000      0.000
REMARK  0 active torsions:
REMARK  status: ('A' for Active; 'I' for Inactive)
ROOT
HETATM    1  C1  UNL     1     -32.062   6.211   1.481  1.00 20.00     0.006 A 
HETATM    2  C2  UNL     1     -33.044   5.992   2.350  1.00 20.00    -0.008 A 
HETATM    3  C3  UNL     1     -33.267   7.318   2.928  1.00 20.00     0.038 A 
HETATM    4  C4  UNL     1     -31.678   7.652   1.462  1.00 20.00     0.177 A 
HETATM    5  C5  UNL     1     -33.803   4.800   2.785  1.00 20.00     0.310 C 
HETATM    6  C6  UNL     1     -34.266   7.469   4.040  1.00 20.00     0.089 C 
HETATM    7  C7  UNL     1     -35.183   6.248   4.149  1.00 20.00     0.276 C 
HETATM    8  N8  UNL     1     -32.541   8.302   2.477  1.00 20.00    -0.290 NA
HETATM    9  N9  UNL     1     -34.435   4.985   4.100  1.00 20.00     0.087 N 
HETATM   10  H19 UNL     1     -35.074   4.208   4.272  1.00 20.00     0.316 HD
ENDROOT
TORSDOF 0
ENDMDL
MODEL 2
REMARK VINA RESULT:      -1.0      1.159      2.046
REMARK  0 active torsions:
REMARK  status: ('A' for Active; 'I' for Inactive)
ROOT
HETATM    1  C1  UNL     1     -32.570   8.241   2.452  1.00 20.00     0.006 A 
HETATM    2  C2  UNL     1     -33.352   7.364   3.075  1.00 20.00    -0.008 A 
HETATM    3  C3  UNL     1     -33.020   6.104   2.410  1.00 20.00     0.038 A 
HETATM    4  C4  UNL     1     -31.719   7.565   1.431  1.00 20.00     0.177 A 
HETATM    5  C5  UNL     1     -34.372   7.453   4.142  1.00 20.00     0.310 C 
HETATM    6  C6  UNL     1     -33.776   4.861   2.784  1.00 20.00     0.089 C 
HETATM    7  C7  UNL     1     -34.544   5.038   4.098  1.00 20.00     0.276 C 
HETATM    8  N8  UNL     1     -32.109   6.135   1.479  1.00 20.00    -0.290 NA
HETATM    9  N9  UNL     1     -35.290   6.304   4.139  1.00 20.00     0.087 N 
HETATM   10  H19 UNL     1     -35.858   6.332   4.986  1.00 20.00     0.316 HD
ENDROOT
TORSDOF 0
ENDMDL
MODEL 3
REMARK VINA RESULT:      -0.7      0.819      3.702
REMARK  0 active torsions:
REMARK  status: ('A' for Active; 'I' for Inactive)
ROOT
HETATM    1  C1  UNL     1     -34.518   7.404   4.173  1.00 20.00     0.006 A 
HETATM    2  C2  UNL     1     -33.603   7.363   3.209  1.00 20.00    -0.008 A 
HETATM    3  C3  UNL     1     -33.590   5.949   2.834  1.00 20.00     0.038 A 
HETATM    4  C4  UNL     1     -35.117   6.057   4.397  1.00 20.00     0.177 A 
HETATM    5  C5  UNL     1     -32.709   8.358   2.578  1.00 20.00     0.310 C 
HETATM    6  C6  UNL     1     -32.599   5.475   1.809  1.00 20.00     0.089 C 
HETATM    7  C7  UNL     1     -31.987   6.643   1.030  1.00 20.00     0.276 C 
HETATM    8  N8  UNL     1     -34.415   5.153   3.454  1.00 20.00    -0.290 NA
HETATM    9  N9  UNL     1     -31.555   7.735   1.912  1.00 20.00     0.087 N 
HETATM   10  H19 UNL     1     -31.071   8.443   1.360  1.00 20.00     0.316 HD
ENDROOT
TORSDOF 0
ENDMDL
MODEL 4
REMARK VINA RESULT:      -0.5      1.318      3.138
REMARK  0 active torsions:
REMARK  status: ('A' for Active; 'I' for Inactive)
ROOT
HETATM    1  C1  UNL     1     -34.432   5.311   3.412  1.00 20.00     0.006 A 
HETATM    2  C2  UNL     1     -33.479   5.958   2.747  1.00 20.00    -0.008 A 
HETATM    3  C3  UNL     1     -33.593   7.322   3.264  1.00 20.00     0.038 A 
HETATM    4  C4  UNL     1     -35.127   6.220   4.368  1.00 20.00     0.177 A 
HETATM    5  C5  UNL     1     -32.499   5.584   1.705  1.00 20.00     0.310 C 
HETATM    6  C6  UNL     1     -32.721   8.397   2.681  1.00 20.00     0.089 C 
HETATM    7  C7  UNL     1     -31.561   7.810   1.871  1.00 20.00     0.276 C 
HETATM    8  N8  UNL     1     -34.493   7.547   4.179  1.00 20.00    -0.290 NA
HETATM    9  N9  UNL     1     -32.003   6.749   0.956  1.00 20.00     0.087 N 
HETATM   10  H19 UNL     1     -31.218   6.458   0.374  1.00 20.00     0.316 HD
ENDROOT
TORSDOF 0
ENDMDL
MODEL 5
REMARK VINA RESULT:      -0.1      0.904      3.745
REMARK  0 active torsions:
REMARK  status: ('A' for Active; 'I' for Inactive)
ROOT
HETATM    1  C1  UNL     1     -35.050   6.158   4.421  1.00 20.00     0.006 A 
HETATM    2  C2  UNL     1     -34.184   6.599   3.513  1.00 20.00    -0.008 A 
HETATM    3  C3  UNL     1     -33.563   5.365   3.032  1.00 20.00     0.038 A 
HETATM    4  C4  UNL     1     -35.024   4.669   4.504  1.00 20.00     0.177 A 
HETATM    5  C5  UNL     1     -33.785   7.933   3.016  1.00 20.00     0.310 C 
HETATM    6  C6  UNL     1     -32.443   5.453   2.035  1.00 20.00     0.089 C 
HETATM    7  C7  UNL     1     -32.370   6.838   1.385  1.00 20.00     0.276 C 
HETATM    8  N8  UNL     1     -33.985   4.240   3.538  1.00 20.00    -0.290 NA
HETATM    9  N9  UNL     1     -32.462   7.921   2.374  1.00 20.00     0.087 N 
HETATM   10  H19 UNL     1     -32.313   8.816   1.907  1.00 20.00     0.316 HD
ENDROOT
TORSDOF 0
ENDMDL
MODEL 6
REMARK VINA RESULT:       1.2      0.977      3.698
REMARK  0 active torsions:
REMARK  status: ('A' for Active; 'I' for Inactive)
ROOT
HETATM    1  C1  UNL     1     -34.294   6.442   3.995  1.00 20.00     0.006 A 
HETATM    2  C2  UNL     1     -33.405   7.079   3.240  1.00 20.00    -0.008 A 
HETATM    3  C3  UNL     1     -32.983   6.046   2.294  1.00 20.00     0.038 A 
HETATM    4  C4  UNL     1     -34.478   5.037   3.531  1.00 20.00     0.177 A 
HETATM    5  C5  UNL     1     -32.837   8.445   3.229  1.00 20.00     0.310 C 
HETATM    6  C6  UNL     1     -31.896   6.363   1.306  1.00 20.00     0.089 C 
HETATM    7  C7  UNL     1     -31.648   7.870   1.200  1.00 20.00     0.276 C 
HETATM    8  N8  UNL     1     -33.544   4.874   2.391  1.00 20.00    -0.290 NA
HETATM    9  N9  UNL     1     -31.551   8.512   2.517  1.00 20.00     0.087 N 
HETATM   10  H19 UNL     1     -31.291   9.491   2.397  1.00 20.00     0.316 HD
ENDROOT
TORSDOF 0
ENDMDL
