MODEL 1
REMARK VINA RESULT:      -0.7      0.000      0.000
REMARK  0 active torsions:
REMARK  status: ('A' for Active; 'I' for Inactive)
ROOT
HETATM    1  C1  UNL     1     -33.713   6.283   1.907  1.00 20.00     0.029 C 
HETATM    2  C2  UNL     1     -33.266   7.428   3.685  1.00 20.00     0.029 C 
HETATM    3  C3  UNL     1     -33.910   4.956   4.127  1.00 20.00     0.179 A 
HETATM    4  C4  UNL     1     -35.548   6.177   3.752  1.00 20.00     0.179 A 
HETATM    5  C5  UNL     1     -32.483   7.118   2.373  1.00 20.00     0.059 C 
HETATM    6  C6  UNL     1     -34.110   6.226   3.358  1.00 20.00     0.005 A 
HETATM    7  O7  UNL     1     -35.319   4.946   4.498  1.00 20.00    -0.389 OA
HETATM    8 BR8  UNL     1     -32.036   8.643   1.277  1.00 20.00    -0.091 Br
ENDROOT
TORSDOF 0
ENDMDL
MODEL 2
REMARK VINA RESULT:      -0.5      0.462      1.568
REMARK  0 active torsions:
REMARK  status: ('A' for Active; 'I' for Inactive)
ROOT
HETATM    1  C1  UNL     1     -33.253   7.269   3.920  1.00 20.00     0.029 C 
HETATM    2  C2  UNL     1     -33.669   6.185   2.097  1.00 20.00     0.029 C 
HETATM    3  C3  UNL     1     -35.573   6.111   3.855  1.00 20.00     0.179 A 
HETATM    4  C4  UNL     1     -34.014   4.803   4.276  1.00 20.00     0.179 A 
HETATM    5  C5  UNL     1     -33.269   7.658   2.412  1.00 20.00     0.059 C 
HETATM    6  C6  UNL     1     -34.110   6.093   3.533  1.00 20.00     0.005 A 
HETATM    7  O7  UNL     1     -35.442   4.846   4.567  1.00 20.00    -0.389 OA
HETATM    8 BR8  UNL     1     -31.584   8.250   1.676  1.00 20.00    -0.091 Br
ENDROOT
TORSDOF 0
ENDMDL
MODEL 3
REMARK VINA RESULT:      -0.0      3.169      4.103
REMARK  0 active torsions:
REMARK  status: ('A' for Active; 'I' for Inactive)
ROOT
HETATM    1  C1  UNL     1     -33.168   8.020   3.296  1.00 20.00     0.029 C 
HETATM    2  C2  UNL     1     -33.405   6.527   1.751  1.00 20.00     0.029 C 
HETATM    3  C3  UNL     1     -31.116   7.745   1.734  1.00 20.00     0.179 A 
HETATM    4  C4  UNL     1     -32.648   8.864   0.887  1.00 20.00     0.179 A 
HETATM    5  C5  UNL     1     -33.518   6.502   3.305  1.00 20.00     0.059 C 
HETATM    6  C6  UNL     1     -32.601   7.789   1.920  1.00 20.00     0.005 A 
HETATM    7  O7  UNL     1     -31.202   8.792   0.723  1.00 20.00    -0.389 OA
HETATM    8 BR8  UNL     1     -35.253   6.042   4.017  1.00 20.00    -0.091 Br
ENDROOT
TORSDOF 0
ENDMDL
MODEL 4
REMARK VINA RESULT:       1.0      1.758      2.268
REMARK  0 active torsions:
REMARK  status: ('A' for Active; 'I' for Inactive)
ROOT
HETATM    1  C1  UNL     1     -33.273   7.458   0.606  1.00 20.00     0.029 C 
HETATM    2  C2  UNL     1     -31.980   8.077   2.224  1.00 20.00     0.029 C 
HETATM    3  C3  UNL     1     -32.089   5.514   1.850  1.00 20.00     0.179 A 
HETATM    4  C4  UNL     1     -33.732   6.265   2.876  1.00 20.00     0.179 A 
HETATM    5  C5  UNL     1     -32.056   8.425   0.707  1.00 20.00     0.059 C 
HETATM    6  C6  UNL     1     -32.776   6.844   1.889  1.00 20.00     0.005 A 
HETATM    7  O7  UNL     1     -33.038   4.985   2.822  1.00 20.00    -0.389 OA
HETATM    8 BR8  UNL     1     -32.412  10.275   0.283  1.00 20.00    -0.091 Br
ENDROOT
TORSDOF 0
ENDMDL
MODEL 5
REMARK VINA RESULT:       1.2      2.568      3.316
REMARK  0 active torsions:
REMARK  status: ('A' for Active; 'I' for Inactive)
ROOT
HETATM    1  C1  UNL     1     -33.584   5.748   3.132  1.00 20.00     0.029 C 
HETATM    2  C2  UNL     1     -32.579   7.388   2.145  1.00 20.00     0.029 C 
HETATM    3  C3  UNL     1     -33.455   5.542   0.549  1.00 20.00     0.179 A 
HETATM    4  C4  UNL     1     -31.682   5.030   1.504  1.00 20.00     0.179 A 
HETATM    5  C5  UNL     1     -33.791   7.292   3.120  1.00 20.00     0.059 C 
HETATM    6  C6  UNL     1     -32.818   5.932   1.848  1.00 20.00     0.005 A 
HETATM    7  O7  UNL     1     -32.323   4.676   0.243  1.00 20.00    -0.389 OA
HETATM    8 BR8  UNL     1     -33.579   8.183   4.820  1.00 20.00    -0.091 Br
ENDROOT
TORSDOF 0
ENDMDL
MODEL 6
REMARK VINA RESULT:       1.5      1.963      2.483
REMARK  0 active torsions:
REMARK  status: ('A' for Active; 'I' for Inactive)
ROOT
HETATM    1  C1  UNL     1     -33.015   7.026   1.821  1.00 20.00     0.029 C 
HETATM    2  C2  UNL     1     -33.103   5.284   3.098  1.00 20.00     0.029 C 
HETATM    3  C3  UNL     1     -34.960   7.039   3.537  1.00 20.00     0.179 A 
HETATM    4  C4  UNL     1     -33.127   7.556   4.369  1.00 20.00     0.179 A 
HETATM    5  C5  UNL     1     -33.100   5.494   1.554  1.00 20.00     0.059 C 
HETATM    6  C6  UNL     1     -33.535   6.722   3.201  1.00 20.00     0.005 A 
HETATM    7  O7  UNL     1     -34.524   7.840   4.675  1.00 20.00    -0.389 OA
HETATM    8 BR8  UNL     1     -31.608   4.721   0.601  1.00 20.00    -0.091 Br
ENDROOT
TORSDOF 0
ENDMDL
MODEL 7
REMARK VINA RESULT:       1.5      1.999      2.350
REMARK  0 active torsions:
REMARK  status: ('A' for Active; 'I' for Inactive)
ROOT
HETATM    1  C1  UNL     1     -32.969   5.209   3.058  1.00 20.00     0.029 C 
HETATM    2  C2  UNL     1     -33.413   6.772   1.633  1.00 20.00     0.029 C 
HETATM    3  C3  UNL     1     -33.271   7.567   4.097  1.00 20.00     0.179 A 
HETATM    4  C4  UNL     1     -35.071   6.636   3.636  1.00 20.00     0.179 A 
HETATM    5  C5  UNL     1     -32.262   5.732   1.773  1.00 20.00     0.059 C 
HETATM    6  C6  UNL     1     -33.685   6.534   3.094  1.00 20.00     0.005 A 
HETATM    7  O7  UNL     1     -34.638   7.645   4.595  1.00 20.00    -0.389 OA
HETATM    8 BR8  UNL     1     -32.092   4.462   0.328  1.00 20.00    -0.091 Br
ENDROOT
TORSDOF 0
ENDMDL
MODEL 8
REMARK VINA RESULT:       1.6      2.971      3.489
REMARK  0 active torsions:
REMARK  status: ('A' for Active; 'I' for Inactive)
ROOT
HETATM    1  C1  UNL     1     -33.323   5.321   3.265  1.00 20.00     0.029 C 
HETATM    2  C2  UNL     1     -34.873   5.102   4.757  1.00 20.00     0.029 C 
HETATM    3  C3  UNL     1     -35.369   6.882   2.937  1.00 20.00     0.179 A 
HETATM    4  C4  UNL     1     -34.054   7.548   4.402  1.00 20.00     0.179 A 
HETATM    5  C5  UNL     1     -34.170   4.117   3.775  1.00 20.00     0.059 C 
HETATM    6  C6  UNL     1     -34.394   6.205   3.850  1.00 20.00     0.005 A 
HETATM    7  O7  UNL     1     -35.017   8.177   3.506  1.00 20.00    -0.389 OA
HETATM    8 BR8  UNL     1     -33.179   2.676   4.593  1.00 20.00    -0.091 Br
ENDROOT
TORSDOF 0
ENDMDL
MODEL 9
REMARK VINA RESULT:       2.1      3.727      4.755
REMARK  0 active torsions:
REMARK  status: ('A' for Active; 'I' for Inactive)
ROOT
HETATM    1  C1  UNL     1     -33.287   7.718   0.693  1.00 20.00     0.029 C 
HETATM    2  C2  UNL     1     -31.322   8.049   1.530  1.00 20.00     0.029 C 
HETATM    3  C3  UNL     1     -32.831  10.156   1.453  1.00 20.00     0.179 A 
HETATM    4  C4  UNL     1     -31.971   9.694  -0.381  1.00 20.00     0.179 A 
HETATM    5  C5  UNL     1     -32.490   7.075   1.866  1.00 20.00     0.059 C 
HETATM    6  C6  UNL     1     -32.348   8.889   0.817  1.00 20.00     0.005 A 
HETATM    7  O7  UNL     1     -32.443  10.911   0.267  1.00 20.00    -0.389 OA
HETATM    8 BR8  UNL     1     -32.097   5.193   1.685  1.00 20.00    -0.091 Br
ENDROOT
TORSDOF 0
ENDMDL
