MODEL 1
REMARK VINA RESULT:      -0.7      0.000      0.000
REMARK  2 active torsions:
REMARK  status: ('A' for Active; 'I' for Inactive)
REMARK    1  A    between atoms: C7_7  and  O10_10 
REMARK    2  A    between atoms: C8_8  and  O10_10 
ROOT
HETATM    1  C1  UNL     1     -33.748   6.750   3.385  1.00 20.00     0.155 C 
HETATM    2  C2  UNL     1     -33.570   5.256   3.065  1.00 20.00     0.084 C 
HETATM    3  C3  UNL     1     -32.797   5.695   1.801  1.00 20.00     0.047 C 
HETATM    4  C7  UNL     1     -32.731   7.160   2.304  1.00 20.00     0.191 C 
HETATM    5  O9  UNL     1     -34.431   7.364   4.176  1.00 20.00    -0.295 OA
ENDROOT
BRANCH   4   6
HETATM    6  O10 UNL     1     -33.211   8.154   1.417  1.00 20.00    -0.373 OA
BRANCH   6   7
HETATM    7  C8  UNL     1     -32.177   9.105   1.100  1.00 20.00     0.122 C 
HETATM    8  C5  UNL     1     -31.657   9.079  -0.355  1.00 20.00     0.032 C 
HETATM    9  C4  UNL     1     -32.659  10.204  -0.672  1.00 20.00     0.005 C 
HETATM   10  C6  UNL     1     -32.655  10.549   0.829  1.00 20.00     0.032 C 
ENDBRANCH   6   7
ENDBRANCH   4   6
TORSDOF 2
ENDMDL
MODEL 2
REMARK VINA RESULT:      -0.4      1.354      1.932
REMARK  2 active torsions:
REMARK  status: ('A' for Active; 'I' for Inactive)
REMARK    1  A    between atoms: C7_7  and  O10_10 
REMARK    2  A    between atoms: C8_8  and  O10_10 
ROOT
HETATM    1  C1  UNL     1     -34.535   6.614   3.876  1.00 20.00     0.155 C 
HETATM    2  C2  UNL     1     -35.101   5.275   4.377  1.00 20.00     0.084 C 
HETATM    3  C3  UNL     1     -34.069   4.580   3.461  1.00 20.00     0.047 C 
HETATM    4  C7  UNL     1     -33.331   5.921   3.213  1.00 20.00     0.191 C 
HETATM    5  O9  UNL     1     -34.901   7.766   3.963  1.00 20.00    -0.295 OA
ENDROOT
BRANCH   4   6
HETATM    6  O10 UNL     1     -33.133   6.291   1.861  1.00 20.00    -0.373 OA
BRANCH   6   7
HETATM    7  C8  UNL     1     -31.920   7.052   1.707  1.00 20.00     0.122 C 
HETATM    8  C5  UNL     1     -31.819   7.914   0.429  1.00 20.00     0.032 C 
HETATM    9  C4  UNL     1     -32.346   9.100   1.257  1.00 20.00     0.005 C 
HETATM   10  C6  UNL     1     -31.846   8.366   2.515  1.00 20.00     0.032 C 
ENDBRANCH   6   7
ENDBRANCH   4   6
TORSDOF 2
ENDMDL
MODEL 3
REMARK VINA RESULT:       0.0      1.433      1.761
REMARK  2 active torsions:
REMARK  status: ('A' for Active; 'I' for Inactive)
REMARK    1  A    between atoms: C7_7  and  O10_10 
REMARK    2  A    between atoms: C8_8  and  O10_10 
ROOT
HETATM    1  C1  UNL     1     -33.303   6.207   2.085  1.00 20.00     0.155 C 
HETATM    2  C2  UNL     1     -34.089   6.219   3.406  1.00 20.00     0.084 C 
HETATM    3  C3  UNL     1     -33.536   7.643   3.637  1.00 20.00     0.047 C 
HETATM    4  C7  UNL     1     -33.011   7.716   2.180  1.00 20.00     0.191 C 
HETATM    5  O9  UNL     1     -33.017   5.342   1.285  1.00 20.00    -0.295 OA
ENDROOT
BRANCH   4   6
HETATM    6  O10 UNL     1     -31.643   8.043   2.019  1.00 20.00    -0.373 OA
BRANCH   6   7
HETATM    7  C8  UNL     1     -31.489   9.269   1.279  1.00 20.00     0.122 C 
HETATM    8  C5  UNL     1     -31.161   9.117  -0.223  1.00 20.00     0.032 C 
HETATM    9  C4  UNL     1     -32.669   9.245  -0.506  1.00 20.00     0.005 C 
HETATM   10  C6  UNL     1     -32.802   9.961   0.850  1.00 20.00     0.032 C 
ENDBRANCH   6   7
ENDBRANCH   4   6
TORSDOF 2
ENDMDL
MODEL 4
REMARK VINA RESULT:       0.1      1.751      2.532
REMARK  2 active torsions:
REMARK  status: ('A' for Active; 'I' for Inactive)
REMARK    1  A    between atoms: C7_7  and  O10_10 
REMARK    2  A    between atoms: C8_8  and  O10_10 
ROOT
HETATM    1  C1  UNL     1     -34.143   4.966   3.833  1.00 20.00     0.155 C 
HETATM    2  C2  UNL     1     -35.498   5.295   4.481  1.00 20.00     0.084 C 
HETATM    3  C3  UNL     1     -35.316   6.737   3.954  1.00 20.00     0.047 C 
HETATM    4  C7  UNL     1     -34.121   6.302   3.067  1.00 20.00     0.191 C 
HETATM    5  O9  UNL     1     -33.384   4.023   3.906  1.00 20.00    -0.295 OA
ENDROOT
BRANCH   4   6
HETATM    6  O10 UNL     1     -32.918   7.031   3.228  1.00 20.00    -0.373 OA
BRANCH   6   7
HETATM    7  C8  UNL     1     -32.169   7.068   1.998  1.00 20.00     0.122 C 
HETATM    8  C5  UNL     1     -32.949   7.522   0.744  1.00 20.00     0.032 C 
HETATM    9  C4  UNL     1     -32.419   8.945   1.000  1.00 20.00     0.005 C 
HETATM   10  C6  UNL     1     -31.268   8.308   1.800  1.00 20.00     0.032 C 
ENDBRANCH   6   7
ENDBRANCH   4   6
TORSDOF 2
ENDMDL
MODEL 5
REMARK VINA RESULT:       0.1      1.272      4.650
REMARK  2 active torsions:
REMARK  status: ('A' for Active; 'I' for Inactive)
REMARK    1  A    between atoms: C7_7  and  O10_10 
REMARK    2  A    between atoms: C8_8  and  O10_10 
ROOT
HETATM    1  C1  UNL     1     -31.663   9.005   0.336  1.00 20.00     0.155 C 
HETATM    2  C2  UNL     1     -32.370  10.361   0.172  1.00 20.00     0.084 C 
HETATM    3  C3  UNL     1     -33.279   9.946   1.350  1.00 20.00     0.047 C 
HETATM    4  C7  UNL     1     -32.363   8.739   1.681  1.00 20.00     0.191 C 
HETATM    5  O9  UNL     1     -30.868   8.385  -0.338  1.00 20.00    -0.295 OA
ENDROOT
BRANCH   4   6
HETATM    6  O10 UNL     1     -32.991   7.473   1.756  1.00 20.00    -0.373 OA
BRANCH   6   7
HETATM    7  C8  UNL     1     -33.024   6.993   3.114  1.00 20.00     0.122 C 
HETATM    8  C5  UNL     1     -33.999   7.720   4.066  1.00 20.00     0.032 C 
HETATM    9  C4  UNL     1     -35.032   6.621   3.753  1.00 20.00     0.005 C 
HETATM   10  C6  UNL     1     -33.855   5.713   3.353  1.00 20.00     0.032 C 
ENDBRANCH   6   7
ENDBRANCH   4   6
TORSDOF 2
ENDMDL
MODEL 6
REMARK VINA RESULT:       0.2      1.411      4.359
REMARK  2 active torsions:
REMARK  status: ('A' for Active; 'I' for Inactive)
REMARK    1  A    between atoms: C7_7  and  O10_10 
REMARK    2  A    between atoms: C8_8  and  O10_10 
ROOT
HETATM    1  C1  UNL     1     -32.366   9.373   0.645  1.00 20.00     0.155 C 
HETATM    2  C2  UNL     1     -31.059   8.729   0.153  1.00 20.00     0.084 C 
HETATM    3  C3  UNL     1     -31.250   7.670   1.263  1.00 20.00     0.047 C 
HETATM    4  C7  UNL     1     -32.697   8.158   1.531  1.00 20.00     0.191 C 
HETATM    5  O9  UNL     1     -32.916  10.431   0.425  1.00 20.00    -0.295 OA
ENDROOT
BRANCH   4   6
HETATM    6  O10 UNL     1     -33.010   8.498   2.870  1.00 20.00    -0.373 OA
BRANCH   6   7
HETATM    7  C8  UNL     1     -33.165   7.317   3.679  1.00 20.00     0.122 C 
HETATM    8  C5  UNL     1     -34.286   7.365   4.741  1.00 20.00     0.032 C 
HETATM    9  C4  UNL     1     -35.205   6.672   3.718  1.00 20.00     0.005 C 
HETATM   10  C6  UNL     1     -33.936   6.150   3.021  1.00 20.00     0.032 C 
ENDBRANCH   6   7
ENDBRANCH   4   6
TORSDOF 2
ENDMDL
MODEL 7
REMARK VINA RESULT:       0.5      1.917      5.101
REMARK  2 active torsions:
REMARK  status: ('A' for Active; 'I' for Inactive)
REMARK    1  A    between atoms: C7_7  and  O10_10 
REMARK    2  A    between atoms: C8_8  and  O10_10 
ROOT
HETATM    1  C1  UNL     1     -33.175   7.390   2.944  1.00 20.00     0.155 C 
HETATM    2  C2  UNL     1     -32.389   8.130   1.848  1.00 20.00     0.084 C 
HETATM    3  C3  UNL     1     -32.061   6.743   1.251  1.00 20.00     0.047 C 
HETATM    4  C7  UNL     1     -33.097   6.057   2.178  1.00 20.00     0.191 C 
HETATM    5  O9  UNL     1     -33.659   7.726   4.003  1.00 20.00    -0.295 OA
ENDROOT
BRANCH   4   6
HETATM    6  O10 UNL     1     -32.623   4.976   2.961  1.00 20.00    -0.373 OA
BRANCH   6   7
HETATM    7  C8  UNL     1     -33.698   4.085   3.313  1.00 20.00     0.122 C 
HETATM    8  C5  UNL     1     -33.286   2.768   4.008  1.00 20.00     0.032 C 
HETATM    9  C4  UNL     1     -33.548   3.465   5.356  1.00 20.00     0.005 C 
HETATM   10  C6  UNL     1     -34.470   4.442   4.603  1.00 20.00     0.032 C 
ENDBRANCH   6   7
ENDBRANCH   4   6
TORSDOF 2
ENDMDL
MODEL 8
REMARK VINA RESULT:       0.6      1.406      4.440
REMARK  2 active torsions:
REMARK  status: ('A' for Active; 'I' for Inactive)
REMARK    1  A    between atoms: C7_7  and  O10_10 
REMARK    2  A    between atoms: C8_8  and  O10_10 
ROOT
HETATM    1  C1  UNL     1     -31.691   7.421   1.078  1.00 20.00     0.155 C 
HETATM    2  C2  UNL     1     -31.349   8.509   0.046  1.00 20.00     0.084 C 
HETATM    3  C3  UNL     1     -32.203   9.478   0.895  1.00 20.00     0.047 C 
HETATM    4  C7  UNL     1     -32.276   8.455   2.058  1.00 20.00     0.191 C 
HETATM    5  O9  UNL     1     -31.558   6.217   1.103  1.00 20.00    -0.295 OA
ENDROOT
BRANCH   4   6
HETATM    6  O10 UNL     1     -33.570   8.126   2.528  1.00 20.00    -0.373 OA
BRANCH   6   7
HETATM    7  C8  UNL     1     -33.497   7.210   3.637  1.00 20.00     0.122 C 
HETATM    8  C5  UNL     1     -34.597   7.360   4.712  1.00 20.00     0.032 C 
HETATM    9  C4  UNL     1     -35.384   6.259   3.977  1.00 20.00     0.005 C 
HETATM   10  C6  UNL     1     -34.048   5.791   3.372  1.00 20.00     0.032 C 
ENDBRANCH   6   7
ENDBRANCH   4   6
TORSDOF 2
ENDMDL
MODEL 9
REMARK VINA RESULT:       0.8      1.793      2.494
REMARK  2 active torsions:
REMARK  status: ('A' for Active; 'I' for Inactive)
REMARK    1  A    between atoms: C7_7  and  O10_10 
REMARK    2  A    between atoms: C8_8  and  O10_10 
ROOT
HETATM    1  C1  UNL     1     -34.851   5.788   3.858  1.00 20.00     0.155 C 
HETATM    2  C2  UNL     1     -34.737   4.391   4.489  1.00 20.00     0.084 C 
HETATM    3  C3  UNL     1     -33.395   4.242   3.739  1.00 20.00     0.047 C 
HETATM    4  C7  UNL     1     -33.391   5.748   3.369  1.00 20.00     0.191 C 
HETATM    5  O9  UNL     1     -35.746   6.601   3.772  1.00 20.00    -0.295 OA
ENDROOT
BRANCH   4   6
HETATM    6  O10 UNL     1     -33.241   6.059   1.996  1.00 20.00    -0.373 OA
BRANCH   6   7
HETATM    7  C8  UNL     1     -33.113   7.481   1.801  1.00 20.00     0.122 C 
HETATM    8  C5  UNL     1     -32.466   8.268   2.963  1.00 20.00     0.032 C 
HETATM    9  C4  UNL     1     -31.121   8.141   2.223  1.00 20.00     0.005 C 
HETATM   10  C6  UNL     1     -31.923   7.933   0.925  1.00 20.00     0.032 C 
ENDBRANCH   6   7
ENDBRANCH   4   6
TORSDOF 2
ENDMDL
