MODEL 1
REMARK VINA RESULT:      -0.4      0.000      0.000
REMARK  1 active torsions:
REMARK  status: ('A' for Active; 'I' for Inactive)
REMARK    1  A    between atoms: C1_1  and  C4_4 
ROOT
HETATM    1  C2  UNL     1     -33.178   7.541   2.424  1.00 20.00     0.038 C 
HETATM    2  C3  UNL     1     -32.997   6.377   1.468  1.00 20.00     0.169 C 
HETATM    3  C4  UNL     1     -33.380   5.528   3.600  1.00 20.00     0.190 C 
HETATM    4  C5  UNL     1     -34.000   6.930   3.554  1.00 20.00    -0.013 C 
HETATM    5  C6  UNL     1     -35.494   6.930   3.179  1.00 20.00     0.018 C 
HETATM    6  C7  UNL     1     -33.814   7.685   4.872  1.00 20.00     0.018 C 
HETATM    7  O9  UNL     1     -33.043   5.178   2.254  1.00 20.00    -0.378 OA
ENDROOT
BRANCH   3   8
HETATM    8  C1  UNL     1     -34.273   4.457   4.138  1.00 20.00     0.263 C 
HETATM    9  O8  UNL     1     -33.875   3.341   4.453  1.00 20.00    -0.304 OA
ENDBRANCH   3   8
TORSDOF 1
ENDMDL
MODEL 2
REMARK VINA RESULT:      -0.3      2.182      4.073
REMARK  1 active torsions:
REMARK  status: ('A' for Active; 'I' for Inactive)
REMARK    1  A    between atoms: C1_1  and  C4_4 
ROOT
HETATM    1  C2  UNL     1     -33.494   5.643   2.931  1.00 20.00     0.038 C 
HETATM    2  C3  UNL     1     -34.029   6.963   3.449  1.00 20.00     0.169 C 
HETATM    3  C4  UNL     1     -32.208   7.398   2.069  1.00 20.00     0.190 C 
HETATM    4  C5  UNL     1     -32.787   6.045   1.640  1.00 20.00    -0.013 C 
HETATM    5  C6  UNL     1     -33.808   6.149   0.490  1.00 20.00     0.018 C 
HETATM    6  C7  UNL     1     -31.693   5.048   1.250  1.00 20.00     0.018 C 
HETATM    7  O9  UNL     1     -33.155   7.992   2.963  1.00 20.00    -0.378 OA
ENDROOT
BRANCH   3   8
HETATM    8  C1  UNL     1     -31.966   8.366   0.956  1.00 20.00     0.263 C 
HETATM    9  O8  UNL     1     -32.409   9.510   0.947  1.00 20.00    -0.304 OA
ENDBRANCH   3   8
TORSDOF 1
ENDMDL
MODEL 3
REMARK VINA RESULT:       0.1      1.832      2.946
REMARK  1 active torsions:
REMARK  status: ('A' for Active; 'I' for Inactive)
REMARK    1  A    between atoms: C1_1  and  C4_4 
ROOT
HETATM    1  C2  UNL     1     -32.039   7.336   1.152  1.00 20.00     0.038 C 
HETATM    2  C3  UNL     1     -31.900   8.102   2.453  1.00 20.00     0.169 C 
HETATM    3  C4  UNL     1     -33.784   6.743   2.594  1.00 20.00     0.190 C 
HETATM    4  C5  UNL     1     -32.844   6.107   1.563  1.00 20.00    -0.013 C 
HETATM    5  C6  UNL     1     -31.908   5.039   2.160  1.00 20.00     0.018 C 
HETATM    6  C7  UNL     1     -33.608   5.501   0.384  1.00 20.00     0.018 C 
HETATM    7  O9  UNL     1     -33.038   7.767   3.261  1.00 20.00    -0.378 OA
ENDROOT
BRANCH   3   8
HETATM    8  C1  UNL     1     -34.306   5.809   3.638  1.00 20.00     0.263 C 
HETATM    9  O8  UNL     1     -35.401   5.939   4.173  1.00 20.00    -0.304 OA
ENDBRANCH   3   8
TORSDOF 1
ENDMDL
MODEL 4
REMARK VINA RESULT:       0.3      1.514      3.147
REMARK  1 active torsions:
REMARK  status: ('A' for Active; 'I' for Inactive)
REMARK    1  A    between atoms: C1_1  and  C4_4 
ROOT
HETATM    1  C2  UNL     1     -34.945   6.191   4.090  1.00 20.00     0.038 C 
HETATM    2  C3  UNL     1     -34.090   4.992   3.730  1.00 20.00     0.169 C 
HETATM    3  C4  UNL     1     -33.458   6.779   2.381  1.00 20.00     0.190 C 
HETATM    4  C5  UNL     1     -34.082   7.370   3.651  1.00 20.00    -0.013 C 
HETATM    5  C6  UNL     1     -33.049   7.704   4.745  1.00 20.00     0.018 C 
HETATM    6  C7  UNL     1     -34.919   8.616   3.355  1.00 20.00     0.018 C 
HETATM    7  O9  UNL     1     -33.262   5.382   2.625  1.00 20.00    -0.378 OA
ENDROOT
BRANCH   3   8
HETATM    8  C1  UNL     1     -32.137   7.361   1.993  1.00 20.00     0.263 C 
HETATM    9  O8  UNL     1     -32.018   8.403   1.357  1.00 20.00    -0.304 OA
ENDBRANCH   3   8
TORSDOF 1
ENDMDL
MODEL 5
REMARK VINA RESULT:       0.6      1.743      2.588
REMARK  1 active torsions:
REMARK  status: ('A' for Active; 'I' for Inactive)
REMARK    1  A    between atoms: C1_1  and  C4_4 
ROOT
HETATM    1  C2  UNL     1     -31.520   6.765   1.322  1.00 20.00     0.038 C 
HETATM    2  C3  UNL     1     -32.591   5.710   1.128  1.00 20.00     0.169 C 
HETATM    3  C4  UNL     1     -33.029   6.851   3.108  1.00 20.00     0.190 C 
HETATM    4  C5  UNL     1     -32.208   7.791   2.218  1.00 20.00    -0.013 C 
HETATM    5  C6  UNL     1     -33.071   8.740   1.365  1.00 20.00     0.018 C 
HETATM    6  C7  UNL     1     -31.203   8.615   3.024  1.00 20.00     0.018 C 
HETATM    7  O9  UNL     1     -33.434   5.749   2.289  1.00 20.00    -0.378 OA
ENDROOT
BRANCH   3   8
HETATM    8  C1  UNL     1     -34.263   7.453   3.699  1.00 20.00     0.263 C 
HETATM    9  O8  UNL     1     -35.236   6.795   4.050  1.00 20.00    -0.304 OA
ENDBRANCH   3   8
TORSDOF 1
ENDMDL
MODEL 6
REMARK VINA RESULT:       0.7      1.692      2.603
REMARK  1 active torsions:
REMARK  status: ('A' for Active; 'I' for Inactive)
REMARK    1  A    between atoms: C1_1  and  C4_4 
ROOT
HETATM    1  C2  UNL     1     -34.228   7.412   4.760  1.00 20.00     0.038 C 
HETATM    2  C3  UNL     1     -33.413   8.376   3.921  1.00 20.00     0.169 C 
HETATM    3  C4  UNL     1     -33.277   6.264   2.958  1.00 20.00     0.190 C 
HETATM    4  C5  UNL     1     -34.577   6.307   3.768  1.00 20.00    -0.013 C 
HETATM    5  C6  UNL     1     -35.808   6.714   2.936  1.00 20.00     0.018 C 
HETATM    6  C7  UNL     1     -34.864   4.976   4.468  1.00 20.00     0.018 C 
HETATM    7  O9  UNL     1     -32.785   7.606   2.887  1.00 20.00    -0.378 OA
ENDROOT
BRANCH   3   8
HETATM    8  C1  UNL     1     -33.418   5.758   1.558  1.00 20.00     0.263 C 
HETATM    9  O8  UNL     1     -32.488   5.283   0.914  1.00 20.00    -0.304 OA
ENDBRANCH   3   8
TORSDOF 1
ENDMDL
MODEL 7
REMARK VINA RESULT:       0.8      1.714      3.213
REMARK  1 active torsions:
REMARK  status: ('A' for Active; 'I' for Inactive)
REMARK    1  A    between atoms: C1_1  and  C4_4 
ROOT
HETATM    1  C2  UNL     1     -33.761   8.409   3.048  1.00 20.00     0.038 C 
HETATM    2  C3  UNL     1     -34.050   7.125   3.802  1.00 20.00     0.169 C 
HETATM    3  C4  UNL     1     -33.042   6.581   1.777  1.00 20.00     0.190 C 
HETATM    4  C5  UNL     1     -32.615   8.012   2.124  1.00 20.00    -0.013 C 
HETATM    5  C6  UNL     1     -31.276   8.087   2.882  1.00 20.00     0.018 C 
HETATM    6  C7  UNL     1     -32.540   8.906   0.885  1.00 20.00     0.018 C 
HETATM    7  O9  UNL     1     -33.671   6.040   2.943  1.00 20.00    -0.378 OA
ENDROOT
BRANCH   3   8
HETATM    8  C1  UNL     1     -31.928   5.661   1.395  1.00 20.00     0.263 C 
HETATM    9  O8  UNL     1     -32.052   4.751   0.582  1.00 20.00    -0.304 OA
ENDBRANCH   3   8
TORSDOF 1
ENDMDL
MODEL 8
REMARK VINA RESULT:       1.4      1.374      2.490
REMARK  1 active torsions:
REMARK  status: ('A' for Active; 'I' for Inactive)
REMARK    1  A    between atoms: C1_1  and  C4_4 
ROOT
HETATM    1  C2  UNL     1     -35.174   6.684   3.090  1.00 20.00     0.038 C 
HETATM    2  C3  UNL     1     -35.863   6.005   4.257  1.00 20.00     0.169 C 
HETATM    3  C4  UNL     1     -34.047   4.701   3.613  1.00 20.00     0.190 C 
HETATM    4  C5  UNL     1     -33.752   6.138   3.168  1.00 20.00    -0.013 C 
HETATM    5  C6  UNL     1     -32.933   6.944   4.195  1.00 20.00     0.018 C 
HETATM    6  C7  UNL     1     -33.042   6.187   1.813  1.00 20.00     0.018 C 
HETATM    7  O9  UNL     1     -35.187   4.759   4.477  1.00 20.00    -0.378 OA
ENDROOT
BRANCH   3   8
HETATM    8  C1  UNL     1     -32.942   4.029   4.363  1.00 20.00     0.263 C 
HETATM    9  O8  UNL     1     -33.066   2.943   4.918  1.00 20.00    -0.304 OA
ENDBRANCH   3   8
TORSDOF 1
ENDMDL
MODEL 9
REMARK VINA RESULT:       1.5      2.002      2.823
REMARK  1 active torsions:
REMARK  status: ('A' for Active; 'I' for Inactive)
REMARK    1  A    between atoms: C1_1  and  C4_4 
ROOT
HETATM    1  C2  UNL     1     -33.803   5.966   1.710  1.00 20.00     0.038 C 
HETATM    2  C3  UNL     1     -32.413   6.536   1.508  1.00 20.00     0.169 C 
HETATM    3  C4  UNL     1     -33.404   7.628   3.307  1.00 20.00     0.190 C 
HETATM    4  C5  UNL     1     -34.083   6.259   3.180  1.00 20.00    -0.013 C 
HETATM    5  C6  UNL     1     -33.444   5.172   4.066  1.00 20.00     0.018 C 
HETATM    6  C7  UNL     1     -35.582   6.330   3.477  1.00 20.00     0.018 C 
HETATM    7  O9  UNL     1     -32.256   7.605   2.452  1.00 20.00    -0.378 OA
ENDROOT
BRANCH   3   8
HETATM    8  C1  UNL     1     -32.938   7.981   4.683  1.00 20.00     0.263 C 
HETATM    9  O8  UNL     1     -33.683   8.400   5.562  1.00 20.00    -0.304 OA
ENDBRANCH   3   8
TORSDOF 1
ENDMDL
