MODEL 1
REMARK VINA RESULT:       1.9      0.000      0.000
REMARK  2 active torsions:
REMARK  status: ('A' for Active; 'I' for Inactive)
REMARK    1  A    between atoms: C7_7  and  P9_9 
REMARK    2  A    between atoms: C8_8  and  P9_9 
ROOT
HETATM    1  P9  UNL     1     -33.823   6.930   1.690  1.00 20.00    -0.001 P 
HETATM    2 CL10 UNL     1     -32.919   5.181   0.978  1.00 20.00    -0.094 Cl
ENDROOT
BRANCH   1   3
HETATM    3  C7  UNL     1     -32.282   7.994   1.894  1.00 20.00    -0.014 C 
HETATM    4  C1  UNL     1     -31.043   7.138   1.597  1.00 20.00     0.021 C 
HETATM    5  C2  UNL     1     -32.353   9.168   0.907  1.00 20.00     0.021 C 
HETATM    6  C3  UNL     1     -32.214   8.527   3.332  1.00 20.00     0.021 C 
ENDBRANCH   1   3
BRANCH   1   7
HETATM    7  C8  UNL     1     -34.070   6.495   3.449  1.00 20.00    -0.014 C 
HETATM    8  C4  UNL     1     -35.572   6.328   3.715  1.00 20.00     0.021 C 
HETATM    9  C5  UNL     1     -33.339   5.177   3.743  1.00 20.00     0.021 C 
HETATM   10  C6  UNL     1     -33.504   7.613   4.337  1.00 20.00     0.021 C 
ENDBRANCH   1   7
TORSDOF 2
ENDMDL
MODEL 2
REMARK VINA RESULT:       1.9      0.008      1.378
REMARK  2 active torsions:
REMARK  status: ('A' for Active; 'I' for Inactive)
REMARK    1  A    between atoms: C7_7  and  P9_9 
REMARK    2  A    between atoms: C8_8  and  P9_9 
ROOT
HETATM    1  P9  UNL     1     -33.825   6.926   1.687  1.00 20.00    -0.001 P 
HETATM    2 CL10 UNL     1     -32.920   5.178   0.974  1.00 20.00    -0.094 Cl
ENDROOT
BRANCH   1   3
HETATM    3  C7  UNL     1     -32.284   7.990   1.892  1.00 20.00    -0.014 C 
HETATM    4  C1  UNL     1     -31.045   7.136   1.591  1.00 20.00     0.021 C 
HETATM    5  C2  UNL     1     -32.357   9.167   0.908  1.00 20.00     0.021 C 
HETATM    6  C3  UNL     1     -32.215   8.520   3.331  1.00 20.00     0.021 C 
ENDBRANCH   1   3
BRANCH   1   7
HETATM    7  C8  UNL     1     -34.072   6.491   3.446  1.00 20.00    -0.014 C 
HETATM    8  C4  UNL     1     -33.333   5.178   3.743  1.00 20.00     0.021 C 
HETATM    9  C5  UNL     1     -33.505   7.617   4.322  1.00 20.00     0.021 C 
HETATM   10  C6  UNL     1     -35.572   6.319   3.725  1.00 20.00     0.021 C 
ENDBRANCH   1   7
TORSDOF 2
ENDMDL
MODEL 3
REMARK VINA RESULT:       1.9      0.006      1.376
REMARK  2 active torsions:
REMARK  status: ('A' for Active; 'I' for Inactive)
REMARK    1  A    between atoms: C7_7  and  P9_9 
REMARK    2  A    between atoms: C8_8  and  P9_9 
ROOT
HETATM    1  P9  UNL     1     -33.825   6.929   1.689  1.00 20.00    -0.001 P 
HETATM    2 CL10 UNL     1     -32.923   5.183   0.969  1.00 20.00    -0.094 Cl
ENDROOT
BRANCH   1   3
HETATM    3  C7  UNL     1     -32.283   7.991   1.894  1.00 20.00    -0.014 C 
HETATM    4  C1  UNL     1     -31.044   7.135   1.597  1.00 20.00     0.021 C 
HETATM    5  C2  UNL     1     -32.352   9.166   0.908  1.00 20.00     0.021 C 
HETATM    6  C3  UNL     1     -32.215   8.523   3.333  1.00 20.00     0.021 C 
ENDBRANCH   1   3
BRANCH   1   7
HETATM    7  C8  UNL     1     -34.069   6.488   3.446  1.00 20.00    -0.014 C 
HETATM    8  C4  UNL     1     -33.504   7.612   4.326  1.00 20.00     0.021 C 
HETATM    9  C5  UNL     1     -35.572   6.324   3.715  1.00 20.00     0.021 C 
HETATM   10  C6  UNL     1     -33.339   5.172   3.750  1.00 20.00     0.021 C 
ENDBRANCH   1   7
TORSDOF 2
ENDMDL
MODEL 4
REMARK VINA RESULT:       2.7      2.028      3.060
REMARK  2 active torsions:
REMARK  status: ('A' for Active; 'I' for Inactive)
REMARK    1  A    between atoms: C7_7  and  P9_9 
REMARK    2  A    between atoms: C8_8  and  P9_9 
ROOT
HETATM    1  P9  UNL     1     -32.186   7.431   2.594  1.00 20.00    -0.001 P 
HETATM    2 CL10 UNL     1     -32.510   8.804   1.048  1.00 20.00    -0.094 Cl
ENDROOT
BRANCH   1   3
HETATM    3  C7  UNL     1     -32.817   5.875   1.740  1.00 20.00    -0.014 C 
HETATM    4  C1  UNL     1     -33.831   6.276   0.660  1.00 20.00     0.021 C 
HETATM    5  C2  UNL     1     -31.631   5.145   1.094  1.00 20.00     0.021 C 
HETATM    6  C3  UNL     1     -33.490   4.960   2.773  1.00 20.00     0.021 C 
ENDBRANCH   1   3
BRANCH   1   7
HETATM    7  C8  UNL     1     -33.644   7.754   3.649  1.00 20.00    -0.014 C 
HETATM    8  C4  UNL     1     -33.165   8.148   5.053  1.00 20.00     0.021 C 
HETATM    9  C5  UNL     1     -34.458   8.902   3.036  1.00 20.00     0.021 C 
HETATM   10  C6  UNL     1     -34.508   6.488   3.730  1.00 20.00     0.021 C 
ENDBRANCH   1   7
TORSDOF 2
ENDMDL
MODEL 5
REMARK VINA RESULT:       2.7      1.887      3.478
REMARK  2 active torsions:
REMARK  status: ('A' for Active; 'I' for Inactive)
REMARK    1  A    between atoms: C7_7  and  P9_9 
REMARK    2  A    between atoms: C8_8  and  P9_9 
ROOT
HETATM    1  P9  UNL     1     -32.781   5.759   3.482  1.00 20.00    -0.001 P 
HETATM    2 CL10 UNL     1     -34.072   4.113   3.529  1.00 20.00    -0.094 Cl
ENDROOT
BRANCH   1   3
HETATM    3  C7  UNL     1     -34.042   7.128   3.769  1.00 20.00    -0.014 C 
HETATM    4  C1  UNL     1     -35.436   6.501   3.906  1.00 20.00     0.021 C 
HETATM    5  C2  UNL     1     -33.680   7.876   5.060  1.00 20.00     0.021 C 
HETATM    6  C3  UNL     1     -34.023   8.101   2.581  1.00 20.00     0.021 C 
ENDBRANCH   1   3
BRANCH   1   7
HETATM    7  C8  UNL     1     -32.571   5.978   1.678  1.00 20.00    -0.014 C 
HETATM    8  C4  UNL     1     -31.994   7.375   1.409  1.00 20.00     0.021 C 
HETATM    9  C5  UNL     1     -31.604   4.906   1.156  1.00 20.00     0.021 C 
HETATM   10  C6  UNL     1     -33.933   5.834   0.984  1.00 20.00     0.021 C 
ENDBRANCH   1   7
TORSDOF 2
ENDMDL
