MODEL 1
REMARK VINA RESULT:      -2.5      0.000      0.000
REMARK  2 active torsions:
REMARK  status: ('A' for Active; 'I' for Inactive)
REMARK    1  A    between atoms: C4_4  and  C6_6 
REMARK    2  A    between atoms: C6_6  and  O7_7 
ROOT
HETATM    1  C1  UNL     1     -33.504   8.124   3.847  1.00 20.00     0.013 C 
HETATM    2  C2  UNL     1     -34.345   7.230   4.763  1.00 20.00     0.079 C 
HETATM    3  C3  UNL     1     -33.852   5.960   2.799  1.00 20.00     0.085 C 
HETATM    4  C4  UNL     1     -33.412   7.392   2.497  1.00 20.00     0.015 C 
HETATM    5  C5  UNL     1     -34.922   6.172   3.847  1.00 20.00     0.244 C 
HETATM    6  F8  UNL     1     -35.219   5.039   4.507  1.00 20.00    -0.206 F 
HETATM    7  F9  UNL     1     -36.058   6.625   3.269  1.00 20.00    -0.206 F 
ENDROOT
BRANCH   4   8
HETATM    8  C6  UNL     1     -32.032   7.468   1.867  1.00 20.00     0.168 C 
BRANCH   8   9
HETATM    9  O7  UNL     1     -31.967   8.624   1.047  1.00 20.00    -0.400 OA
HETATM   10  H19 UNL     1     -32.715   9.191   1.297  1.00 20.00     0.209 HD
ENDBRANCH   8   9
ENDBRANCH   4   8
TORSDOF 2
ENDMDL
MODEL 2
REMARK VINA RESULT:      -2.1      3.053      3.935
REMARK  2 active torsions:
REMARK  status: ('A' for Active; 'I' for Inactive)
REMARK    1  A    between atoms: C4_4  and  C6_6 
REMARK    2  A    between atoms: C6_6  and  O7_7 
ROOT
HETATM    1  C1  UNL     1     -33.493   5.740   2.085  1.00 20.00     0.013 C 
HETATM    2  C2  UNL     1     -32.132   6.366   1.768  1.00 20.00     0.079 C 
HETATM    3  C3  UNL     1     -33.136   7.693   3.484  1.00 20.00     0.085 C 
HETATM    4  C4  UNL     1     -34.226   6.739   2.997  1.00 20.00     0.015 C 
HETATM    5  C5  UNL     1     -32.235   7.790   2.273  1.00 20.00     0.244 C 
HETATM    6  F8  UNL     1     -31.032   8.308   2.574  1.00 20.00    -0.206 F 
HETATM    7  F9  UNL     1     -32.802   8.579   1.332  1.00 20.00    -0.206 F 
ENDROOT
BRANCH   4   8
HETATM    8  C6  UNL     1     -34.980   6.070   4.135  1.00 20.00     0.168 C 
BRANCH   8   9
HETATM    9  O7  UNL     1     -34.692   4.682   4.119  1.00 20.00    -0.400 OA
HETATM   10  H19 UNL     1     -34.894   4.360   3.225  1.00 20.00     0.209 HD
ENDBRANCH   8   9
ENDBRANCH   4   8
TORSDOF 2
ENDMDL
MODEL 3
REMARK VINA RESULT:      -1.9      2.925      3.678
REMARK  2 active torsions:
REMARK  status: ('A' for Active; 'I' for Inactive)
REMARK    1  A    between atoms: C4_4  and  C6_6 
REMARK    2  A    between atoms: C6_6  and  O7_7 
ROOT
HETATM    1  C1  UNL     1     -32.510   7.861   2.406  1.00 20.00     0.013 C 
HETATM    2  C2  UNL     1     -32.187   7.141   1.094  1.00 20.00     0.079 C 
HETATM    3  C3  UNL     1     -33.595   5.687   2.366  1.00 20.00     0.085 C 
HETATM    4  C4  UNL     1     -33.198   6.823   3.309  1.00 20.00     0.015 C 
HETATM    5  C5  UNL     1     -32.446   5.678   1.382  1.00 20.00     0.244 C 
HETATM    6  F8  UNL     1     -32.738   4.986   0.267  1.00 20.00    -0.206 F 
HETATM    7  F9  UNL     1     -31.354   5.113   1.946  1.00 20.00    -0.206 F 
ENDROOT
BRANCH   4   8
HETATM    8  C6  UNL     1     -34.376   7.389   4.084  1.00 20.00     0.168 C 
BRANCH   8   9
HETATM    9  O7  UNL     1     -35.428   6.438   4.075  1.00 20.00    -0.400 OA
HETATM   10  H19 UNL     1     -36.178   6.840   4.544  1.00 20.00     0.209 HD
ENDBRANCH   8   9
ENDBRANCH   4   8
TORSDOF 2
ENDMDL
MODEL 4
REMARK VINA RESULT:      -1.6      1.559      2.339
REMARK  2 active torsions:
REMARK  status: ('A' for Active; 'I' for Inactive)
REMARK    1  A    between atoms: C4_4  and  C6_6 
REMARK    2  A    between atoms: C6_6  and  O7_7 
ROOT
HETATM    1  C1  UNL     1     -32.320   6.497   1.814  1.00 20.00     0.013 C 
HETATM    2  C2  UNL     1     -33.479   6.102   2.734  1.00 20.00     0.079 C 
HETATM    3  C3  UNL     1     -33.479   8.488   2.587  1.00 20.00     0.085 C 
HETATM    4  C4  UNL     1     -32.178   8.025   1.932  1.00 20.00     0.015 C 
HETATM    5  C5  UNL     1     -33.777   7.350   3.538  1.00 20.00     0.244 C 
HETATM    6  F8  UNL     1     -35.046   7.376   3.980  1.00 20.00    -0.206 F 
HETATM    7  F9  UNL     1     -32.962   7.417   4.615  1.00 20.00    -0.206 F 
ENDROOT
BRANCH   4   8
HETATM    8  C6  UNL     1     -31.909   8.706   0.600  1.00 20.00     0.168 C 
BRANCH   8   9
HETATM    9  O7  UNL     1     -32.548   9.972   0.598  1.00 20.00    -0.400 OA
HETATM   10  H19 UNL     1     -31.847  10.644   0.641  1.00 20.00     0.209 HD
ENDBRANCH   8   9
ENDBRANCH   4   8
TORSDOF 2
ENDMDL
MODEL 5
REMARK VINA RESULT:      -1.5      2.515      3.177
REMARK  2 active torsions:
REMARK  status: ('A' for Active; 'I' for Inactive)
REMARK    1  A    between atoms: C4_4  and  C6_6 
REMARK    2  A    between atoms: C6_6  and  O7_7 
ROOT
HETATM    1  C1  UNL     1     -34.363   5.837   3.671  1.00 20.00     0.013 C 
HETATM    2  C2  UNL     1     -33.489   4.962   2.768  1.00 20.00     0.079 C 
HETATM    3  C3  UNL     1     -32.660   7.197   2.597  1.00 20.00     0.085 C 
HETATM    4  C4  UNL     1     -33.983   7.295   3.357  1.00 20.00     0.015 C 
HETATM    5  C5  UNL     1     -32.848   5.929   1.795  1.00 20.00     0.244 C 
HETATM    6  F8  UNL     1     -31.687   5.460   1.305  1.00 20.00    -0.206 F 
HETATM    7  F9  UNL     1     -33.677   6.156   0.750  1.00 20.00    -0.206 F 
ENDROOT
BRANCH   4   8
HETATM    8  C6  UNL     1     -33.892   8.171   4.595  1.00 20.00     0.168 C 
BRANCH   8   9
HETATM    9  O7  UNL     1     -32.530   8.295   4.968  1.00 20.00    -0.400 OA
HETATM   10  H19 UNL     1     -32.364   9.239   5.126  1.00 20.00     0.209 HD
ENDBRANCH   8   9
ENDBRANCH   4   8
TORSDOF 2
ENDMDL
MODEL 6
REMARK VINA RESULT:      -1.4      3.012      3.716
REMARK  2 active torsions:
REMARK  status: ('A' for Active; 'I' for Inactive)
REMARK    1  A    between atoms: C4_4  and  C6_6 
REMARK    2  A    between atoms: C6_6  and  O7_7 
ROOT
HETATM    1  C1  UNL     1     -35.375   5.423   4.357  1.00 20.00     0.013 C 
HETATM    2  C2  UNL     1     -35.392   6.798   3.682  1.00 20.00     0.079 C 
HETATM    3  C3  UNL     1     -33.230   5.853   3.300  1.00 20.00     0.085 C 
HETATM    4  C4  UNL     1     -33.914   4.943   4.321  1.00 20.00     0.015 C 
HETATM    5  C5  UNL     1     -33.933   7.172   3.531  1.00 20.00     0.244 C 
HETATM    6  F8  UNL     1     -33.735   8.037   2.521  1.00 20.00    -0.206 F 
HETATM    7  F9  UNL     1     -33.479   7.750   4.666  1.00 20.00    -0.206 F 
ENDROOT
BRANCH   4   8
HETATM    8  C6  UNL     1     -33.776   3.467   3.987  1.00 20.00     0.168 C 
BRANCH   8   9
HETATM    9  O7  UNL     1     -32.984   2.845   4.985  1.00 20.00    -0.400 OA
HETATM   10  H19 UNL     1     -32.111   3.273   4.963  1.00 20.00     0.209 HD
ENDBRANCH   8   9
ENDBRANCH   4   8
TORSDOF 2
ENDMDL
MODEL 7
REMARK VINA RESULT:      -1.2      2.018      2.456
REMARK  2 active torsions:
REMARK  status: ('A' for Active; 'I' for Inactive)
REMARK    1  A    between atoms: C4_4  and  C6_6 
REMARK    2  A    between atoms: C6_6  and  O7_7 
ROOT
HETATM    1  C1  UNL     1     -32.207   7.652   1.834  1.00 20.00     0.013 C 
HETATM    2  C2  UNL     1     -32.325   8.329   3.202  1.00 20.00     0.079 C 
HETATM    3  C3  UNL     1     -33.690   6.368   3.268  1.00 20.00     0.085 C 
HETATM    4  C4  UNL     1     -33.276   6.546   1.807  1.00 20.00     0.015 C 
HETATM    5  C5  UNL     1     -33.606   7.783   3.795  1.00 20.00     0.244 C 
HETATM    6  F8  UNL     1     -33.602   7.826   5.138  1.00 20.00    -0.206 F 
HETATM    7  F9  UNL     1     -34.665   8.505   3.362  1.00 20.00    -0.206 F 
ENDROOT
BRANCH   4   8
HETATM    8  C6  UNL     1     -32.789   5.256   1.167  1.00 20.00     0.168 C 
BRANCH   8   9
HETATM    9  O7  UNL     1     -31.386   5.160   1.347  1.00 20.00    -0.400 OA
HETATM   10  H19 UNL     1     -31.233   4.958   2.286  1.00 20.00     0.209 HD
ENDBRANCH   8   9
ENDBRANCH   4   8
TORSDOF 2
ENDMDL
MODEL 8
REMARK VINA RESULT:      -1.1      2.063      2.653
REMARK  2 active torsions:
REMARK  status: ('A' for Active; 'I' for Inactive)
REMARK    1  A    between atoms: C4_4  and  C6_6 
REMARK    2  A    between atoms: C6_6  and  O7_7 
ROOT
HETATM    1  C1  UNL     1     -34.170   5.382   3.348  1.00 20.00     0.013 C 
HETATM    2  C2  UNL     1     -34.933   6.509   4.050  1.00 20.00     0.079 C 
HETATM    3  C3  UNL     1     -33.360   7.538   2.572  1.00 20.00     0.085 C 
HETATM    4  C4  UNL     1     -33.003   6.052   2.600  1.00 20.00     0.015 C 
HETATM    5  C5  UNL     1     -34.042   7.725   3.909  1.00 20.00     0.244 C 
HETATM    6  F8  UNL     1     -34.739   8.873   3.968  1.00 20.00    -0.206 F 
HETATM    7  F9  UNL     1     -33.123   7.747   4.902  1.00 20.00    -0.206 F 
ENDROOT
BRANCH   4   8
HETATM    8  C6  UNL     1     -32.767   5.472   1.216  1.00 20.00     0.168 C 
BRANCH   8   9
HETATM    9  O7  UNL     1     -31.416   5.050   1.122  1.00 20.00    -0.400 OA
HETATM   10  H19 UNL     1     -31.029   5.507   0.356  1.00 20.00     0.209 HD
ENDBRANCH   8   9
ENDBRANCH   4   8
TORSDOF 2
ENDMDL
MODEL 9
REMARK VINA RESULT:      -0.7      3.495      4.736
REMARK  2 active torsions:
REMARK  status: ('A' for Active; 'I' for Inactive)
REMARK    1  A    between atoms: C4_4  and  C6_6 
REMARK    2  A    between atoms: C6_6  and  O7_7 
ROOT
HETATM    1  C1  UNL     1     -31.598   7.611   1.344  1.00 20.00     0.013 C 
HETATM    2  C2  UNL     1     -31.124   8.786   0.484  1.00 20.00     0.079 C 
HETATM    3  C3  UNL     1     -33.056   9.524   1.681  1.00 20.00     0.085 C 
HETATM    4  C4  UNL     1     -32.972   8.015   1.906  1.00 20.00     0.015 C 
HETATM    5  C5  UNL     1     -32.333   9.689   0.363  1.00 20.00     0.244 C 
HETATM    6  F8  UNL     1     -31.989  10.967   0.128  1.00 20.00    -0.206 F 
HETATM    7  F9  UNL     1     -33.122   9.278  -0.657  1.00 20.00    -0.206 F 
ENDROOT
BRANCH   4   8
HETATM    8  C6  UNL     1     -33.163   7.621   3.361  1.00 20.00     0.168 C 
BRANCH   8   9
HETATM    9  O7  UNL     1     -34.126   6.581   3.429  1.00 20.00    -0.400 OA
HETATM   10  H19 UNL     1     -34.075   6.092   2.591  1.00 20.00     0.209 HD
ENDBRANCH   8   9
ENDBRANCH   4   8
TORSDOF 2
ENDMDL
