MODEL 1
REMARK VINA RESULT:      -1.9      0.000      0.000
REMARK  0 active torsions:
REMARK  status: ('A' for Active; 'I' for Inactive)
ROOT
HETATM    1  C1  UNL     1     -32.180   9.566   0.378  1.00 20.00     0.012 C 
HETATM    2  C2  UNL     1     -32.269   8.663   1.165  1.00 20.00    -0.110 C 
HETATM    3  C3  UNL     1     -32.764   6.250   1.478  1.00 20.00     0.045 C 
HETATM    4  C4  UNL     1     -33.339   5.484   2.649  1.00 20.00     0.169 C 
HETATM    5  C5  UNL     1     -33.505   7.758   3.123  1.00 20.00     0.184 C 
HETATM    6  C6  UNL     1     -32.377   7.563   2.124  1.00 20.00     0.090 C 
HETATM    7  O7  UNL     1     -33.963   6.451   3.502  1.00 20.00    -0.390 OA
ENDROOT
TORSDOF 0
ENDMDL
MODEL 2
REMARK VINA RESULT:      -1.9      1.435      2.315
REMARK  0 active torsions:
REMARK  status: ('A' for Active; 'I' for Inactive)
ROOT
HETATM    1  C1  UNL     1     -31.734   7.946   1.802  1.00 20.00     0.012 C 
HETATM    2  C2  UNL     1     -32.668   7.277   2.148  1.00 20.00    -0.110 C 
HETATM    3  C3  UNL     1     -34.534   7.034   3.768  1.00 20.00     0.045 C 
HETATM    4  C4  UNL     1     -35.235   5.812   4.320  1.00 20.00     0.169 C 
HETATM    5  C5  UNL     1     -33.397   5.092   3.085  1.00 20.00     0.184 C 
HETATM    6  C6  UNL     1     -33.807   6.462   2.570  1.00 20.00     0.090 C 
HETATM    7  O7  UNL     1     -34.377   4.696   4.056  1.00 20.00    -0.390 OA
ENDROOT
TORSDOF 0
ENDMDL
MODEL 3
REMARK VINA RESULT:      -1.8      1.714      3.398
REMARK  0 active torsions:
REMARK  status: ('A' for Active; 'I' for Inactive)
ROOT
HETATM    1  C1  UNL     1     -35.292   5.405   4.434  1.00 20.00     0.012 C 
HETATM    2  C2  UNL     1     -34.677   6.138   3.709  1.00 20.00    -0.110 C 
HETATM    3  C3  UNL     1     -32.972   6.294   1.911  1.00 20.00     0.045 C 
HETATM    4  C4  UNL     1     -31.981   7.380   1.555  1.00 20.00     0.169 C 
HETATM    5  C5  UNL     1     -32.983   7.953   3.578  1.00 20.00     0.184 C 
HETATM    6  C6  UNL     1     -33.927   7.031   2.825  1.00 20.00     0.090 C 
HETATM    7  O7  UNL     1     -31.880   8.232   2.703  1.00 20.00    -0.390 OA
ENDROOT
TORSDOF 0
ENDMDL
MODEL 4
REMARK VINA RESULT:      -1.8      1.835      3.494
REMARK  0 active torsions:
REMARK  status: ('A' for Active; 'I' for Inactive)
ROOT
HETATM    1  C1  UNL     1     -35.567   6.163   4.075  1.00 20.00     0.012 C 
HETATM    2  C2  UNL     1     -34.468   6.384   3.646  1.00 20.00    -0.110 C 
HETATM    3  C3  UNL     1     -32.931   8.096   2.712  1.00 20.00     0.045 C 
HETATM    4  C4  UNL     1     -31.774   7.989   1.743  1.00 20.00     0.169 C 
HETATM    5  C5  UNL     1     -32.841   5.920   1.823  1.00 20.00     0.184 C 
HETATM    6  C6  UNL     1     -33.128   6.653   3.124  1.00 20.00     0.090 C 
HETATM    7  O7  UNL     1     -31.911   6.725   1.083  1.00 20.00    -0.390 OA
ENDROOT
TORSDOF 0
ENDMDL
MODEL 5
REMARK VINA RESULT:      -1.4      2.408      4.462
REMARK  0 active torsions:
REMARK  status: ('A' for Active; 'I' for Inactive)
ROOT
HETATM    1  C1  UNL     1     -33.097   2.653   4.847  1.00 20.00     0.012 C 
HETATM    2  C2  UNL     1     -33.618   3.577   4.287  1.00 20.00    -0.110 C 
HETATM    3  C3  UNL     1     -33.284   5.816   3.267  1.00 20.00     0.045 C 
HETATM    4  C4  UNL     1     -34.210   7.003   3.119  1.00 20.00     0.169 C 
HETATM    5  C5  UNL     1     -35.264   5.432   4.476  1.00 20.00     0.184 C 
HETATM    6  C6  UNL     1     -34.254   4.704   3.604  1.00 20.00     0.090 C 
HETATM    7  O7  UNL     1     -35.284   6.801   4.046  1.00 20.00    -0.390 OA
ENDROOT
TORSDOF 0
ENDMDL
MODEL 6
REMARK VINA RESULT:      -1.1      1.820      2.721
REMARK  0 active torsions:
REMARK  status: ('A' for Active; 'I' for Inactive)
ROOT
HETATM    1  C1  UNL     1     -31.858   5.114   1.033  1.00 20.00     0.012 C 
HETATM    2  C2  UNL     1     -32.647   5.796   1.628  1.00 20.00    -0.110 C 
HETATM    3  C3  UNL     1     -32.947   7.670   3.229  1.00 20.00     0.045 C 
HETATM    4  C4  UNL     1     -34.038   7.972   4.232  1.00 20.00     0.169 C 
HETATM    5  C5  UNL     1     -34.420   5.842   3.371  1.00 20.00     0.184 C 
HETATM    6  C6  UNL     1     -33.608   6.627   2.354  1.00 20.00     0.090 C 
HETATM    7  O7  UNL     1     -34.760   6.750   4.430  1.00 20.00    -0.390 OA
ENDROOT
TORSDOF 0
ENDMDL
MODEL 7
REMARK VINA RESULT:      -1.0      1.691      2.896
REMARK  0 active torsions:
REMARK  status: ('A' for Active; 'I' for Inactive)
ROOT
HETATM    1  C1  UNL     1     -33.944   8.081   5.133  1.00 20.00     0.012 C 
HETATM    2  C2  UNL     1     -33.721   7.728   4.007  1.00 20.00    -0.110 C 
HETATM    3  C3  UNL     1     -33.295   5.796   2.506  1.00 20.00     0.045 C 
HETATM    4  C4  UNL     1     -32.503   5.674   1.223  1.00 20.00     0.169 C 
HETATM    5  C5  UNL     1     -32.109   7.789   2.115  1.00 20.00     0.184 C 
HETATM    6  C6  UNL     1     -33.449   7.296   2.636  1.00 20.00     0.090 C 
HETATM    7  O7  UNL     1     -31.644   6.820   1.163  1.00 20.00    -0.390 OA
ENDROOT
TORSDOF 0
ENDMDL
MODEL 8
REMARK VINA RESULT:      -0.5      1.848      2.619
REMARK  0 active torsions:
REMARK  status: ('A' for Active; 'I' for Inactive)
ROOT
HETATM    1  C1  UNL     1     -32.293   5.299   0.636  1.00 20.00     0.012 C 
HETATM    2  C2  UNL     1     -32.680   5.664   1.713  1.00 20.00    -0.110 C 
HETATM    3  C3  UNL     1     -34.566   5.664   3.327  1.00 20.00     0.045 C 
HETATM    4  C4  UNL     1     -34.987   6.661   4.384  1.00 20.00     0.169 C 
HETATM    5  C5  UNL     1     -33.275   7.619   3.129  1.00 20.00     0.184 C 
HETATM    6  C6  UNL     1     -33.151   6.108   3.025  1.00 20.00     0.090 C 
HETATM    7  O7  UNL     1     -34.325   7.892   4.069  1.00 20.00    -0.390 OA
ENDROOT
TORSDOF 0
ENDMDL
MODEL 9
REMARK VINA RESULT:       0.0      2.419      3.966
REMARK  0 active torsions:
REMARK  status: ('A' for Active; 'I' for Inactive)
ROOT
HETATM    1  C1  UNL     1     -32.566   6.076   1.801  1.00 20.00     0.012 C 
HETATM    2  C2  UNL     1     -32.298   7.191   1.445  1.00 20.00    -0.110 C 
HETATM    3  C3  UNL     1     -32.809   9.607   1.697  1.00 20.00     0.045 C 
HETATM    4  C4  UNL     1     -32.704  10.765   0.729  1.00 20.00     0.169 C 
HETATM    5  C5  UNL     1     -32.301   8.799  -0.452  1.00 20.00     0.184 C 
HETATM    6  C6  UNL     1     -31.972   8.550   1.011  1.00 20.00     0.090 C 
HETATM    7  O7  UNL     1     -32.615  10.194  -0.582  1.00 20.00    -0.390 OA
ENDROOT
TORSDOF 0
ENDMDL
