MODEL 1
REMARK VINA RESULT:      -1.5      0.000      0.000
REMARK  2 active torsions:
REMARK  status: ('A' for Active; 'I' for Inactive)
REMARK    1  A    between atoms: C4_4  and  O9_9 
REMARK    2  A    between atoms: C7_7  and  O9_9 
ROOT
HETATM    1  C1  UNL     1     -34.300   4.644   4.089  1.00 20.00     0.155 C 
HETATM    2  C2  UNL     1     -35.554   5.282   4.711  1.00 20.00     0.084 C 
HETATM    3  C3  UNL     1     -35.248   6.537   3.861  1.00 20.00     0.047 C 
HETATM    4  C4  UNL     1     -33.845   5.990   3.491  1.00 20.00     0.191 C 
HETATM    5  O8  UNL     1     -33.851   3.518   4.071  1.00 20.00    -0.295 OA
ENDROOT
BRANCH   4   6
HETATM    6  O9  UNL     1     -33.533   5.922   2.092  1.00 20.00    -0.374 OA
BRANCH   6   7
HETATM    7  C7  UNL     1     -32.157   6.169   1.865  1.00 20.00     0.114 C 
HETATM    8  C5  UNL     1     -31.665   5.268   0.742  1.00 20.00     0.039 C 
HETATM    9  C6  UNL     1     -31.958   7.641   1.539  1.00 20.00     0.039 C 
ENDBRANCH   6   7
ENDBRANCH   4   6
TORSDOF 2
ENDMDL
MODEL 2
REMARK VINA RESULT:      -1.2      0.434      1.255
REMARK  2 active torsions:
REMARK  status: ('A' for Active; 'I' for Inactive)
REMARK    1  A    between atoms: C4_4  and  O9_9 
REMARK    2  A    between atoms: C7_7  and  O9_9 
ROOT
HETATM    1  C1  UNL     1     -34.260   4.705   3.969  1.00 20.00     0.155 C 
HETATM    2  C2  UNL     1     -35.389   5.436   4.717  1.00 20.00     0.084 C 
HETATM    3  C3  UNL     1     -35.166   6.619   3.747  1.00 20.00     0.047 C 
HETATM    4  C4  UNL     1     -33.851   5.988   3.221  1.00 20.00     0.191 C 
HETATM    5  O8  UNL     1     -33.857   3.562   3.966  1.00 20.00    -0.295 OA
ENDROOT
BRANCH   4   6
HETATM    6  O9  UNL     1     -33.747   5.818   1.799  1.00 20.00    -0.374 OA
BRANCH   6   7
HETATM    7  C7  UNL     1     -32.501   6.288   1.321  1.00 20.00     0.114 C 
HETATM    8  C5  UNL     1     -32.135   7.571   2.051  1.00 20.00     0.039 C 
HETATM    9  C6  UNL     1     -31.449   5.207   1.513  1.00 20.00     0.039 C 
ENDBRANCH   6   7
ENDBRANCH   4   6
TORSDOF 2
ENDMDL
MODEL 3
REMARK VINA RESULT:      -1.1      1.279      1.627
REMARK  2 active torsions:
REMARK  status: ('A' for Active; 'I' for Inactive)
REMARK    1  A    between atoms: C4_4  and  O9_9 
REMARK    2  A    between atoms: C7_7  and  O9_9 
ROOT
HETATM    1  C1  UNL     1     -34.059   5.363   3.709  1.00 20.00     0.155 C 
HETATM    2  C2  UNL     1     -35.381   5.950   4.235  1.00 20.00     0.084 C 
HETATM    3  C3  UNL     1     -34.965   7.285   3.576  1.00 20.00     0.047 C 
HETATM    4  C4  UNL     1     -33.528   6.758   3.328  1.00 20.00     0.191 C 
HETATM    5  O8  UNL     1     -33.614   4.238   3.623  1.00 20.00    -0.295 OA
ENDROOT
BRANCH   4   6
HETATM    6  O9  UNL     1     -33.039   6.840   1.981  1.00 20.00    -0.374 OA
BRANCH   6   7
HETATM    7  C7  UNL     1     -31.984   7.778   1.878  1.00 20.00     0.114 C 
HETATM    8  C5  UNL     1     -32.327   8.803   0.807  1.00 20.00     0.039 C 
HETATM    9  C6  UNL     1     -31.757   8.429   3.234  1.00 20.00     0.039 C 
ENDBRANCH   6   7
ENDBRANCH   4   6
TORSDOF 2
ENDMDL
MODEL 4
REMARK VINA RESULT:      -0.8      1.244      3.824
REMARK  2 active torsions:
REMARK  status: ('A' for Active; 'I' for Inactive)
REMARK    1  A    between atoms: C4_4  and  O9_9 
REMARK    2  A    between atoms: C7_7  and  O9_9 
ROOT
HETATM    1  C1  UNL     1     -32.285   6.296   1.562  1.00 20.00     0.155 C 
HETATM    2  C2  UNL     1     -31.967   7.800   1.494  1.00 20.00     0.084 C 
HETATM    3  C3  UNL     1     -32.841   7.966   2.759  1.00 20.00     0.047 C 
HETATM    4  C4  UNL     1     -33.381   6.519   2.621  1.00 20.00     0.191 C 
HETATM    5  O8  UNL     1     -31.840   5.317   1.002  1.00 20.00    -0.295 OA
ENDROOT
BRANCH   4   6
HETATM    6  O9  UNL     1     -33.248   5.674   3.774  1.00 20.00    -0.374 OA
BRANCH   6   7
HETATM    7  C7  UNL     1     -34.260   4.684   3.799  1.00 20.00     0.114 C 
HETATM    8  C5  UNL     1     -33.714   3.427   4.458  1.00 20.00     0.039 C 
HETATM    9  C6  UNL     1     -35.476   5.227   4.533  1.00 20.00     0.039 C 
ENDBRANCH   6   7
ENDBRANCH   4   6
TORSDOF 2
ENDMDL
MODEL 5
REMARK VINA RESULT:      -0.7      1.492      3.927
REMARK  2 active torsions:
REMARK  status: ('A' for Active; 'I' for Inactive)
REMARK    1  A    between atoms: C4_4  and  O9_9 
REMARK    2  A    between atoms: C7_7  and  O9_9 
ROOT
HETATM    1  C1  UNL     1     -32.615   6.513   1.760  1.00 20.00     0.155 C 
HETATM    2  C2  UNL     1     -31.734   7.703   1.341  1.00 20.00     0.084 C 
HETATM    3  C3  UNL     1     -32.372   8.492   2.507  1.00 20.00     0.047 C 
HETATM    4  C4  UNL     1     -33.449   7.394   2.709  1.00 20.00     0.191 C 
HETATM    5  O8  UNL     1     -32.636   5.338   1.463  1.00 20.00    -0.295 OA
ENDROOT
BRANCH   4   6
HETATM    6  O9  UNL     1     -33.574   6.856   4.034  1.00 20.00    -0.374 OA
BRANCH   6   7
HETATM    7  C7  UNL     1     -34.876   6.347   4.255  1.00 20.00     0.114 C 
HETATM    8  C5  UNL     1     -35.802   6.845   3.155  1.00 20.00     0.039 C 
HETATM    9  C6  UNL     1     -34.821   4.828   4.305  1.00 20.00     0.039 C 
ENDBRANCH   6   7
ENDBRANCH   4   6
TORSDOF 2
ENDMDL
MODEL 6
REMARK VINA RESULT:      -0.6      2.098      5.006
REMARK  2 active torsions:
REMARK  status: ('A' for Active; 'I' for Inactive)
REMARK    1  A    between atoms: C4_4  and  O9_9 
REMARK    2  A    between atoms: C7_7  and  O9_9 
ROOT
HETATM    1  C1  UNL     1     -32.338   9.236   1.021  1.00 20.00     0.155 C 
HETATM    2  C2  UNL     1     -31.256   8.420   0.292  1.00 20.00     0.084 C 
HETATM    3  C3  UNL     1     -31.543   7.280   1.297  1.00 20.00     0.047 C 
HETATM    4  C4  UNL     1     -32.395   8.226   2.183  1.00 20.00     0.191 C 
HETATM    5  O8  UNL     1     -32.922  10.268   0.772  1.00 20.00    -0.295 OA
ENDROOT
BRANCH   4   6
HETATM    6  O9  UNL     1     -33.725   7.783   2.497  1.00 20.00    -0.374 OA
BRANCH   6   7
HETATM    7  C7  UNL     1     -33.761   7.134   3.754  1.00 20.00     0.114 C 
HETATM    8  C5  UNL     1     -33.521   8.158   4.854  1.00 20.00     0.039 C 
HETATM    9  C6  UNL     1     -35.099   6.430   3.917  1.00 20.00     0.039 C 
ENDBRANCH   6   7
ENDBRANCH   4   6
TORSDOF 2
ENDMDL
MODEL 7
REMARK VINA RESULT:      -0.6      2.161      3.298
REMARK  2 active torsions:
REMARK  status: ('A' for Active; 'I' for Inactive)
REMARK    1  A    between atoms: C4_4  and  O9_9 
REMARK    2  A    between atoms: C7_7  and  O9_9 
ROOT
HETATM    1  C1  UNL     1     -33.717   6.946   3.248  1.00 20.00     0.155 C 
HETATM    2  C2  UNL     1     -33.448   5.441   3.080  1.00 20.00     0.084 C 
HETATM    3  C3  UNL     1     -32.677   5.798   1.789  1.00 20.00     0.047 C 
HETATM    4  C4  UNL     1     -33.216   7.251   1.824  1.00 20.00     0.191 C 
HETATM    5  O8  UNL     1     -34.148   7.626   4.155  1.00 20.00    -0.295 OA
ENDROOT
BRANCH   4   6
HETATM    6  O9  UNL     1     -32.237   8.299   1.769  1.00 20.00    -0.374 OA
BRANCH   6   7
HETATM    7  C7  UNL     1     -32.351   9.039   0.568  1.00 20.00     0.114 C 
HETATM    8  C5  UNL     1     -32.723  10.477   0.898  1.00 20.00     0.039 C 
HETATM    9  C6  UNL     1     -31.040   8.955  -0.200  1.00 20.00     0.039 C 
ENDBRANCH   6   7
ENDBRANCH   4   6
TORSDOF 2
ENDMDL
MODEL 8
REMARK VINA RESULT:      -0.6      1.849      2.827
REMARK  2 active torsions:
REMARK  status: ('A' for Active; 'I' for Inactive)
REMARK    1  A    between atoms: C4_4  and  O9_9 
REMARK    2  A    between atoms: C7_7  and  O9_9 
ROOT
HETATM    1  C1  UNL     1     -33.029   6.100   2.169  1.00 20.00     0.155 C 
HETATM    2  C2  UNL     1     -33.865   5.958   3.453  1.00 20.00     0.084 C 
HETATM    3  C3  UNL     1     -33.897   7.502   3.516  1.00 20.00     0.047 C 
HETATM    4  C4  UNL     1     -32.814   7.607   2.412  1.00 20.00     0.191 C 
HETATM    5  O8  UNL     1     -32.682   5.327   1.302  1.00 20.00    -0.295 OA
ENDROOT
BRANCH   4   6
HETATM    6  O9  UNL     1     -33.134   8.424   1.276  1.00 20.00    -0.374 OA
BRANCH   6   7
HETATM    7  C7  UNL     1     -32.054   9.275   0.940  1.00 20.00     0.114 C 
HETATM    8  C5  UNL     1     -31.119   8.546  -0.012  1.00 20.00     0.039 C 
HETATM    9  C6  UNL     1     -32.596  10.558   0.331  1.00 20.00     0.039 C 
ENDBRANCH   6   7
ENDBRANCH   4   6
TORSDOF 2
ENDMDL
MODEL 9
REMARK VINA RESULT:      -0.6      1.519      4.083
REMARK  2 active torsions:
REMARK  status: ('A' for Active; 'I' for Inactive)
REMARK    1  A    between atoms: C4_4  and  O9_9 
REMARK    2  A    between atoms: C7_7  and  O9_9 
ROOT
HETATM    1  C1  UNL     1     -32.179   7.197   1.717  1.00 20.00     0.155 C 
HETATM    2  C2  UNL     1     -31.605   5.963   0.998  1.00 20.00     0.084 C 
HETATM    3  C3  UNL     1     -32.745   5.146   1.648  1.00 20.00     0.047 C 
HETATM    4  C4  UNL     1     -33.109   6.327   2.584  1.00 20.00     0.191 C 
HETATM    5  O8  UNL     1     -31.980   8.389   1.627  1.00 20.00    -0.295 OA
ENDROOT
BRANCH   4   6
HETATM    6  O9  UNL     1     -34.479   6.757   2.569  1.00 20.00    -0.374 OA
BRANCH   6   7
HETATM    7  C7  UNL     1     -34.977   6.916   3.885  1.00 20.00     0.114 C 
HETATM    8  C5  UNL     1     -35.324   5.550   4.457  1.00 20.00     0.039 C 
HETATM    9  C6  UNL     1     -33.939   7.638   4.730  1.00 20.00     0.039 C 
ENDBRANCH   6   7
ENDBRANCH   4   6
TORSDOF 2
ENDMDL
