MODEL 1
REMARK VINA RESULT:      -1.9      0.000      0.000
REMARK  2 active torsions:
REMARK  status: ('A' for Active; 'I' for Inactive)
REMARK    1  A    between atoms: C1_1  and  O4_4 
REMARK    2  A    between atoms: C1_1  and  S5_5 
ROOT
HETATM    1  C1  UNL     1     -32.850   7.121   2.369  1.00 20.00     0.337 C 
HETATM    2  O3  UNL     1     -33.099   6.063   1.803  1.00 20.00    -0.251 OA
ENDROOT
BRANCH   1   3
HETATM    3  O4  UNL     1     -31.878   7.997   1.970  1.00 20.00    -0.317 OA
HETATM    4  C2  UNL     1     -32.260   8.934   0.957  1.00 20.00     0.214 C 
ENDBRANCH   1   3
BRANCH   1   5
HETATM    5  S5  UNL     1     -33.738   7.653   3.804  1.00 20.00     0.050 SA
HETATM    6 CL6  UNL     1     -35.235   6.277   3.864  1.00 20.00    -0.033 Cl
ENDBRANCH   1   5
TORSDOF 2
ENDMDL
MODEL 2
REMARK VINA RESULT:      -1.8      1.435      1.435
REMARK  2 active torsions:
REMARK  status: ('A' for Active; 'I' for Inactive)
REMARK    1  A    between atoms: C1_1  and  O4_4 
REMARK    2  A    between atoms: C1_1  and  S5_5 
ROOT
HETATM    1  C1  UNL     1     -33.316   6.476   2.530  1.00 20.00     0.337 C 
HETATM    2  O3  UNL     1     -32.975   5.681   1.663  1.00 20.00    -0.251 OA
ENDROOT
BRANCH   1   3
HETATM    3  O4  UNL     1     -32.780   7.726   2.682  1.00 20.00    -0.317 OA
HETATM    4  C2  UNL     1     -31.911   8.165   1.632  1.00 20.00     0.214 C 
ENDBRANCH   1   3
BRANCH   1   5
HETATM    5  S5  UNL     1     -34.572   6.095   3.718  1.00 20.00     0.050 SA
HETATM    6 CL6  UNL     1     -34.107   4.165   4.164  1.00 20.00    -0.033 Cl
ENDBRANCH   1   5
TORSDOF 2
ENDMDL
MODEL 3
REMARK VINA RESULT:      -1.8      2.091      2.382
REMARK  2 active torsions:
REMARK  status: ('A' for Active; 'I' for Inactive)
REMARK    1  A    between atoms: C1_1  and  O4_4 
REMARK    2  A    between atoms: C1_1  and  S5_5 
ROOT
HETATM    1  C1  UNL     1     -34.005   6.795   3.559  1.00 20.00     0.337 C 
HETATM    2  O3  UNL     1     -33.829   7.852   4.153  1.00 20.00    -0.251 OA
ENDROOT
BRANCH   1   3
HETATM    3  O4  UNL     1     -33.357   6.442   2.407  1.00 20.00    -0.317 OA
HETATM    4  C2  UNL     1     -32.378   7.371   1.931  1.00 20.00     0.214 C 
ENDBRANCH   1   3
BRANCH   1   5
HETATM    5  S5  UNL     1     -35.145   5.569   4.135  1.00 20.00     0.050 SA
HETATM    6 CL6  UNL     1     -33.947   3.926   4.193  1.00 20.00    -0.033 Cl
ENDBRANCH   1   5
TORSDOF 2
ENDMDL
MODEL 4
REMARK VINA RESULT:      -1.7      3.122      3.830
REMARK  2 active torsions:
REMARK  status: ('A' for Active; 'I' for Inactive)
REMARK    1  A    between atoms: C1_1  and  O4_4 
REMARK    2  A    between atoms: C1_1  and  S5_5 
ROOT
HETATM    1  C1  UNL     1     -34.081   6.490   3.496  1.00 20.00     0.337 C 
HETATM    2  O3  UNL     1     -34.148   7.612   3.983  1.00 20.00    -0.251 OA
ENDROOT
BRANCH   1   3
HETATM    3  O4  UNL     1     -34.762   5.402   3.972  1.00 20.00    -0.317 OA
HETATM    4  C2  UNL     1     -34.014   4.185   4.056  1.00 20.00     0.214 C 
ENDBRANCH   1   3
BRANCH   1   5
HETATM    5  S5  UNL     1     -33.074   6.133   2.085  1.00 20.00     0.050 SA
HETATM    6 CL6  UNL     1     -32.063   7.887   1.881  1.00 20.00    -0.033 Cl
ENDBRANCH   1   5
TORSDOF 2
ENDMDL
MODEL 5
REMARK VINA RESULT:      -1.7      1.034      1.945
REMARK  2 active torsions:
REMARK  status: ('A' for Active; 'I' for Inactive)
REMARK    1  A    between atoms: C1_1  and  O4_4 
REMARK    2  A    between atoms: C1_1  and  S5_5 
ROOT
HETATM    1  C1  UNL     1     -32.986   7.305   2.617  1.00 20.00     0.337 C 
HETATM    2  O3  UNL     1     -32.160   8.085   2.158  1.00 20.00    -0.251 OA
ENDROOT
BRANCH   1   3
HETATM    3  O4  UNL     1     -33.260   6.074   2.087  1.00 20.00    -0.317 OA
HETATM    4  C2  UNL     1     -32.250   5.521   1.237  1.00 20.00     0.214 C 
ENDBRANCH   1   3
BRANCH   1   5
HETATM    5  S5  UNL     1     -33.946   7.687   4.055  1.00 20.00     0.050 SA
HETATM    6 CL6  UNL     1     -35.331   6.197   3.999  1.00 20.00    -0.033 Cl
ENDBRANCH   1   5
TORSDOF 2
ENDMDL
MODEL 6
REMARK VINA RESULT:      -1.7      2.820      3.194
REMARK  2 active torsions:
REMARK  status: ('A' for Active; 'I' for Inactive)
REMARK    1  A    between atoms: C1_1  and  O4_4 
REMARK    2  A    between atoms: C1_1  and  S5_5 
ROOT
HETATM    1  C1  UNL     1     -32.873   7.050   2.262  1.00 20.00     0.337 C 
HETATM    2  O3  UNL     1     -33.076   6.003   1.658  1.00 20.00    -0.251 OA
ENDROOT
BRANCH   1   3
HETATM    3  O4  UNL     1     -33.613   7.478   3.331  1.00 20.00    -0.317 OA
HETATM    4  C2  UNL     1     -34.635   6.583   3.781  1.00 20.00     0.214 C 
ENDBRANCH   1   3
BRANCH   1   5
HETATM    5  S5  UNL     1     -31.569   8.160   1.813  1.00 20.00     0.050 SA
HETATM    6 CL6  UNL     1     -32.558   9.433   0.571  1.00 20.00    -0.033 Cl
ENDBRANCH   1   5
TORSDOF 2
ENDMDL
MODEL 7
REMARK VINA RESULT:      -1.7      2.744      3.460
REMARK  2 active torsions:
REMARK  status: ('A' for Active; 'I' for Inactive)
REMARK    1  A    between atoms: C1_1  and  O4_4 
REMARK    2  A    between atoms: C1_1  and  S5_5 
ROOT
HETATM    1  C1  UNL     1     -33.449   7.305   3.469  1.00 20.00     0.337 C 
HETATM    2  O3  UNL     1     -33.533   8.064   4.427  1.00 20.00    -0.251 OA
ENDROOT
BRANCH   1   3
HETATM    3  O4  UNL     1     -34.176   6.154   3.332  1.00 20.00    -0.317 OA
HETATM    4  C2  UNL     1     -35.372   6.074   4.115  1.00 20.00     0.214 C 
ENDBRANCH   1   3
BRANCH   1   5
HETATM    5  S5  UNL     1     -32.350   7.614   2.115  1.00 20.00     0.050 SA
HETATM    6 CL6  UNL     1     -32.207   5.754   1.304  1.00 20.00    -0.033 Cl
ENDBRANCH   1   5
TORSDOF 2
ENDMDL
MODEL 8
REMARK VINA RESULT:      -1.6      1.826      1.887
REMARK  2 active torsions:
REMARK  status: ('A' for Active; 'I' for Inactive)
REMARK    1  A    between atoms: C1_1  and  O4_4 
REMARK    2  A    between atoms: C1_1  and  S5_5 
ROOT
HETATM    1  C1  UNL     1     -32.109   7.946   1.841  1.00 20.00     0.337 C 
HETATM    2  O3  UNL     1     -31.695   8.469   2.869  1.00 20.00    -0.251 OA
ENDROOT
BRANCH   1   3
HETATM    3  O4  UNL     1     -32.012   8.511   0.598  1.00 20.00    -0.317 OA
HETATM    4  C2  UNL     1     -32.466   9.864   0.489  1.00 20.00     0.214 C 
ENDBRANCH   1   3
BRANCH   1   5
HETATM    5  S5  UNL     1     -32.899   6.363   1.840  1.00 20.00     0.050 SA
HETATM    6 CL6  UNL     1     -34.143   6.553   3.439  1.00 20.00    -0.033 Cl
ENDBRANCH   1   5
TORSDOF 2
ENDMDL
MODEL 9
REMARK VINA RESULT:      -1.6      3.088      4.052
REMARK  2 active torsions:
REMARK  status: ('A' for Active; 'I' for Inactive)
REMARK    1  A    between atoms: C1_1  and  O4_4 
REMARK    2  A    between atoms: C1_1  and  S5_5 
ROOT
HETATM    1  C1  UNL     1     -34.084   4.880   3.655  1.00 20.00     0.337 C 
HETATM    2  O3  UNL     1     -33.216   4.996   2.798  1.00 20.00    -0.251 OA
ENDROOT
BRANCH   1   3
HETATM    3  O4  UNL     1     -34.281   3.751   4.403  1.00 20.00    -0.317 OA
HETATM    4  C2  UNL     1     -33.108   2.986   4.699  1.00 20.00     0.214 C 
ENDBRANCH   1   3
BRANCH   1   5
HETATM    5  S5  UNL     1     -35.212   6.189   4.037  1.00 20.00     0.050 SA
HETATM    6 CL6  UNL     1     -33.947   7.782   4.100  1.00 20.00    -0.033 Cl
ENDBRANCH   1   5
TORSDOF 2
ENDMDL
