MODEL 1
REMARK VINA RESULT:       0.2      0.000      0.000
REMARK  1 active torsions:
REMARK  status: ('A' for Active; 'I' for Inactive)
REMARK    1  A    between atoms: C1_1  and  C4_4 
ROOT
HETATM    1  C2  UNL     1     -34.988   7.484   3.396  1.00 20.00     0.038 C 
HETATM    2  C3  UNL     1     -35.351   6.139   3.994  1.00 20.00     0.169 C 
HETATM    3  C4  UNL     1     -33.147   6.010   3.222  1.00 20.00     0.190 C 
HETATM    4  C5  UNL     1     -33.465   7.490   3.458  1.00 20.00    -0.013 C 
HETATM    5  C6  UNL     1     -32.990   7.905   4.865  1.00 20.00     0.018 C 
HETATM    6  C7  UNL     1     -32.845   8.448   2.438  1.00 20.00     0.018 C 
HETATM    7  O9  UNL     1     -34.253   5.252   3.737  1.00 20.00    -0.378 OA
ENDROOT
BRANCH   3   8
HETATM    8  C1  UNL     1     -33.060   5.603   1.783  1.00 20.00     0.263 C 
HETATM    9  O8  UNL     1     -32.007   5.323   1.222  1.00 20.00    -0.304 OA
ENDBRANCH   3   8
TORSDOF 1
ENDMDL
MODEL 2
REMARK VINA RESULT:       0.4      1.423      3.140
REMARK  1 active torsions:
REMARK  status: ('A' for Active; 'I' for Inactive)
REMARK    1  A    between atoms: C1_1  and  C4_4 
ROOT
HETATM    1  C2  UNL     1     -31.441   6.612   1.887  1.00 20.00     0.038 C 
HETATM    2  C3  UNL     1     -32.394   5.708   1.130  1.00 20.00     0.169 C 
HETATM    3  C4  UNL     1     -33.672   7.276   2.304  1.00 20.00     0.190 C 
HETATM    4  C5  UNL     1     -32.270   7.868   2.123  1.00 20.00    -0.013 C 
HETATM    5  C6  UNL     1     -32.246   8.768   0.870  1.00 20.00     0.018 C 
HETATM    6  C7  UNL     1     -31.763   8.685   3.314  1.00 20.00     0.018 C 
HETATM    7  O9  UNL     1     -33.724   6.068   1.528  1.00 20.00    -0.378 OA
ENDROOT
BRANCH   3   8
HETATM    8  C1  UNL     1     -33.996   6.831   3.697  1.00 20.00     0.263 C 
HETATM    9  O8  UNL     1     -35.104   6.435   4.040  1.00 20.00    -0.304 OA
ENDBRANCH   3   8
TORSDOF 1
ENDMDL
MODEL 3
REMARK VINA RESULT:       0.6      1.620      3.321
REMARK  1 active torsions:
REMARK  status: ('A' for Active; 'I' for Inactive)
REMARK    1  A    between atoms: C1_1  and  C4_4 
ROOT
HETATM    1  C2  UNL     1     -32.601   7.647   1.275  1.00 20.00     0.038 C 
HETATM    2  C3  UNL     1     -32.111   8.295   2.556  1.00 20.00     0.169 C 
HETATM    3  C4  UNL     1     -33.344   6.394   3.139  1.00 20.00     0.190 C 
HETATM    4  C5  UNL     1     -32.863   6.205   1.696  1.00 20.00    -0.013 C 
HETATM    5  C6  UNL     1     -31.549   5.399   1.688  1.00 20.00     0.018 C 
HETATM    6  C7  UNL     1     -33.865   5.505   0.775  1.00 20.00     0.018 C 
HETATM    7  O9  UNL     1     -32.704   7.575   3.646  1.00 20.00    -0.378 OA
ENDROOT
BRANCH   3   8
HETATM    8  C1  UNL     1     -34.808   6.676   3.286  1.00 20.00     0.263 C 
HETATM    9  O8  UNL     1     -35.525   6.115   4.107  1.00 20.00    -0.304 OA
ENDBRANCH   3   8
TORSDOF 1
ENDMDL
MODEL 4
REMARK VINA RESULT:       0.6      1.351      2.532
REMARK  1 active torsions:
REMARK  status: ('A' for Active; 'I' for Inactive)
REMARK    1  A    between atoms: C1_1  and  C4_4 
ROOT
HETATM    1  C2  UNL     1     -33.219   7.191   4.161  1.00 20.00     0.038 C 
HETATM    2  C3  UNL     1     -32.807   8.186   3.093  1.00 20.00     0.169 C 
HETATM    3  C4  UNL     1     -33.581   6.258   2.018  1.00 20.00     0.190 C 
HETATM    4  C5  UNL     1     -34.189   6.275   3.424  1.00 20.00    -0.013 C 
HETATM    5  C6  UNL     1     -35.592   6.914   3.374  1.00 20.00     0.018 C 
HETATM    6  C7  UNL     1     -34.308   4.900   4.087  1.00 20.00     0.018 C 
HETATM    7  O9  UNL     1     -32.918   7.518   1.828  1.00 20.00    -0.378 OA
ENDROOT
BRANCH   3   8
HETATM    8  C1  UNL     1     -32.502   5.240   1.808  1.00 20.00     0.263 C 
HETATM    9  O8  UNL     1     -31.498   5.447   1.136  1.00 20.00    -0.304 OA
ENDBRANCH   3   8
TORSDOF 1
ENDMDL
MODEL 5
REMARK VINA RESULT:       0.9      1.717      3.035
REMARK  1 active torsions:
REMARK  status: ('A' for Active; 'I' for Inactive)
REMARK    1  A    between atoms: C1_1  and  C4_4 
ROOT
HETATM    1  C2  UNL     1     -32.794   4.989   3.087  1.00 20.00     0.038 C 
HETATM    2  C3  UNL     1     -34.130   4.708   3.745  1.00 20.00     0.169 C 
HETATM    3  C4  UNL     1     -34.175   6.903   2.939  1.00 20.00     0.190 C 
HETATM    4  C5  UNL     1     -33.110   6.142   2.141  1.00 20.00    -0.013 C 
HETATM    5  C6  UNL     1     -33.725   5.607   0.833  1.00 20.00     0.018 C 
HETATM    6  C7  UNL     1     -31.866   6.963   1.790  1.00 20.00     0.018 C 
HETATM    7  O9  UNL     1     -34.867   5.939   3.747  1.00 20.00    -0.378 OA
ENDROOT
BRANCH   3   8
HETATM    8  C1  UNL     1     -33.638   7.893   3.926  1.00 20.00     0.263 C 
HETATM    9  O8  UNL     1     -33.996   7.941   5.098  1.00 20.00    -0.304 OA
ENDBRANCH   3   8
TORSDOF 1
ENDMDL
MODEL 6
REMARK VINA RESULT:       1.2      1.313      2.903
REMARK  1 active torsions:
REMARK  status: ('A' for Active; 'I' for Inactive)
REMARK    1  A    between atoms: C1_1  and  C4_4 
ROOT
HETATM    1  C2  UNL     1     -33.960   7.428   4.139  1.00 20.00     0.038 C 
HETATM    2  C3  UNL     1     -33.080   7.540   2.909  1.00 20.00     0.169 C 
HETATM    3  C4  UNL     1     -34.075   5.423   2.889  1.00 20.00     0.190 C 
HETATM    4  C5  UNL     1     -34.950   6.334   3.757  1.00 20.00    -0.013 C 
HETATM    5  C6  UNL     1     -36.092   6.922   2.903  1.00 20.00     0.018 C 
HETATM    6  C7  UNL     1     -35.565   5.652   4.982  1.00 20.00     0.018 C 
HETATM    7  O9  UNL     1     -33.082   6.256   2.270  1.00 20.00    -0.378 OA
ENDROOT
BRANCH   3   8
HETATM    8  C1  UNL     1     -33.279   4.403   3.645  1.00 20.00     0.263 C 
HETATM    9  O8  UNL     1     -33.771   3.398   4.146  1.00 20.00    -0.304 OA
ENDBRANCH   3   8
TORSDOF 1
ENDMDL
MODEL 7
REMARK VINA RESULT:       1.2      1.655      2.979
REMARK  1 active torsions:
REMARK  status: ('A' for Active; 'I' for Inactive)
REMARK    1  A    between atoms: C1_1  and  C4_4 
ROOT
HETATM    1  C2  UNL     1     -34.019   5.703   1.398  1.00 20.00     0.038 C 
HETATM    2  C3  UNL     1     -32.672   5.400   0.771  1.00 20.00     0.169 C 
HETATM    3  C4  UNL     1     -32.307   6.789   2.616  1.00 20.00     0.190 C 
HETATM    4  C5  UNL     1     -33.655   6.091   2.827  1.00 20.00    -0.013 C 
HETATM    5  C6  UNL     1     -33.455   4.828   3.689  1.00 20.00     0.018 C 
HETATM    6  C7  UNL     1     -34.729   6.960   3.485  1.00 20.00     0.018 C 
HETATM    7  O9  UNL     1     -31.696   6.190   1.463  1.00 20.00    -0.378 OA
ENDROOT
BRANCH   3   8
HETATM    8  C1  UNL     1     -32.396   8.245   2.271  1.00 20.00     0.263 C 
HETATM    9  O8  UNL     1     -32.102   8.698   1.171  1.00 20.00    -0.304 OA
ENDBRANCH   3   8
TORSDOF 1
ENDMDL
MODEL 8
REMARK VINA RESULT:       1.4      1.727      2.149
REMARK  1 active torsions:
REMARK  status: ('A' for Active; 'I' for Inactive)
REMARK    1  A    between atoms: C1_1  and  C4_4 
ROOT
HETATM    1  C2  UNL     1     -35.030   6.577   2.409  1.00 20.00     0.038 C 
HETATM    2  C3  UNL     1     -35.880   6.514   3.663  1.00 20.00     0.169 C 
HETATM    3  C4  UNL     1     -33.852   5.443   4.118  1.00 20.00     0.190 C 
HETATM    4  C5  UNL     1     -33.613   6.398   2.944  1.00 20.00    -0.013 C 
HETATM    5  C6  UNL     1     -33.068   7.740   3.470  1.00 20.00     0.018 C 
HETATM    6  C7  UNL     1     -32.652   5.871   1.876  1.00 20.00     0.018 C 
HETATM    7  O9  UNL     1     -35.175   5.701   4.612  1.00 20.00    -0.378 OA
ENDROOT
BRANCH   3   8
HETATM    8  C1  UNL     1     -33.871   3.989   3.757  1.00 20.00     0.263 C 
HETATM    9  O8  UNL     1     -33.530   3.097   4.526  1.00 20.00    -0.304 OA
ENDBRANCH   3   8
TORSDOF 1
ENDMDL
MODEL 9
REMARK VINA RESULT:       1.5      1.961      3.013
REMARK  1 active torsions:
REMARK  status: ('A' for Active; 'I' for Inactive)
REMARK    1  A    between atoms: C1_1  and  C4_4 
ROOT
HETATM    1  C2  UNL     1     -33.566   6.346   2.338  1.00 20.00     0.038 C 
HETATM    2  C3  UNL     1     -32.197   5.910   1.855  1.00 20.00     0.169 C 
HETATM    3  C4  UNL     1     -32.173   8.239   2.072  1.00 20.00     0.190 C 
HETATM    4  C5  UNL     1     -33.292   7.705   2.972  1.00 20.00    -0.013 C 
HETATM    5  C6  UNL     1     -32.761   7.526   4.409  1.00 20.00     0.018 C 
HETATM    6  C7  UNL     1     -34.544   8.584   3.026  1.00 20.00     0.018 C 
HETATM    7  O9  UNL     1     -31.446   7.102   1.581  1.00 20.00    -0.378 OA
ENDROOT
BRANCH   3   8
HETATM    8  C1  UNL     1     -32.638   8.941   0.833  1.00 20.00     0.263 C 
HETATM    9  O8  UNL     1     -32.331  10.094   0.553  1.00 20.00    -0.304 OA
ENDBRANCH   3   8
TORSDOF 1
ENDMDL
