MODEL 1
REMARK VINA RESULT:      -0.6      0.000      0.000
REMARK  1 active torsions:
REMARK  status: ('A' for Active; 'I' for Inactive)
REMARK    1  A    between atoms: C6_6  and  C8_8 
ROOT
HETATM    1  C1  UNL     1     -34.748   6.161   3.805  1.00 20.00     0.099 C 
HETATM    2  C2  UNL     1     -33.332   7.746   2.596  1.00 20.00     0.031 A 
HETATM    3  C3  UNL     1     -33.107   5.379   2.169  1.00 20.00     0.046 A 
HETATM    4  C4  UNL     1     -31.717   6.957   0.981  1.00 20.00     0.032 A 
HETATM    5  C5  UNL     1     -33.721   6.430   2.849  1.00 20.00     0.046 A 
HETATM    6  C6  UNL     1     -32.330   8.009   1.662  1.00 20.00    -0.041 A 
HETATM    7  C7  UNL     1     -32.106   5.642   1.235  1.00 20.00     0.036 A 
HETATM    8  N9  UNL     1     -35.583   5.942   4.581  1.00 20.00    -0.191 NA
HETATM    9 CL10 UNL     1     -31.351   4.345   0.392  1.00 20.00    -0.084 Cl
ENDROOT
BRANCH   6  10
HETATM   10  C8  UNL     1     -31.915   9.416   1.390  1.00 20.00     0.153 C 
HETATM   11 CL11 UNL     1     -32.606   9.988  -0.145  1.00 20.00    -0.126 Cl
ENDBRANCH   6  10
TORSDOF 1
ENDMDL
MODEL 2
REMARK VINA RESULT:      -0.4      2.842      3.991
REMARK  1 active torsions:
REMARK  status: ('A' for Active; 'I' for Inactive)
REMARK    1  A    between atoms: C6_6  and  C8_8 
ROOT
HETATM    1  C1  UNL     1     -32.382   9.583   0.790  1.00 20.00     0.099 C 
HETATM    2  C2  UNL     1     -33.492   8.249   2.513  1.00 20.00     0.031 A 
HETATM    3  C3  UNL     1     -32.002   7.173   0.946  1.00 20.00     0.046 A 
HETATM    4  C4  UNL     1     -33.104   5.869   2.655  1.00 20.00     0.032 A 
HETATM    5  C5  UNL     1     -32.628   8.325   1.421  1.00 20.00     0.046 A 
HETATM    6  C6  UNL     1     -33.730   7.021   3.130  1.00 20.00    -0.041 A 
HETATM    7  C7  UNL     1     -32.239   5.945   1.563  1.00 20.00     0.036 A 
HETATM    8  N9  UNL     1     -32.183  10.606   0.278  1.00 20.00    -0.191 NA
HETATM    9 CL10 UNL     1     -31.465   4.523   0.979  1.00 20.00    -0.084 Cl
ENDROOT
BRANCH   6  10
HETATM   10  C8  UNL     1     -34.653   6.940   4.298  1.00 20.00     0.153 C 
HETATM   11 CL11 UNL     1     -35.389   5.325   4.408  1.00 20.00    -0.126 Cl
ENDBRANCH   6  10
TORSDOF 1
ENDMDL
MODEL 3
REMARK VINA RESULT:      -0.0      2.677      3.328
REMARK  1 active torsions:
REMARK  status: ('A' for Active; 'I' for Inactive)
REMARK    1  A    between atoms: C6_6  and  C8_8 
ROOT
HETATM    1  C1  UNL     1     -31.757   4.742   0.637  1.00 20.00     0.099 C 
HETATM    2  C2  UNL     1     -31.986   7.097   1.252  1.00 20.00     0.031 A 
HETATM    3  C3  UNL     1     -33.351   5.437   2.355  1.00 20.00     0.046 A 
HETATM    4  C4  UNL     1     -33.565   7.768   2.954  1.00 20.00     0.032 A 
HETATM    5  C5  UNL     1     -32.370   5.767   1.421  1.00 20.00     0.046 A 
HETATM    6  C6  UNL     1     -32.584   8.098   2.019  1.00 20.00    -0.041 A 
HETATM    7  C7  UNL     1     -33.948   6.437   3.122  1.00 20.00     0.036 A 
HETATM    8  N9  UNL     1     -31.258   3.909   0.000  1.00 20.00    -0.191 NA
HETATM    9 CL10 UNL     1     -35.157   6.031   4.279  1.00 20.00    -0.084 Cl
ENDROOT
BRANCH   6  10
HETATM   10  C8  UNL     1     -32.172   9.520   1.840  1.00 20.00     0.153 C 
HETATM   11 CL11 UNL     1     -32.472  10.055   0.171  1.00 20.00    -0.126 Cl
ENDBRANCH   6  10
TORSDOF 1
ENDMDL
MODEL 4
REMARK VINA RESULT:       0.6      2.674      4.408
REMARK  1 active torsions:
REMARK  status: ('A' for Active; 'I' for Inactive)
REMARK    1  A    between atoms: C6_6  and  C8_8 
ROOT
HETATM    1  C1  UNL     1     -31.722   4.783   0.667  1.00 20.00     0.099 C 
HETATM    2  C2  UNL     1     -33.274   5.587   2.377  1.00 20.00     0.031 A 
HETATM    3  C3  UNL     1     -31.992   7.177   1.087  1.00 20.00     0.046 A 
HETATM    4  C4  UNL     1     -33.530   7.956   2.778  1.00 20.00     0.032 A 
HETATM    5  C5  UNL     1     -32.334   5.857   1.383  1.00 20.00     0.046 A 
HETATM    6  C6  UNL     1     -33.873   6.637   3.075  1.00 20.00    -0.041 A 
HETATM    7  C7  UNL     1     -32.590   8.226   1.784  1.00 20.00     0.036 A 
HETATM    8  N9  UNL     1     -31.226   3.910   0.085  1.00 20.00    -0.191 NA
HETATM    9 CL10 UNL     1     -32.172   9.855   1.418  1.00 20.00    -0.084 Cl
ENDROOT
BRANCH   6  10
HETATM   10  C8  UNL     1     -34.879   6.347   4.137  1.00 20.00     0.153 C 
HETATM   11 CL11 UNL     1     -34.912   4.610   4.514  1.00 20.00    -0.126 Cl
ENDBRANCH   6  10
TORSDOF 1
ENDMDL
MODEL 5
REMARK VINA RESULT:       1.2      2.939      4.378
REMARK  1 active torsions:
REMARK  status: ('A' for Active; 'I' for Inactive)
REMARK    1  A    between atoms: C6_6  and  C8_8 
ROOT
HETATM    1  C1  UNL     1     -32.368   9.552   0.856  1.00 20.00     0.099 C 
HETATM    2  C2  UNL     1     -32.137   7.118   0.907  1.00 20.00     0.031 A 
HETATM    3  C3  UNL     1     -33.465   8.227   2.594  1.00 20.00     0.046 A 
HETATM    4  C4  UNL     1     -33.229   5.823   2.630  1.00 20.00     0.032 A 
HETATM    5  C5  UNL     1     -32.659   8.289   1.457  1.00 20.00     0.046 A 
HETATM    6  C6  UNL     1     -32.423   5.885   1.494  1.00 20.00    -0.041 A 
HETATM    7  C7  UNL     1     -33.750   6.994   3.180  1.00 20.00     0.036 A 
HETATM    8  N9  UNL     1     -32.132  10.578   0.366  1.00 20.00    -0.191 NA
HETATM    9 CL10 UNL     1     -34.748   6.916   4.580  1.00 20.00    -0.084 Cl
ENDROOT
BRANCH   6  10
HETATM   10  C8  UNL     1     -31.866   4.633   0.904  1.00 20.00     0.153 C 
HETATM   11 CL11 UNL     1     -32.963   3.980  -0.334  1.00 20.00    -0.126 Cl
ENDBRANCH   6  10
TORSDOF 1
ENDMDL
MODEL 6
REMARK VINA RESULT:       1.4      3.225      4.970
REMARK  1 active torsions:
REMARK  status: ('A' for Active; 'I' for Inactive)
REMARK    1  A    between atoms: C6_6  and  C8_8 
ROOT
HETATM    1  C1  UNL     1     -31.815   8.307   0.841  1.00 20.00     0.099 C 
HETATM    2  C2  UNL     1     -32.773   6.270   1.795  1.00 20.00     0.031 A 
HETATM    3  C3  UNL     1     -32.905   8.342   3.030  1.00 20.00     0.046 A 
HETATM    4  C4  UNL     1     -33.848   6.322   3.958  1.00 20.00     0.032 A 
HETATM    5  C5  UNL     1     -32.503   7.635   1.897  1.00 20.00     0.046 A 
HETATM    6  C6  UNL     1     -33.446   5.614   2.827  1.00 20.00    -0.041 A 
HETATM    7  C7  UNL     1     -33.578   7.687   4.060  1.00 20.00     0.036 A 
HETATM    8  N9  UNL     1     -31.257   8.854  -0.018  1.00 20.00    -0.191 NA
HETATM    9 CL10 UNL     1     -34.078   8.560   5.456  1.00 20.00    -0.084 Cl
ENDROOT
BRANCH   6  10
HETATM   10  C8  UNL     1     -33.736   4.155   2.717  1.00 20.00     0.153 C 
HETATM   11 CL11 UNL     1     -33.653   3.376   4.313  1.00 20.00    -0.126 Cl
ENDBRANCH   6  10
TORSDOF 1
ENDMDL
MODEL 7
REMARK VINA RESULT:       1.5      1.169      1.228
REMARK  1 active torsions:
REMARK  status: ('A' for Active; 'I' for Inactive)
REMARK    1  A    between atoms: C6_6  and  C8_8 
ROOT
HETATM    1  C1  UNL     1     -33.801   7.669   4.377  1.00 20.00     0.099 C 
HETATM    2  C2  UNL     1     -32.663   8.511   2.384  1.00 20.00     0.031 A 
HETATM    3  C3  UNL     1     -33.156   6.154   2.569  1.00 20.00     0.046 A 
HETATM    4  C4  UNL     1     -32.034   7.002   0.605  1.00 20.00     0.032 A 
HETATM    5  C5  UNL     1     -33.202   7.443   3.100  1.00 20.00     0.046 A 
HETATM    6  C6  UNL     1     -32.079   8.291   1.136  1.00 20.00    -0.041 A 
HETATM    7  C7  UNL     1     -32.573   5.933   1.321  1.00 20.00     0.036 A 
HETATM    8  N9  UNL     1     -34.289   7.853   5.414  1.00 20.00    -0.191 NA
HETATM    9 CL10 UNL     1     -32.519   4.344   0.664  1.00 20.00    -0.084 Cl
ENDROOT
BRANCH   6  10
HETATM   10  C8  UNL     1     -31.504   9.434   0.370  1.00 20.00     0.153 C 
HETATM   11 CL11 UNL     1     -32.795  10.399  -0.382  1.00 20.00    -0.126 Cl
ENDBRANCH   6  10
TORSDOF 1
ENDMDL
MODEL 8
REMARK VINA RESULT:       1.6      0.992      3.254
REMARK  1 active torsions:
REMARK  status: ('A' for Active; 'I' for Inactive)
REMARK    1  A    between atoms: C6_6  and  C8_8 
ROOT
HETATM    1  C1  UNL     1     -34.839   6.190   3.962  1.00 20.00     0.099 C 
HETATM    2  C2  UNL     1     -33.343   5.382   2.204  1.00 20.00     0.031 A 
HETATM    3  C3  UNL     1     -33.371   7.733   2.760  1.00 20.00     0.046 A 
HETATM    4  C4  UNL     1     -31.898   6.920   1.027  1.00 20.00     0.032 A 
HETATM    5  C5  UNL     1     -33.843   6.437   2.967  1.00 20.00     0.046 A 
HETATM    6  C6  UNL     1     -32.370   5.624   1.233  1.00 20.00    -0.041 A 
HETATM    7  C7  UNL     1     -32.398   7.974   1.791  1.00 20.00     0.036 A 
HETATM    8  N9  UNL     1     -35.647   5.988   4.770  1.00 20.00    -0.191 NA
HETATM    9 CL10 UNL     1     -31.811   9.572   1.537  1.00 20.00    -0.084 Cl
ENDROOT
BRANCH   6  10
HETATM   10  C8  UNL     1     -31.835   4.495   0.418  1.00 20.00     0.153 C 
HETATM   11 CL11 UNL     1     -33.115   3.788  -0.592  1.00 20.00    -0.126 Cl
ENDBRANCH   6  10
TORSDOF 1
ENDMDL
MODEL 9
REMARK VINA RESULT:       1.7      2.759      4.122
REMARK  1 active torsions:
REMARK  status: ('A' for Active; 'I' for Inactive)
REMARK    1  A    between atoms: C6_6  and  C8_8 
ROOT
HETATM    1  C1  UNL     1     -31.656   4.828   0.564  1.00 20.00     0.099 C 
HETATM    2  C2  UNL     1     -33.006   5.880   2.311  1.00 20.00     0.031 A 
HETATM    3  C3  UNL     1     -31.888   7.260   0.672  1.00 20.00     0.046 A 
HETATM    4  C4  UNL     1     -33.227   8.285   2.402  1.00 20.00     0.032 A 
HETATM    5  C5  UNL     1     -32.187   5.999   1.187  1.00 20.00     0.046 A 
HETATM    6  C6  UNL     1     -33.525   7.024   2.918  1.00 20.00    -0.041 A 
HETATM    7  C7  UNL     1     -32.408   8.403   1.279  1.00 20.00     0.036 A 
HETATM    8  N9  UNL     1     -31.225   3.877   0.057  1.00 20.00    -0.191 NA
HETATM    9 CL10 UNL     1     -32.043   9.960   0.642  1.00 20.00    -0.084 Cl
ENDROOT
BRANCH   6  10
HETATM   10  C8  UNL     1     -34.401   6.897   4.119  1.00 20.00     0.153 C 
HETATM   11 CL11 UNL     1     -33.996   8.138   5.326  1.00 20.00    -0.126 Cl
ENDBRANCH   6  10
TORSDOF 1
ENDMDL
