MODEL 1
REMARK VINA RESULT:      -0.9      0.000      0.000
REMARK  2 active torsions:
REMARK  status: ('A' for Active; 'I' for Inactive)
REMARK    1  A    between atoms: C8_8  and  O11_11 
REMARK    2  A    between atoms: C9_9  and  O11_11 
ROOT
HETATM    1  C1  UNL     1     -34.143   7.625   4.150  1.00 20.00     0.092 C 
HETATM    2  C2  UNL     1     -32.726   7.358   2.360  1.00 20.00     0.027 C 
HETATM    3  C3  UNL     1     -31.527   7.621   1.816  1.00 20.00     0.040 C 
HETATM    4  C4  UNL     1     -34.902   6.345   3.918  1.00 20.00     0.079 C 
HETATM    5  C5  UNL     1     -33.599   6.264   1.794  1.00 20.00     0.090 C 
HETATM    6  C8  UNL     1     -34.207   5.440   2.920  1.00 20.00     0.132 C 
HETATM    7  N10 UNL     1     -33.163   8.088   3.438  1.00 20.00    -0.270 NA
ENDROOT
BRANCH   6   8
HETATM    8  O11 UNL     1     -33.191   4.696   3.591  1.00 20.00    -0.380 OA
BRANCH   8   9
HETATM    9  C9  UNL     1     -33.752   3.757   4.497  1.00 20.00     0.122 A 
HETATM   10  C6  UNL     1     -33.282   2.338   4.353  1.00 20.00     0.034 A 
HETATM   11  C7  UNL     1     -32.806   3.171   5.507  1.00 20.00     0.034 A 
ENDBRANCH   8   9
ENDBRANCH   6   8
TORSDOF 2
ENDMDL
MODEL 2
REMARK VINA RESULT:      -0.8      2.701      5.079
REMARK  2 active torsions:
REMARK  status: ('A' for Active; 'I' for Inactive)
REMARK    1  A    between atoms: C8_8  and  O11_11 
REMARK    2  A    between atoms: C9_9  and  O11_11 
ROOT
HETATM    1  C1  UNL     1     -34.004   6.627   3.506  1.00 20.00     0.092 C 
HETATM    2  C2  UNL     1     -32.868   5.781   1.695  1.00 20.00     0.027 C 
HETATM    3  C3  UNL     1     -32.909   5.027   0.585  1.00 20.00     0.040 C 
HETATM    4  C4  UNL     1     -33.138   7.851   3.654  1.00 20.00     0.079 C 
HETATM    5  C5  UNL     1     -31.722   6.734   1.931  1.00 20.00     0.090 C 
HETATM    6  C8  UNL     1     -32.244   8.067   2.449  1.00 20.00     0.132 C 
HETATM    7  N10 UNL     1     -33.876   5.685   2.625  1.00 20.00    -0.270 NA
ENDROOT
BRANCH   6   8
HETATM    8  O11 UNL     1     -32.986   8.736   1.431  1.00 20.00    -0.380 OA
BRANCH   8   9
HETATM    9  C9  UNL     1     -32.138   9.517   0.601  1.00 20.00     0.122 A 
HETATM   10  C6  UNL     1     -32.675   9.858  -0.759  1.00 20.00     0.034 A 
HETATM   11  C7  UNL     1     -32.608  10.913   0.306  1.00 20.00     0.034 A 
ENDBRANCH   8   9
ENDBRANCH   6   8
TORSDOF 2
ENDMDL
MODEL 3
REMARK VINA RESULT:      -0.5      2.592      5.068
REMARK  2 active torsions:
REMARK  status: ('A' for Active; 'I' for Inactive)
REMARK    1  A    between atoms: C8_8  and  O11_11 
REMARK    2  A    between atoms: C9_9  and  O11_11 
ROOT
HETATM    1  C1  UNL     1     -32.658   8.421   4.397  1.00 20.00     0.092 C 
HETATM    2  C2  UNL     1     -34.173   6.888   3.599  1.00 20.00     0.027 C 
HETATM    3  C3  UNL     1     -35.452   6.484   3.544  1.00 20.00     0.040 C 
HETATM    4  C4  UNL     1     -31.678   8.250   3.266  1.00 20.00     0.079 C 
HETATM    5  C5  UNL     1     -33.158   6.349   2.620  1.00 20.00     0.090 C 
HETATM    6  C8  UNL     1     -32.273   7.477   2.106  1.00 20.00     0.132 C 
HETATM    7  N10 UNL     1     -33.783   7.797   4.552  1.00 20.00    -0.270 NA
ENDROOT
BRANCH   6   8
HETATM    8  O11 UNL     1     -33.032   8.368   1.291  1.00 20.00    -0.380 OA
BRANCH   8   9
HETATM    9  C9  UNL     1     -32.200   9.330   0.662  1.00 20.00     0.122 A 
HETATM   10  C6  UNL     1     -32.693   9.880  -0.645  1.00 20.00     0.034 A 
HETATM   11  C7  UNL     1     -32.746  10.728   0.591  1.00 20.00     0.034 A 
ENDBRANCH   8   9
ENDBRANCH   6   8
TORSDOF 2
ENDMDL
MODEL 4
REMARK VINA RESULT:       0.4      1.106      1.373
REMARK  2 active torsions:
REMARK  status: ('A' for Active; 'I' for Inactive)
REMARK    1  A    between atoms: C8_8  and  O11_11 
REMARK    2  A    between atoms: C9_9  and  O11_11 
ROOT
HETATM    1  C1  UNL     1     -32.799   7.942   2.893  1.00 20.00     0.092 C 
HETATM    2  C2  UNL     1     -32.606   6.072   1.569  1.00 20.00     0.027 C 
HETATM    3  C3  UNL     1     -31.802   5.274   0.848  1.00 20.00     0.040 C 
HETATM    4  C4  UNL     1     -34.001   7.449   3.655  1.00 20.00     0.079 C 
HETATM    5  C5  UNL     1     -33.984   5.607   1.974  1.00 20.00     0.090 C 
HETATM    6  C8  UNL     1     -34.257   5.972   3.426  1.00 20.00     0.132 C 
HETATM    7  N10 UNL     1     -32.173   7.322   1.942  1.00 20.00    -0.270 NA
ENDROOT
BRANCH   6   8
HETATM    8  O11 UNL     1     -33.417   5.212   4.293  1.00 20.00    -0.380 OA
BRANCH   8   9
HETATM    9  C9  UNL     1     -33.932   3.905   4.497  1.00 20.00     0.122 A 
HETATM   10  C6  UNL     1     -33.092   2.774   3.975  1.00 20.00     0.034 A 
HETATM   11  C7  UNL     1     -33.164   3.035   5.451  1.00 20.00     0.034 A 
ENDBRANCH   8   9
ENDBRANCH   6   8
TORSDOF 2
ENDMDL
MODEL 5
REMARK VINA RESULT:       2.0      2.303      4.876
REMARK  2 active torsions:
REMARK  status: ('A' for Active; 'I' for Inactive)
REMARK    1  A    between atoms: C8_8  and  O11_11 
REMARK    2  A    between atoms: C9_9  and  O11_11 
ROOT
HETATM    1  C1  UNL     1     -32.374   4.841   2.592  1.00 20.00     0.092 C 
HETATM    2  C2  UNL     1     -34.207   6.092   3.193  1.00 20.00     0.027 C 
HETATM    3  C3  UNL     1     -34.980   6.562   4.185  1.00 20.00     0.040 C 
HETATM    4  C4  UNL     1     -32.110   5.590   1.311  1.00 20.00     0.079 C 
HETATM    5  C5  UNL     1     -34.295   6.684   1.807  1.00 20.00     0.090 C 
HETATM    6  C8  UNL     1     -32.901   6.880   1.229  1.00 20.00     0.132 C 
HETATM    7  N10 UNL     1     -33.329   5.063   3.439  1.00 20.00    -0.270 NA
ENDROOT
BRANCH   6   8
HETATM    8  O11 UNL     1     -32.208   7.900   1.947  1.00 20.00    -0.380 OA
BRANCH   8   9
HETATM    9  C9  UNL     1     -31.698   8.894   1.071  1.00 20.00     0.122 A 
HETATM   10  C6  UNL     1     -32.503   9.161  -0.168  1.00 20.00     0.034 A 
HETATM   11  C7  UNL     1     -32.510  10.152   0.958  1.00 20.00     0.034 A 
ENDBRANCH   8   9
ENDBRANCH   6   8
TORSDOF 2
ENDMDL
MODEL 6
REMARK VINA RESULT:       2.1      1.730      4.088
REMARK  2 active torsions:
REMARK  status: ('A' for Active; 'I' for Inactive)
REMARK    1  A    between atoms: C8_8  and  O11_11 
REMARK    2  A    between atoms: C9_9  and  O11_11 
ROOT
HETATM    1  C1  UNL     1     -35.718   5.803   4.217  1.00 20.00     0.092 C 
HETATM    2  C2  UNL     1     -33.952   4.340   4.368  1.00 20.00     0.027 C 
HETATM    3  C3  UNL     1     -33.524   3.069   4.289  1.00 20.00     0.040 C 
HETATM    4  C4  UNL     1     -34.880   6.992   3.826  1.00 20.00     0.079 C 
HETATM    5  C5  UNL     1     -32.965   5.482   4.344  1.00 20.00     0.090 C 
HETATM    6  C8  UNL     1     -33.470   6.595   3.437  1.00 20.00     0.132 C 
HETATM    7  N10 UNL     1     -35.296   4.605   4.471  1.00 20.00    -0.270 NA
ENDROOT
BRANCH   6   8
HETATM    8  O11 UNL     1     -33.463   6.165   2.077  1.00 20.00    -0.380 OA
BRANCH   8   9
HETATM    9  C9  UNL     1     -32.800   7.102   1.241  1.00 20.00     0.122 A 
HETATM   10  C6  UNL     1     -32.151   8.265   1.936  1.00 20.00     0.034 A 
HETATM   11  C7  UNL     1     -31.305   7.161   1.373  1.00 20.00     0.034 A 
ENDBRANCH   8   9
ENDBRANCH   6   8
TORSDOF 2
ENDMDL
