MODEL 1
REMARK VINA RESULT:      -1.9      0.000      0.000
REMARK  0 active torsions:
REMARK  status: ('A' for Active; 'I' for Inactive)
ROOT
HETATM    1  C1  UNL     1     -32.290   7.242   1.912  1.00 20.00     0.047 C 
HETATM    2  C2  UNL     1     -32.770   8.022   3.042  1.00 20.00     0.042 C 
HETATM    3  C3  UNL     1     -34.895   5.401   4.548  1.00 20.00     0.010 C 
HETATM    4  C4  UNL     1     -34.368   4.199   4.293  1.00 20.00     0.114 C 
HETATM    5  C5  UNL     1     -32.634   5.956   1.764  1.00 20.00     0.142 C 
HETATM    6  C6  UNL     1     -33.798   7.594   3.794  1.00 20.00     0.107 C 
HETATM    7  C7  UNL     1     -33.540   5.386   2.773  1.00 20.00     0.087 C 
HETATM    8  C8  UNL     1     -34.521   6.334   3.453  1.00 20.00     0.127 C 
HETATM    9  N9  UNL     1     -33.545   4.162   3.198  1.00 20.00    -0.262 NA
HETATM   10  F10 UNL     1     -32.127   5.140   0.828  1.00 20.00    -0.204 F 
HETATM   11  F11 UNL     1     -34.211   8.346   4.837  1.00 20.00    -0.210 F 
ENDROOT
TORSDOF 0
ENDMDL
MODEL 2
REMARK VINA RESULT:      -1.1      1.493      2.920
REMARK  0 active torsions:
REMARK  status: ('A' for Active; 'I' for Inactive)
ROOT
HETATM    1  C1  UNL     1     -35.026   5.041   4.375  1.00 20.00     0.047 C 
HETATM    2  C2  UNL     1     -35.365   6.453   4.286  1.00 20.00     0.042 C 
HETATM    3  C3  UNL     1     -32.588   7.457   2.064  1.00 20.00     0.010 C 
HETATM    4  C4  UNL     1     -32.266   6.435   1.263  1.00 20.00     0.114 C 
HETATM    5  C5  UNL     1     -33.996   4.532   3.688  1.00 20.00     0.142 C 
HETATM    6  C6  UNL     1     -34.499   7.343   3.772  1.00 20.00     0.107 C 
HETATM    7  C7  UNL     1     -33.211   5.469   2.870  1.00 20.00     0.087 C 
HETATM    8  C8  UNL     1     -33.136   6.918   3.337  1.00 20.00     0.127 C 
HETATM    9  N9  UNL     1     -32.625   5.203   1.745  1.00 20.00    -0.262 NA
HETATM   10  F10 UNL     1     -33.707   3.224   3.615  1.00 20.00    -0.204 F 
HETATM   11  F11 UNL     1     -34.852   8.645   3.702  1.00 20.00    -0.210 F 
ENDROOT
TORSDOF 0
ENDMDL
MODEL 3
REMARK VINA RESULT:      -0.8      1.611      4.172
REMARK  0 active torsions:
REMARK  status: ('A' for Active; 'I' for Inactive)
ROOT
HETATM    1  C1  UNL     1     -34.442   6.018   3.833  1.00 20.00     0.047 C 
HETATM    2  C2  UNL     1     -33.872   5.153   2.813  1.00 20.00     0.042 C 
HETATM    3  C3  UNL     1     -31.606   7.651   1.301  1.00 20.00     0.010 C 
HETATM    4  C4  UNL     1     -31.208   8.517   2.239  1.00 20.00     0.114 C 
HETATM    5  C5  UNL     1     -34.022   7.281   3.984  1.00 20.00     0.142 C 
HETATM    6  C6  UNL     1     -33.143   5.659   1.803  1.00 20.00     0.107 C 
HETATM    7  C7  UNL     1     -32.987   7.756   3.053  1.00 20.00     0.087 C 
HETATM    8  C8  UNL     1     -32.952   7.133   1.663  1.00 20.00     0.127 C 
HETATM    9  N9  UNL     1     -32.049   8.610   3.318  1.00 20.00    -0.262 NA
HETATM   10  F10 UNL     1     -34.403   8.091   4.983  1.00 20.00    -0.204 F 
HETATM   11  F11 UNL     1     -32.626   4.822   0.877  1.00 20.00    -0.210 F 
ENDROOT
TORSDOF 0
ENDMDL
MODEL 4
REMARK VINA RESULT:      -0.8      1.676      3.099
REMARK  0 active torsions:
REMARK  status: ('A' for Active; 'I' for Inactive)
ROOT
HETATM    1  C1  UNL     1     -31.544   7.899   1.873  1.00 20.00     0.047 C 
HETATM    2  C2  UNL     1     -32.090   6.863   1.012  1.00 20.00     0.042 C 
HETATM    3  C3  UNL     1     -34.657   5.616   3.360  1.00 20.00     0.010 C 
HETATM    4  C4  UNL     1     -35.079   6.620   4.136  1.00 20.00     0.114 C 
HETATM    5  C5  UNL     1     -32.068   8.143   3.081  1.00 20.00     0.142 C 
HETATM    6  C6  UNL     1     -32.919   5.922   1.498  1.00 20.00     0.107 C 
HETATM    7  C7  UNL     1     -33.194   7.296   3.504  1.00 20.00     0.087 C 
HETATM    8  C8  UNL     1     -33.252   5.876   2.953  1.00 20.00     0.127 C 
HETATM    9  N9  UNL     1     -34.189   7.657   4.252  1.00 20.00    -0.262 NA
HETATM   10  F10 UNL     1     -31.706   9.165   3.871  1.00 20.00    -0.204 F 
HETATM   11  F11 UNL     1     -33.409   4.979   0.666  1.00 20.00    -0.210 F 
ENDROOT
TORSDOF 0
ENDMDL
MODEL 5
REMARK VINA RESULT:      -0.5      1.637      3.177
REMARK  0 active torsions:
REMARK  status: ('A' for Active; 'I' for Inactive)
ROOT
HETATM    1  C1  UNL     1     -33.595   5.242   2.594  1.00 20.00     0.047 C 
HETATM    2  C2  UNL     1     -34.234   6.191   3.492  1.00 20.00     0.042 C 
HETATM    3  C3  UNL     1     -32.404   9.198   2.365  1.00 20.00     0.010 C 
HETATM    4  C4  UNL     1     -32.095   9.073   1.070  1.00 20.00     0.114 C 
HETATM    5  C5  UNL     1     -32.696   5.645   1.687  1.00 20.00     0.142 C 
HETATM    6  C6  UNL     1     -33.738   7.429   3.660  1.00 20.00     0.107 C 
HETATM    7  C7  UNL     1     -32.365   7.077   1.666  1.00 20.00     0.087 C 
HETATM    8  C8  UNL     1     -32.477   7.845   2.977  1.00 20.00     0.127 C 
HETATM    9  N9  UNL     1     -32.050   7.778   0.622  1.00 20.00    -0.262 NA
HETATM   10  F10 UNL     1     -32.169   4.853   0.741  1.00 20.00    -0.204 F 
HETATM   11  F11 UNL     1     -34.362   8.283   4.499  1.00 20.00    -0.210 F 
ENDROOT
TORSDOF 0
ENDMDL
MODEL 6
REMARK VINA RESULT:      -0.2      1.732      3.815
REMARK  0 active torsions:
REMARK  status: ('A' for Active; 'I' for Inactive)
ROOT
HETATM    1  C1  UNL     1     -35.048   6.485   4.433  1.00 20.00     0.047 C 
HETATM    2  C2  UNL     1     -34.590   5.107   4.353  1.00 20.00     0.042 C 
HETATM    3  C3  UNL     1     -32.171   5.582   1.600  1.00 20.00     0.010 C 
HETATM    4  C4  UNL     1     -31.667   6.820   1.657  1.00 20.00     0.114 C 
HETATM    5  C5  UNL     1     -34.515   7.437   3.657  1.00 20.00     0.142 C 
HETATM    6  C6  UNL     1     -33.855   4.679   3.311  1.00 20.00     0.107 C 
HETATM    7  C7  UNL     1     -33.476   7.019   2.704  1.00 20.00     0.087 C 
HETATM    8  C8  UNL     1     -33.542   5.592   2.172  1.00 20.00     0.127 C 
HETATM    9  N9  UNL     1     -32.459   7.723   2.317  1.00 20.00    -0.262 NA
HETATM   10  F10 UNL     1     -34.790   8.746   3.768  1.00 20.00    -0.204 F 
HETATM   11  F11 UNL     1     -33.445   3.393   3.275  1.00 20.00    -0.210 F 
ENDROOT
TORSDOF 0
ENDMDL
MODEL 7
REMARK VINA RESULT:      -0.1      1.381      1.779
REMARK  0 active torsions:
REMARK  status: ('A' for Active; 'I' for Inactive)
ROOT
HETATM    1  C1  UNL     1     -31.741   6.485   1.031  1.00 20.00     0.047 C 
HETATM    2  C2  UNL     1     -31.303   7.562   1.905  1.00 20.00     0.042 C 
HETATM    3  C3  UNL     1     -34.184   7.479   4.219  1.00 20.00     0.010 C 
HETATM    4  C4  UNL     1     -34.654   6.230   4.301  1.00 20.00     0.114 C 
HETATM    5  C5  UNL     1     -32.865   5.802   1.283  1.00 20.00     0.142 C 
HETATM    6  C6  UNL     1     -32.141   8.111   2.801  1.00 20.00     0.107 C 
HETATM    7  C7  UNL     1     -33.646   6.213   2.459  1.00 20.00     0.087 C 
HETATM    8  C8  UNL     1     -33.567   7.676   2.881  1.00 20.00     0.127 C 
HETATM    9  N9  UNL     1     -34.350   5.438   3.224  1.00 20.00    -0.262 NA
HETATM   10  F10 UNL     1     -33.259   4.715   0.602  1.00 20.00    -0.204 F 
HETATM   11  F11 UNL     1     -31.695   9.106   3.598  1.00 20.00    -0.210 F 
ENDROOT
TORSDOF 0
ENDMDL
MODEL 8
REMARK VINA RESULT:       0.4      1.012      2.997
REMARK  0 active torsions:
REMARK  status: ('A' for Active; 'I' for Inactive)
ROOT
HETATM    1  C1  UNL     1     -32.868   8.133   2.572  1.00 20.00     0.047 C 
HETATM    2  C2  UNL     1     -32.586   7.089   1.599  1.00 20.00     0.042 C 
HETATM    3  C3  UNL     1     -34.135   4.294   3.454  1.00 20.00     0.010 C 
HETATM    4  C4  UNL     1     -35.156   4.754   4.184  1.00 20.00     0.114 C 
HETATM    5  C5  UNL     1     -33.563   7.870   3.686  1.00 20.00     0.142 C 
HETATM    6  C6  UNL     1     -32.734   5.790   1.911  1.00 20.00     0.107 C 
HETATM    7  C7  UNL     1     -33.996   6.479   3.891  1.00 20.00     0.087 C 
HETATM    8  C8  UNL     1     -33.131   5.378   3.290  1.00 20.00     0.127 C 
HETATM    9  N9  UNL     1     -35.084   6.091   4.478  1.00 20.00    -0.262 NA
HETATM   10  F10 UNL     1     -33.976   8.802   4.558  1.00 20.00    -0.204 F 
HETATM   11  F11 UNL     1     -32.466   4.851   0.979  1.00 20.00    -0.210 F 
ENDROOT
TORSDOF 0
ENDMDL
MODEL 9
REMARK VINA RESULT:       0.7      2.162      2.935
REMARK  0 active torsions:
REMARK  status: ('A' for Active; 'I' for Inactive)
ROOT
HETATM    1  C1  UNL     1     -33.462   8.415   3.531  1.00 20.00     0.047 C 
HETATM    2  C2  UNL     1     -34.106   7.273   4.161  1.00 20.00     0.042 C 
HETATM    3  C3  UNL     1     -33.045   4.728   1.701  1.00 20.00     0.010 C 
HETATM    4  C4  UNL     1     -31.858   5.071   1.188  1.00 20.00     0.114 C 
HETATM    5  C5  UNL     1     -32.713   8.267   2.431  1.00 20.00     0.142 C 
HETATM    6  C6  UNL     1     -34.233   6.103   3.512  1.00 20.00     0.107 C 
HETATM    7  C7  UNL     1     -32.602   6.910   1.877  1.00 20.00     0.087 C 
HETATM    8  C8  UNL     1     -33.774   5.961   2.099  1.00 20.00     0.127 C 
HETATM    9  N9  UNL     1     -31.571   6.409   1.270  1.00 20.00    -0.262 NA
HETATM   10  F10 UNL     1     -31.983   9.246   1.875  1.00 20.00    -0.204 F 
HETATM   11  F11 UNL     1     -34.833   5.065   4.132  1.00 20.00    -0.210 F 
ENDROOT
TORSDOF 0
ENDMDL
