MODEL 1
REMARK VINA RESULT:      -2.6      0.000      0.000
REMARK  2 active torsions:
REMARK  status: ('A' for Active; 'I' for Inactive)
REMARK    1  A    between atoms: C1_1  and  C4_4 
REMARK    2  A    between atoms: C4_4  and  C5_5 
ROOT
HETATM    1  C2  UNL     1     -31.464   8.019   2.194  1.00 20.00     0.027 A 
HETATM    2  C3  UNL     1     -32.635   8.411   1.346  1.00 20.00     0.027 A 
HETATM    3  C4  UNL     1     -32.762   7.247   2.307  1.00 20.00     0.110 A 
ENDROOT
BRANCH   3   4
HETATM    4  C1  UNL     1     -33.572   7.470   3.528  1.00 20.00     0.249 C 
HETATM    5  O6  UNL     1     -34.649   6.919   3.735  1.00 20.00    -0.306 OA
ENDBRANCH   3   4
BRANCH   3   6
HETATM    6  C5  UNL     1     -32.791   5.863   1.709  1.00 20.00     0.401 C 
HETATM    7  F7  UNL     1     -33.637   5.811   0.661  1.00 20.00    -0.170 F 
HETATM    8  F8  UNL     1     -31.565   5.503   1.276  1.00 20.00    -0.170 F 
HETATM    9  F9  UNL     1     -33.196   4.955   2.620  1.00 20.00    -0.170 F 
ENDBRANCH   3   6
TORSDOF 2
ENDMDL
MODEL 2
REMARK VINA RESULT:      -2.3      1.991      2.694
REMARK  2 active torsions:
REMARK  status: ('A' for Active; 'I' for Inactive)
REMARK    1  A    between atoms: C1_1  and  C4_4 
REMARK    2  A    between atoms: C4_4  and  C5_5 
ROOT
HETATM    1  C2  UNL     1     -33.060   5.855   0.775  1.00 20.00     0.027 A 
HETATM    2  C3  UNL     1     -32.009   5.407   1.745  1.00 20.00     0.027 A 
HETATM    3  C4  UNL     1     -32.794   6.673   2.022  1.00 20.00     0.110 A 
ENDROOT
BRANCH   3   4
HETATM    4  C1  UNL     1     -33.813   6.608   3.097  1.00 20.00     0.249 C 
HETATM    5  O6  UNL     1     -33.974   7.495   3.930  1.00 20.00    -0.306 OA
ENDBRANCH   3   4
BRANCH   3   6
HETATM    6  C5  UNL     1     -32.069   7.982   1.842  1.00 20.00     0.401 C 
HETATM    7  F7  UNL     1     -31.095   7.869   0.917  1.00 20.00    -0.170 F 
HETATM    8  F8  UNL     1     -32.919   8.949   1.440  1.00 20.00    -0.170 F 
HETATM    9  F9  UNL     1     -31.502   8.379   2.999  1.00 20.00    -0.170 F 
ENDBRANCH   3   6
TORSDOF 2
ENDMDL
MODEL 3
REMARK VINA RESULT:      -2.3      2.185      2.799
REMARK  2 active torsions:
REMARK  status: ('A' for Active; 'I' for Inactive)
REMARK    1  A    between atoms: C1_1  and  C4_4 
REMARK    2  A    between atoms: C4_4  and  C5_5 
ROOT
HETATM    1  C2  UNL     1     -32.300   5.377   1.831  1.00 20.00     0.027 A 
HETATM    2  C3  UNL     1     -33.474   5.734   0.970  1.00 20.00     0.027 A 
HETATM    3  C4  UNL     1     -33.137   6.593   2.171  1.00 20.00     0.110 A 
ENDROOT
BRANCH   3   4
HETATM    4  C1  UNL     1     -32.535   7.920   1.900  1.00 20.00     0.249 C 
HETATM    5  O6  UNL     1     -31.413   8.244   2.277  1.00 20.00    -0.306 OA
ENDBRANCH   3   4
BRANCH   3   6
HETATM    6  C5  UNL     1     -34.047   6.486   3.368  1.00 20.00     0.401 C 
HETATM    7  F7  UNL     1     -35.326   6.738   3.022  1.00 20.00    -0.170 F 
HETATM    8  F8  UNL     1     -33.994   5.247   3.901  1.00 20.00    -0.170 F 
HETATM    9  F9  UNL     1     -33.691   7.368   4.323  1.00 20.00    -0.170 F 
ENDBRANCH   3   6
TORSDOF 2
ENDMDL
MODEL 4
REMARK VINA RESULT:      -2.2      1.679      2.322
REMARK  2 active torsions:
REMARK  status: ('A' for Active; 'I' for Inactive)
REMARK    1  A    between atoms: C1_1  and  C4_4 
REMARK    2  A    between atoms: C4_4  and  C5_5 
ROOT
HETATM    1  C2  UNL     1     -33.883   7.199   4.074  1.00 20.00     0.027 A 
HETATM    2  C3  UNL     1     -35.083   6.828   3.258  1.00 20.00     0.027 A 
HETATM    3  C4  UNL     1     -33.805   6.026   3.119  1.00 20.00     0.110 A 
ENDROOT
BRANCH   3   4
HETATM    4  C1  UNL     1     -33.795   4.671   3.719  1.00 20.00     0.249 C 
HETATM    5  O6  UNL     1     -34.684   4.249   4.453  1.00 20.00    -0.306 OA
ENDBRANCH   3   4
BRANCH   3   6
HETATM    6  C5  UNL     1     -33.006   6.222   1.856  1.00 20.00     0.401 C 
HETATM    7  F7  UNL     1     -33.785   6.067   0.766  1.00 20.00    -0.170 F 
HETATM    8  F8  UNL     1     -32.471   7.460   1.815  1.00 20.00    -0.170 F 
HETATM    9  F9  UNL     1     -32.000   5.328   1.781  1.00 20.00    -0.170 F 
ENDBRANCH   3   6
TORSDOF 2
ENDMDL
MODEL 5
REMARK VINA RESULT:      -2.1      2.184      2.810
REMARK  2 active torsions:
REMARK  status: ('A' for Active; 'I' for Inactive)
REMARK    1  A    between atoms: C1_1  and  C4_4 
REMARK    2  A    between atoms: C4_4  and  C5_5 
ROOT
HETATM    1  C2  UNL     1     -32.685   8.382   1.401  1.00 20.00     0.027 A 
HETATM    2  C3  UNL     1     -31.533   8.092   2.315  1.00 20.00     0.027 A 
HETATM    3  C4  UNL     1     -32.767   7.214   2.362  1.00 20.00     0.110 A 
ENDROOT
BRANCH   3   4
HETATM    4  C1  UNL     1     -32.645   5.856   1.780  1.00 20.00     0.249 C 
HETATM    5  O6  UNL     1     -33.224   5.504   0.756  1.00 20.00    -0.306 OA
ENDBRANCH   3   4
BRANCH   3   6
HETATM    6  C5  UNL     1     -33.675   7.369   3.554  1.00 20.00     0.401 C 
HETATM    7  F7  UNL     1     -34.647   8.270   3.304  1.00 20.00    -0.170 F 
HETATM    8  F8  UNL     1     -34.262   6.195   3.866  1.00 20.00    -0.170 F 
HETATM    9  F9  UNL     1     -32.983   7.790   4.632  1.00 20.00    -0.170 F 
ENDBRANCH   3   6
TORSDOF 2
ENDMDL
MODEL 6
REMARK VINA RESULT:      -2.0      1.474      2.444
REMARK  2 active torsions:
REMARK  status: ('A' for Active; 'I' for Inactive)
REMARK    1  A    between atoms: C1_1  and  C4_4 
REMARK    2  A    between atoms: C4_4  and  C5_5 
ROOT
HETATM    1  C2  UNL     1     -34.199   7.694   2.922  1.00 20.00     0.027 A 
HETATM    2  C3  UNL     1     -33.108   7.300   3.872  1.00 20.00     0.027 A 
HETATM    3  C4  UNL     1     -32.870   7.209   2.378  1.00 20.00     0.110 A 
ENDROOT
BRANCH   3   4
HETATM    4  C1  UNL     1     -31.977   8.228   1.778  1.00 20.00     0.249 C 
HETATM    5  O6  UNL     1     -32.327   8.991   0.882  1.00 20.00    -0.306 OA
ENDBRANCH   3   4
BRANCH   3   6
HETATM    6  C5  UNL     1     -32.840   5.829   1.772  1.00 20.00     0.401 C 
HETATM    7  F7  UNL     1     -33.305   4.911   2.643  1.00 20.00    -0.170 F 
HETATM    8  F8  UNL     1     -33.604   5.777   0.661  1.00 20.00    -0.170 F 
HETATM    9  F9  UNL     1     -31.583   5.482   1.431  1.00 20.00    -0.170 F 
ENDBRANCH   3   6
TORSDOF 2
ENDMDL
MODEL 7
REMARK VINA RESULT:      -1.8      2.779      3.368
REMARK  2 active torsions:
REMARK  status: ('A' for Active; 'I' for Inactive)
REMARK    1  A    between atoms: C1_1  and  C4_4 
REMARK    2  A    between atoms: C4_4  and  C5_5 
ROOT
HETATM    1  C2  UNL     1     -33.732   5.822   1.727  1.00 20.00     0.027 A 
HETATM    2  C3  UNL     1     -32.803   6.653   2.559  1.00 20.00     0.027 A 
HETATM    3  C4  UNL     1     -33.832   5.772   3.238  1.00 20.00     0.110 A 
ENDROOT
BRANCH   3   4
HETATM    4  C1  UNL     1     -33.331   4.547   3.904  1.00 20.00     0.249 C 
HETATM    5  O6  UNL     1     -34.020   3.548   4.090  1.00 20.00    -0.306 OA
ENDBRANCH   3   4
BRANCH   3   6
HETATM    6  C5  UNL     1     -35.015   6.461   3.870  1.00 20.00     0.401 C 
HETATM    7  F7  UNL     1     -35.916   6.824   2.934  1.00 20.00    -0.170 F 
HETATM    8  F8  UNL     1     -35.630   5.645   4.750  1.00 20.00    -0.170 F 
HETATM    9  F9  UNL     1     -34.627   7.572   4.529  1.00 20.00    -0.170 F 
ENDBRANCH   3   6
TORSDOF 2
ENDMDL
MODEL 8
REMARK VINA RESULT:      -1.8      2.769      3.415
REMARK  2 active torsions:
REMARK  status: ('A' for Active; 'I' for Inactive)
REMARK    1  A    between atoms: C1_1  and  C4_4 
REMARK    2  A    between atoms: C4_4  and  C5_5 
ROOT
HETATM    1  C2  UNL     1     -33.720   5.837   1.722  1.00 20.00     0.027 A 
HETATM    2  C3  UNL     1     -32.794   6.665   2.560  1.00 20.00     0.027 A 
HETATM    3  C4  UNL     1     -33.821   5.777   3.232  1.00 20.00     0.110 A 
ENDROOT
BRANCH   3   4
HETATM    4  C1  UNL     1     -33.317   4.548   3.891  1.00 20.00     0.249 C 
HETATM    5  O6  UNL     1     -34.023   3.574   4.137  1.00 20.00    -0.306 OA
ENDBRANCH   3   4
BRANCH   3   6
HETATM    6  C5  UNL     1     -35.006   6.459   3.868  1.00 20.00     0.401 C 
HETATM    7  F7  UNL     1     -35.621   5.637   4.742  1.00 20.00    -0.170 F 
HETATM    8  F8  UNL     1     -34.620   7.567   4.535  1.00 20.00    -0.170 F 
HETATM    9  F9  UNL     1     -35.906   6.825   2.934  1.00 20.00    -0.170 F 
ENDBRANCH   3   6
TORSDOF 2
ENDMDL
MODEL 9
REMARK VINA RESULT:      -1.6      1.951      2.627
REMARK  2 active torsions:
REMARK  status: ('A' for Active; 'I' for Inactive)
REMARK    1  A    between atoms: C1_1  and  C4_4 
REMARK    2  A    between atoms: C4_4  and  C5_5 
ROOT
HETATM    1  C2  UNL     1     -33.595   7.612   4.496  1.00 20.00     0.027 A 
HETATM    2  C3  UNL     1     -34.578   8.004   3.435  1.00 20.00     0.027 A 
HETATM    3  C4  UNL     1     -33.376   7.159   3.066  1.00 20.00     0.110 A 
ENDROOT
BRANCH   3   4
HETATM    4  C1  UNL     1     -33.627   5.729   2.769  1.00 20.00     0.249 C 
HETATM    5  O6  UNL     1     -33.828   4.883   3.635  1.00 20.00    -0.306 OA
ENDBRANCH   3   4
BRANCH   3   6
HETATM    6  C5  UNL     1     -32.273   7.837   2.294  1.00 20.00     0.401 C 
HETATM    7  F7  UNL     1     -32.776   8.753   1.442  1.00 20.00    -0.170 F 
HETATM    8  F8  UNL     1     -31.419   8.465   3.128  1.00 20.00    -0.170 F 
HETATM    9  F9  UNL     1     -31.570   6.939   1.574  1.00 20.00    -0.170 F 
ENDBRANCH   3   6
TORSDOF 2
ENDMDL
