MODEL 1
REMARK VINA RESULT:      -2.0      0.000      0.000
REMARK  1 active torsions:
REMARK  status: ('A' for Active; 'I' for Inactive)
REMARK    1  A    between atoms: C3_3  and  C6_6 
ROOT
HETATM    1  C1  UNL     1     -33.001   8.196   2.917  1.00 20.00     0.068 A 
HETATM    2  C2  UNL     1     -32.485   6.391   1.458  1.00 20.00     0.126 A 
HETATM    3  C3  UNL     1     -32.355   7.733   1.777  1.00 20.00    -0.023 A 
HETATM    4  C4  UNL     1     -33.747   7.317   3.693  1.00 20.00     0.212 A 
HETATM    5  C5  UNL     1     -33.816   5.993   3.288  1.00 20.00     0.175 A 
HETATM    6  N7  UNL     1     -33.202   5.506   2.187  1.00 20.00    -0.244 NA
HETATM    7  O8  UNL     1     -34.342   7.749   4.744  1.00 20.00    -0.285 OA
HETATM    8 CL9  UNL     1     -34.699   4.772   4.137  1.00 20.00    -0.058 Cl
ENDROOT
BRANCH   3   9
HETATM    9  C6  UNL     1     -31.548   8.648   0.926  1.00 20.00     0.154 C 
HETATM   10 CL10 UNL     1     -32.559   9.957   0.270  1.00 20.00    -0.126 Cl
ENDBRANCH   3   9
TORSDOF 1
ENDMDL
MODEL 2
REMARK VINA RESULT:      -1.1      2.142      4.581
REMARK  1 active torsions:
REMARK  status: ('A' for Active; 'I' for Inactive)
REMARK    1  A    between atoms: C3_3  and  C6_6 
ROOT
HETATM    1  C1  UNL     1     -33.155   5.206   2.525  1.00 20.00     0.068 A 
HETATM    2  C2  UNL     1     -34.135   6.958   3.800  1.00 20.00     0.126 A 
HETATM    3  C3  UNL     1     -33.979   5.600   3.573  1.00 20.00    -0.023 A 
HETATM    4  C4  UNL     1     -32.520   6.168   1.747  1.00 20.00     0.212 A 
HETATM    5  C5  UNL     1     -32.741   7.501   2.056  1.00 20.00     0.175 A 
HETATM    6  N7  UNL     1     -33.535   7.922   3.066  1.00 20.00    -0.244 NA
HETATM    7  O8  UNL     1     -31.761   5.801   0.782  1.00 20.00    -0.285 OA
HETATM    8 CL9  UNL     1     -32.031   8.820   1.191  1.00 20.00    -0.058 Cl
ENDROOT
BRANCH   3   9
HETATM    9  C6  UNL     1     -34.672   4.597   4.424  1.00 20.00     0.154 C 
HETATM   10 CL10 UNL     1     -33.639   3.171   4.689  1.00 20.00    -0.126 Cl
ENDBRANCH   3   9
TORSDOF 1
ENDMDL
MODEL 3
REMARK VINA RESULT:      -0.8      1.705      2.100
REMARK  1 active torsions:
REMARK  status: ('A' for Active; 'I' for Inactive)
REMARK    1  A    between atoms: C3_3  and  C6_6 
ROOT
HETATM    1  C1  UNL     1     -32.359   6.608   1.467  1.00 20.00     0.068 A 
HETATM    2  C2  UNL     1     -33.073   8.331   2.942  1.00 20.00     0.126 A 
HETATM    3  C3  UNL     1     -32.318   7.945   1.846  1.00 20.00    -0.023 A 
HETATM    4  C4  UNL     1     -33.142   5.711   2.184  1.00 20.00     0.212 A 
HETATM    5  C5  UNL     1     -33.859   6.197   3.265  1.00 20.00     0.175 A 
HETATM    6  N7  UNL     1     -33.845   7.489   3.664  1.00 20.00    -0.244 NA
HETATM    7  O8  UNL     1     -33.176   4.479   1.831  1.00 20.00    -0.285 OA
HETATM    8 CL9  UNL     1     -34.879   5.218   4.262  1.00 20.00    -0.058 Cl
ENDROOT
BRANCH   3   9
HETATM    9  C6  UNL     1     -31.492   8.930   1.099  1.00 20.00     0.154 C 
HETATM   10 CL10 UNL     1     -32.523  10.085   0.222  1.00 20.00    -0.126 Cl
ENDBRANCH   3   9
TORSDOF 1
ENDMDL
MODEL 4
REMARK VINA RESULT:      -0.5      1.529      4.096
REMARK  1 active torsions:
REMARK  status: ('A' for Active; 'I' for Inactive)
REMARK    1  A    between atoms: C3_3  and  C6_6 
ROOT
HETATM    1  C1  UNL     1     -34.167   6.323   3.934  1.00 20.00     0.068 A 
HETATM    2  C2  UNL     1     -32.947   5.033   2.352  1.00 20.00     0.126 A 
HETATM    3  C3  UNL     1     -33.783   5.075   3.456  1.00 20.00    -0.023 A 
HETATM    4  C4  UNL     1     -33.711   7.474   3.302  1.00 20.00     0.212 A 
HETATM    5  C5  UNL     1     -32.878   7.325   2.205  1.00 20.00     0.175 A 
HETATM    6  N7  UNL     1     -32.482   6.129   1.712  1.00 20.00    -0.244 NA
HETATM    7  O8  UNL     1     -34.068   8.622   3.747  1.00 20.00    -0.285 OA
HETATM    8 CL9  UNL     1     -32.222   8.650   1.307  1.00 20.00    -0.058 Cl
ENDROOT
BRANCH   3   9
HETATM    9  C6  UNL     1     -34.254   3.825   4.108  1.00 20.00     0.154 C 
HETATM   10 CL10 UNL     1     -32.900   2.962   4.875  1.00 20.00    -0.126 Cl
ENDBRANCH   3   9
TORSDOF 1
ENDMDL
MODEL 5
REMARK VINA RESULT:       0.1      1.474      4.028
REMARK  1 active torsions:
REMARK  status: ('A' for Active; 'I' for Inactive)
REMARK    1  A    between atoms: C3_3  and  C6_6 
ROOT
HETATM    1  C1  UNL     1     -33.324   7.176   3.780  1.00 20.00     0.068 A 
HETATM    2  C2  UNL     1     -33.437   5.628   1.977  1.00 20.00     0.126 A 
HETATM    3  C3  UNL     1     -33.799   5.973   3.270  1.00 20.00    -0.023 A 
HETATM    4  C4  UNL     1     -32.513   7.986   2.993  1.00 20.00     0.212 A 
HETATM    5  C5  UNL     1     -32.208   7.552   1.713  1.00 20.00     0.175 A 
HETATM    6  N7  UNL     1     -32.651   6.389   1.183  1.00 20.00    -0.244 NA
HETATM    7  O8  UNL     1     -32.077   9.094   3.468  1.00 20.00    -0.285 OA
HETATM    8 CL9  UNL     1     -31.215   8.437   0.607  1.00 20.00    -0.058 Cl
ENDROOT
BRANCH   3   9
HETATM    9  C6  UNL     1     -34.669   5.083   4.084  1.00 20.00     0.154 C 
HETATM   10 CL10 UNL     1     -33.844   3.548   4.443  1.00 20.00    -0.126 Cl
ENDBRANCH   3   9
TORSDOF 1
ENDMDL
MODEL 6
REMARK VINA RESULT:       0.2      2.429      3.033
REMARK  1 active torsions:
REMARK  status: ('A' for Active; 'I' for Inactive)
REMARK    1  A    between atoms: C3_3  and  C6_6 
ROOT
HETATM    1  C1  UNL     1     -33.783   5.417   2.442  1.00 20.00     0.068 A 
HETATM    2  C2  UNL     1     -32.169   7.079   1.901  1.00 20.00     0.126 A 
HETATM    3  C3  UNL     1     -32.743   5.848   1.625  1.00 20.00    -0.023 A 
HETATM    4  C4  UNL     1     -34.211   6.219   3.493  1.00 20.00     0.212 A 
HETATM    5  C5  UNL     1     -33.572   7.433   3.686  1.00 20.00     0.175 A 
HETATM    6  N7  UNL     1     -32.558   7.885   2.914  1.00 20.00    -0.244 NA
HETATM    7  O8  UNL     1     -35.170   5.817   4.244  1.00 20.00    -0.285 OA
HETATM    8 CL9  UNL     1     -33.981   8.547   4.945  1.00 20.00    -0.058 Cl
ENDROOT
BRANCH   3   9
HETATM    9  C6  UNL     1     -32.261   5.016   0.491  1.00 20.00     0.154 C 
HETATM   10 CL10 UNL     1     -33.621   4.204  -0.321  1.00 20.00    -0.126 Cl
ENDBRANCH   3   9
TORSDOF 1
ENDMDL
MODEL 7
REMARK VINA RESULT:       0.7      2.750      3.534
REMARK  1 active torsions:
REMARK  status: ('A' for Active; 'I' for Inactive)
REMARK    1  A    between atoms: C3_3  and  C6_6 
ROOT
HETATM    1  C1  UNL     1     -32.751   7.831   2.687  1.00 20.00     0.068 A 
HETATM    2  C2  UNL     1     -33.937   5.854   3.272  1.00 20.00     0.126 A 
HETATM    3  C3  UNL     1     -33.674   7.194   3.508  1.00 20.00    -0.023 A 
HETATM    4  C4  UNL     1     -32.127   7.119   1.668  1.00 20.00     0.212 A 
HETATM    5  C5  UNL     1     -32.458   5.782   1.514  1.00 20.00     0.175 A 
HETATM    6  N7  UNL     1     -33.350   5.129   2.293  1.00 20.00    -0.244 NA
HETATM    7  O8  UNL     1     -31.276   7.710   0.914  1.00 20.00    -0.285 OA
HETATM    8 CL9  UNL     1     -31.777   4.755   0.301  1.00 20.00    -0.058 Cl
ENDROOT
BRANCH   3   9
HETATM    9  C6  UNL     1     -34.359   7.927   4.605  1.00 20.00     0.154 C 
HETATM   10 CL10 UNL     1     -33.179   8.557   5.779  1.00 20.00    -0.126 Cl
ENDBRANCH   3   9
TORSDOF 1
ENDMDL
MODEL 8
REMARK VINA RESULT:       0.8      2.449      3.161
REMARK  1 active torsions:
REMARK  status: ('A' for Active; 'I' for Inactive)
REMARK    1  A    between atoms: C3_3  and  C6_6 
ROOT
HETATM    1  C1  UNL     1     -32.054   6.830   1.539  1.00 20.00     0.068 A 
HETATM    2  C2  UNL     1     -33.646   5.288   2.400  1.00 20.00     0.126 A 
HETATM    3  C3  UNL     1     -32.681   5.592   1.453  1.00 20.00    -0.023 A 
HETATM    4  C4  UNL     1     -32.405   7.712   2.554  1.00 20.00     0.212 A 
HETATM    5  C5  UNL     1     -33.382   7.313   3.451  1.00 20.00     0.175 A 
HETATM    6  N7  UNL     1     -34.015   6.119   3.400  1.00 20.00    -0.244 NA
HETATM    7  O8  UNL     1     -31.823   8.853   2.629  1.00 20.00    -0.285 OA
HETATM    8 CL9  UNL     1     -33.936   8.288   4.769  1.00 20.00    -0.058 Cl
ENDROOT
BRANCH   3   9
HETATM    9  C6  UNL     1     -32.328   4.625   0.381  1.00 20.00     0.154 C 
HETATM   10 CL10 UNL     1     -33.788   4.060  -0.467  1.00 20.00    -0.126 Cl
ENDBRANCH   3   9
TORSDOF 1
ENDMDL
MODEL 9
REMARK VINA RESULT:       1.0      2.525      4.504
REMARK  1 active torsions:
REMARK  status: ('A' for Active; 'I' for Inactive)
REMARK    1  A    between atoms: C3_3  and  C6_6 
ROOT
HETATM    1  C1  UNL     1     -33.021   5.334   2.900  1.00 20.00     0.068 A 
HETATM    2  C2  UNL     1     -34.896   5.244   4.360  1.00 20.00     0.126 A 
HETATM    3  C3  UNL     1     -33.852   4.588   3.728  1.00 20.00    -0.023 A 
HETATM    4  C4  UNL     1     -33.254   6.694   2.733  1.00 20.00     0.212 A 
HETATM    5  C5  UNL     1     -34.325   7.256   3.409  1.00 20.00     0.175 A 
HETATM    6  N7  UNL     1     -35.155   6.564   4.221  1.00 20.00    -0.244 NA
HETATM    7  O8  UNL     1     -32.485   7.378   1.969  1.00 20.00    -0.285 OA
HETATM    8 CL9  UNL     1     -34.754   8.929   3.311  1.00 20.00    -0.058 Cl
ENDROOT
BRANCH   3   9
HETATM    9  C6  UNL     1     -33.630   3.131   3.929  1.00 20.00     0.154 C 
HETATM   10 CL10 UNL     1     -32.752   2.830   5.447  1.00 20.00    -0.126 Cl
ENDBRANCH   3   9
TORSDOF 1
ENDMDL
