MODEL 1
REMARK VINA RESULT:      -1.9      0.000      0.000
REMARK  2 active torsions:
REMARK  status: ('A' for Active; 'I' for Inactive)
REMARK    1  A    between atoms: C7_7  and  O10_10 
REMARK    2  A    between atoms: C8_8  and  O10_10 
ROOT
HETATM    1  C1  UNL     1     -33.961   6.110   3.231  1.00 20.00     0.153 C 
HETATM    2  C2  UNL     1     -32.355   6.153   1.623  1.00 20.00     0.121 C 
HETATM    3  C3  UNL     1     -33.648   7.304   3.746  1.00 20.00     0.114 C 
HETATM    4  C4  UNL     1     -32.476   8.083   3.246  1.00 20.00     0.109 C 
HETATM    5  C7  UNL     1     -32.058   7.616   1.857  1.00 20.00     0.168 C 
HETATM    6  N9  UNL     1     -33.257   5.461   2.250  1.00 20.00    -0.272 NA
HETATM    7  F11 UNL     1     -34.417   7.822   4.728  1.00 20.00    -0.209 F 
ENDROOT
BRANCH   5   8
HETATM    8  O10 UNL     1     -32.802   8.323   0.873  1.00 20.00    -0.375 OA
BRANCH   8   9
HETATM    9  C8  UNL     1     -32.088   9.454   0.392  1.00 20.00     0.122 A 
HETATM   10  C5  UNL     1     -32.711  10.190  -0.760  1.00 20.00     0.034 A 
HETATM   11  C6  UNL     1     -32.738  10.789   0.616  1.00 20.00     0.034 A 
ENDBRANCH   8   9
ENDBRANCH   5   8
TORSDOF 2
ENDMDL
MODEL 2
REMARK VINA RESULT:      -1.5      2.578      4.920
REMARK  2 active torsions:
REMARK  status: ('A' for Active; 'I' for Inactive)
REMARK    1  A    between atoms: C7_7  and  O10_10 
REMARK    2  A    between atoms: C8_8  and  O10_10 
ROOT
HETATM    1  C1  UNL     1     -32.735   7.964   3.119  1.00 20.00     0.153 C 
HETATM    2  C2  UNL     1     -32.962   6.201   1.702  1.00 20.00     0.121 C 
HETATM    3  C3  UNL     1     -33.704   7.574   3.954  1.00 20.00     0.114 C 
HETATM    4  C4  UNL     1     -34.543   6.373   3.663  1.00 20.00     0.109 C 
HETATM    5  C7  UNL     1     -33.854   5.451   2.663  1.00 20.00     0.168 C 
HETATM    6  N9  UNL     1     -32.425   7.362   1.927  1.00 20.00    -0.272 NA
HETATM    7  F11 UNL     1     -33.920   8.273   5.089  1.00 20.00    -0.209 F 
ENDROOT
BRANCH   5   8
HETATM    8  O10 UNL     1     -33.003   4.548   3.357  1.00 20.00    -0.375 OA
BRANCH   8   9
HETATM    9  C8  UNL     1     -33.734   3.739   4.269  1.00 20.00     0.122 A 
HETATM   10  C5  UNL     1     -33.274   2.315   4.407  1.00 20.00     0.034 A 
HETATM   11  C6  UNL     1     -32.995   3.303   5.502  1.00 20.00     0.034 A 
ENDBRANCH   8   9
ENDBRANCH   5   8
TORSDOF 2
ENDMDL
MODEL 3
REMARK VINA RESULT:       0.4      2.539      3.274
REMARK  2 active torsions:
REMARK  status: ('A' for Active; 'I' for Inactive)
REMARK    1  A    between atoms: C7_7  and  O10_10 
REMARK    2  A    between atoms: C8_8  and  O10_10 
ROOT
HETATM    1  C1  UNL     1     -34.886   4.657   4.753  1.00 20.00     0.153 C 
HETATM    2  C2  UNL     1     -35.252   6.551   3.550  1.00 20.00     0.121 C 
HETATM    3  C3  UNL     1     -33.857   4.238   4.009  1.00 20.00     0.114 C 
HETATM    4  C4  UNL     1     -33.436   4.974   2.780  1.00 20.00     0.109 C 
HETATM    5  C7  UNL     1     -33.950   6.409   2.796  1.00 20.00     0.168 C 
HETATM    6  N9  UNL     1     -35.673   5.744   4.476  1.00 20.00    -0.272 NA
HETATM    7  F11 UNL     1     -33.176   3.134   4.385  1.00 20.00    -0.209 F 
ENDROOT
BRANCH   5   8
HETATM    8  O10 UNL     1     -33.018   7.241   3.475  1.00 20.00    -0.375 OA
BRANCH   8   9
HETATM    9  C8  UNL     1     -32.576   8.310   2.650  1.00 20.00     0.122 A 
HETATM   10  C5  UNL     1     -31.097   8.377   2.388  1.00 20.00     0.034 A 
HETATM   11  C6  UNL     1     -32.033   7.925   1.304  1.00 20.00     0.034 A 
ENDBRANCH   8   9
ENDBRANCH   5   8
TORSDOF 2
ENDMDL
