MODEL 1
REMARK VINA RESULT:      -0.9      0.000      0.000
REMARK  1 active torsions:
REMARK  status: ('A' for Active; 'I' for Inactive)
REMARK    1  A    between atoms: C1_1  and  C4_4 
ROOT
HETATM    1  C2  UNL     1     -33.991   8.257   3.551  1.00 20.00     0.026 C 
HETATM    2  C3  UNL     1     -33.680   6.433   1.943  1.00 20.00     0.026 C 
HETATM    3  C4  UNL     1     -33.316   7.894   2.225  1.00 20.00     0.088 C 
HETATM    4  C5  UNL     1     -34.128   6.952   4.283  1.00 20.00     0.069 A 
HETATM    5  C6  UNL     1     -33.936   5.833   3.296  1.00 20.00     0.069 A 
HETATM    6  C7  UNL     1     -35.239   6.009   3.991  1.00 20.00     0.252 A 
HETATM    7  F10 UNL     1     -36.359   6.421   3.307  1.00 20.00    -0.205 F 
HETATM    8  F11 UNL     1     -35.648   5.101   4.941  1.00 20.00    -0.205 F 
ENDROOT
BRANCH   3   9
HETATM    9  C1  UNL     1     -31.809   7.996   2.400  1.00 20.00     0.177 C 
HETATM   10  O8  UNL     1     -31.428   8.671   3.396  1.00 20.00    -0.648 OA
HETATM   11  O9  UNL     1     -31.132   7.391   1.523  1.00 20.00    -0.648 OA
ENDBRANCH   3   9
TORSDOF 1
ENDMDL
MODEL 2
REMARK VINA RESULT:      -0.9      3.355      4.146
REMARK  1 active torsions:
REMARK  status: ('A' for Active; 'I' for Inactive)
REMARK    1  A    between atoms: C1_1  and  C4_4 
ROOT
HETATM    1  C2  UNL     1     -33.424   7.621   4.004  1.00 20.00     0.026 C 
HETATM    2  C3  UNL     1     -33.095   5.662   2.567  1.00 20.00     0.026 C 
HETATM    3  C4  UNL     1     -33.631   6.105   3.932  1.00 20.00     0.088 C 
HETATM    4  C5  UNL     1     -33.425   8.079   2.573  1.00 20.00     0.069 A 
HETATM    5  C6  UNL     1     -33.224   6.875   1.691  1.00 20.00     0.069 A 
HETATM    6  C7  UNL     1     -32.214   7.966   1.719  1.00 20.00     0.252 A 
HETATM    7  F10 UNL     1     -30.970   7.769   2.273  1.00 20.00    -0.205 F 
HETATM    8  F11 UNL     1     -32.052   8.793   0.630  1.00 20.00    -0.205 F 
ENDROOT
BRANCH   3   9
HETATM    9  C1  UNL     1     -35.122   5.813   3.987  1.00 20.00     0.177 C 
HETATM   10  O8  UNL     1     -35.862   6.693   3.467  1.00 20.00    -0.648 OA
HETATM   11  O9  UNL     1     -35.428   4.724   4.548  1.00 20.00    -0.648 OA
ENDBRANCH   3   9
TORSDOF 1
ENDMDL
MODEL 3
REMARK VINA RESULT:      -0.6      1.409      2.095
REMARK  1 active torsions:
REMARK  status: ('A' for Active; 'I' for Inactive)
REMARK    1  A    between atoms: C1_1  and  C4_4 
ROOT
HETATM    1  C2  UNL     1     -32.801   6.392   1.598  1.00 20.00     0.026 C 
HETATM    2  C3  UNL     1     -32.514   7.963   3.458  1.00 20.00     0.026 C 
HETATM    3  C4  UNL     1     -31.921   7.536   2.111  1.00 20.00     0.088 C 
HETATM    4  C5  UNL     1     -34.142   6.621   2.235  1.00 20.00     0.069 A 
HETATM    5  C6  UNL     1     -33.965   7.586   3.376  1.00 20.00     0.069 A 
HETATM    6  C7  UNL     1     -34.423   6.194   3.630  1.00 20.00     0.252 A 
HETATM    7  F10 UNL     1     -33.614   5.286   4.272  1.00 20.00    -0.205 F 
HETATM    8  F11 UNL     1     -35.716   5.951   4.036  1.00 20.00    -0.205 F 
ENDROOT
BRANCH   3   9
HETATM    9  C1  UNL     1     -32.025   8.704   1.142  1.00 20.00     0.177 C 
HETATM   10  O8  UNL     1     -32.773   9.649   1.517  1.00 20.00    -0.648 OA
HETATM   11  O9  UNL     1     -31.347   8.576   0.084  1.00 20.00    -0.648 OA
ENDBRANCH   3   9
TORSDOF 1
ENDMDL
MODEL 4
REMARK VINA RESULT:      -0.5      3.280      4.160
REMARK  1 active torsions:
REMARK  status: ('A' for Active; 'I' for Inactive)
REMARK    1  A    between atoms: C1_1  and  C4_4 
ROOT
HETATM    1  C2  UNL     1     -33.653   5.839   1.850  1.00 20.00     0.026 C 
HETATM    2  C3  UNL     1     -34.171   7.384   3.682  1.00 20.00     0.026 C 
HETATM    3  C4  UNL     1     -34.643   6.101   2.990  1.00 20.00     0.088 C 
HETATM    4  C5  UNL     1     -32.376   6.496   2.291  1.00 20.00     0.069 A 
HETATM    5  C6  UNL     1     -32.695   7.444   3.416  1.00 20.00     0.069 A 
HETATM    6  C7  UNL     1     -32.156   7.957   2.128  1.00 20.00     0.252 A 
HETATM    7  F10 UNL     1     -32.939   8.703   1.277  1.00 20.00    -0.205 F 
HETATM    8  F11 UNL     1     -30.878   8.465   2.062  1.00 20.00    -0.205 F 
ENDROOT
BRANCH   3   9
HETATM    9  C1  UNL     1     -34.560   4.953   3.983  1.00 20.00     0.177 C 
HETATM   10  O8  UNL     1     -33.558   4.197   3.848  1.00 20.00    -0.648 OA
HETATM   11  O9  UNL     1     -35.507   4.904   4.817  1.00 20.00    -0.648 OA
ENDBRANCH   3   9
TORSDOF 1
ENDMDL
MODEL 5
REMARK VINA RESULT:       0.2      2.488      3.228
REMARK  1 active torsions:
REMARK  status: ('A' for Active; 'I' for Inactive)
REMARK    1  A    between atoms: C1_1  and  C4_4 
ROOT
HETATM    1  C2  UNL     1     -33.956   6.394   3.049  1.00 20.00     0.026 C 
HETATM    2  C3  UNL     1     -32.588   7.981   1.775  1.00 20.00     0.026 C 
HETATM    3  C4  UNL     1     -33.548   7.868   2.963  1.00 20.00     0.088 C 
HETATM    4  C5  UNL     1     -32.812   5.642   2.429  1.00 20.00     0.069 A 
HETATM    5  C6  UNL     1     -31.972   6.617   1.648  1.00 20.00     0.069 A 
HETATM    6  C7  UNL     1     -32.678   5.506   0.955  1.00 20.00     0.252 A 
HETATM    7  F10 UNL     1     -33.743   5.752   0.120  1.00 20.00    -0.205 F 
HETATM    8  F11 UNL     1     -31.966   4.459   0.415  1.00 20.00    -0.205 F 
ENDROOT
BRANCH   3   9
HETATM    9  C1  UNL     1     -32.799   8.242   4.232  1.00 20.00     0.177 C 
HETATM   10  O8  UNL     1     -31.680   8.798   4.052  1.00 20.00    -0.648 OA
HETATM   11  O9  UNL     1     -33.395   7.948   5.306  1.00 20.00    -0.648 OA
ENDBRANCH   3   9
TORSDOF 1
ENDMDL
MODEL 6
REMARK VINA RESULT:       0.5      3.584      4.404
REMARK  1 active torsions:
REMARK  status: ('A' for Active; 'I' for Inactive)
REMARK    1  A    between atoms: C1_1  and  C4_4 
ROOT
HETATM    1  C2  UNL     1     -32.033   8.690   2.781  1.00 20.00     0.026 C 
HETATM    2  C3  UNL     1     -32.616   6.790   1.345  1.00 20.00     0.026 C 
HETATM    3  C4  UNL     1     -32.383   7.198   2.803  1.00 20.00     0.088 C 
HETATM    4  C5  UNL     1     -32.686   9.220   1.536  1.00 20.00     0.069 A 
HETATM    5  C6  UNL     1     -33.044   8.053   0.655  1.00 20.00     0.069 A 
HETATM    6  C7  UNL     1     -32.054   9.065   0.199  1.00 20.00     0.252 A 
HETATM    7  F10 UNL     1     -30.721   8.750   0.076  1.00 20.00    -0.205 F 
HETATM    8  F11 UNL     1     -32.368   9.933  -0.822  1.00 20.00    -0.205 F 
ENDROOT
BRANCH   3   9
HETATM    9  C1  UNL     1     -33.680   7.013   3.574  1.00 20.00     0.177 C 
HETATM   10  O8  UNL     1     -33.946   7.924   4.406  1.00 20.00    -0.648 OA
HETATM   11  O9  UNL     1     -34.326   5.968   3.281  1.00 20.00    -0.648 OA
ENDBRANCH   3   9
TORSDOF 1
ENDMDL
MODEL 7
REMARK VINA RESULT:       1.0      3.224      3.959
REMARK  1 active torsions:
REMARK  status: ('A' for Active; 'I' for Inactive)
REMARK    1  A    between atoms: C1_1  and  C4_4 
ROOT
HETATM    1  C2  UNL     1     -32.617   7.229   2.539  1.00 20.00     0.026 C 
HETATM    2  C3  UNL     1     -33.403   5.076   3.409  1.00 20.00     0.026 C 
HETATM    3  C4  UNL     1     -33.329   6.573   3.726  1.00 20.00     0.088 C 
HETATM    4  C5  UNL     1     -32.892   6.321   1.375  1.00 20.00     0.069 A 
HETATM    5  C6  UNL     1     -33.376   4.999   1.909  1.00 20.00     0.069 A 
HETATM    6  C7  UNL     1     -32.100   5.083   1.149  1.00 20.00     0.252 A 
HETATM    7  F10 UNL     1     -30.888   4.893   1.771  1.00 20.00    -0.205 F 
HETATM    8  F11 UNL     1     -32.005   4.539  -0.112  1.00 20.00    -0.205 F 
ENDROOT
BRANCH   3   9
HETATM    9  C1  UNL     1     -34.744   7.124   3.812  1.00 20.00     0.177 C 
HETATM   10  O8  UNL     1     -35.641   6.267   4.046  1.00 20.00    -0.648 OA
HETATM   11  O9  UNL     1     -34.839   8.371   3.638  1.00 20.00    -0.648 OA
ENDBRANCH   3   9
TORSDOF 1
ENDMDL
MODEL 8
REMARK VINA RESULT:       1.0      2.615      3.242
REMARK  1 active torsions:
REMARK  status: ('A' for Active; 'I' for Inactive)
REMARK    1  A    between atoms: C1_1  and  C4_4 
ROOT
HETATM    1  C2  UNL     1     -32.624   7.358   0.065  1.00 20.00     0.026 C 
HETATM    2  C3  UNL     1     -31.624   8.335   2.080  1.00 20.00     0.026 C 
HETATM    3  C4  UNL     1     -31.779   8.533   0.568  1.00 20.00     0.088 C 
HETATM    4  C5  UNL     1     -33.443   6.937   1.252  1.00 20.00     0.069 A 
HETATM    5  C6  UNL     1     -32.829   7.538   2.489  1.00 20.00     0.069 A 
HETATM    6  C7  UNL     1     -32.882   6.062   2.314  1.00 20.00     0.252 A 
HETATM    7  F10 UNL     1     -31.737   5.330   2.100  1.00 20.00    -0.205 F 
HETATM    8  F11 UNL     1     -33.716   5.298   3.099  1.00 20.00    -0.205 F 
ENDROOT
BRANCH   3   9
HETATM    9  C1  UNL     1     -32.542   9.825   0.322  1.00 20.00     0.177 C 
HETATM   10  O8  UNL     1     -32.559  10.633   1.291  1.00 20.00    -0.648 OA
HETATM   11  O9  UNL     1     -33.063   9.922  -0.825  1.00 20.00    -0.648 OA
ENDBRANCH   3   9
TORSDOF 1
ENDMDL
MODEL 9
REMARK VINA RESULT:       1.1      1.640      2.406
REMARK  1 active torsions:
REMARK  status: ('A' for Active; 'I' for Inactive)
REMARK    1  A    between atoms: C1_1  and  C4_4 
ROOT
HETATM    1  C2  UNL     1     -33.073   6.634   1.048  1.00 20.00     0.026 C 
HETATM    2  C3  UNL     1     -31.968   7.597   3.014  1.00 20.00     0.026 C 
HETATM    3  C4  UNL     1     -31.887   7.499   1.487  1.00 20.00     0.088 C 
HETATM    4  C5  UNL     1     -34.102   6.814   2.128  1.00 20.00     0.069 A 
HETATM    5  C6  UNL     1     -33.423   7.407   3.334  1.00 20.00     0.069 A 
HETATM    6  C7  UNL     1     -34.033   6.052   3.402  1.00 20.00     0.252 A 
HETATM    7  F10 UNL     1     -33.253   4.925   3.515  1.00 20.00    -0.205 F 
HETATM    8  F11 UNL     1     -35.172   5.840   4.147  1.00 20.00    -0.205 F 
ENDROOT
BRANCH   3   9
HETATM    9  C1  UNL     1     -32.054   8.891   0.899  1.00 20.00     0.177 C 
HETATM   10  O8  UNL     1     -31.226   9.197  -0.003  1.00 20.00    -0.648 OA
HETATM   11  O9  UNL     1     -33.003   9.564   1.391  1.00 20.00    -0.648 OA
ENDBRANCH   3   9
TORSDOF 1
ENDMDL
