MODEL 1
REMARK VINA RESULT:      -2.5      0.000      0.000
REMARK  1 active torsions:
REMARK  status: ('A' for Active; 'I' for Inactive)
REMARK    1  A    between atoms: C5_5  and  C7_7 
ROOT
HETATM    1  C1  UNL     1     -32.975   8.183   3.025  1.00 20.00     0.071 A 
HETATM    2  C2  UNL     1     -33.558   5.611   2.325  1.00 20.00     0.126 A 
HETATM    3  C3  UNL     1     -34.140   6.127   3.473  1.00 20.00    -0.006 A 
HETATM    4  C4  UNL     1     -33.836   7.439   3.822  1.00 20.00     0.125 A 
HETATM    5  C5  UNL     1     -32.445   7.575   1.898  1.00 20.00     0.051 A 
HETATM    6  C6  UNL     1     -35.057   5.302   4.302  1.00 20.00     0.053 C 
HETATM    7  N8  UNL     1     -32.716   6.304   1.527  1.00 20.00    -0.264 NA
HETATM    8  F9  UNL     1     -34.369   7.991   4.921  1.00 20.00    -0.205 F 
ENDROOT
BRANCH   5   9
HETATM    9  C7  UNL     1     -31.516   8.346   1.021  1.00 20.00     0.173 C 
HETATM   10 CL10 UNL     1     -32.362   9.709   0.255  1.00 20.00    -0.124 Cl
ENDBRANCH   5   9
TORSDOF 1
ENDMDL
MODEL 2
REMARK VINA RESULT:      -1.7      3.210      4.486
REMARK  1 active torsions:
REMARK  status: ('A' for Active; 'I' for Inactive)
REMARK    1  A    between atoms: C5_5  and  C7_7 
ROOT
HETATM    1  C1  UNL     1     -33.127   5.279   2.486  1.00 20.00     0.071 A 
HETATM    2  C2  UNL     1     -33.467   7.917   3.095  1.00 20.00     0.126 A 
HETATM    3  C3  UNL     1     -32.618   7.589   2.049  1.00 20.00    -0.006 A 
HETATM    4  C4  UNL     1     -32.452   6.242   1.746  1.00 20.00     0.125 A 
HETATM    5  C5  UNL     1     -33.951   5.710   3.513  1.00 20.00     0.051 A 
HETATM    6  C6  UNL     1     -31.912   8.645   1.277  1.00 20.00     0.053 C 
HETATM    7  N8  UNL     1     -34.139   7.009   3.837  1.00 20.00    -0.264 NA
HETATM    8  F9  UNL     1     -31.645   5.865   0.744  1.00 20.00    -0.205 F 
ENDROOT
BRANCH   5   9
HETATM    9  C7  UNL     1     -34.691   4.703   4.328  1.00 20.00     0.173 C 
HETATM   10 CL10 UNL     1     -33.676   3.275   4.632  1.00 20.00    -0.124 Cl
ENDBRANCH   5   9
TORSDOF 1
ENDMDL
MODEL 3
REMARK VINA RESULT:      -1.4      1.718      2.098
REMARK  1 active torsions:
REMARK  status: ('A' for Active; 'I' for Inactive)
REMARK    1  A    between atoms: C5_5  and  C7_7 
ROOT
HETATM    1  C1  UNL     1     -32.597   6.323   1.841  1.00 20.00     0.071 A 
HETATM    2  C2  UNL     1     -34.079   7.571   3.763  1.00 20.00     0.126 A 
HETATM    3  C3  UNL     1     -34.236   6.204   3.598  1.00 20.00    -0.006 A 
HETATM    4  C4  UNL     1     -33.476   5.576   2.617  1.00 20.00     0.125 A 
HETATM    5  C5  UNL     1     -32.514   7.684   2.084  1.00 20.00     0.051 A 
HETATM    6  C6  UNL     1     -35.185   5.436   4.446  1.00 20.00     0.053 C 
HETATM    7  N8  UNL     1     -33.235   8.330   3.028  1.00 20.00    -0.264 NA
HETATM    8  F9  UNL     1     -33.585   4.256   2.413  1.00 20.00    -0.205 F 
ENDROOT
BRANCH   5   9
HETATM    9  C7  UNL     1     -31.581   8.516   1.269  1.00 20.00     0.173 C 
HETATM   10 CL10 UNL     1     -32.464   9.811   0.430  1.00 20.00    -0.124 Cl
ENDBRANCH   5   9
TORSDOF 1
ENDMDL
MODEL 4
REMARK VINA RESULT:      -1.1      2.813      3.978
REMARK  1 active torsions:
REMARK  status: ('A' for Active; 'I' for Inactive)
REMARK    1  A    between atoms: C5_5  and  C7_7 
ROOT
HETATM    1  C1  UNL     1     -34.199   6.351   3.866  1.00 20.00     0.071 A 
HETATM    2  C2  UNL     1     -32.461   6.018   1.789  1.00 20.00     0.126 A 
HETATM    3  C3  UNL     1     -32.821   7.309   2.143  1.00 20.00    -0.006 A 
HETATM    4  C4  UNL     1     -33.707   7.469   3.203  1.00 20.00     0.125 A 
HETATM    5  C5  UNL     1     -33.778   5.103   3.435  1.00 20.00     0.051 A 
HETATM    6  C6  UNL     1     -32.275   8.482   1.412  1.00 20.00     0.053 C 
HETATM    7  N8  UNL     1     -32.918   4.908   2.410  1.00 20.00    -0.264 NA
HETATM    8  F9  UNL     1     -34.090   8.693   3.589  1.00 20.00    -0.205 F 
ENDROOT
BRANCH   5   9
HETATM    9  C7  UNL     1     -34.288   3.882   4.124  1.00 20.00     0.173 C 
HETATM   10 CL10 UNL     1     -32.948   2.969   4.854  1.00 20.00    -0.124 Cl
ENDBRANCH   5   9
TORSDOF 1
ENDMDL
MODEL 5
REMARK VINA RESULT:      -0.2      2.192      2.898
REMARK  1 active torsions:
REMARK  status: ('A' for Active; 'I' for Inactive)
REMARK    1  A    between atoms: C5_5  and  C7_7 
ROOT
HETATM    1  C1  UNL     1     -33.754   5.371   2.451  1.00 20.00     0.071 A 
HETATM    2  C2  UNL     1     -32.561   7.802   2.786  1.00 20.00     0.126 A 
HETATM    3  C3  UNL     1     -33.579   7.445   3.657  1.00 20.00    -0.006 A 
HETATM    4  C4  UNL     1     -34.181   6.204   3.478  1.00 20.00     0.125 A 
HETATM    5  C5  UNL     1     -32.730   5.821   1.634  1.00 20.00     0.051 A 
HETATM    6  C6  UNL     1     -34.010   8.360   4.745  1.00 20.00     0.053 C 
HETATM    7  N8  UNL     1     -32.120   7.019   1.776  1.00 20.00    -0.264 NA
HETATM    8  F9  UNL     1     -35.170   5.805   4.290  1.00 20.00    -0.205 F 
ENDROOT
BRANCH   5   9
HETATM    9  C7  UNL     1     -32.247   4.952   0.521  1.00 20.00     0.173 C 
HETATM   10 CL10 UNL     1     -33.616   4.190  -0.319  1.00 20.00    -0.124 Cl
ENDBRANCH   5   9
TORSDOF 1
ENDMDL
MODEL 6
REMARK VINA RESULT:       0.2      3.071      4.393
REMARK  1 active torsions:
REMARK  status: ('A' for Active; 'I' for Inactive)
REMARK    1  A    between atoms: C5_5  and  C7_7 
ROOT
HETATM    1  C1  UNL     1     -32.724   5.482   1.983  1.00 20.00     0.071 A 
HETATM    2  C2  UNL     1     -33.190   8.031   2.840  1.00 20.00     0.126 A 
HETATM    3  C3  UNL     1     -32.326   7.845   1.771  1.00 20.00    -0.006 A 
HETATM    4  C4  UNL     1     -32.095   6.542   1.342  1.00 20.00     0.125 A 
HETATM    5  C5  UNL     1     -33.569   5.774   3.042  1.00 20.00     0.051 A 
HETATM    6  C6  UNL     1     -31.670   9.002   1.108  1.00 20.00     0.053 C 
HETATM    7  N8  UNL     1     -33.819   7.025   3.488  1.00 20.00    -0.264 NA
HETATM    8  F9  UNL     1     -31.270   6.302   0.314  1.00 20.00    -0.205 F 
ENDROOT
BRANCH   5   9
HETATM    9  C7  UNL     1     -34.261   4.659   3.753  1.00 20.00     0.173 C 
HETATM   10 CL10 UNL     1     -35.632   5.276   4.703  1.00 20.00    -0.124 Cl
ENDBRANCH   5   9
TORSDOF 1
ENDMDL
MODEL 7
REMARK VINA RESULT:       0.4      2.755      3.589
REMARK  1 active torsions:
REMARK  status: ('A' for Active; 'I' for Inactive)
REMARK    1  A    between atoms: C5_5  and  C7_7 
ROOT
HETATM    1  C1  UNL     1     -32.661   7.847   2.678  1.00 20.00     0.071 A 
HETATM    2  C2  UNL     1     -33.448   5.251   2.375  1.00 20.00     0.126 A 
HETATM    3  C3  UNL     1     -32.482   5.749   1.514  1.00 20.00    -0.006 A 
HETATM    4  C4  UNL     1     -32.087   7.073   1.677  1.00 20.00     0.125 A 
HETATM    5  C5  UNL     1     -33.619   7.256   3.485  1.00 20.00     0.051 A 
HETATM    6  C6  UNL     1     -31.888   4.893   0.454  1.00 20.00     0.053 C 
HETATM    7  N8  UNL     1     -34.029   5.973   3.359  1.00 20.00    -0.264 NA
HETATM    8  F9  UNL     1     -31.156   7.608   0.874  1.00 20.00    -0.205 F 
ENDROOT
BRANCH   5   9
HETATM    9  C7  UNL     1     -34.257   8.058   4.570  1.00 20.00     0.173 C 
HETATM   10 CL10 UNL     1     -33.055   8.525   5.794  1.00 20.00    -0.124 Cl
ENDBRANCH   5   9
TORSDOF 1
ENDMDL
MODEL 8
REMARK VINA RESULT:       0.4      2.597      3.844
REMARK  1 active torsions:
REMARK  status: ('A' for Active; 'I' for Inactive)
REMARK    1  A    between atoms: C5_5  and  C7_7 
ROOT
HETATM    1  C1  UNL     1     -33.916   6.714   3.497  1.00 20.00     0.071 A 
HETATM    2  C2  UNL     1     -32.170   6.289   1.443  1.00 20.00     0.126 A 
HETATM    3  C3  UNL     1     -32.492   7.597   1.771  1.00 20.00    -0.006 A 
HETATM    4  C4  UNL     1     -33.382   7.803   2.820  1.00 20.00     0.125 A 
HETATM    5  C5  UNL     1     -33.531   5.446   3.091  1.00 20.00     0.051 A 
HETATM    6  C6  UNL     1     -31.902   8.740   1.026  1.00 20.00     0.053 C 
HETATM    7  N8  UNL     1     -32.668   5.205   2.078  1.00 20.00    -0.264 NA
HETATM    8  F9  UNL     1     -33.730   9.046   3.182  1.00 20.00    -0.205 F 
ENDROOT
BRANCH   5   9
HETATM    9  C7  UNL     1     -34.085   4.253   3.796  1.00 20.00     0.173 C 
HETATM   10 CL10 UNL     1     -35.447   4.718   4.840  1.00 20.00    -0.124 Cl
ENDBRANCH   5   9
TORSDOF 1
ENDMDL
