MODEL 1
REMARK VINA RESULT:      -1.6      0.000      0.000
REMARK  0 active torsions:
REMARK  status: ('A' for Active; 'I' for Inactive)
ROOT
HETATM    1  C1  UNL     1     -34.335   7.598   4.226  1.00 20.00     0.004 A 
HETATM    2  C2  UNL     1     -33.413   7.489   3.274  1.00 20.00    -0.036 A 
HETATM    3  C3  UNL     1     -33.625   6.128   2.776  1.00 20.00     0.035 A 
HETATM    4  C4  UNL     1     -35.109   6.333   4.372  1.00 20.00     0.177 A 
HETATM    5  C5  UNL     1     -32.394   8.416   2.736  1.00 20.00     0.040 C 
HETATM    6  C6  UNL     1     -32.824   5.620   1.608  1.00 20.00     0.059 C 
HETATM    7  C7  UNL     1     -31.916   7.971   1.352  1.00 20.00     0.005 C 
HETATM    8  C8  UNL     1     -31.590   6.476   1.330  1.00 20.00     0.006 C 
HETATM    9  N9  UNL     1     -34.558   5.418   3.346  1.00 20.00    -0.290 NA
ENDROOT
TORSDOF 0
ENDMDL
MODEL 2
REMARK VINA RESULT:      -1.4      0.931      2.074
REMARK  0 active torsions:
REMARK  status: ('A' for Active; 'I' for Inactive)
ROOT
HETATM    1  C1  UNL     1     -34.550   5.506   3.396  1.00 20.00     0.004 A 
HETATM    2  C2  UNL     1     -33.608   6.083   2.655  1.00 20.00    -0.036 A 
HETATM    3  C3  UNL     1     -33.484   7.407   3.270  1.00 20.00     0.035 A 
HETATM    4  C4  UNL     1     -35.055   6.435   4.445  1.00 20.00     0.177 A 
HETATM    5  C5  UNL     1     -32.798   5.627   1.505  1.00 20.00     0.040 C 
HETATM    6  C6  UNL     1     -32.442   8.372   2.774  1.00 20.00     0.059 C 
HETATM    7  C7  UNL     1     -31.549   6.493   1.330  1.00 20.00     0.005 C 
HETATM    8  C8  UNL     1     -31.889   7.983   1.405  1.00 20.00     0.006 C 
HETATM    9  N9  UNL     1     -34.266   7.678   4.277  1.00 20.00    -0.290 NA
ENDROOT
TORSDOF 0
ENDMDL
MODEL 3
REMARK VINA RESULT:      -1.2      1.458      3.732
REMARK  0 active torsions:
REMARK  status: ('A' for Active; 'I' for Inactive)
ROOT
HETATM    1  C1  UNL     1     -32.463   5.765   1.460  1.00 20.00     0.004 A 
HETATM    2  C2  UNL     1     -33.245   6.055   2.496  1.00 20.00    -0.036 A 
HETATM    3  C3  UNL     1     -32.966   7.476   2.720  1.00 20.00     0.035 A 
HETATM    4  C4  UNL     1     -31.668   6.952   1.037  1.00 20.00     0.177 A 
HETATM    5  C5  UNL     1     -34.207   5.267   3.295  1.00 20.00     0.040 C 
HETATM    6  C6  UNL     1     -33.725   8.235   3.774  1.00 20.00     0.059 C 
HETATM    7  C7  UNL     1     -35.176   6.177   4.052  1.00 20.00     0.005 C 
HETATM    8  C8  UNL     1     -34.433   7.311   4.763  1.00 20.00     0.006 C 
HETATM    9  N9  UNL     1     -32.089   8.047   1.942  1.00 20.00    -0.290 NA
ENDROOT
TORSDOF 0
ENDMDL
MODEL 4
REMARK VINA RESULT:      -1.0      1.133      3.136
REMARK  0 active torsions:
REMARK  status: ('A' for Active; 'I' for Inactive)
ROOT
HETATM    1  C1  UNL     1     -32.028   7.854   1.850  1.00 20.00     0.004 A 
HETATM    2  C2  UNL     1     -32.991   7.539   2.712  1.00 20.00    -0.036 A 
HETATM    3  C3  UNL     1     -33.229   6.122   2.423  1.00 20.00     0.035 A 
HETATM    4  C4  UNL     1     -31.667   6.687   0.997  1.00 20.00     0.177 A 
HETATM    5  C5  UNL     1     -33.709   8.300   3.757  1.00 20.00     0.040 C 
HETATM    6  C6  UNL     1     -34.209   5.339   3.253  1.00 20.00     0.059 C 
HETATM    7  C7  UNL     1     -34.374   7.363   4.767  1.00 20.00     0.005 C 
HETATM    8  C8  UNL     1     -35.139   6.239   4.063  1.00 20.00     0.006 C 
HETATM    9  N9  UNL     1     -32.526   5.577   1.470  1.00 20.00    -0.290 NA
ENDROOT
TORSDOF 0
ENDMDL
MODEL 5
REMARK VINA RESULT:      -0.7      1.079      2.184
REMARK  0 active torsions:
REMARK  status: ('A' for Active; 'I' for Inactive)
ROOT
HETATM    1  C1  UNL     1     -34.069   4.462   3.389  1.00 20.00     0.004 A 
HETATM    2  C2  UNL     1     -33.454   5.469   2.776  1.00 20.00    -0.036 A 
HETATM    3  C3  UNL     1     -34.036   6.645   3.429  1.00 20.00     0.035 A 
HETATM    4  C4  UNL     1     -35.052   4.962   4.392  1.00 20.00     0.177 A 
HETATM    5  C5  UNL     1     -32.422   5.537   1.720  1.00 20.00     0.040 C 
HETATM    6  C6  UNL     1     -33.541   8.022   3.079  1.00 20.00     0.059 C 
HETATM    7  C7  UNL     1     -31.728   6.900   1.710  1.00 20.00     0.005 C 
HETATM    8  C8  UNL     1     -32.745   8.042   1.776  1.00 20.00     0.006 C 
HETATM    9  N9  UNL     1     -34.942   6.438   4.343  1.00 20.00    -0.290 NA
ENDROOT
TORSDOF 0
ENDMDL
MODEL 6
REMARK VINA RESULT:       0.7      1.644      3.688
REMARK  0 active torsions:
REMARK  status: ('A' for Active; 'I' for Inactive)
ROOT
HETATM    1  C1  UNL     1     -31.776   7.140   1.020  1.00 20.00     0.004 A 
HETATM    2  C2  UNL     1     -32.612   6.670   1.942  1.00 20.00    -0.036 A 
HETATM    3  C3  UNL     1     -33.058   7.889   2.621  1.00 20.00     0.035 A 
HETATM    4  C4  UNL     1     -31.651   8.621   1.112  1.00 20.00     0.177 A 
HETATM    5  C5  UNL     1     -33.081   5.312   2.291  1.00 20.00     0.040 C 
HETATM    6  C6  UNL     1     -34.099   7.810   3.703  1.00 20.00     0.059 C 
HETATM    7  C7  UNL     1     -34.377   5.364   3.102  1.00 20.00     0.005 C 
HETATM    8  C8  UNL     1     -34.282   6.390   4.235  1.00 20.00     0.006 C 
HETATM    9  N9  UNL     1     -32.558   9.022   2.212  1.00 20.00    -0.290 NA
ENDROOT
TORSDOF 0
ENDMDL
MODEL 7
REMARK VINA RESULT:       1.1      1.574      2.702
REMARK  0 active torsions:
REMARK  status: ('A' for Active; 'I' for Inactive)
ROOT
HETATM    1  C1  UNL     1     -33.018   3.963   3.169  1.00 20.00     0.004 A 
HETATM    2  C2  UNL     1     -33.205   5.260   2.943  1.00 20.00    -0.036 A 
HETATM    3  C3  UNL     1     -34.252   5.606   3.907  1.00 20.00     0.035 A 
HETATM    4  C4  UNL     1     -33.940   3.463   4.228  1.00 20.00     0.177 A 
HETATM    5  C5  UNL     1     -32.581   6.230   2.017  1.00 20.00     0.040 C 
HETATM    6  C6  UNL     1     -34.709   7.033   4.042  1.00 20.00     0.059 C 
HETATM    7  C7  UNL     1     -32.819   7.669   2.480  1.00 20.00     0.005 C 
HETATM    8  C8  UNL     1     -34.285   7.897   2.856  1.00 20.00     0.006 C 
HETATM    9  N9  UNL     1     -34.716   4.649   4.660  1.00 20.00    -0.290 NA
ENDROOT
TORSDOF 0
ENDMDL
