MODEL 1
REMARK VINA RESULT:      -1.2      0.000      0.000
REMARK  0 active torsions:
REMARK  status: ('A' for Active; 'I' for Inactive)
ROOT
HETATM    1  C1  UNL     1     -35.029   6.376   4.308  1.00 20.00     0.032 A 
HETATM    2  C2  UNL     1     -33.587   7.797   2.763  1.00 20.00     0.037 A 
HETATM    3  C3  UNL     1     -32.018   6.557   1.356  1.00 20.00     0.003 A 
HETATM    4  C4  UNL     1     -35.003   5.038   4.416  1.00 20.00     0.118 A 
HETATM    5  C5  UNL     1     -34.047   6.679   3.322  1.00 20.00    -0.008 A 
HETATM    6  C6  UNL     1     -32.548   7.728   1.756  1.00 20.00     0.031 A 
HETATM    7  C7  UNL     1     -33.513   5.361   2.932  1.00 20.00     0.048 A 
HETATM    8  C8  UNL     1     -32.437   5.217   1.897  1.00 20.00     0.088 A 
HETATM    9  N9  UNL     1     -34.091   4.388   3.592  1.00 20.00    -0.264 NA
HETATM   10 CL10 UNL     1     -31.998   9.216   1.072  1.00 20.00    -0.085 Cl
ENDROOT
TORSDOF 0
ENDMDL
MODEL 2
REMARK VINA RESULT:      -0.6      2.742      4.163
REMARK  0 active torsions:
REMARK  status: ('A' for Active; 'I' for Inactive)
ROOT
HETATM    1  C1  UNL     1     -32.075   6.113   1.124  1.00 20.00     0.032 A 
HETATM    2  C2  UNL     1     -33.813   5.452   2.863  1.00 20.00     0.037 A 
HETATM    3  C3  UNL     1     -34.499   7.230   4.394  1.00 20.00     0.003 A 
HETATM    4  C4  UNL     1     -31.515   7.325   0.978  1.00 20.00     0.118 A 
HETATM    5  C5  UNL     1     -32.970   6.259   2.222  1.00 20.00    -0.008 A 
HETATM    6  C6  UNL     1     -34.594   5.955   3.975  1.00 20.00     0.031 A 
HETATM    7  C7  UNL     1     -32.815   7.669   2.626  1.00 20.00     0.048 A 
HETATM    8  C8  UNL     1     -33.592   8.256   3.768  1.00 20.00     0.088 A 
HETATM    9  N9  UNL     1     -31.944   8.296   1.876  1.00 20.00    -0.264 NA
HETATM   10 CL10 UNL     1     -35.668   4.854   4.762  1.00 20.00    -0.085 Cl
ENDROOT
TORSDOF 0
ENDMDL
MODEL 3
REMARK VINA RESULT:      -0.5      2.036      2.593
REMARK  0 active torsions:
REMARK  status: ('A' for Active; 'I' for Inactive)
ROOT
HETATM    1  C1  UNL     1     -34.818   5.884   3.920  1.00 20.00     0.032 A 
HETATM    2  C2  UNL     1     -33.194   5.143   2.105  1.00 20.00     0.037 A 
HETATM    3  C3  UNL     1     -31.658   6.867   1.302  1.00 20.00     0.003 A 
HETATM    4  C4  UNL     1     -34.903   7.110   4.463  1.00 20.00     0.118 A 
HETATM    5  C5  UNL     1     -33.768   5.983   2.964  1.00 20.00    -0.008 A 
HETATM    6  C6  UNL     1     -32.113   5.601   1.256  1.00 20.00     0.031 A 
HETATM    7  C7  UNL     1     -33.320   7.384   3.068  1.00 20.00     0.048 A 
HETATM    8  C8  UNL     1     -32.207   7.926   2.220  1.00 20.00     0.088 A 
HETATM    9  N9  UNL     1     -34.005   8.048   3.966  1.00 20.00    -0.264 NA
HETATM   10 CL10 UNL     1     -31.413   4.459   0.165  1.00 20.00    -0.085 Cl
ENDROOT
TORSDOF 0
ENDMDL
MODEL 4
REMARK VINA RESULT:      -0.1      2.751      4.222
REMARK  0 active torsions:
REMARK  status: ('A' for Active; 'I' for Inactive)
ROOT
HETATM    1  C1  UNL     1     -31.684   7.205   1.042  1.00 20.00     0.032 A 
HETATM    2  C2  UNL     1     -32.796   5.413   2.469  1.00 20.00     0.037 A 
HETATM    3  C3  UNL     1     -34.382   6.234   4.139  1.00 20.00     0.003 A 
HETATM    4  C4  UNL     1     -31.887   8.530   1.124  1.00 20.00     0.118 A 
HETATM    5  C5  UNL     1     -32.531   6.646   2.042  1.00 20.00    -0.008 A 
HETATM    6  C6  UNL     1     -33.746   5.208   3.544  1.00 20.00     0.031 A 
HETATM    7  C7  UNL     1     -33.191   7.817   2.647  1.00 20.00     0.048 A 
HETATM    8  C8  UNL     1     -34.185   7.678   3.763  1.00 20.00     0.088 A 
HETATM    9  N9  UNL     1     -32.800   8.937   2.092  1.00 20.00    -0.264 NA
HETATM   10 CL10 UNL     1     -34.043   3.583   4.049  1.00 20.00    -0.085 Cl
ENDROOT
TORSDOF 0
ENDMDL
MODEL 5
REMARK VINA RESULT:       0.1      2.632      3.743
REMARK  0 active torsions:
REMARK  status: ('A' for Active; 'I' for Inactive)
ROOT
HETATM    1  C1  UNL     1     -32.589   8.999   2.293  1.00 20.00     0.032 A 
HETATM    2  C2  UNL     1     -34.014   7.252   3.476  1.00 20.00     0.037 A 
HETATM    3  C3  UNL     1     -33.666   4.944   2.750  1.00 20.00     0.003 A 
HETATM    4  C4  UNL     1     -31.684   8.769   1.328  1.00 20.00     0.118 A 
HETATM    5  C5  UNL     1     -33.106   7.712   2.618  1.00 20.00    -0.008 A 
HETATM    6  C6  UNL     1     -34.296   5.832   3.540  1.00 20.00     0.031 A 
HETATM    7  C7  UNL     1     -32.377   6.797   1.722  1.00 20.00     0.048 A 
HETATM    8  C8  UNL     1     -32.619   5.316   1.734  1.00 20.00     0.088 A 
HETATM    9  N9  UNL     1     -31.530   7.438   0.956  1.00 20.00    -0.264 NA
HETATM   10 CL10 UNL     1     -35.485   5.303   4.676  1.00 20.00    -0.085 Cl
ENDROOT
TORSDOF 0
ENDMDL
MODEL 6
REMARK VINA RESULT:       0.4      0.870      1.053
REMARK  0 active torsions:
REMARK  status: ('A' for Active; 'I' for Inactive)
ROOT
HETATM    1  C1  UNL     1     -34.675   7.863   4.375  1.00 20.00     0.032 A 
HETATM    2  C2  UNL     1     -32.997   8.523   2.578  1.00 20.00     0.037 A 
HETATM    3  C3  UNL     1     -32.077   6.675   1.269  1.00 20.00     0.003 A 
HETATM    4  C4  UNL     1     -35.090   6.617   4.660  1.00 20.00     0.118 A 
HETATM    5  C5  UNL     1     -33.749   7.699   3.306  1.00 20.00    -0.008 A 
HETATM    6  C6  UNL     1     -32.142   7.992   1.535  1.00 20.00     0.031 A 
HETATM    7  C7  UNL     1     -33.728   6.245   3.069  1.00 20.00     0.048 A 
HETATM    8  C8  UNL     1     -32.867   5.627   2.006  1.00 20.00     0.088 A 
HETATM    9  N9  UNL     1     -34.532   5.608   3.883  1.00 20.00    -0.264 NA
HETATM   10 CL10 UNL     1     -31.193   9.116   0.629  1.00 20.00    -0.085 Cl
ENDROOT
TORSDOF 0
ENDMDL
MODEL 7
REMARK VINA RESULT:       0.4      1.039      2.046
REMARK  0 active torsions:
REMARK  status: ('A' for Active; 'I' for Inactive)
ROOT
HETATM    1  C1  UNL     1     -33.904   4.300   3.335  1.00 20.00     0.032 A 
HETATM    2  C2  UNL     1     -32.631   6.096   2.056  1.00 20.00     0.037 A 
HETATM    3  C3  UNL     1     -33.165   8.401   2.670  1.00 20.00     0.003 A 
HETATM    4  C4  UNL     1     -34.822   4.503   4.294  1.00 20.00     0.118 A 
HETATM    5  C5  UNL     1     -33.496   5.607   2.942  1.00 20.00    -0.008 A 
HETATM    6  C6  UNL     1     -32.465   7.529   1.921  1.00 20.00     0.031 A 
HETATM    7  C7  UNL     1     -34.295   6.503   3.797  1.00 20.00     0.048 A 
HETATM    8  C8  UNL     1     -34.174   7.997   3.710  1.00 20.00     0.088 A 
HETATM    9  N9  UNL     1     -35.084   5.834   4.600  1.00 20.00    -0.264 NA
HETATM   10 CL10 UNL     1     -31.326   8.096   0.752  1.00 20.00    -0.085 Cl
ENDROOT
TORSDOF 0
ENDMDL
