MODEL 1
REMARK VINA RESULT:      -2.1      0.000      0.000
REMARK  1 active torsions:
REMARK  status: ('A' for Active; 'I' for Inactive)
REMARK    1  A    between atoms: C2_2  and  C7_7 
ROOT
HETATM    1  C1  UNL     1     -32.051   6.517   1.138  1.00 20.00     0.149 A 
HETATM    2  C2  UNL     1     -32.406   7.700   1.849  1.00 20.00    -0.001 A 
HETATM    3  C3  UNL     1     -33.276   7.246   2.800  1.00 20.00     0.039 A 
HETATM    4  C4  UNL     1     -34.118   7.674   3.931  1.00 20.00     0.061 C 
HETATM    5  C5  UNL     1     -35.016   6.424   4.148  1.00 20.00     0.028 C 
HETATM    6  C6  UNL     1     -34.266   5.231   3.521  1.00 20.00     0.151 C 
HETATM    7  N8  UNL     1     -32.653   5.411   1.609  1.00 20.00    -0.184 NA
HETATM    8  N9  UNL     1     -33.377   5.910   2.604  1.00 20.00    -0.274 N 
ENDROOT
BRANCH   2   9
HETATM    9  C7  UNL     1     -31.943   9.074   1.615  1.00 20.00     0.156 C 
HETATM   10 CL10 UNL     1     -32.475   9.675   0.019  1.00 20.00    -0.125 Cl
ENDBRANCH   2   9
TORSDOF 1
ENDMDL
MODEL 2
REMARK VINA RESULT:      -1.6      2.728      4.287
REMARK  1 active torsions:
REMARK  status: ('A' for Active; 'I' for Inactive)
REMARK    1  A    between atoms: C2_2  and  C7_7 
ROOT
HETATM    1  C1  UNL     1     -34.415   7.354   4.414  1.00 20.00     0.149 A 
HETATM    2  C2  UNL     1     -34.263   6.071   3.813  1.00 20.00    -0.001 A 
HETATM    3  C3  UNL     1     -33.350   6.292   2.822  1.00 20.00     0.039 A 
HETATM    4  C4  UNL     1     -32.601   5.635   1.738  1.00 20.00     0.061 C 
HETATM    5  C5  UNL     1     -32.061   6.855   0.940  1.00 20.00     0.028 C 
HETATM    6  C6  UNL     1     -32.073   8.054   1.911  1.00 20.00     0.151 C 
HETATM    7  N8  UNL     1     -33.654   8.304   3.842  1.00 20.00    -0.184 NA
HETATM    8  N9  UNL     1     -33.038   7.609   2.892  1.00 20.00    -0.274 N 
ENDROOT
BRANCH   2   9
HETATM    9  C7  UNL     1     -34.930   4.813   4.177  1.00 20.00     0.156 C 
HETATM   10 CL10 UNL     1     -33.750   3.489   4.386  1.00 20.00    -0.125 Cl
ENDBRANCH   2   9
TORSDOF 1
ENDMDL
MODEL 3
REMARK VINA RESULT:      -0.5      1.420      2.308
REMARK  1 active torsions:
REMARK  status: ('A' for Active; 'I' for Inactive)
REMARK    1  A    between atoms: C2_2  and  C7_7 
ROOT
HETATM    1  C1  UNL     1     -33.734   8.241   3.438  1.00 20.00     0.149 A 
HETATM    2  C2  UNL     1     -32.942   7.383   2.622  1.00 20.00    -0.001 A 
HETATM    3  C3  UNL     1     -33.392   6.135   2.947  1.00 20.00     0.039 A 
HETATM    4  C4  UNL     1     -33.213   4.702   2.657  1.00 20.00     0.061 C 
HETATM    5  C5  UNL     1     -33.984   4.041   3.834  1.00 20.00     0.028 C 
HETATM    6  C6  UNL     1     -34.972   5.102   4.361  1.00 20.00     0.151 C 
HETATM    7  N8  UNL     1     -34.611   7.580   4.213  1.00 20.00    -0.184 NA
HETATM    8  N9  UNL     1     -34.360   6.320   3.877  1.00 20.00    -0.274 N 
ENDROOT
BRANCH   2   9
HETATM    9  C7  UNL     1     -31.894   7.755   1.661  1.00 20.00     0.156 C 
HETATM   10 CL10 UNL     1     -32.332   9.238   0.766  1.00 20.00    -0.125 Cl
ENDBRANCH   2   9
TORSDOF 1
ENDMDL
MODEL 4
REMARK VINA RESULT:      -0.3      2.101      2.755
REMARK  1 active torsions:
REMARK  status: ('A' for Active; 'I' for Inactive)
REMARK    1  A    between atoms: C2_2  and  C7_7 
ROOT
HETATM    1  C1  UNL     1     -31.741   7.435   1.553  1.00 20.00     0.149 A 
HETATM    2  C2  UNL     1     -32.380   6.162   1.592  1.00 20.00    -0.001 A 
HETATM    3  C3  UNL     1     -33.336   6.319   2.555  1.00 20.00     0.039 A 
HETATM    4  C4  UNL     1     -34.425   5.624   3.262  1.00 20.00     0.061 C 
HETATM    5  C5  UNL     1     -34.692   6.583   4.456  1.00 20.00     0.028 C 
HETATM    6  C6  UNL     1     -34.145   7.964   4.039  1.00 20.00     0.151 C 
HETATM    7  N8  UNL     1     -32.259   8.319   2.425  1.00 20.00    -0.184 NA
HETATM    8  N9  UNL     1     -33.211   7.593   2.999  1.00 20.00    -0.274 N 
ENDROOT
BRANCH   2   9
HETATM    9  C7  UNL     1     -32.080   4.970   0.787  1.00 20.00     0.156 C 
HETATM   10 CL10 UNL     1     -33.523   4.409  -0.104  1.00 20.00    -0.125 Cl
ENDBRANCH   2   9
TORSDOF 1
ENDMDL
MODEL 5
REMARK VINA RESULT:      -0.2      1.221      1.221
REMARK  1 active torsions:
REMARK  status: ('A' for Active; 'I' for Inactive)
REMARK    1  A    between atoms: C2_2  and  C7_7 
ROOT
HETATM    1  C1  UNL     1     -32.270   5.687   1.390  1.00 20.00     0.149 A 
HETATM    2  C2  UNL     1     -32.563   6.964   1.950  1.00 20.00    -0.001 A 
HETATM    3  C3  UNL     1     -33.474   6.678   2.928  1.00 20.00     0.039 A 
HETATM    4  C4  UNL     1     -34.305   7.285   3.981  1.00 20.00     0.061 C 
HETATM    5  C5  UNL     1     -35.282   6.125   4.322  1.00 20.00     0.028 C 
HETATM    6  C6  UNL     1     -34.597   4.824   3.856  1.00 20.00     0.151 C 
HETATM    7  N8  UNL     1     -32.946   4.682   1.973  1.00 20.00    -0.184 NA
HETATM    8  N9  UNL     1     -33.653   5.336   2.887  1.00 20.00    -0.274 N 
ENDROOT
BRANCH   2   9
HETATM    9  C7  UNL     1     -32.013   8.272   1.567  1.00 20.00     0.156 C 
HETATM   10 CL10 UNL     1     -31.236   9.082   2.957  1.00 20.00    -0.125 Cl
ENDBRANCH   2   9
TORSDOF 1
ENDMDL
MODEL 6
REMARK VINA RESULT:      -0.1      2.809      3.820
REMARK  1 active torsions:
REMARK  status: ('A' for Active; 'I' for Inactive)
REMARK    1  A    between atoms: C2_2  and  C7_7 
ROOT
HETATM    1  C1  UNL     1     -32.958   4.685   1.848  1.00 20.00     0.149 A 
HETATM    2  C2  UNL     1     -33.570   5.162   3.043  1.00 20.00    -0.001 A 
HETATM    3  C3  UNL     1     -33.291   6.499   3.028  1.00 20.00     0.039 A 
HETATM    4  C4  UNL     1     -33.484   7.754   3.774  1.00 20.00     0.061 C 
HETATM    5  C5  UNL     1     -32.455   8.694   3.086  1.00 20.00     0.028 C 
HETATM    6  C6  UNL     1     -32.172   8.090   1.695  1.00 20.00     0.151 C 
HETATM    7  N8  UNL     1     -32.343   5.650   1.142  1.00 20.00    -0.184 NA
HETATM    8  N9  UNL     1     -32.575   6.716   1.899  1.00 20.00    -0.274 N 
ENDROOT
BRANCH   2   9
HETATM    9  C7  UNL     1     -34.323   4.396   4.047  1.00 20.00     0.156 C 
HETATM   10 CL10 UNL     1     -33.348   3.050   4.702  1.00 20.00    -0.125 Cl
ENDBRANCH   2   9
TORSDOF 1
ENDMDL
