MODEL 1
REMARK VINA RESULT:      -2.1      0.000      0.000
REMARK  1 active torsions:
REMARK  status: ('A' for Active; 'I' for Inactive)
REMARK    1  A    between atoms: C2_2  and  C4_4 
ROOT
HETATM    1  C1  UNL     1     -32.419   8.131   2.570  1.00 20.00     0.026 A 
HETATM    2  C2  UNL     1     -33.314   7.256   3.025  1.00 20.00     0.068 A 
HETATM    3  C3  UNL     1     -31.746   7.445   1.445  1.00 20.00     0.203 A 
HETATM    4  N5  UNL     1     -33.301   6.076   2.324  1.00 20.00    -0.159 NA
HETATM    5  N6  UNL     1     -32.428   6.126   1.411  1.00 20.00    -0.189 NA
ENDROOT
BRANCH   2   6
HETATM    6  C4  UNL     1     -34.259   7.442   4.155  1.00 20.00     0.175 C 
HETATM    7 CL7  UNL     1     -35.423   6.116   4.095  1.00 20.00    -0.124 Cl
ENDBRANCH   2   6
TORSDOF 1
ENDMDL
MODEL 2
REMARK VINA RESULT:      -2.1      1.282      1.444
REMARK  1 active torsions:
REMARK  status: ('A' for Active; 'I' for Inactive)
REMARK    1  A    between atoms: C2_2  and  C4_4 
ROOT
HETATM    1  C1  UNL     1     -33.192   5.982   2.269  1.00 20.00     0.026 A 
HETATM    2  C2  UNL     1     -33.303   7.124   2.946  1.00 20.00     0.068 A 
HETATM    3  C3  UNL     1     -32.120   6.222   1.279  1.00 20.00     0.203 A 
HETATM    4  N5  UNL     1     -32.424   8.082   2.509  1.00 20.00    -0.159 NA
HETATM    5  N6  UNL     1     -31.723   7.626   1.561  1.00 20.00    -0.189 NA
ENDROOT
BRANCH   2   6
HETATM    6  C4  UNL     1     -34.240   7.422   4.059  1.00 20.00     0.175 C 
HETATM    7 CL7  UNL     1     -35.434   6.121   4.105  1.00 20.00    -0.124 Cl
ENDBRANCH   2   6
TORSDOF 1
ENDMDL
MODEL 3
REMARK VINA RESULT:      -1.8      1.263      1.408
REMARK  1 active torsions:
REMARK  status: ('A' for Active; 'I' for Inactive)
REMARK    1  A    between atoms: C2_2  and  C4_4 
ROOT
HETATM    1  C1  UNL     1     -33.336   7.698   3.390  1.00 20.00     0.026 A 
HETATM    2  C2  UNL     1     -33.754   6.455   3.157  1.00 20.00     0.068 A 
HETATM    3  C3  UNL     1     -32.348   7.980   2.326  1.00 20.00     0.203 A 
HETATM    4  N5  UNL     1     -33.149   5.894   2.060  1.00 20.00    -0.159 NA
HETATM    5  N6  UNL     1     -32.338   6.716   1.545  1.00 20.00    -0.189 NA
ENDROOT
BRANCH   2   6
HETATM    6  C4  UNL     1     -34.752   5.681   3.937  1.00 20.00     0.175 C 
HETATM    7 CL7  UNL     1     -34.086   4.064   4.190  1.00 20.00    -0.124 Cl
ENDBRANCH   2   6
TORSDOF 1
ENDMDL
MODEL 4
REMARK VINA RESULT:      -1.7      1.741      1.839
REMARK  1 active torsions:
REMARK  status: ('A' for Active; 'I' for Inactive)
REMARK    1  A    between atoms: C2_2  and  C4_4 
ROOT
HETATM    1  C1  UNL     1     -33.000   5.953   1.884  1.00 20.00     0.026 A 
HETATM    2  C2  UNL     1     -33.601   6.455   2.962  1.00 20.00     0.068 A 
HETATM    3  C3  UNL     1     -32.065   7.008   1.436  1.00 20.00     0.203 A 
HETATM    4  N5  UNL     1     -33.164   7.720   3.266  1.00 20.00    -0.159 NA
HETATM    5  N6  UNL     1     -32.288   8.087   2.432  1.00 20.00    -0.189 NA
ENDROOT
BRANCH   2   6
HETATM    6  C4  UNL     1     -34.638   5.801   3.799  1.00 20.00     0.175 C 
HETATM    7 CL7  UNL     1     -34.089   4.155   4.129  1.00 20.00    -0.124 Cl
ENDBRANCH   2   6
TORSDOF 1
ENDMDL
MODEL 5
REMARK VINA RESULT:      -1.7      2.408      3.383
REMARK  1 active torsions:
REMARK  status: ('A' for Active; 'I' for Inactive)
REMARK    1  A    between atoms: C2_2  and  C4_4 
ROOT
HETATM    1  C1  UNL     1     -34.535   6.762   3.389  1.00 20.00     0.026 A 
HETATM    2  C2  UNL     1     -33.681   5.870   2.886  1.00 20.00     0.068 A 
HETATM    3  C3  UNL     1     -35.325   6.015   4.393  1.00 20.00     0.203 A 
HETATM    4  N5  UNL     1     -33.826   4.627   3.448  1.00 20.00    -0.159 NA
HETATM    5  N6  UNL     1     -34.747   4.649   4.314  1.00 20.00    -0.189 NA
ENDROOT
BRANCH   2   6
HETATM    6  C4  UNL     1     -32.658   6.101   1.835  1.00 20.00     0.175 C 
HETATM    7 CL7  UNL     1     -32.162   7.793   1.943  1.00 20.00    -0.124 Cl
ENDBRANCH   2   6
TORSDOF 1
ENDMDL
MODEL 6
REMARK VINA RESULT:      -1.7      2.649      3.353
REMARK  1 active torsions:
REMARK  status: ('A' for Active; 'I' for Inactive)
REMARK    1  A    between atoms: C2_2  and  C4_4 
ROOT
HETATM    1  C1  UNL     1     -33.301   6.163   2.283  1.00 20.00     0.026 A 
HETATM    2  C2  UNL     1     -32.755   7.371   2.425  1.00 20.00     0.068 A 
HETATM    3  C3  UNL     1     -34.294   6.058   3.374  1.00 20.00     0.203 A 
HETATM    4  N5  UNL     1     -33.280   8.064   3.486  1.00 20.00    -0.159 NA
HETATM    5  N6  UNL     1     -34.162   7.367   4.064  1.00 20.00    -0.189 NA
ENDROOT
BRANCH   2   6
HETATM    6  C4  UNL     1     -31.693   7.982   1.585  1.00 20.00     0.175 C 
HETATM    7 CL7  UNL     1     -32.428   9.321   0.698  1.00 20.00    -0.124 Cl
ENDBRANCH   2   6
TORSDOF 1
ENDMDL
MODEL 7
REMARK VINA RESULT:      -1.7      2.187      3.069
REMARK  1 active torsions:
REMARK  status: ('A' for Active; 'I' for Inactive)
REMARK    1  A    between atoms: C2_2  and  C4_4 
ROOT
HETATM    1  C1  UNL     1     -33.449   8.027   3.543  1.00 20.00     0.026 A 
HETATM    2  C2  UNL     1     -32.836   7.391   2.546  1.00 20.00     0.068 A 
HETATM    3  C3  UNL     1     -34.424   7.053   4.081  1.00 20.00     0.203 A 
HETATM    4  N5  UNL     1     -33.301   6.111   2.374  1.00 20.00    -0.159 NA
HETATM    5  N6  UNL     1     -34.206   5.862   3.220  1.00 20.00    -0.189 NA
ENDROOT
BRANCH   2   6
HETATM    6  C4  UNL     1     -31.764   7.921   1.666  1.00 20.00     0.175 C 
HETATM    7 CL7  UNL     1     -32.438   9.294   0.783  1.00 20.00    -0.124 Cl
ENDBRANCH   2   6
TORSDOF 1
ENDMDL
MODEL 8
REMARK VINA RESULT:      -1.5      2.515      3.483
REMARK  1 active torsions:
REMARK  status: ('A' for Active; 'I' for Inactive)
REMARK    1  A    between atoms: C2_2  and  C4_4 
ROOT
HETATM    1  C1  UNL     1     -34.261   5.568   3.134  1.00 20.00     0.026 A 
HETATM    2  C2  UNL     1     -33.404   6.514   2.750  1.00 20.00     0.068 A 
HETATM    3  C3  UNL     1     -35.063   6.189   4.211  1.00 20.00     0.203 A 
HETATM    4  N5  UNL     1     -33.557   7.681   3.456  1.00 20.00    -0.159 NA
HETATM    5  N6  UNL     1     -34.488   7.555   4.302  1.00 20.00    -0.189 NA
ENDROOT
BRANCH   2   6
HETATM    6  C4  UNL     1     -32.366   6.411   1.693  1.00 20.00     0.175 C 
HETATM    7 CL7  UNL     1     -31.736   8.037   1.411  1.00 20.00    -0.124 Cl
ENDBRANCH   2   6
TORSDOF 1
ENDMDL
MODEL 9
REMARK VINA RESULT:      -1.2      1.081      1.081
REMARK  1 active torsions:
REMARK  status: ('A' for Active; 'I' for Inactive)
REMARK    1  A    between atoms: C2_2  and  C4_4 
ROOT
HETATM    1  C1  UNL     1     -32.513   7.938   2.445  1.00 20.00     0.026 A 
HETATM    2  C2  UNL     1     -33.336   6.947   2.785  1.00 20.00     0.068 A 
HETATM    3  C3  UNL     1     -31.664   7.383   1.368  1.00 20.00     0.203 A 
HETATM    4  N5  UNL     1     -33.119   5.808   2.052  1.00 20.00    -0.159 NA
HETATM    5  N6  UNL     1     -32.179   5.996   1.228  1.00 20.00    -0.189 NA
ENDROOT
BRANCH   2   6
HETATM    6  C4  UNL     1     -34.395   6.975   3.826  1.00 20.00     0.175 C 
HETATM    7 CL7  UNL     1     -33.860   8.085   5.092  1.00 20.00    -0.124 Cl
ENDBRANCH   2   6
TORSDOF 1
ENDMDL
