MODEL 1
REMARK VINA RESULT:      -0.6      0.000      0.000
REMARK  0 active torsions:
REMARK  status: ('A' for Active; 'I' for Inactive)
ROOT
HETATM    1  C1  UNL     1     -32.418   9.945  -0.025  1.00 20.00     0.013 C 
HETATM    2  C2  UNL     1     -32.420   9.120   0.845  1.00 20.00    -0.107 C 
HETATM    3  C3  UNL     1     -32.568   6.700   1.293  1.00 20.00     0.048 C 
HETATM    4  C4  UNL     1     -33.621   8.359   2.859  1.00 20.00     0.048 C 
HETATM    5  C5  UNL     1     -32.885   5.628   2.330  1.00 20.00     0.169 C 
HETATM    6  C6  UNL     1     -33.876   7.191   3.807  1.00 20.00     0.169 C 
HETATM    7  C7  UNL     1     -32.423   8.101   1.922  1.00 20.00     0.023 C 
HETATM    8  C8  UNL     1     -31.094   8.218   2.691  1.00 20.00     0.029 C 
HETATM    9  O9  UNL     1     -34.047   5.976   3.080  1.00 20.00    -0.391 OA
ENDROOT
TORSDOF 0
ENDMDL
MODEL 2
REMARK VINA RESULT:       0.5      1.839      3.985
REMARK  0 active torsions:
REMARK  status: ('A' for Active; 'I' for Inactive)
ROOT
HETATM    1  C1  UNL     1     -33.918   3.669   4.468  1.00 20.00     0.013 C 
HETATM    2  C2  UNL     1     -33.903   4.758   3.964  1.00 20.00    -0.107 C 
HETATM    3  C3  UNL     1     -33.148   6.024   1.988  1.00 20.00     0.048 C 
HETATM    4  C4  UNL     1     -33.131   7.078   4.270  1.00 20.00     0.048 C 
HETATM    5  C5  UNL     1     -32.816   7.403   1.428  1.00 20.00     0.169 C 
HETATM    6  C6  UNL     1     -32.800   8.397   3.577  1.00 20.00     0.169 C 
HETATM    7  C7  UNL     1     -33.884   6.102   3.342  1.00 20.00     0.023 C 
HETATM    8  C8  UNL     1     -35.342   6.555   3.144  1.00 20.00     0.029 C 
HETATM    9  O9  UNL     1     -32.071   8.168   2.373  1.00 20.00    -0.391 OA
ENDROOT
TORSDOF 0
ENDMDL
MODEL 3
REMARK VINA RESULT:       0.7      1.549      2.899
REMARK  0 active torsions:
REMARK  status: ('A' for Active; 'I' for Inactive)
ROOT
HETATM    1  C1  UNL     1     -31.476   8.053   1.832  1.00 20.00     0.013 C 
HETATM    2  C2  UNL     1     -32.358   7.278   2.079  1.00 20.00    -0.107 C 
HETATM    3  C3  UNL     1     -34.465   6.994   3.327  1.00 20.00     0.048 C 
HETATM    4  C4  UNL     1     -32.851   5.083   3.087  1.00 20.00     0.048 C 
HETATM    5  C5  UNL     1     -35.446   5.995   3.931  1.00 20.00     0.169 C 
HETATM    6  C6  UNL     1     -33.925   4.194   3.705  1.00 20.00     0.169 C 
HETATM    7  C7  UNL     1     -33.446   6.320   2.384  1.00 20.00     0.023 C 
HETATM    8  C8  UNL     1     -34.115   5.921   1.055  1.00 20.00     0.029 C 
HETATM    9  O9  UNL     1     -34.751   4.942   4.596  1.00 20.00    -0.391 OA
ENDROOT
TORSDOF 0
ENDMDL
MODEL 4
REMARK VINA RESULT:       1.0      1.469      2.202
REMARK  0 active torsions:
REMARK  status: ('A' for Active; 'I' for Inactive)
ROOT
HETATM    1  C1  UNL     1     -32.303   8.275   1.309  1.00 20.00     0.013 C 
HETATM    2  C2  UNL     1     -32.799   7.694   2.234  1.00 20.00    -0.107 C 
HETATM    3  C3  UNL     1     -33.023   5.485   3.306  1.00 20.00     0.048 C 
HETATM    4  C4  UNL     1     -34.948   7.100   3.286  1.00 20.00     0.048 C 
HETATM    5  C5  UNL     1     -33.850   4.624   4.256  1.00 20.00     0.169 C 
HETATM    6  C6  UNL     1     -35.664   6.147   4.237  1.00 20.00     0.169 C 
HETATM    7  C7  UNL     1     -33.413   6.976   3.376  1.00 20.00     0.023 C 
HETATM    8  C8  UNL     1     -32.890   7.615   4.675  1.00 20.00     0.029 C 
HETATM    9  O9  UNL     1     -35.245   4.801   4.016  1.00 20.00    -0.391 OA
ENDROOT
TORSDOF 0
ENDMDL
MODEL 5
REMARK VINA RESULT:       1.1      1.654      3.250
REMARK  0 active torsions:
REMARK  status: ('A' for Active; 'I' for Inactive)
ROOT
HETATM    1  C1  UNL     1     -31.132   4.176   0.588  1.00 20.00     0.013 C 
HETATM    2  C2  UNL     1     -31.903   4.992   1.012  1.00 20.00    -0.107 C 
HETATM    3  C3  UNL     1     -32.087   7.287   1.893  1.00 20.00     0.048 C 
HETATM    4  C4  UNL     1     -33.528   5.443   2.809  1.00 20.00     0.048 C 
HETATM    5  C5  UNL     1     -32.929   8.256   2.716  1.00 20.00     0.169 C 
HETATM    6  C6  UNL     1     -34.288   6.519   3.579  1.00 20.00     0.169 C 
HETATM    7  C7  UNL     1     -32.856   5.998   1.536  1.00 20.00     0.023 C 
HETATM    8  C8  UNL     1     -33.905   6.275   0.443  1.00 20.00     0.029 C 
HETATM    9  O9  UNL     1     -33.434   7.619   3.888  1.00 20.00    -0.391 OA
ENDROOT
TORSDOF 0
ENDMDL
MODEL 6
REMARK VINA RESULT:       1.4      1.754      3.663
REMARK  0 active torsions:
REMARK  status: ('A' for Active; 'I' for Inactive)
ROOT
HETATM    1  C1  UNL     1     -35.435   6.143   4.050  1.00 20.00     0.013 C 
HETATM    2  C2  UNL     1     -34.513   6.808   3.668  1.00 20.00    -0.107 C 
HETATM    3  C3  UNL     1     -33.911   8.818   2.375  1.00 20.00     0.048 C 
HETATM    4  C4  UNL     1     -32.466   6.764   2.295  1.00 20.00     0.048 C 
HETATM    5  C5  UNL     1     -32.809   9.535   1.601  1.00 20.00     0.169 C 
HETATM    6  C6  UNL     1     -31.447   7.599   1.527  1.00 20.00     0.169 C 
HETATM    7  C7  UNL     1     -33.373   7.628   3.196  1.00 20.00     0.023 C 
HETATM    8  C8  UNL     1     -32.599   8.123   4.432  1.00 20.00     0.029 C 
HETATM    9  O9  UNL     1     -32.095   8.621   0.771  1.00 20.00    -0.391 OA
ENDROOT
TORSDOF 0
ENDMDL
MODEL 7
REMARK VINA RESULT:       1.6      2.017      3.726
REMARK  0 active torsions:
REMARK  status: ('A' for Active; 'I' for Inactive)
ROOT
HETATM    1  C1  UNL     1     -34.353   6.635   3.721  1.00 20.00     0.013 C 
HETATM    2  C2  UNL     1     -33.586   7.358   3.148  1.00 20.00    -0.107 C 
HETATM    3  C3  UNL     1     -33.412   9.448   1.852  1.00 20.00     0.048 C 
HETATM    4  C4  UNL     1     -31.969   7.468   1.291  1.00 20.00     0.048 C 
HETATM    5  C5  UNL     1     -32.576  10.247   0.858  1.00 20.00     0.169 C 
HETATM    6  C6  UNL     1     -31.216   8.383   0.329  1.00 20.00     0.169 C 
HETATM    7  C7  UNL     1     -32.638   8.250   2.441  1.00 20.00     0.023 C 
HETATM    8  C8  UNL     1     -31.585   8.729   3.458  1.00 20.00     0.029 C 
HETATM    9  O9  UNL     1     -32.074   9.404  -0.176  1.00 20.00    -0.391 OA
ENDROOT
TORSDOF 0
ENDMDL
MODEL 8
REMARK VINA RESULT:       2.1      1.709      3.280
REMARK  0 active torsions:
REMARK  status: ('A' for Active; 'I' for Inactive)
ROOT
HETATM    1  C1  UNL     1     -34.023   4.433  -0.523  1.00 20.00     0.013 C 
HETATM    2  C2  UNL     1     -33.495   5.037   0.369  1.00 20.00    -0.107 C 
HETATM    3  C3  UNL     1     -33.865   6.013   2.602  1.00 20.00     0.048 C 
HETATM    4  C4  UNL     1     -32.362   7.150   0.940  1.00 20.00     0.048 C 
HETATM    5  C5  UNL     1     -33.374   7.027   3.630  1.00 20.00     0.169 C 
HETATM    6  C6  UNL     1     -31.957   8.098   2.064  1.00 20.00     0.169 C 
HETATM    7  C7  UNL     1     -32.842   5.783   1.469  1.00 20.00     0.023 C 
HETATM    8  C8  UNL     1     -31.652   4.945   1.972  1.00 20.00     0.029 C 
HETATM    9  O9  UNL     1     -33.021   8.257   3.001  1.00 20.00    -0.391 OA
ENDROOT
TORSDOF 0
ENDMDL
