MODEL 1
REMARK VINA RESULT:      -2.3      0.000      0.000
REMARK  2 active torsions:
REMARK  status: ('A' for Active; 'I' for Inactive)
REMARK    1  A    between atoms: C1_1  and  C3_3 
REMARK    2  A    between atoms: C1_1  and  C5_5 
ROOT
HETATM    1  C2  UNL     1     -34.126   7.621   4.310  1.00 20.00     0.098 A 
HETATM    2  C3  UNL     1     -33.502   6.510   3.490  1.00 20.00     0.134 A 
HETATM    3  C4  UNL     1     -34.967   6.538   3.746  1.00 20.00     0.255 A 
HETATM    4  F7  UNL     1     -35.550   5.605   4.574  1.00 20.00    -0.205 F 
HETATM    5  F8  UNL     1     -35.862   6.806   2.735  1.00 20.00    -0.205 F 
ENDROOT
BRANCH   2   6
HETATM    6  C1  UNL     1     -32.992   6.812   2.149  1.00 20.00     0.146 C 
HETATM    7  O6  UNL     1     -33.377   6.164   1.178  1.00 20.00    -0.297 OA
BRANCH   6   8
HETATM    8  C5  UNL     1     -31.997   7.945   2.073  1.00 20.00     0.164 C 
HETATM    9 BR9  UNL     1     -32.457   9.147   0.625  1.00 20.00    -0.089 Br
ENDBRANCH   6   8
ENDBRANCH   2   6
TORSDOF 2
ENDMDL
MODEL 2
REMARK VINA RESULT:      -2.2      1.560      1.861
REMARK  2 active torsions:
REMARK  status: ('A' for Active; 'I' for Inactive)
REMARK    1  A    between atoms: C1_1  and  C3_3 
REMARK    2  A    between atoms: C1_1  and  C5_5 
ROOT
HETATM    1  C2  UNL     1     -33.471   5.714   3.333  1.00 20.00     0.098 A 
HETATM    2  C3  UNL     1     -33.561   6.898   2.390  1.00 20.00     0.134 A 
HETATM    3  C4  UNL     1     -34.404   6.832   3.614  1.00 20.00     0.255 A 
HETATM    4  F7  UNL     1     -35.765   6.645   3.516  1.00 20.00    -0.205 F 
HETATM    5  F8  UNL     1     -34.181   7.675   4.680  1.00 20.00    -0.205 F 
ENDROOT
BRANCH   2   6
HETATM    6  C1  UNL     1     -32.445   7.846   2.327  1.00 20.00     0.146 C 
HETATM    7  O6  UNL     1     -32.015   8.370   3.353  1.00 20.00    -0.297 OA
BRANCH   6   8
HETATM    8  C5  UNL     1     -31.894   8.109   0.945  1.00 20.00     0.164 C 
HETATM    9 BR9  UNL     1     -32.465   9.849   0.314  1.00 20.00    -0.089 Br
ENDBRANCH   6   8
ENDBRANCH   2   6
TORSDOF 2
ENDMDL
MODEL 3
REMARK VINA RESULT:      -2.1      1.283      1.561
REMARK  2 active torsions:
REMARK  status: ('A' for Active; 'I' for Inactive)
REMARK    1  A    between atoms: C1_1  and  C3_3 
REMARK    2  A    between atoms: C1_1  and  C5_5 
ROOT
HETATM    1  C2  UNL     1     -33.835   5.204   3.523  1.00 20.00     0.098 A 
HETATM    2  C3  UNL     1     -33.784   6.131   2.325  1.00 20.00     0.134 A 
HETATM    3  C4  UNL     1     -34.365   6.585   3.617  1.00 20.00     0.255 A 
HETATM    4  F7  UNL     1     -35.718   6.807   3.736  1.00 20.00    -0.205 F 
HETATM    5  F8  UNL     1     -33.726   7.525   4.395  1.00 20.00    -0.205 F 
ENDROOT
BRANCH   2   6
HETATM    6  C1  UNL     1     -32.489   6.658   1.885  1.00 20.00     0.146 C 
HETATM    7  O6  UNL     1     -31.687   5.930   1.303  1.00 20.00    -0.297 OA
BRANCH   6   8
HETATM    8  C5  UNL     1     -32.241   8.115   2.196  1.00 20.00     0.164 C 
HETATM    9 BR9  UNL     1     -32.257   9.161   0.565  1.00 20.00    -0.089 Br
ENDBRANCH   6   8
ENDBRANCH   2   6
TORSDOF 2
ENDMDL
MODEL 4
REMARK VINA RESULT:      -1.8      3.268      4.018
REMARK  2 active torsions:
REMARK  status: ('A' for Active; 'I' for Inactive)
REMARK    1  A    between atoms: C1_1  and  C3_3 
REMARK    2  A    between atoms: C1_1  and  C5_5 
ROOT
HETATM    1  C2  UNL     1     -33.096   6.161   1.342  1.00 20.00     0.098 A 
HETATM    2  C3  UNL     1     -32.922   6.349   2.836  1.00 20.00     0.134 A 
HETATM    3  C4  UNL     1     -32.380   7.345   1.873  1.00 20.00     0.255 A 
HETATM    4  F7  UNL     1     -31.021   7.477   1.695  1.00 20.00    -0.205 F 
HETATM    5  F8  UNL     1     -32.932   8.601   1.761  1.00 20.00    -0.205 F 
ENDROOT
BRANCH   2   6
HETATM    6  C1  UNL     1     -34.090   6.689   3.653  1.00 20.00     0.146 C 
HETATM    7  O6  UNL     1     -34.297   7.855   3.988  1.00 20.00    -0.297 OA
BRANCH   6   8
HETATM    8  C5  UNL     1     -34.980   5.529   4.029  1.00 20.00     0.164 C 
HETATM    9 BR9  UNL     1     -33.918   3.935   4.319  1.00 20.00    -0.089 Br
ENDBRANCH   6   8
ENDBRANCH   2   6
TORSDOF 2
ENDMDL
MODEL 5
REMARK VINA RESULT:      -1.7      3.328      3.820
REMARK  2 active torsions:
REMARK  status: ('A' for Active; 'I' for Inactive)
REMARK    1  A    between atoms: C1_1  and  C3_3 
REMARK    2  A    between atoms: C1_1  and  C5_5 
ROOT
HETATM    1  C2  UNL     1     -32.046   8.292   2.987  1.00 20.00     0.098 A 
HETATM    2  C3  UNL     1     -33.102   7.524   2.217  1.00 20.00     0.134 A 
HETATM    3  C4  UNL     1     -32.099   8.362   1.507  1.00 20.00     0.255 A 
HETATM    4  F7  UNL     1     -32.481   9.526   0.877  1.00 20.00    -0.205 F 
HETATM    5  F8  UNL     1     -31.104   7.792   0.746  1.00 20.00    -0.205 F 
ENDROOT
BRANCH   2   6
HETATM    6  C1  UNL     1     -33.011   6.063   2.144  1.00 20.00     0.146 C 
HETATM    7  O6  UNL     1     -32.400   5.524   1.223  1.00 20.00    -0.297 OA
BRANCH   6   8
HETATM    8  C5  UNL     1     -33.703   5.312   3.256  1.00 20.00     0.164 C 
HETATM    9 BR9  UNL     1     -35.163   6.368   3.971  1.00 20.00    -0.089 Br
ENDBRANCH   6   8
ENDBRANCH   2   6
TORSDOF 2
ENDMDL
MODEL 6
REMARK VINA RESULT:      -1.6      3.315      4.456
REMARK  2 active torsions:
REMARK  status: ('A' for Active; 'I' for Inactive)
REMARK    1  A    between atoms: C1_1  and  C3_3 
REMARK    2  A    between atoms: C1_1  and  C5_5 
ROOT
HETATM    1  C2  UNL     1     -32.419   9.089  -0.566  1.00 20.00     0.098 A 
HETATM    2  C3  UNL     1     -31.715   8.895   0.762  1.00 20.00     0.134 A 
HETATM    3  C4  UNL     1     -32.520  10.118   0.497  1.00 20.00     0.255 A 
HETATM    4  F7  UNL     1     -31.905  11.340   0.344  1.00 20.00    -0.205 F 
HETATM    5  F8  UNL     1     -33.716  10.338   1.142  1.00 20.00    -0.205 F 
ENDROOT
BRANCH   2   6
HETATM    6  C1  UNL     1     -32.217   7.883   1.696  1.00 20.00     0.146 C 
HETATM    7  O6  UNL     1     -32.366   6.719   1.329  1.00 20.00    -0.297 OA
BRANCH   6   8
HETATM    8  C5  UNL     1     -32.517   8.378   3.090  1.00 20.00     0.164 C 
HETATM    9 BR9  UNL     1     -34.037   7.430   3.826  1.00 20.00    -0.089 Br
ENDBRANCH   6   8
ENDBRANCH   2   6
TORSDOF 2
ENDMDL
MODEL 7
REMARK VINA RESULT:      -1.4      3.082      3.850
REMARK  2 active torsions:
REMARK  status: ('A' for Active; 'I' for Inactive)
REMARK    1  A    between atoms: C1_1  and  C3_3 
REMARK    2  A    between atoms: C1_1  and  C5_5 
ROOT
HETATM    1  C2  UNL     1     -32.101   7.397   1.827  1.00 20.00     0.098 A 
HETATM    2  C3  UNL     1     -33.554   7.251   2.232  1.00 20.00     0.134 A 
HETATM    3  C4  UNL     1     -32.817   6.116   1.615  1.00 20.00     0.255 A 
HETATM    4  F7  UNL     1     -33.125   5.691   0.342  1.00 20.00    -0.205 F 
HETATM    5  F8  UNL     1     -32.481   5.001   2.349  1.00 20.00    -0.205 F 
ENDROOT
BRANCH   2   6
HETATM    6  C1  UNL     1     -33.898   7.206   3.656  1.00 20.00     0.146 C 
HETATM    7  O6  UNL     1     -33.219   7.819   4.479  1.00 20.00    -0.297 OA
BRANCH   6   8
HETATM    8  C5  UNL     1     -35.110   6.378   4.006  1.00 20.00     0.164 C 
HETATM    9 BR9  UNL     1     -34.581   4.571   4.462  1.00 20.00    -0.089 Br
ENDBRANCH   6   8
ENDBRANCH   2   6
TORSDOF 2
ENDMDL
MODEL 8
REMARK VINA RESULT:      -1.4      1.731      1.868
REMARK  2 active torsions:
REMARK  status: ('A' for Active; 'I' for Inactive)
REMARK    1  A    between atoms: C1_1  and  C3_3 
REMARK    2  A    between atoms: C1_1  and  C5_5 
ROOT
HETATM    1  C2  UNL     1     -34.212   7.613   4.446  1.00 20.00     0.098 A 
HETATM    2  C3  UNL     1     -33.540   6.547   3.604  1.00 20.00     0.134 A 
HETATM    3  C4  UNL     1     -35.008   6.516   3.845  1.00 20.00     0.255 A 
HETATM    4  F7  UNL     1     -35.565   5.541   4.642  1.00 20.00    -0.205 F 
HETATM    5  F8  UNL     1     -35.902   6.778   2.832  1.00 20.00    -0.205 F 
ENDROOT
BRANCH   2   6
HETATM    6  C1  UNL     1     -33.029   6.902   2.277  1.00 20.00     0.146 C 
HETATM    7  O6  UNL     1     -32.465   7.979   2.096  1.00 20.00    -0.297 OA
BRANCH   6   8
HETATM    8  C5  UNL     1     -33.246   5.867   1.199  1.00 20.00     0.164 C 
HETATM    9 BR9  UNL     1     -31.649   4.795   0.965  1.00 20.00    -0.089 Br
ENDBRANCH   6   8
ENDBRANCH   2   6
TORSDOF 2
ENDMDL
MODEL 9
REMARK VINA RESULT:      -1.3      1.974      2.285
REMARK  2 active torsions:
REMARK  status: ('A' for Active; 'I' for Inactive)
REMARK    1  A    between atoms: C1_1  and  C3_3 
REMARK    2  A    between atoms: C1_1  and  C5_5 
ROOT
HETATM    1  C2  UNL     1     -35.285   6.370   4.214  1.00 20.00     0.098 A 
HETATM    2  C3  UNL     1     -34.445   6.473   2.957  1.00 20.00     0.134 A 
HETATM    3  C4  UNL     1     -34.324   7.486   4.039  1.00 20.00     0.255 A 
HETATM    4  F7  UNL     1     -34.777   8.772   3.846  1.00 20.00    -0.205 F 
HETATM    5  F8  UNL     1     -33.194   7.562   4.821  1.00 20.00    -0.205 F 
ENDROOT
BRANCH   2   6
HETATM    6  C1  UNL     1     -33.363   5.508   2.740  1.00 20.00     0.146 C 
HETATM    7  O6  UNL     1     -33.263   4.514   3.458  1.00 20.00    -0.297 OA
BRANCH   6   8
HETATM    8  C5  UNL     1     -32.425   5.830   1.602  1.00 20.00     0.164 C 
HETATM    9 BR9  UNL     1     -31.964   7.712   1.623  1.00 20.00    -0.089 Br
ENDBRANCH   6   8
ENDBRANCH   2   6
TORSDOF 2
ENDMDL
