MODEL 1
REMARK VINA RESULT:      -1.7      0.000      0.000
REMARK  0 active torsions:
REMARK  status: ('A' for Active; 'I' for Inactive)
ROOT
HETATM    1  C1  UNL     1     -31.948   7.041   1.593  1.00 20.00     0.116 A 
HETATM    2  C2  UNL     1     -33.460   7.682   3.386  1.00 20.00     0.084 A 
HETATM    3  C3  UNL     1     -32.362   7.942   2.492  1.00 20.00     0.124 A 
HETATM    4  C4  UNL     1     -34.080   6.500   3.310  1.00 20.00     0.109 A 
HETATM    5  C5  UNL     1     -32.644   5.722   1.513  1.00 20.00     0.249 A 
HETATM    6  N6  UNL     1     -33.691   5.545   2.406  1.00 20.00    -0.314 N 
HETATM    7  O7  UNL     1     -32.283   4.878   0.697  1.00 20.00    -0.268 OA
HETATM    8  F8  UNL     1     -31.748   9.141   2.582  1.00 20.00    -0.206 F 
HETATM    9 CL9  UNL     1     -35.396   6.048   4.303  1.00 20.00    -0.064 Cl
HETATM   10  H12 UNL     1     -34.204   4.668   2.399  1.00 20.00     0.170 HD
ENDROOT
TORSDOF 0
ENDMDL
MODEL 2
REMARK VINA RESULT:      -1.5      2.386      2.736
REMARK  0 active torsions:
REMARK  status: ('A' for Active; 'I' for Inactive)
ROOT
HETATM    1  C1  UNL     1     -31.890   6.880   1.390  1.00 20.00     0.116 A 
HETATM    2  C2  UNL     1     -33.573   5.404   2.340  1.00 20.00     0.084 A 
HETATM    3  C3  UNL     1     -32.483   5.681   1.440  1.00 20.00     0.124 A 
HETATM    4  C4  UNL     1     -34.000   6.381   3.147  1.00 20.00     0.109 A 
HETATM    5  C5  UNL     1     -32.371   7.967   2.293  1.00 20.00     0.249 A 
HETATM    6  N6  UNL     1     -33.423   7.625   3.131  1.00 20.00    -0.314 N 
HETATM    7  O7  UNL     1     -31.843   9.076   2.267  1.00 20.00    -0.268 OA
HETATM    8  F8  UNL     1     -32.065   4.683   0.633  1.00 20.00    -0.206 F 
HETATM    9 CL9  UNL     1     -35.280   6.203   4.265  1.00 20.00    -0.064 Cl
HETATM   10  H12 UNL     1     -33.794   8.323   3.769  1.00 20.00     0.170 HD
ENDROOT
TORSDOF 0
ENDMDL
MODEL 3
REMARK VINA RESULT:      -1.4      2.325      2.832
REMARK  0 active torsions:
REMARK  status: ('A' for Active; 'I' for Inactive)
ROOT
HETATM    1  C1  UNL     1     -33.483   7.690   3.641  1.00 20.00     0.116 A 
HETATM    2  C2  UNL     1     -32.055   6.988   1.803  1.00 20.00     0.084 A 
HETATM    3  C3  UNL     1     -32.437   7.914   2.838  1.00 20.00     0.124 A 
HETATM    4  C4  UNL     1     -32.774   5.872   1.646  1.00 20.00     0.109 A 
HETATM    5  C5  UNL     1     -34.283   6.441   3.461  1.00 20.00     0.249 A 
HETATM    6  N6  UNL     1     -33.855   5.599   2.445  1.00 20.00    -0.314 N 
HETATM    7  O7  UNL     1     -35.249   6.212   4.186  1.00 20.00    -0.268 OA
HETATM    8  F8  UNL     1     -31.699   9.035   2.982  1.00 20.00    -0.206 F 
HETATM    9 CL9  UNL     1     -32.443   4.683   0.464  1.00 20.00    -0.064 Cl
HETATM   10  H12 UNL     1     -34.359   4.734   2.274  1.00 20.00     0.170 HD
ENDROOT
TORSDOF 0
ENDMDL
MODEL 4
REMARK VINA RESULT:      -1.2      2.926      3.404
REMARK  0 active torsions:
REMARK  status: ('A' for Active; 'I' for Inactive)
ROOT
HETATM    1  C1  UNL     1     -33.528   7.721   3.607  1.00 20.00     0.116 A 
HETATM    2  C2  UNL     1     -33.913   5.570   2.541  1.00 20.00     0.084 A 
HETATM    3  C3  UNL     1     -34.229   6.584   3.513  1.00 20.00     0.124 A 
HETATM    4  C4  UNL     1     -32.885   5.776   1.712  1.00 20.00     0.109 A 
HETATM    5  C5  UNL     1     -32.380   7.946   2.679  1.00 20.00     0.249 A 
HETATM    6  N6  UNL     1     -32.137   6.924   1.772  1.00 20.00    -0.314 N 
HETATM    7  O7  UNL     1     -31.721   8.980   2.745  1.00 20.00    -0.268 OA
HETATM    8  F8  UNL     1     -35.270   6.359   4.341  1.00 20.00    -0.206 F 
HETATM    9 CL9  UNL     1     -32.391   4.665   0.510  1.00 20.00    -0.064 Cl
HETATM   10  H12 UNL     1     -31.370   7.020   1.113  1.00 20.00     0.170 HD
ENDROOT
TORSDOF 0
ENDMDL
MODEL 5
REMARK VINA RESULT:      -1.0      2.625      3.149
REMARK  0 active torsions:
REMARK  status: ('A' for Active; 'I' for Inactive)
ROOT
HETATM    1  C1  UNL     1     -34.758   6.556   4.272  1.00 20.00     0.116 A 
HETATM    2  C2  UNL     1     -33.196   7.203   2.524  1.00 20.00     0.084 A 
HETATM    3  C3  UNL     1     -34.133   7.512   3.574  1.00 20.00     0.124 A 
HETATM    4  C4  UNL     1     -32.951   5.919   2.242  1.00 20.00     0.109 A 
HETATM    5  C5  UNL     1     -34.480   5.123   3.953  1.00 20.00     0.249 A 
HETATM    6  N6  UNL     1     -33.568   4.906   2.930  1.00 20.00    -0.314 N 
HETATM    7  O7  UNL     1     -35.041   4.227   4.579  1.00 20.00    -0.268 OA
HETATM    8  F8  UNL     1     -34.368   8.813   3.844  1.00 20.00    -0.206 F 
HETATM    9 CL9  UNL     1     -31.868   5.400   1.026  1.00 20.00    -0.064 Cl
HETATM   10  H12 UNL     1     -33.337   3.952   2.667  1.00 20.00     0.170 HD
ENDROOT
TORSDOF 0
ENDMDL
MODEL 6
REMARK VINA RESULT:      -1.0      3.070      3.546
REMARK  0 active torsions:
REMARK  status: ('A' for Active; 'I' for Inactive)
ROOT
HETATM    1  C1  UNL     1     -33.203   5.603   2.568  1.00 20.00     0.116 A 
HETATM    2  C2  UNL     1     -31.939   7.095   1.123  1.00 20.00     0.084 A 
HETATM    3  C3  UNL     1     -32.295   5.784   1.602  1.00 20.00     0.124 A 
HETATM    4  C4  UNL     1     -32.537   8.159   1.668  1.00 20.00     0.109 A 
HETATM    5  C5  UNL     1     -33.868   6.796   3.173  1.00 20.00     0.249 A 
HETATM    6  N6  UNL     1     -33.473   8.024   2.661  1.00 20.00    -0.314 N 
HETATM    7  O7  UNL     1     -34.705   6.657   4.062  1.00 20.00    -0.268 OA
HETATM    8  F8  UNL     1     -31.681   4.722   1.041  1.00 20.00    -0.206 F 
HETATM    9 CL9  UNL     1     -32.218   9.773   1.205  1.00 20.00    -0.064 Cl
HETATM   10  H12 UNL     1     -33.891   8.872   3.032  1.00 20.00     0.170 HD
ENDROOT
TORSDOF 0
ENDMDL
MODEL 7
REMARK VINA RESULT:      -0.8      2.611      2.903
REMARK  0 active torsions:
REMARK  status: ('A' for Active; 'I' for Inactive)
ROOT
HETATM    1  C1  UNL     1     -33.526   5.985   2.983  1.00 20.00     0.116 A 
HETATM    2  C2  UNL     1     -33.248   8.394   2.806  1.00 20.00     0.084 A 
HETATM    3  C3  UNL     1     -33.764   7.215   3.453  1.00 20.00     0.124 A 
HETATM    4  C4  UNL     1     -32.511   8.246   1.701  1.00 20.00     0.109 A 
HETATM    5  C5  UNL     1     -32.702   5.826   1.748  1.00 20.00     0.249 A 
HETATM    6  N6  UNL     1     -32.241   7.006   1.182  1.00 20.00    -0.314 N 
HETATM    7  O7  UNL     1     -32.469   4.707   1.296  1.00 20.00    -0.268 OA
HETATM    8  F8  UNL     1     -34.506   7.383   4.568  1.00 20.00    -0.206 F 
HETATM    9 CL9  UNL     1     -31.834   9.548   0.826  1.00 20.00    -0.064 Cl
HETATM   10  H12 UNL     1     -31.674   6.963   0.340  1.00 20.00     0.170 HD
ENDROOT
TORSDOF 0
ENDMDL
MODEL 8
REMARK VINA RESULT:      -0.6      2.523      2.967
REMARK  0 active torsions:
REMARK  status: ('A' for Active; 'I' for Inactive)
ROOT
HETATM    1  C1  UNL     1     -34.032   6.574   2.803  1.00 20.00     0.116 A 
HETATM    2  C2  UNL     1     -34.644   4.864   4.419  1.00 20.00     0.084 A 
HETATM    3  C3  UNL     1     -34.807   6.160   3.812  1.00 20.00     0.124 A 
HETATM    4  C4  UNL     1     -33.686   4.056   3.954  1.00 20.00     0.109 A 
HETATM    5  C5  UNL     1     -32.963   5.668   2.288  1.00 20.00     0.249 A 
HETATM    6  N6  UNL     1     -32.867   4.437   2.922  1.00 20.00    -0.314 N 
HETATM    7  O7  UNL     1     -32.238   6.024   1.362  1.00 20.00    -0.268 OA
HETATM    8  F8  UNL     1     -35.780   6.962   4.294  1.00 20.00    -0.206 F 
HETATM    9 CL9  UNL     1     -33.374   2.493   4.572  1.00 20.00    -0.064 Cl
HETATM   10  H12 UNL     1     -32.159   3.777   2.616  1.00 20.00     0.170 HD
ENDROOT
TORSDOF 0
ENDMDL
MODEL 9
REMARK VINA RESULT:      -0.3      2.391      2.881
REMARK  0 active torsions:
REMARK  status: ('A' for Active; 'I' for Inactive)
ROOT
HETATM    1  C1  UNL     1     -33.033   8.471   2.761  1.00 20.00     0.116 A 
HETATM    2  C2  UNL     1     -32.047   7.056   1.047  1.00 20.00     0.084 A 
HETATM    3  C3  UNL     1     -32.270   8.335   1.669  1.00 20.00     0.124 A 
HETATM    4  C4  UNL     1     -32.624   5.975   1.581  1.00 20.00     0.109 A 
HETATM    5  C5  UNL     1     -33.676   7.259   3.353  1.00 20.00     0.249 A 
HETATM    6  N6  UNL     1     -33.414   6.064   2.698  1.00 20.00    -0.314 N 
HETATM    7  O7  UNL     1     -34.381   7.357   4.354  1.00 20.00    -0.268 OA
HETATM    8  F8  UNL     1     -31.680   9.416   1.117  1.00 20.00    -0.206 F 
HETATM    9 CL9  UNL     1     -32.451   4.394   0.954  1.00 20.00    -0.064 Cl
HETATM   10  H12 UNL     1     -33.823   5.205   3.054  1.00 20.00     0.170 HD
ENDROOT
TORSDOF 0
ENDMDL
