MODEL 1
REMARK VINA RESULT:      -1.9      0.000      0.000
REMARK  1 active torsions:
REMARK  status: ('A' for Active; 'I' for Inactive)
REMARK    1  A    between atoms: C3_3  and  C6_6 
ROOT
HETATM    1  C1  UNL     1     -33.044   8.089   3.034  1.00 20.00     0.055 A 
HETATM    2  C2  UNL     1     -34.164   6.084   3.656  1.00 20.00     0.160 A 
HETATM    3  C3  UNL     1     -32.470   7.402   1.971  1.00 20.00    -0.001 A 
HETATM    4  C4  UNL     1     -33.908   7.424   3.898  1.00 20.00     0.134 A 
HETATM    5  C5  UNL     1     -32.790   6.063   1.815  1.00 20.00     0.133 A 
HETATM    6  N7  UNL     1     -33.625   5.384   2.634  1.00 20.00    -0.245 NA
HETATM    7  F8  UNL     1     -34.475   8.059   4.931  1.00 20.00    -0.205 F 
HETATM    8 CL9  UNL     1     -32.144   5.106   0.539  1.00 20.00    -0.062 Cl
ENDROOT
BRANCH   3   9
HETATM    9  C6  UNL     1     -31.546   8.119   1.048  1.00 20.00     0.156 C 
HETATM   10 CL10 UNL     1     -32.331   9.563   0.367  1.00 20.00    -0.125 Cl
ENDBRANCH   3   9
TORSDOF 1
ENDMDL
MODEL 2
REMARK VINA RESULT:      -1.5      3.084      4.484
REMARK  1 active torsions:
REMARK  status: ('A' for Active; 'I' for Inactive)
REMARK    1  A    between atoms: C3_3  and  C6_6 
ROOT
HETATM    1  C1  UNL     1     -33.022   5.133   2.170  1.00 20.00     0.055 A 
HETATM    2  C2  UNL     1     -32.018   7.196   1.544  1.00 20.00     0.160 A 
HETATM    3  C3  UNL     1     -33.667   5.796   3.206  1.00 20.00    -0.001 A 
HETATM    4  C4  UNL     1     -32.179   5.839   1.318  1.00 20.00     0.134 A 
HETATM    5  C5  UNL     1     -33.440   7.155   3.348  1.00 20.00     0.133 A 
HETATM    6  N7  UNL     1     -32.628   7.875   2.541  1.00 20.00    -0.245 NA
HETATM    7  F8  UNL     1     -31.544   5.227   0.312  1.00 20.00    -0.205 F 
HETATM    8 CL9  UNL     1     -34.179   8.086   4.592  1.00 20.00    -0.062 Cl
ENDROOT
BRANCH   3   9
HETATM    9  C6  UNL     1     -34.571   5.034   4.115  1.00 20.00     0.156 C 
HETATM   10 CL10 UNL     1     -33.842   3.475   4.564  1.00 20.00    -0.125 Cl
ENDBRANCH   3   9
TORSDOF 1
ENDMDL
MODEL 3
REMARK VINA RESULT:      -1.3      1.648      2.821
REMARK  1 active torsions:
REMARK  status: ('A' for Active; 'I' for Inactive)
REMARK    1  A    between atoms: C3_3  and  C6_6 
ROOT
HETATM    1  C1  UNL     1     -33.947   5.405   2.858  1.00 20.00     0.055 A 
HETATM    2  C2  UNL     1     -34.311   7.431   4.049  1.00 20.00     0.160 A 
HETATM    3  C3  UNL     1     -32.974   6.055   2.109  1.00 20.00    -0.001 A 
HETATM    4  C4  UNL     1     -34.634   6.099   3.849  1.00 20.00     0.134 A 
HETATM    5  C5  UNL     1     -32.725   7.389   2.387  1.00 20.00     0.133 A 
HETATM    6  N7  UNL     1     -33.371   8.097   3.341  1.00 20.00    -0.245 NA
HETATM    7  F8  UNL     1     -35.576   5.499   4.585  1.00 20.00    -0.205 F 
HETATM    8 CL9  UNL     1     -31.546   8.303   1.529  1.00 20.00    -0.062 Cl
ENDROOT
BRANCH   3   9
HETATM    9  C6  UNL     1     -32.241   5.306   1.049  1.00 20.00     0.156 C 
HETATM   10 CL10 UNL     1     -33.378   4.458  -0.024  1.00 20.00    -0.125 Cl
ENDBRANCH   3   9
TORSDOF 1
ENDMDL
MODEL 4
REMARK VINA RESULT:      -0.9      2.814      3.458
REMARK  1 active torsions:
REMARK  status: ('A' for Active; 'I' for Inactive)
REMARK    1  A    between atoms: C3_3  and  C6_6 
ROOT
HETATM    1  C1  UNL     1     -32.740   8.010   2.510  1.00 20.00     0.055 A 
HETATM    2  C2  UNL     1     -32.048   6.192   1.140  1.00 20.00     0.160 A 
HETATM    3  C3  UNL     1     -33.477   7.114   3.274  1.00 20.00    -0.001 A 
HETATM    4  C4  UNL     1     -32.009   7.548   1.420  1.00 20.00     0.134 A 
HETATM    5  C5  UNL     1     -33.451   5.777   2.912  1.00 20.00     0.133 A 
HETATM    6  N7  UNL     1     -32.753   5.291   1.860  1.00 20.00    -0.245 NA
HETATM    7  F8  UNL     1     -31.290   8.388   0.666  1.00 20.00    -0.205 F 
HETATM    8 CL9  UNL     1     -34.323   4.572   3.777  1.00 20.00    -0.062 Cl
ENDROOT
BRANCH   3   9
HETATM    9  C6  UNL     1     -34.258   7.613   4.442  1.00 20.00     0.156 C 
HETATM   10 CL10 UNL     1     -33.189   8.413   5.617  1.00 20.00    -0.125 Cl
ENDBRANCH   3   9
TORSDOF 1
ENDMDL
MODEL 5
REMARK VINA RESULT:      -0.8      1.879      3.348
REMARK  1 active torsions:
REMARK  status: ('A' for Active; 'I' for Inactive)
REMARK    1  A    between atoms: C3_3  and  C6_6 
ROOT
HETATM    1  C1  UNL     1     -34.122   6.198   3.991  1.00 20.00     0.055 A 
HETATM    2  C2  UNL     1     -33.046   7.962   2.813  1.00 20.00     0.160 A 
HETATM    3  C3  UNL     1     -33.588   5.301   3.074  1.00 20.00    -0.001 A 
HETATM    4  C4  UNL     1     -33.851   7.557   3.865  1.00 20.00     0.134 A 
HETATM    5  C5  UNL     1     -32.794   5.807   2.058  1.00 20.00     0.133 A 
HETATM    6  N7  UNL     1     -32.508   7.120   1.903  1.00 20.00    -0.245 NA
HETATM    7  F8  UNL     1     -34.353   8.443   4.732  1.00 20.00    -0.205 F 
HETATM    8 CL9  UNL     1     -32.076   4.799   0.863  1.00 20.00    -0.062 Cl
ENDROOT
BRANCH   3   9
HETATM    9  C6  UNL     1     -33.880   3.846   3.215  1.00 20.00     0.156 C 
HETATM   10 CL10 UNL     1     -33.258   3.225   4.761  1.00 20.00    -0.125 Cl
ENDBRANCH   3   9
TORSDOF 1
ENDMDL
MODEL 6
REMARK VINA RESULT:      -0.7      2.633      3.123
REMARK  1 active torsions:
REMARK  status: ('A' for Active; 'I' for Inactive)
REMARK    1  A    between atoms: C3_3  and  C6_6 
ROOT
HETATM    1  C1  UNL     1     -31.986   6.792   1.164  1.00 20.00     0.055 A 
HETATM    2  C2  UNL     1     -33.128   5.009   2.247  1.00 20.00     0.160 A 
HETATM    3  C3  UNL     1     -32.548   7.670   2.083  1.00 20.00    -0.001 A 
HETATM    4  C4  UNL     1     -32.277   5.434   1.240  1.00 20.00     0.134 A 
HETATM    5  C5  UNL     1     -33.388   7.145   3.052  1.00 20.00     0.133 A 
HETATM    6  N7  UNL     1     -33.693   5.832   3.158  1.00 20.00    -0.245 NA
HETATM    7  F8  UNL     1     -31.750   4.566   0.369  1.00 20.00    -0.205 F 
HETATM    8 CL9  UNL     1     -34.144   8.128   4.244  1.00 20.00    -0.062 Cl
ENDROOT
BRANCH   3   9
HETATM    9  C6  UNL     1     -32.233   9.124   1.998  1.00 20.00     0.156 C 
HETATM   10 CL10 UNL     1     -32.359   9.698   0.319  1.00 20.00    -0.125 Cl
ENDBRANCH   3   9
TORSDOF 1
ENDMDL
MODEL 7
REMARK VINA RESULT:      -0.5      2.920      3.555
REMARK  1 active torsions:
REMARK  status: ('A' for Active; 'I' for Inactive)
REMARK    1  A    between atoms: C3_3  and  C6_6 
ROOT
HETATM    1  C1  UNL     1     -32.874   8.062   2.464  1.00 20.00     0.055 A 
HETATM    2  C2  UNL     1     -31.814   6.492   1.026  1.00 20.00     0.160 A 
HETATM    3  C3  UNL     1     -33.446   7.000   3.153  1.00 20.00    -0.001 A 
HETATM    4  C4  UNL     1     -32.041   7.812   1.378  1.00 20.00     0.134 A 
HETATM    5  C5  UNL     1     -33.157   5.716   2.721  1.00 20.00     0.133 A 
HETATM    6  N7  UNL     1     -32.353   5.433   1.671  1.00 20.00    -0.245 NA
HETATM    7  F8  UNL     1     -31.476   8.815   0.697  1.00 20.00    -0.205 F 
HETATM    8 CL9  UNL     1     -33.805   4.320   3.490  1.00 20.00    -0.062 Cl
ENDROOT
BRANCH   3   9
HETATM    9  C6  UNL     1     -34.337   7.274   4.316  1.00 20.00     0.156 C 
HETATM   10 CL10 UNL     1     -35.741   6.182   4.304  1.00 20.00    -0.125 Cl
ENDBRANCH   3   9
TORSDOF 1
ENDMDL
MODEL 8
REMARK VINA RESULT:      -0.1      2.661      3.249
REMARK  1 active torsions:
REMARK  status: ('A' for Active; 'I' for Inactive)
REMARK    1  A    between atoms: C3_3  and  C6_6 
ROOT
HETATM    1  C1  UNL     1     -33.185   4.660   2.995  1.00 20.00     0.055 A 
HETATM    2  C2  UNL     1     -34.899   4.749   4.641  1.00 20.00     0.160 A 
HETATM    3  C3  UNL     1     -33.419   6.002   2.722  1.00 20.00    -0.001 A 
HETATM    4  C4  UNL     1     -33.935   4.013   3.971  1.00 20.00     0.134 A 
HETATM    5  C5  UNL     1     -34.406   6.649   3.448  1.00 20.00     0.133 A 
HETATM    6  N7  UNL     1     -35.155   6.054   4.404  1.00 20.00    -0.245 NA
HETATM    7  F8  UNL     1     -33.732   2.721   4.254  1.00 20.00    -0.205 F 
HETATM    8 CL9  UNL     1     -34.789   8.308   3.202  1.00 20.00    -0.062 Cl
ENDROOT
BRANCH   3   9
HETATM    9  C6  UNL     1     -32.611   6.690   1.676  1.00 20.00     0.156 C 
HETATM   10 CL10 UNL     1     -31.752   8.089   2.361  1.00 20.00    -0.125 Cl
ENDBRANCH   3   9
TORSDOF 1
ENDMDL
MODEL 9
REMARK VINA RESULT:      -0.0      2.149      3.343
REMARK  1 active torsions:
REMARK  status: ('A' for Active; 'I' for Inactive)
REMARK    1  A    between atoms: C3_3  and  C6_6 
ROOT
HETATM    1  C1  UNL     1     -33.098   7.545   3.894  1.00 20.00     0.055 A 
HETATM    2  C2  UNL     1     -31.590   8.103   2.141  1.00 20.00     0.160 A 
HETATM    3  C3  UNL     1     -33.603   6.527   3.095  1.00 20.00    -0.001 A 
HETATM    4  C4  UNL     1     -32.072   8.354   3.415  1.00 20.00     0.134 A 
HETATM    5  C5  UNL     1     -33.053   6.358   1.835  1.00 20.00     0.133 A 
HETATM    6  N7  UNL     1     -32.056   7.123   1.335  1.00 20.00    -0.245 NA
HETATM    7  F8  UNL     1     -31.567   9.342   4.162  1.00 20.00    -0.205 F 
HETATM    8 CL9  UNL     1     -33.593   5.134   0.753  1.00 20.00    -0.062 Cl
ENDROOT
BRANCH   3   9
HETATM    9  C6  UNL     1     -34.701   5.663   3.614  1.00 20.00     0.156 C 
HETATM   10 CL10 UNL     1     -34.067   4.085   4.137  1.00 20.00    -0.125 Cl
ENDBRANCH   3   9
TORSDOF 1
ENDMDL
