MODEL 1
REMARK VINA RESULT:       0.1      0.000      0.000
REMARK  0 active torsions:
REMARK  status: ('A' for Active; 'I' for Inactive)
ROOT
HETATM    1  C1  UNL     1     -34.616   7.541   4.602  1.00 20.00     0.002 C 
HETATM    2  C2  UNL     1     -33.507   8.193   4.218  1.00 20.00     0.028 C 
HETATM    3  C3  UNL     1     -35.103   6.361   3.911  1.00 20.00    -0.003 C 
HETATM    4  C4  UNL     1     -34.318   5.674   3.064  1.00 20.00    -0.011 C 
HETATM    5  C5  UNL     1     -31.906   7.332   1.179  1.00 20.00     0.132 C 
HETATM    6  C6  UNL     1     -32.338   6.105   1.478  1.00 20.00     0.020 C 
HETATM    7  C7  UNL     1     -32.814   7.599   3.058  1.00 20.00     0.046 C 
HETATM    8  C8  UNL     1     -32.896   6.087   2.857  1.00 20.00     0.102 C 
HETATM    9  N9  UNL     1     -32.176   8.267   2.144  1.00 20.00    -0.263 NA
HETATM   10 BR10 UNL     1     -32.164   4.573   0.484  1.00 20.00    -0.053 Br
ENDROOT
TORSDOF 0
ENDMDL
MODEL 2
REMARK VINA RESULT:       0.2      1.918      3.328
REMARK  0 active torsions:
REMARK  status: ('A' for Active; 'I' for Inactive)
ROOT
HETATM    1  C1  UNL     1     -31.507   7.245   1.034  1.00 20.00     0.002 C 
HETATM    2  C2  UNL     1     -31.966   8.254   1.790  1.00 20.00     0.028 C 
HETATM    3  C3  UNL     1     -31.922   5.868   1.239  1.00 20.00    -0.003 C 
HETATM    4  C4  UNL     1     -33.009   5.568   1.969  1.00 20.00    -0.011 C 
HETATM    5  C5  UNL     1     -33.912   7.571   4.669  1.00 20.00     0.132 C 
HETATM    6  C6  UNL     1     -34.345   6.538   3.943  1.00 20.00     0.020 C 
HETATM    7  C7  UNL     1     -32.941   7.855   2.825  1.00 20.00     0.046 C 
HETATM    8  C8  UNL     1     -33.851   6.661   2.545  1.00 20.00     0.102 C 
HETATM    9  N9  UNL     1     -33.057   8.404   3.997  1.00 20.00    -0.263 NA
HETATM   10 BR10 UNL     1     -35.509   5.212   4.446  1.00 20.00    -0.053 Br
ENDROOT
TORSDOF 0
ENDMDL
MODEL 3
REMARK VINA RESULT:       0.3      1.928      2.502
REMARK  0 active torsions:
REMARK  status: ('A' for Active; 'I' for Inactive)
ROOT
HETATM    1  C1  UNL     1     -34.741   5.529   4.288  1.00 20.00     0.002 C 
HETATM    2  C2  UNL     1     -34.162   4.846   3.288  1.00 20.00     0.028 C 
HETATM    3  C3  UNL     1     -34.514   6.948   4.495  1.00 20.00    -0.003 C 
HETATM    4  C4  UNL     1     -33.981   7.718   3.531  1.00 20.00    -0.011 C 
HETATM    5  C5  UNL     1     -31.655   6.380   1.312  1.00 20.00     0.132 C 
HETATM    6  C6  UNL     1     -32.370   7.485   1.538  1.00 20.00     0.020 C 
HETATM    7  C7  UNL     1     -33.301   5.658   2.405  1.00 20.00     0.046 C 
HETATM    8  C8  UNL     1     -33.656   7.129   2.195  1.00 20.00     0.102 C 
HETATM    9  N9  UNL     1     -32.216   5.240   1.825  1.00 20.00    -0.263 NA
HETATM   10 BR10 UNL     1     -31.995   9.201   1.007  1.00 20.00    -0.053 Br
ENDROOT
TORSDOF 0
ENDMDL
MODEL 4
REMARK VINA RESULT:       1.2      2.425      3.963
REMARK  0 active torsions:
REMARK  status: ('A' for Active; 'I' for Inactive)
ROOT
HETATM    1  C1  UNL     1     -31.625   9.630  -0.140  1.00 20.00     0.002 C 
HETATM    2  C2  UNL     1     -31.139   8.395   0.064  1.00 20.00     0.028 C 
HETATM    3  C3  UNL     1     -32.762  10.150   0.599  1.00 20.00    -0.003 C 
HETATM    4  C4  UNL     1     -33.187   9.564   1.731  1.00 20.00    -0.011 C 
HETATM    5  C5  UNL     1     -32.892   6.118   2.134  1.00 20.00     0.132 C 
HETATM    6  C6  UNL     1     -33.230   7.224   2.801  1.00 20.00     0.020 C 
HETATM    7  C7  UNL     1     -31.836   7.624   1.112  1.00 20.00     0.046 C 
HETATM    8  C8  UNL     1     -32.455   8.383   2.284  1.00 20.00     0.102 C 
HETATM    9  N9  UNL     1     -32.022   6.339   1.097  1.00 20.00    -0.263 NA
HETATM   10 BR10 UNL     1     -34.338   7.371   4.256  1.00 20.00    -0.053 Br
ENDROOT
TORSDOF 0
ENDMDL
MODEL 5
REMARK VINA RESULT:       1.9      1.616      2.473
REMARK  0 active torsions:
REMARK  status: ('A' for Active; 'I' for Inactive)
ROOT
HETATM    1  C1  UNL     1     -33.796   8.352   4.088  1.00 20.00     0.002 C 
HETATM    2  C2  UNL     1     -34.521   7.227   4.189  1.00 20.00     0.028 C 
HETATM    3  C3  UNL     1     -32.596   8.435   3.275  1.00 20.00    -0.003 C 
HETATM    4  C4  UNL     1     -32.322   7.510   2.339  1.00 20.00    -0.011 C 
HETATM    5  C5  UNL     1     -33.300   4.202   2.810  1.00 20.00     0.132 C 
HETATM    6  C6  UNL     1     -32.766   5.014   1.896  1.00 20.00     0.020 C 
HETATM    7  C7  UNL     1     -34.014   6.095   3.389  1.00 20.00     0.046 C 
HETATM    8  C8  UNL     1     -33.285   6.396   2.081  1.00 20.00     0.102 C 
HETATM    9  N9  UNL     1     -34.085   4.844   3.733  1.00 20.00    -0.263 NA
HETATM   10 BR10 UNL     1     -31.685   4.568   0.482  1.00 20.00    -0.053 Br
ENDROOT
TORSDOF 0
ENDMDL
MODEL 6
REMARK VINA RESULT:       2.1      2.555      4.047
REMARK  0 active torsions:
REMARK  status: ('A' for Active; 'I' for Inactive)
ROOT
HETATM    1  C1  UNL     1     -32.032   6.624   0.856  1.00 20.00     0.002 C 
HETATM    2  C2  UNL     1     -32.804   5.710   1.463  1.00 20.00     0.028 C 
HETATM    3  C3  UNL     1     -31.883   7.977   1.363  1.00 20.00    -0.003 C 
HETATM    4  C4  UNL     1     -32.242   8.296   2.618  1.00 20.00    -0.011 C 
HETATM    5  C5  UNL     1     -34.917   6.668   4.139  1.00 20.00     0.132 C 
HETATM    6  C6  UNL     1     -33.937   7.536   4.398  1.00 20.00     0.020 C 
HETATM    7  C7  UNL     1     -33.465   6.182   2.695  1.00 20.00     0.046 C 
HETATM    8  C8  UNL     1     -32.758   7.239   3.541  1.00 20.00     0.102 C 
HETATM    9  N9  UNL     1     -34.643   5.814   3.102  1.00 20.00    -0.263 NA
HETATM   10 BR10 UNL     1     -33.885   8.822   5.706  1.00 20.00    -0.053 Br
ENDROOT
TORSDOF 0
ENDMDL
MODEL 7
REMARK VINA RESULT:       2.9      1.898      2.515
REMARK  0 active torsions:
REMARK  status: ('A' for Active; 'I' for Inactive)
ROOT
HETATM    1  C1  UNL     1     -33.764   6.150   3.306  1.00 20.00     0.002 C 
HETATM    2  C2  UNL     1     -33.722   7.464   3.577  1.00 20.00     0.028 C 
HETATM    3  C3  UNL     1     -33.232   5.593   2.075  1.00 20.00    -0.003 C 
HETATM    4  C4  UNL     1     -32.394   6.296   1.295  1.00 20.00    -0.011 C 
HETATM    5  C5  UNL     1     -32.692   9.758   1.084  1.00 20.00     0.132 C 
HETATM    6  C6  UNL     1     -31.904   8.751   0.701  1.00 20.00     0.020 C 
HETATM    7  C7  UNL     1     -33.070   8.287   2.539  1.00 20.00     0.046 C 
HETATM    8  C8  UNL     1     -31.949   7.661   1.712  1.00 20.00     0.102 C 
HETATM    9  N9  UNL     1     -33.411   9.500   2.222  1.00 20.00    -0.263 NA
HETATM   10 BR10 UNL     1     -30.769   8.690  -0.739  1.00 20.00    -0.053 Br
ENDROOT
TORSDOF 0
ENDMDL
