MODEL 1
REMARK VINA RESULT:       1.1      0.000      0.000
REMARK  0 active torsions:
REMARK  status: ('A' for Active; 'I' for Inactive)
ROOT
HETATM    1  C1  UNL     1     -33.098   5.388   0.540  1.00 20.00    -0.025 C 
HETATM    2  C2  UNL     1     -33.311   6.709   0.378  1.00 20.00    -0.025 C 
HETATM    3  C3  UNL     1     -34.496   4.955   3.842  1.00 20.00    -0.024 C 
HETATM    4  C4  UNL     1     -35.111   6.000   4.444  1.00 20.00    -0.025 C 
HETATM    5  C5  UNL     1     -31.667   6.541   1.921  1.00 20.00     0.018 C 
HETATM    6  C6  UNL     1     -32.444   5.186   1.886  1.00 20.00     0.016 C 
HETATM    7  C7  UNL     1     -32.920   7.398   1.686  1.00 20.00     0.014 C 
HETATM    8  C8  UNL     1     -33.332   5.497   3.103  1.00 20.00     0.021 C 
HETATM    9  C9  UNL     1     -34.560   7.355   3.974  1.00 20.00     0.009 C 
HETATM   10  C10 UNL     1     -33.967   6.847   2.673  1.00 20.00     0.009 C 
HETATM   11  C11 UNL     1     -33.592   8.018   4.939  1.00 20.00     0.014 C 
ENDROOT
TORSDOF 0
ENDMDL
MODEL 2
REMARK VINA RESULT:       1.2      0.921      2.330
REMARK  0 active torsions:
REMARK  status: ('A' for Active; 'I' for Inactive)
ROOT
HETATM    1  C1  UNL     1     -31.175   6.781   1.600  1.00 20.00    -0.025 C 
HETATM    2  C2  UNL     1     -31.745   5.562   1.534  1.00 20.00    -0.025 C 
HETATM    3  C3  UNL     1     -33.195   8.246   4.212  1.00 20.00    -0.024 C 
HETATM    4  C4  UNL     1     -34.114   7.481   4.848  1.00 20.00    -0.025 C 
HETATM    5  C5  UNL     1     -33.262   6.991   0.658  1.00 20.00     0.018 C 
HETATM    6  C6  UNL     1     -32.280   7.811   1.555  1.00 20.00     0.016 C 
HETATM    7  C7  UNL     1     -33.260   5.762   1.580  1.00 20.00     0.014 C 
HETATM    8  C8  UNL     1     -33.201   7.844   2.786  1.00 20.00     0.021 C 
HETATM    9  C9  UNL     1     -34.643   6.342   3.962  1.00 20.00     0.009 C 
HETATM   10  C10 UNL     1     -33.473   6.330   2.996  1.00 20.00     0.009 C 
HETATM   11  C11 UNL     1     -36.013   6.594   3.355  1.00 20.00     0.014 C 
ENDROOT
TORSDOF 0
ENDMDL
MODEL 3
REMARK VINA RESULT:       1.3      1.105      3.547
REMARK  0 active torsions:
REMARK  status: ('A' for Active; 'I' for Inactive)
ROOT
HETATM    1  C1  UNL     1     -34.385   6.042   4.558  1.00 20.00    -0.025 C 
HETATM    2  C2  UNL     1     -33.931   7.240   4.977  1.00 20.00    -0.025 C 
HETATM    3  C3  UNL     1     -32.474   5.709   1.512  1.00 20.00    -0.024 C 
HETATM    4  C4  UNL     1     -31.540   6.642   1.209  1.00 20.00    -0.025 C 
HETATM    5  C5  UNL     1     -35.226   7.675   3.175  1.00 20.00     0.018 C 
HETATM    6  C6  UNL     1     -34.781   6.179   3.106  1.00 20.00     0.016 C 
HETATM    7  C7  UNL     1     -33.892   8.165   3.761  1.00 20.00     0.014 C 
HETATM    8  C8  UNL     1     -33.620   6.419   2.127  1.00 20.00     0.021 C 
HETATM    9  C9  UNL     1     -31.871   8.019   1.806  1.00 20.00     0.009 C 
HETATM   10  C10 UNL     1     -32.810   7.507   2.882  1.00 20.00     0.009 C 
HETATM   11  C11 UNL     1     -32.458   9.014   0.820  1.00 20.00     0.014 C 
ENDROOT
TORSDOF 0
ENDMDL
MODEL 4
REMARK VINA RESULT:       1.3      1.331      1.749
REMARK  0 active torsions:
REMARK  status: ('A' for Active; 'I' for Inactive)
ROOT
HETATM    1  C1  UNL     1     -32.299   7.960   0.283  1.00 20.00    -0.025 C 
HETATM    2  C2  UNL     1     -32.573   9.175   0.800  1.00 20.00    -0.025 C 
HETATM    3  C3  UNL     1     -33.931   5.879   2.743  1.00 20.00    -0.024 C 
HETATM    4  C4  UNL     1     -34.651   6.461   3.732  1.00 20.00    -0.025 C 
HETATM    5  C5  UNL     1     -31.051   8.249   2.193  1.00 20.00     0.018 C 
HETATM    6  C6  UNL     1     -31.745   7.099   1.394  1.00 20.00     0.016 C 
HETATM    7  C7  UNL     1     -32.328   9.095   2.307  1.00 20.00     0.014 C 
HETATM    8  C8  UNL     1     -32.744   6.733   2.505  1.00 20.00     0.021 C 
HETATM    9  C9  UNL     1     -34.142   7.869   4.078  1.00 20.00     0.009 C 
HETATM   10  C10 UNL     1     -33.418   8.107   2.766  1.00 20.00     0.009 C 
HETATM   11  C11 UNL     1     -33.294   7.947   5.336  1.00 20.00     0.014 C 
ENDROOT
TORSDOF 0
ENDMDL
MODEL 5
REMARK VINA RESULT:       1.6      1.106      3.773
REMARK  0 active torsions:
REMARK  status: ('A' for Active; 'I' for Inactive)
ROOT
HETATM    1  C1  UNL     1     -34.971   7.692   4.068  1.00 20.00    -0.025 C 
HETATM    2  C2  UNL     1     -35.460   6.575   3.495  1.00 20.00    -0.025 C 
HETATM    3  C3  UNL     1     -32.116   8.261   1.931  1.00 20.00    -0.024 C 
HETATM    4  C4  UNL     1     -31.927   7.467   0.850  1.00 20.00    -0.025 C 
HETATM    5  C5  UNL     1     -33.553   5.942   4.531  1.00 20.00     0.018 C 
HETATM    6  C6  UNL     1     -33.491   7.485   4.295  1.00 20.00     0.016 C 
HETATM    7  C7  UNL     1     -34.276   5.652   3.206  1.00 20.00     0.014 C 
HETATM    8  C8  UNL     1     -32.635   7.402   3.021  1.00 20.00     0.021 C 
HETATM    9  C9  UNL     1     -32.522   6.064   1.042  1.00 20.00     0.009 C 
HETATM   10  C10 UNL     1     -33.490   6.448   2.145  1.00 20.00     0.009 C 
HETATM   11  C11 UNL     1     -31.509   4.985   1.384  1.00 20.00     0.014 C 
ENDROOT
TORSDOF 0
ENDMDL
MODEL 6
REMARK VINA RESULT:       2.3      1.502      2.570
REMARK  0 active torsions:
REMARK  status: ('A' for Active; 'I' for Inactive)
ROOT
HETATM    1  C1  UNL     1     -31.405   8.726   0.284  1.00 20.00    -0.025 C 
HETATM    2  C2  UNL     1     -32.509   9.425   0.615  1.00 20.00    -0.025 C 
HETATM    3  C3  UNL     1     -32.389   5.458   1.465  1.00 20.00    -0.024 C 
HETATM    4  C4  UNL     1     -33.642   5.275   1.946  1.00 20.00    -0.025 C 
HETATM    5  C5  UNL     1     -31.482   8.945   2.571  1.00 20.00     0.018 C 
HETATM    6  C6  UNL     1     -30.982   7.929   1.495  1.00 20.00     0.016 C 
HETATM    7  C7  UNL     1     -32.917   8.995   2.024  1.00 20.00     0.014 C 
HETATM    8  C8  UNL     1     -31.940   6.799   1.908  1.00 20.00     0.021 C 
HETATM    9  C9  UNL     1     -34.232   6.561   2.547  1.00 20.00     0.009 C 
HETATM   10  C10 UNL     1     -33.312   7.520   1.815  1.00 20.00     0.009 C 
HETATM   11  C11 UNL     1     -34.201   6.626   4.064  1.00 20.00     0.014 C 
ENDROOT
TORSDOF 0
ENDMDL
MODEL 7
REMARK VINA RESULT:       2.6      0.967      3.343
REMARK  0 active torsions:
REMARK  status: ('A' for Active; 'I' for Inactive)
ROOT
HETATM    1  C1  UNL     1     -33.470   8.031   5.034  1.00 20.00    -0.025 C 
HETATM    2  C2  UNL     1     -32.457   8.349   4.203  1.00 20.00    -0.025 C 
HETATM    3  C3  UNL     1     -34.190   4.695   3.852  1.00 20.00    -0.024 C 
HETATM    4  C4  UNL     1     -33.397   4.141   2.904  1.00 20.00    -0.025 C 
HETATM    5  C5  UNL     1     -34.318   8.345   2.919  1.00 20.00     0.018 C 
HETATM    6  C6  UNL     1     -34.603   7.488   4.194  1.00 20.00     0.016 C 
HETATM    7  C7  UNL     1     -32.855   7.891   2.800  1.00 20.00     0.014 C 
HETATM    8  C8  UNL     1     -34.332   6.132   3.521  1.00 20.00     0.021 C 
HETATM    9  C9  UNL     1     -32.746   5.195   1.995  1.00 20.00     0.009 C 
HETATM   10  C10 UNL     1     -32.903   6.358   2.956  1.00 20.00     0.009 C 
HETATM   11  C11 UNL     1     -33.404   5.354   0.635  1.00 20.00     0.014 C 
ENDROOT
TORSDOF 0
ENDMDL
MODEL 8
REMARK VINA RESULT:       3.0      1.093      2.298
REMARK  0 active torsions:
REMARK  status: ('A' for Active; 'I' for Inactive)
ROOT
HETATM    1  C1  UNL     1     -32.606   7.971   1.342  1.00 20.00    -0.025 C 
HETATM    2  C2  UNL     1     -31.583   7.366   1.977  1.00 20.00    -0.025 C 
HETATM    3  C3  UNL     1     -35.363   6.702   3.299  1.00 20.00    -0.024 C 
HETATM    4  C4  UNL     1     -35.108   5.946   4.393  1.00 20.00    -0.025 C 
HETATM    5  C5  UNL     1     -32.662   5.724   0.859  1.00 20.00     0.018 C 
HETATM    6  C6  UNL     1     -33.650   6.921   1.041  1.00 20.00     0.016 C 
HETATM    7  C7  UNL     1     -31.996   5.916   2.230  1.00 20.00     0.014 C 
HETATM    8  C8  UNL     1     -34.366   6.333   2.268  1.00 20.00     0.021 C 
HETATM    9  C9  UNL     1     -33.780   5.180   4.280  1.00 20.00     0.009 C 
HETATM   10  C10 UNL     1     -33.166   6.075   3.220  1.00 20.00     0.009 C 
HETATM   11  C11 UNL     1     -33.922   3.711   3.918  1.00 20.00     0.014 C 
ENDROOT
TORSDOF 0
ENDMDL
MODEL 9
REMARK VINA RESULT:       3.0      1.371      3.202
REMARK  0 active torsions:
REMARK  status: ('A' for Active; 'I' for Inactive)
ROOT
HETATM    1  C1  UNL     1     -31.742   8.875   3.375  1.00 20.00    -0.025 C 
HETATM    2  C2  UNL     1     -30.846   8.354   2.512  1.00 20.00    -0.025 C 
HETATM    3  C3  UNL     1     -34.094   6.139   3.523  1.00 20.00    -0.024 C 
HETATM    4  C4  UNL     1     -33.810   4.983   2.876  1.00 20.00    -0.025 C 
HETATM    5  C5  UNL     1     -32.683   8.817   1.277  1.00 20.00     0.018 C 
HETATM    6  C6  UNL     1     -33.117   8.702   2.774  1.00 20.00     0.016 C 
HETATM    7  C7  UNL     1     -31.633   7.699   1.377  1.00 20.00     0.014 C 
HETATM    8  C8  UNL     1     -33.612   7.250   2.669  1.00 20.00     0.021 C 
HETATM    9  C9  UNL     1     -32.906   5.203   1.653  1.00 20.00     0.009 C 
HETATM   10  C10 UNL     1     -32.353   6.544   2.099  1.00 20.00     0.009 C 
HETATM   11  C11 UNL     1     -33.629   5.186   0.317  1.00 20.00     0.014 C 
ENDROOT
TORSDOF 0
ENDMDL
