MODEL 1
REMARK VINA RESULT:      -2.5      0.000      0.000
REMARK  0 active torsions:
REMARK  status: ('A' for Active; 'I' for Inactive)
ROOT
HETATM    1  C1  UNL     1     -34.701   5.427   4.014  1.00 20.00     0.104 C 
HETATM    2  C2  UNL     1     -32.623   8.274   2.825  1.00 20.00     0.107 A 
HETATM    3  C3  UNL     1     -33.209   5.711   2.097  1.00 20.00     0.145 A 
HETATM    4  C4  UNL     1     -33.804   6.221   3.239  1.00 20.00     0.100 A 
HETATM    5  C5  UNL     1     -33.500   7.528   3.604  1.00 20.00     0.142 A 
HETATM    6  C6  UNL     1     -32.080   7.673   1.702  1.00 20.00     0.212 A 
HETATM    7  N7  UNL     1     -35.431   4.781   4.644  1.00 20.00    -0.191 NA
HETATM    8  N8  UNL     1     -32.351   6.405   1.315  1.00 20.00    -0.231 NA
HETATM    9  F9  UNL     1     -34.044   8.078   4.699  1.00 20.00    -0.204 F 
HETATM   10  F10 UNL     1     -31.232   8.382   0.940  1.00 20.00    -0.184 F 
ENDROOT
TORSDOF 0
ENDMDL
MODEL 2
REMARK VINA RESULT:      -2.1      1.959      4.305
REMARK  0 active torsions:
REMARK  status: ('A' for Active; 'I' for Inactive)
ROOT
HETATM    1  C1  UNL     1     -32.221   8.108   1.685  1.00 20.00     0.104 C 
HETATM    2  C2  UNL     1     -33.827   5.024   3.008  1.00 20.00     0.107 A 
HETATM    3  C3  UNL     1     -33.876   7.717   3.444  1.00 20.00     0.145 A 
HETATM    4  C4  UNL     1     -33.037   7.227   2.456  1.00 20.00     0.100 A 
HETATM    5  C5  UNL     1     -33.018   5.854   2.240  1.00 20.00     0.142 A 
HETATM    6  C6  UNL     1     -34.630   5.612   3.971  1.00 20.00     0.212 A 
HETATM    7  N7  UNL     1     -31.557   8.825   1.058  1.00 20.00    -0.191 NA
HETATM    8  N8  UNL     1     -34.676   6.942   4.210  1.00 20.00    -0.231 NA
HETATM    9  F9  UNL     1     -32.227   5.318   1.299  1.00 20.00    -0.204 F 
HETATM   10  F10 UNL     1     -35.417   4.823   4.720  1.00 20.00    -0.184 F 
ENDROOT
TORSDOF 0
ENDMDL
MODEL 3
REMARK VINA RESULT:      -1.4      1.931      3.687
REMARK  0 active torsions:
REMARK  status: ('A' for Active; 'I' for Inactive)
ROOT
HETATM    1  C1  UNL     1     -32.492   8.293   1.547  1.00 20.00     0.104 C 
HETATM    2  C2  UNL     1     -34.295   6.141   3.987  1.00 20.00     0.107 A 
HETATM    3  C3  UNL     1     -32.635   5.869   1.839  1.00 20.00     0.145 A 
HETATM    4  C4  UNL     1     -32.986   7.148   2.239  1.00 20.00     0.100 A 
HETATM    5  C5  UNL     1     -33.833   7.279   3.335  1.00 20.00     0.142 A 
HETATM    6  C6  UNL     1     -33.886   4.907   3.509  1.00 20.00     0.212 A 
HETATM    7  N7  UNL     1     -32.089   9.225   0.984  1.00 20.00    -0.191 NA
HETATM    8  N8  UNL     1     -33.064   4.741   2.448  1.00 20.00    -0.231 NA
HETATM    9  F9  UNL     1     -34.209   8.489   3.771  1.00 20.00    -0.204 F 
HETATM   10  F10 UNL     1     -34.324   3.801   4.130  1.00 20.00    -0.184 F 
ENDROOT
TORSDOF 0
ENDMDL
MODEL 4
REMARK VINA RESULT:      -1.3      1.735      2.166
REMARK  0 active torsions:
REMARK  status: ('A' for Active; 'I' for Inactive)
ROOT
HETATM    1  C1  UNL     1     -34.484   5.352   3.902  1.00 20.00     0.104 C 
HETATM    2  C2  UNL     1     -32.213   6.639   1.251  1.00 20.00     0.107 A 
HETATM    3  C3  UNL     1     -33.468   7.541   3.500  1.00 20.00     0.145 A 
HETATM    4  C4  UNL     1     -33.657   6.219   3.128  1.00 20.00     0.100 A 
HETATM    5  C5  UNL     1     -33.014   5.767   1.981  1.00 20.00     0.142 A 
HETATM    6  C6  UNL     1     -32.089   7.941   1.706  1.00 20.00     0.212 A 
HETATM    7  N7  UNL     1     -35.158   4.647   4.532  1.00 20.00    -0.191 NA
HETATM    8  N8  UNL     1     -32.698   8.416   2.816  1.00 20.00    -0.231 NA
HETATM    9  F9  UNL     1     -33.157   4.500   1.569  1.00 20.00    -0.204 F 
HETATM   10  F10 UNL     1     -31.319   8.793   1.011  1.00 20.00    -0.184 F 
ENDROOT
TORSDOF 0
ENDMDL
MODEL 5
REMARK VINA RESULT:      -1.0      1.241      3.464
REMARK  0 active torsions:
REMARK  status: ('A' for Active; 'I' for Inactive)
ROOT
HETATM    1  C1  UNL     1     -32.180   5.088   0.922  1.00 20.00     0.104 C 
HETATM    2  C2  UNL     1     -32.888   8.057   3.049  1.00 20.00     0.107 A 
HETATM    3  C3  UNL     1     -33.731   5.476   2.774  1.00 20.00     0.145 A 
HETATM    4  C4  UNL     1     -32.743   5.939   1.919  1.00 20.00     0.100 A 
HETATM    5  C5  UNL     1     -32.320   7.255   2.066  1.00 20.00     0.142 A 
HETATM    6  C6  UNL     1     -33.869   7.500   3.853  1.00 20.00     0.212 A 
HETATM    7  N7  UNL     1     -31.723   4.395   0.111  1.00 20.00    -0.191 NA
HETATM    8  N8  UNL     1     -34.307   6.225   3.741  1.00 20.00    -0.231 NA
HETATM    9  F9  UNL     1     -31.368   7.762   1.269  1.00 20.00    -0.204 F 
HETATM   10  F10 UNL     1     -34.427   8.262   4.807  1.00 20.00    -0.184 F 
ENDROOT
TORSDOF 0
ENDMDL
MODEL 6
REMARK VINA RESULT:      -0.1      2.327      3.533
REMARK  0 active torsions:
REMARK  status: ('A' for Active; 'I' for Inactive)
ROOT
HETATM    1  C1  UNL     1     -32.133   5.029   0.990  1.00 20.00     0.104 C 
HETATM    2  C2  UNL     1     -34.145   6.236   3.876  1.00 20.00     0.107 A 
HETATM    3  C3  UNL     1     -32.459   7.241   1.982  1.00 20.00     0.145 A 
HETATM    4  C4  UNL     1     -32.724   5.881   1.969  1.00 20.00     0.100 A 
HETATM    5  C5  UNL     1     -33.584   5.377   2.938  1.00 20.00     0.142 A 
HETATM    6  C6  UNL     1     -33.816   7.579   3.805  1.00 20.00     0.212 A 
HETATM    7  N7  UNL     1     -31.651   4.336   0.193  1.00 20.00    -0.191 NA
HETATM    8  N8  UNL     1     -32.984   8.106   2.878  1.00 20.00    -0.231 NA
HETATM    9  F9  UNL     1     -33.881   4.070   2.978  1.00 20.00    -0.204 F 
HETATM   10  F10 UNL     1     -34.350   8.420   4.704  1.00 20.00    -0.184 F 
ENDROOT
TORSDOF 0
ENDMDL
MODEL 7
REMARK VINA RESULT:       0.1      2.129      2.786
REMARK  0 active torsions:
REMARK  status: ('A' for Active; 'I' for Inactive)
ROOT
HETATM    1  C1  UNL     1     -33.611   3.245   4.212  1.00 20.00     0.104 C 
HETATM    2  C2  UNL     1     -35.141   6.632   4.056  1.00 20.00     0.107 A 
HETATM    3  C3  UNL     1     -32.996   5.295   3.028  1.00 20.00     0.145 A 
HETATM    4  C4  UNL     1     -33.848   4.612   3.881  1.00 20.00     0.100 A 
HETATM    5  C5  UNL     1     -34.939   5.300   4.401  1.00 20.00     0.142 A 
HETATM    6  C6  UNL     1     -34.232   7.225   3.196  1.00 20.00     0.212 A 
HETATM    7  N7  UNL     1     -33.417   2.132   4.481  1.00 20.00    -0.191 NA
HETATM    8  N8  UNL     1     -33.160   6.589   2.671  1.00 20.00    -0.231 NA
HETATM    9  F9  UNL     1     -35.800   4.695   5.231  1.00 20.00    -0.204 F 
HETATM   10  F10 UNL     1     -34.415   8.510   2.855  1.00 20.00    -0.184 F 
ENDROOT
TORSDOF 0
ENDMDL
MODEL 8
REMARK VINA RESULT:       0.2      2.064      2.664
REMARK  0 active torsions:
REMARK  status: ('A' for Active; 'I' for Inactive)
ROOT
HETATM    1  C1  UNL     1     -33.703   8.085   4.635  1.00 20.00     0.104 C 
HETATM    2  C2  UNL     1     -33.645   5.268   2.206  1.00 20.00     0.107 A 
HETATM    3  C3  UNL     1     -32.407   7.667   2.603  1.00 20.00     0.145 A 
HETATM    4  C4  UNL     1     -33.370   7.266   3.516  1.00 20.00     0.100 A 
HETATM    5  C5  UNL     1     -33.996   6.042   3.306  1.00 20.00     0.142 A 
HETATM    6  C6  UNL     1     -32.672   5.758   1.352  1.00 20.00     0.212 A 
HETATM    7  N7  UNL     1     -33.974   8.751   5.546  1.00 20.00    -0.191 NA
HETATM    8  N8  UNL     1     -32.041   6.942   1.522  1.00 20.00    -0.231 NA
HETATM    9  F9  UNL     1     -34.935   5.598   4.154  1.00 20.00    -0.204 F 
HETATM   10  F10 UNL     1     -32.323   5.021   0.285  1.00 20.00    -0.184 F 
ENDROOT
TORSDOF 0
ENDMDL
MODEL 9
REMARK VINA RESULT:       0.4      2.071      2.631
REMARK  0 active torsions:
REMARK  status: ('A' for Active; 'I' for Inactive)
ROOT
HETATM    1  C1  UNL     1     -33.739   7.898   4.359  1.00 20.00     0.104 C 
HETATM    2  C2  UNL     1     -32.047   6.727   1.260  1.00 20.00     0.107 A 
HETATM    3  C3  UNL     1     -33.798   5.785   3.128  1.00 20.00     0.145 A 
HETATM    4  C4  UNL     1     -33.322   7.079   3.268  1.00 20.00     0.100 A 
HETATM    5  C5  UNL     1     -32.430   7.552   2.312  1.00 20.00     0.142 A 
HETATM    6  C6  UNL     1     -32.579   5.449   1.210  1.00 20.00     0.212 A 
HETATM    7  N7  UNL     1     -34.078   8.564   5.247  1.00 20.00    -0.191 NA
HETATM    8  N8  UNL     1     -33.448   4.955   2.120  1.00 20.00    -0.231 NA
HETATM    9  F9  UNL     1     -31.934   8.794   2.391  1.00 20.00    -0.204 F 
HETATM   10  F10 UNL     1     -32.217   4.642   0.199  1.00 20.00    -0.184 F 
ENDROOT
TORSDOF 0
ENDMDL
