MODEL 1
REMARK VINA RESULT:      -0.8      0.000      0.000
REMARK  0 active torsions:
REMARK  status: ('A' for Active; 'I' for Inactive)
ROOT
HETATM    1  C1  UNL     1     -34.585   4.929   3.768  1.00 20.00     0.002 C 
HETATM    2  C2  UNL     1     -33.491   4.943   2.993  1.00 20.00     0.028 C 
HETATM    3  C3  UNL     1     -35.236   6.146   4.227  1.00 20.00    -0.003 C 
HETATM    4  C4  UNL     1     -34.610   7.334   4.168  1.00 20.00    -0.012 C 
HETATM    5  C5  UNL     1     -32.839   8.520   2.752  1.00 20.00     0.027 C 
HETATM    6  C6  UNL     1     -32.349   8.002   1.620  1.00 20.00     0.100 C 
HETATM    7  C7  UNL     1     -32.986   6.292   2.666  1.00 20.00     0.047 C 
HETATM    8  C8  UNL     1     -33.203   7.411   3.675  1.00 20.00     0.085 C 
HETATM    9  N9  UNL     1     -32.416   6.634   1.552  1.00 20.00    -0.245 NA
HETATM   10 BR10 UNL     1     -31.692   8.964   0.188  1.00 20.00    -0.029 Br
ENDROOT
TORSDOF 0
ENDMDL
MODEL 2
REMARK VINA RESULT:      -0.6      1.240      2.175
REMARK  0 active torsions:
REMARK  status: ('A' for Active; 'I' for Inactive)
ROOT
HETATM    1  C1  UNL     1     -35.132   5.036   4.721  1.00 20.00     0.002 C 
HETATM    2  C2  UNL     1     -35.198   6.242   4.139  1.00 20.00     0.028 C 
HETATM    3  C3  UNL     1     -34.111   4.058   4.382  1.00 20.00    -0.003 C 
HETATM    4  C4  UNL     1     -33.379   4.176   3.261  1.00 20.00    -0.012 C 
HETATM    5  C5  UNL     1     -32.482   6.013   1.722  1.00 20.00     0.027 C 
HETATM    6  C6  UNL     1     -32.574   7.315   2.016  1.00 20.00     0.100 C 
HETATM    7  C7  UNL     1     -34.168   6.486   3.110  1.00 20.00     0.047 C 
HETATM    8  C8  UNL     1     -33.645   5.299   2.313  1.00 20.00     0.085 C 
HETATM    9  N9  UNL     1     -33.613   7.631   2.854  1.00 20.00    -0.245 NA
HETATM   10 BR10 UNL     1     -31.413   8.635   1.453  1.00 20.00    -0.029 Br
ENDROOT
TORSDOF 0
ENDMDL
MODEL 3
REMARK VINA RESULT:      -0.4      2.742      3.800
REMARK  0 active torsions:
REMARK  status: ('A' for Active; 'I' for Inactive)
ROOT
HETATM    1  C1  UNL     1     -32.323   7.947   1.864  1.00 20.00     0.002 C 
HETATM    2  C2  UNL     1     -32.396   6.657   1.505  1.00 20.00     0.028 C 
HETATM    3  C3  UNL     1     -32.880   8.447   3.110  1.00 20.00    -0.003 C 
HETATM    4  C4  UNL     1     -33.764   7.722   3.817  1.00 20.00    -0.012 C 
HETATM    5  C5  UNL     1     -34.344   5.268   4.253  1.00 20.00     0.027 C 
HETATM    6  C6  UNL     1     -33.584   4.255   3.822  1.00 20.00     0.100 C 
HETATM    7  C7  UNL     1     -33.110   5.792   2.466  1.00 20.00     0.047 C 
HETATM    8  C8  UNL     1     -34.229   6.402   3.297  1.00 20.00     0.085 C 
HETATM    9  N9  UNL     1     -32.829   4.550   2.715  1.00 20.00    -0.245 NA
HETATM   10 BR10 UNL     1     -33.437   2.597   4.620  1.00 20.00    -0.029 Br
ENDROOT
TORSDOF 0
ENDMDL
MODEL 4
REMARK VINA RESULT:       1.5      2.587      3.770
REMARK  0 active torsions:
REMARK  status: ('A' for Active; 'I' for Inactive)
ROOT
HETATM    1  C1  UNL     1     -31.316   7.453   1.204  1.00 20.00     0.002 C 
HETATM    2  C2  UNL     1     -32.228   6.473   1.124  1.00 20.00     0.028 C 
HETATM    3  C3  UNL     1     -31.307   8.429   2.282  1.00 20.00    -0.003 C 
HETATM    4  C4  UNL     1     -32.380   8.600   3.074  1.00 20.00    -0.012 C 
HETATM    5  C5  UNL     1     -34.348   7.242   3.986  1.00 20.00     0.027 C 
HETATM    6  C6  UNL     1     -34.453   5.918   3.824  1.00 20.00     0.100 C 
HETATM    7  C7  UNL     1     -33.237   6.482   2.203  1.00 20.00     0.047 C 
HETATM    8  C8  UNL     1     -33.626   7.818   2.819  1.00 20.00     0.085 C 
HETATM    9  N9  UNL     1     -33.791   5.431   2.725  1.00 20.00    -0.245 NA
HETATM   10 BR10 UNL     1     -35.324   4.756   4.962  1.00 20.00    -0.029 Br
ENDROOT
TORSDOF 0
ENDMDL
MODEL 5
REMARK VINA RESULT:       1.7      1.847      2.783
REMARK  0 active torsions:
REMARK  status: ('A' for Active; 'I' for Inactive)
ROOT
HETATM    1  C1  UNL     1     -33.154   8.462   4.310  1.00 20.00     0.002 C 
HETATM    2  C2  UNL     1     -32.344   8.430   3.242  1.00 20.00     0.028 C 
HETATM    3  C3  UNL     1     -34.123   7.415   4.591  1.00 20.00    -0.003 C 
HETATM    4  C4  UNL     1     -34.482   6.528   3.647  1.00 20.00    -0.012 C 
HETATM    5  C5  UNL     1     -33.488   5.397   1.578  1.00 20.00     0.027 C 
HETATM    6  C6  UNL     1     -32.200   5.515   1.234  1.00 20.00     0.100 C 
HETATM    7  C7  UNL     1     -32.534   7.259   2.362  1.00 20.00     0.047 C 
HETATM    8  C8  UNL     1     -33.922   6.642   2.267  1.00 20.00     0.085 C 
HETATM    9  N9  UNL     1     -31.599   6.659   1.692  1.00 20.00    -0.245 NA
HETATM   10 BR10 UNL     1     -31.214   4.269   0.295  1.00 20.00    -0.029 Br
ENDROOT
TORSDOF 0
ENDMDL
MODEL 6
REMARK VINA RESULT:       1.8      2.444      4.453
REMARK  0 active torsions:
REMARK  status: ('A' for Active; 'I' for Inactive)
ROOT
HETATM    1  C1  UNL     1     -32.614  10.410   0.624  1.00 20.00     0.002 C 
HETATM    2  C2  UNL     1     -32.923   9.996   1.862  1.00 20.00     0.028 C 
HETATM    3  C3  UNL     1     -32.155   9.501  -0.414  1.00 20.00    -0.003 C 
HETATM    4  C4  UNL     1     -31.715   8.267  -0.114  1.00 20.00    -0.012 C 
HETATM    5  C5  UNL     1     -32.097   6.453   1.651  1.00 20.00     0.027 C 
HETATM    6  C6  UNL     1     -33.066   6.528   2.570  1.00 20.00     0.100 C 
HETATM    7  C7  UNL     1     -32.734   8.549   2.092  1.00 20.00     0.047 C 
HETATM    8  C8  UNL     1     -31.643   7.829   1.312  1.00 20.00     0.085 C 
HETATM    9  N9  UNL     1     -33.462   7.807   2.868  1.00 20.00    -0.245 NA
HETATM   10 BR10 UNL     1     -33.911   5.095   3.369  1.00 20.00    -0.029 Br
ENDROOT
TORSDOF 0
ENDMDL
MODEL 7
REMARK VINA RESULT:       2.0      2.490      4.210
REMARK  0 active torsions:
REMARK  status: ('A' for Active; 'I' for Inactive)
ROOT
HETATM    1  C1  UNL     1     -31.929   9.323   1.202  1.00 20.00     0.002 C 
HETATM    2  C2  UNL     1     -32.259   9.128   2.487  1.00 20.00     0.028 C 
HETATM    3  C3  UNL     1     -32.103   8.299   0.184  1.00 20.00    -0.003 C 
HETATM    4  C4  UNL     1     -32.302   7.013   0.518  1.00 20.00    -0.012 C 
HETATM    5  C5  UNL     1     -33.332   5.646   2.421  1.00 20.00     0.027 C 
HETATM    6  C6  UNL     1     -34.024   6.202   3.422  1.00 20.00     0.100 C 
HETATM    7  C7  UNL     1     -32.788   7.782   2.788  1.00 20.00     0.047 C 
HETATM    8  C8  UNL     1     -32.296   6.607   1.955  1.00 20.00     0.085 C 
HETATM    9  N9  UNL     1     -33.695   7.510   3.675  1.00 20.00    -0.245 NA
HETATM   10 BR10 UNL     1     -35.372   5.390   4.386  1.00 20.00    -0.029 Br
ENDROOT
TORSDOF 0
ENDMDL
