MODEL 1
REMARK VINA RESULT:      -2.3      0.000      0.000
REMARK  2 active torsions:
REMARK  status: ('A' for Active; 'I' for Inactive)
REMARK    1  A    between atoms: C6_6  and  C7_7 
REMARK    2  A    between atoms: C7_7  and  N8_8 
ROOT
HETATM    1  C1  UNL     1     -33.535   3.433   4.521  1.00 20.00     0.332 C 
HETATM    2  N8  UNL     1     -34.184   4.062   3.769  1.00 20.00    -0.247 NA
HETATM    3  O9  UNL     1     -32.885   2.804   5.272  1.00 20.00    -0.260 OA
ENDROOT
BRANCH   2   4
HETATM    4  C7  UNL     1     -34.554   5.390   4.252  1.00 20.00     0.161 C 
BRANCH   4   5
HETATM    5  C6  UNL     1     -34.249   6.410   3.165  1.00 20.00     0.028 C 
HETATM    6  C3  UNL     1     -33.342   5.879   2.098  1.00 20.00    -0.024 C 
HETATM    7  C2  UNL     1     -32.384   6.754   1.781  1.00 20.00    -0.030 C 
HETATM    8  C4  UNL     1     -32.487   8.006   2.584  1.00 20.00     0.027 C 
HETATM    9  C5  UNL     1     -33.456   7.612   3.699  1.00 20.00     0.014 C 
ENDBRANCH   4   5
ENDBRANCH   2   4
TORSDOF 2
ENDMDL
MODEL 2
REMARK VINA RESULT:      -2.3      3.762      4.985
REMARK  2 active torsions:
REMARK  status: ('A' for Active; 'I' for Inactive)
REMARK    1  A    between atoms: C6_6  and  C7_7 
REMARK    2  A    between atoms: C7_7  and  N8_8 
ROOT
HETATM    1  C1  UNL     1     -32.271   9.474   0.593  1.00 20.00     0.332 C 
HETATM    2  N8  UNL     1     -31.830   8.410   0.826  1.00 20.00    -0.247 NA
HETATM    3  O9  UNL     1     -32.712  10.539   0.359  1.00 20.00    -0.260 OA
ENDROOT
BRANCH   2   4
HETATM    4  C7  UNL     1     -31.972   7.987   2.217  1.00 20.00     0.161 C 
BRANCH   4   5
HETATM    5  C6  UNL     1     -33.352   7.377   2.406  1.00 20.00     0.028 C 
HETATM    6  C3  UNL     1     -33.988   7.751   3.710  1.00 20.00    -0.024 C 
HETATM    7  C2  UNL     1     -34.547   6.696   4.310  1.00 20.00    -0.030 C 
HETATM    8  C4  UNL     1     -34.373   5.448   3.514  1.00 20.00     0.027 C 
HETATM    9  C5  UNL     1     -33.305   5.844   2.494  1.00 20.00     0.014 C 
ENDBRANCH   4   5
ENDBRANCH   2   4
TORSDOF 2
ENDMDL
MODEL 3
REMARK VINA RESULT:      -2.3      3.333      4.599
REMARK  2 active torsions:
REMARK  status: ('A' for Active; 'I' for Inactive)
REMARK    1  A    between atoms: C6_6  and  C7_7 
REMARK    2  A    between atoms: C7_7  and  N8_8 
ROOT
HETATM    1  C1  UNL     1     -32.170   8.666   1.115  1.00 20.00     0.332 C 
HETATM    2  N8  UNL     1     -32.032   7.732   1.816  1.00 20.00    -0.247 NA
HETATM    3  O9  UNL     1     -32.308   9.599   0.413  1.00 20.00    -0.260 OA
ENDROOT
BRANCH   2   4
HETATM    4  C7  UNL     1     -32.896   7.726   2.994  1.00 20.00     0.161 C 
BRANCH   4   5
HETATM    5  C6  UNL     1     -33.878   6.571   2.877  1.00 20.00     0.028 C 
HETATM    6  C3  UNL     1     -34.997   6.646   3.869  1.00 20.00    -0.024 C 
HETATM    7  C2  UNL     1     -35.231   5.463   4.444  1.00 20.00    -0.030 C 
HETATM    8  C4  UNL     1     -34.306   4.408   3.940  1.00 20.00     0.027 C 
HETATM    9  C5  UNL     1     -33.231   5.220   3.216  1.00 20.00     0.014 C 
ENDBRANCH   4   5
ENDBRANCH   2   4
TORSDOF 2
ENDMDL
MODEL 4
REMARK VINA RESULT:      -2.2      3.971      5.020
REMARK  2 active torsions:
REMARK  status: ('A' for Active; 'I' for Inactive)
REMARK    1  A    between atoms: C6_6  and  C7_7 
REMARK    2  A    between atoms: C7_7  and  N8_8 
ROOT
HETATM    1  C1  UNL     1     -32.609   9.674   0.152  1.00 20.00     0.332 C 
HETATM    2  N8  UNL     1     -32.267   9.252   1.195  1.00 20.00    -0.247 NA
HETATM    3  O9  UNL     1     -32.950  10.097  -0.891  1.00 20.00    -0.260 OA
ENDROOT
BRANCH   2   4
HETATM    4  C7  UNL     1     -31.956   7.824   1.197  1.00 20.00     0.161 C 
BRANCH   4   5
HETATM    5  C6  UNL     1     -32.357   7.238   2.542  1.00 20.00     0.028 C 
HETATM    6  C3  UNL     1     -33.318   6.095   2.422  1.00 20.00    -0.024 C 
HETATM    7  C2  UNL     1     -34.318   6.193   3.304  1.00 20.00    -0.030 C 
HETATM    8  C4  UNL     1     -34.194   7.415   4.150  1.00 20.00     0.027 C 
HETATM    9  C5  UNL     1     -33.143   8.237   3.403  1.00 20.00     0.014 C 
ENDBRANCH   4   5
ENDBRANCH   2   4
TORSDOF 2
ENDMDL
MODEL 5
REMARK VINA RESULT:      -2.1      3.411      4.530
REMARK  2 active torsions:
REMARK  status: ('A' for Active; 'I' for Inactive)
REMARK    1  A    between atoms: C6_6  and  C7_7 
REMARK    2  A    between atoms: C7_7  and  N8_8 
ROOT
HETATM    1  C1  UNL     1     -32.151   8.772   1.061  1.00 20.00     0.332 C 
HETATM    2  N8  UNL     1     -31.940   7.910   1.832  1.00 20.00    -0.247 NA
HETATM    3  O9  UNL     1     -32.360   9.635   0.290  1.00 20.00    -0.260 OA
ENDROOT
BRANCH   2   4
HETATM    4  C7  UNL     1     -32.887   6.798   1.770  1.00 20.00     0.161 C 
BRANCH   4   5
HETATM    5  C6  UNL     1     -33.327   6.450   3.184  1.00 20.00     0.028 C 
HETATM    6  C3  UNL     1     -33.460   4.975   3.412  1.00 20.00    -0.024 C 
HETATM    7  C2  UNL     1     -34.584   4.674   4.069  1.00 20.00    -0.030 C 
HETATM    8  C4  UNL     1     -35.387   5.890   4.382  1.00 20.00     0.027 C 
HETATM    9  C5  UNL     1     -34.743   6.957   3.495  1.00 20.00     0.014 C 
ENDBRANCH   4   5
ENDBRANCH   2   4
TORSDOF 2
ENDMDL
MODEL 6
REMARK VINA RESULT:      -2.1      1.098      1.743
REMARK  2 active torsions:
REMARK  status: ('A' for Active; 'I' for Inactive)
REMARK    1  A    between atoms: C6_6  and  C7_7 
REMARK    2  A    between atoms: C7_7  and  N8_8 
ROOT
HETATM    1  C1  UNL     1     -34.593   4.455   4.397  1.00 20.00     0.332 C 
HETATM    2  N8  UNL     1     -35.274   5.408   4.498  1.00 20.00    -0.247 NA
HETATM    3  O9  UNL     1     -33.911   3.502   4.296  1.00 20.00    -0.260 OA
ENDROOT
BRANCH   2   4
HETATM    4  C7  UNL     1     -35.026   6.439   3.493  1.00 20.00     0.161 C 
BRANCH   4   5
HETATM    5  C6  UNL     1     -33.529   6.531   3.244  1.00 20.00     0.028 C 
HETATM    6  C3  UNL     1     -33.009   7.935   3.292  1.00 20.00    -0.024 C 
HETATM    7  C2  UNL     1     -32.172   8.189   2.282  1.00 20.00    -0.030 C 
HETATM    8  C4  UNL     1     -32.000   7.005   1.392  1.00 20.00     0.027 C 
HETATM    9  C5  UNL     1     -33.147   6.090   1.823  1.00 20.00     0.014 C 
ENDBRANCH   4   5
ENDBRANCH   2   4
TORSDOF 2
ENDMDL
MODEL 7
REMARK VINA RESULT:      -1.9      1.432      1.708
REMARK  2 active torsions:
REMARK  status: ('A' for Active; 'I' for Inactive)
REMARK    1  A    between atoms: C6_6  and  C7_7 
REMARK    2  A    between atoms: C7_7  and  N8_8 
ROOT
HETATM    1  C1  UNL     1     -34.893   5.111   4.283  1.00 20.00     0.332 C 
HETATM    2  N8  UNL     1     -35.230   6.214   4.055  1.00 20.00    -0.247 NA
HETATM    3  O9  UNL     1     -34.558   4.007   4.511  1.00 20.00    -0.260 OA
ENDROOT
BRANCH   2   4
HETATM    4  C7  UNL     1     -34.142   7.189   4.046  1.00 20.00     0.161 C 
BRANCH   4   5
HETATM    5  C6  UNL     1     -33.648   7.360   2.617  1.00 20.00     0.028 C 
HETATM    6  C3  UNL     1     -33.142   6.086   2.014  1.00 20.00    -0.024 C 
HETATM    7  C2  UNL     1     -31.989   6.269   1.363  1.00 20.00    -0.030 C 
HETATM    8  C4  UNL     1     -31.534   7.687   1.429  1.00 20.00     0.027 C 
HETATM    9  C5  UNL     1     -32.418   8.274   2.530  1.00 20.00     0.014 C 
ENDBRANCH   4   5
ENDBRANCH   2   4
TORSDOF 2
ENDMDL
MODEL 8
REMARK VINA RESULT:      -1.0      2.676      3.712
REMARK  2 active torsions:
REMARK  status: ('A' for Active; 'I' for Inactive)
REMARK    1  A    between atoms: C6_6  and  C7_7 
REMARK    2  A    between atoms: C7_7  and  N8_8 
ROOT
HETATM    1  C1  UNL     1     -34.365   6.889   3.707  1.00 20.00     0.332 C 
HETATM    2  N8  UNL     1     -33.508   7.639   3.416  1.00 20.00    -0.247 NA
HETATM    3  O9  UNL     1     -35.222   6.138   3.999  1.00 20.00    -0.260 OA
ENDROOT
BRANCH   2   4
HETATM    4  C7  UNL     1     -32.691   7.215   2.281  1.00 20.00     0.161 C 
BRANCH   4   5
HETATM    5  C6  UNL     1     -31.999   8.435   1.691  1.00 20.00     0.028 C 
HETATM    6  C3  UNL     1     -32.843   9.671   1.742  1.00 20.00    -0.024 C 
HETATM    7  C2  UNL     1     -32.804  10.346   0.588  1.00 20.00    -0.030 C 
HETATM    8  C4  UNL     1     -31.937   9.672  -0.420  1.00 20.00     0.027 C 
HETATM    9  C5  UNL     1     -31.731   8.283   0.187  1.00 20.00     0.014 C 
ENDBRANCH   4   5
ENDBRANCH   2   4
TORSDOF 2
ENDMDL
MODEL 9
REMARK VINA RESULT:      -0.7      2.057      3.046
REMARK  2 active torsions:
REMARK  status: ('A' for Active; 'I' for Inactive)
REMARK    1  A    between atoms: C6_6  and  C7_7 
REMARK    2  A    between atoms: C7_7  and  N8_8 
ROOT
HETATM    1  C1  UNL     1     -34.660   6.066   3.718  1.00 20.00     0.332 C 
HETATM    2  N8  UNL     1     -33.819   6.565   3.065  1.00 20.00    -0.247 NA
HETATM    3  O9  UNL     1     -35.501   5.565   4.370  1.00 20.00    -0.260 OA
ENDROOT
BRANCH   2   4
HETATM    4  C7  UNL     1     -33.387   7.879   3.537  1.00 20.00     0.161 C 
BRANCH   4   5
HETATM    5  C6  UNL     1     -32.280   8.387   2.626  1.00 20.00     0.028 C 
HETATM    6  C3  UNL     1     -32.686   9.580   1.816  1.00 20.00    -0.024 C 
HETATM    7  C2  UNL     1     -32.302   9.467   0.541  1.00 20.00    -0.030 C 
HETATM    8  C4  UNL     1     -31.585   8.184   0.288  1.00 20.00     0.027 C 
HETATM    9  C5  UNL     1     -31.904   7.368   1.541  1.00 20.00     0.014 C 
ENDBRANCH   4   5
ENDBRANCH   2   4
TORSDOF 2
ENDMDL
