MODEL 1
REMARK VINA RESULT:      -1.6      0.000      0.000
REMARK  0 active torsions:
REMARK  status: ('A' for Active; 'I' for Inactive)
ROOT
HETATM    1  C1  UNL     1     -34.552   7.035   3.849  1.00 20.00     0.032 C 
HETATM    2  C2  UNL     1     -34.748   5.760   4.199  1.00 20.00     0.028 C 
HETATM    3  C3  UNL     1     -31.976   6.676   1.320  1.00 20.00     0.026 C 
HETATM    4  C4  UNL     1     -31.791   7.903   1.818  1.00 20.00     0.115 C 
HETATM    5  C5  UNL     1     -33.481   7.233   2.867  1.00 20.00     0.062 C 
HETATM    6  C6  UNL     1     -33.810   4.723   3.664  1.00 20.00     0.026 C 
HETATM    7  C7  UNL     1     -33.222   6.107   1.896  1.00 20.00     0.184 C 
HETATM    8  C8  UNL     1     -33.747   3.428   4.433  1.00 20.00     0.070 C 
HETATM    9  N9  UNL     1     -32.713   8.273   2.761  1.00 20.00    -0.263 NA
HETATM   10  N10 UNL     1     -33.048   4.860   2.627  1.00 20.00    -0.279 NA
ENDROOT
TORSDOF 0
ENDMDL
MODEL 2
REMARK VINA RESULT:      -0.2      1.097      3.906
REMARK  0 active torsions:
REMARK  status: ('A' for Active; 'I' for Inactive)
ROOT
HETATM    1  C1  UNL     1     -32.752   5.302   1.687  1.00 20.00     0.032 C 
HETATM    2  C2  UNL     1     -32.152   6.474   1.457  1.00 20.00     0.028 C 
HETATM    3  C3  UNL     1     -35.086   6.216   4.310  1.00 20.00     0.026 C 
HETATM    4  C4  UNL     1     -34.847   4.917   4.510  1.00 20.00     0.115 C 
HETATM    5  C5  UNL     1     -33.726   5.328   2.784  1.00 20.00     0.062 C 
HETATM    6  C6  UNL     1     -32.437   7.613   2.384  1.00 20.00     0.026 C 
HETATM    7  C7  UNL     1     -34.438   6.634   3.040  1.00 20.00     0.184 C 
HETATM    8  C8  UNL     1     -31.417   8.722   2.403  1.00 20.00     0.070 C 
HETATM    9  N9  UNL     1     -34.025   4.345   3.575  1.00 20.00    -0.263 NA
HETATM   10  N10 UNL     1     -33.461   7.706   3.172  1.00 20.00    -0.279 NA
ENDROOT
TORSDOF 0
ENDMDL
MODEL 3
REMARK VINA RESULT:      -0.1      1.565      2.496
REMARK  0 active torsions:
REMARK  status: ('A' for Active; 'I' for Inactive)
ROOT
HETATM    1  C1  UNL     1     -32.569   5.766   1.619  1.00 20.00     0.032 C 
HETATM    2  C2  UNL     1     -33.411   5.420   2.598  1.00 20.00     0.028 C 
HETATM    3  C3  UNL     1     -32.288   9.340   2.171  1.00 20.00     0.026 C 
HETATM    4  C4  UNL     1     -32.045   9.181   0.867  1.00 20.00     0.115 C 
HETATM    5  C5  UNL     1     -32.310   7.207   1.528  1.00 20.00     0.062 C 
HETATM    6  C6  UNL     1     -34.069   6.507   3.388  1.00 20.00     0.026 C 
HETATM    7  C7  UNL     1     -32.389   8.002   2.808  1.00 20.00     0.184 C 
HETATM    8  C8  UNL     1     -35.333   6.126   4.115  1.00 20.00     0.070 C 
HETATM    9  N9  UNL     1     -32.039   7.876   0.451  1.00 20.00    -0.263 NA
HETATM   10  N10 UNL     1     -33.655   7.731   3.475  1.00 20.00    -0.279 NA
ENDROOT
TORSDOF 0
ENDMDL
MODEL 4
REMARK VINA RESULT:       0.7      1.527      3.653
REMARK  0 active torsions:
REMARK  status: ('A' for Active; 'I' for Inactive)
ROOT
HETATM    1  C1  UNL     1     -32.470   8.490   4.019  1.00 20.00     0.032 C 
HETATM    2  C2  UNL     1     -31.750   8.698   2.912  1.00 20.00     0.028 C 
HETATM    3  C3  UNL     1     -34.471   5.633   3.020  1.00 20.00     0.026 C 
HETATM    4  C4  UNL     1     -35.208   6.253   3.946  1.00 20.00     0.115 C 
HETATM    5  C5  UNL     1     -33.460   7.414   3.900  1.00 20.00     0.062 C 
HETATM    6  C6  UNL     1     -32.098   7.924   1.680  1.00 20.00     0.026 C 
HETATM    7  C7  UNL     1     -33.137   6.284   2.953  1.00 20.00     0.184 C 
HETATM    8  C8  UNL     1     -31.625   8.510   0.374  1.00 20.00     0.070 C 
HETATM    9  N9  UNL     1     -34.602   7.344   4.511  1.00 20.00    -0.263 NA
HETATM   10  N10 UNL     1     -32.782   6.824   1.649  1.00 20.00    -0.279 NA
ENDROOT
TORSDOF 0
ENDMDL
MODEL 5
REMARK VINA RESULT:       0.7      1.243      3.175
REMARK  0 active torsions:
REMARK  status: ('A' for Active; 'I' for Inactive)
ROOT
HETATM    1  C1  UNL     1     -32.701   7.732   2.605  1.00 20.00     0.032 C 
HETATM    2  C2  UNL     1     -31.989   6.986   1.755  1.00 20.00     0.028 C 
HETATM    3  C3  UNL     1     -34.816   5.214   4.138  1.00 20.00     0.026 C 
HETATM    4  C4  UNL     1     -35.518   6.347   4.233  1.00 20.00     0.115 C 
HETATM    5  C5  UNL     1     -33.731   6.990   3.341  1.00 20.00     0.062 C 
HETATM    6  C6  UNL     1     -32.381   5.555   1.563  1.00 20.00     0.026 C 
HETATM    7  C7  UNL     1     -33.461   5.531   3.619  1.00 20.00     0.184 C 
HETATM    8  C8  UNL     1     -31.905   4.903   0.290  1.00 20.00     0.070 C 
HETATM    9  N9  UNL     1     -34.866   7.455   3.762  1.00 20.00    -0.263 NA
HETATM   10  N10 UNL     1     -33.104   4.856   2.379  1.00 20.00    -0.279 NA
ENDROOT
TORSDOF 0
ENDMDL
