MODEL 1
REMARK VINA RESULT:      -1.2      0.000      0.000
REMARK  0 active torsions:
REMARK  status: ('A' for Active; 'I' for Inactive)
ROOT
HETATM    1  C1  UNL     1     -33.499   5.687   2.012  1.00 20.00     0.031 C 
HETATM    2  C2  UNL     1     -32.133   6.097   1.483  1.00 20.00     0.075 C 
HETATM    3  C3  UNL     1     -33.367   7.878   3.077  1.00 20.00     0.094 C 
HETATM    4  C4  UNL     1     -33.668   6.410   3.342  1.00 20.00     0.092 C 
HETATM    5  S5  UNL     1     -31.967   7.852   1.921  1.00 20.00    -0.168 SA
HETATM    6 CL6  UNL     1     -35.311   6.200   3.983  1.00 20.00    -0.124 Cl
ENDROOT
TORSDOF 0
ENDMDL
MODEL 2
REMARK VINA RESULT:      -0.8      2.291      2.741
REMARK  0 active torsions:
REMARK  status: ('A' for Active; 'I' for Inactive)
ROOT
HETATM    1  C1  UNL     1     -33.929   5.447   3.164  1.00 20.00     0.031 C 
HETATM    2  C2  UNL     1     -34.841   6.367   3.961  1.00 20.00     0.075 C 
HETATM    3  C3  UNL     1     -32.704   7.527   2.810  1.00 20.00     0.094 C 
HETATM    4  C4  UNL     1     -33.287   6.319   2.093  1.00 20.00     0.092 C 
HETATM    5  S5  UNL     1     -33.937   7.938   4.079  1.00 20.00    -0.168 SA
HETATM    6 CL6  UNL     1     -32.027   5.429   1.212  1.00 20.00    -0.124 Cl
ENDROOT
TORSDOF 0
ENDMDL
MODEL 3
REMARK VINA RESULT:      -0.7      0.945      1.845
REMARK  0 active torsions:
REMARK  status: ('A' for Active; 'I' for Inactive)
ROOT
HETATM    1  C1  UNL     1     -33.393   7.670   3.773  1.00 20.00     0.031 C 
HETATM    2  C2  UNL     1     -32.476   8.187   2.675  1.00 20.00     0.075 C 
HETATM    3  C3  UNL     1     -33.416   5.688   2.352  1.00 20.00     0.094 C 
HETATM    4  C4  UNL     1     -34.314   6.656   3.107  1.00 20.00     0.092 C 
HETATM    5  S5  UNL     1     -32.113   6.736   1.645  1.00 20.00    -0.168 SA
HETATM    6 CL6  UNL     1     -35.306   5.803   4.309  1.00 20.00    -0.124 Cl
ENDROOT
TORSDOF 0
ENDMDL
MODEL 4
REMARK VINA RESULT:      -0.7      1.507      2.014
REMARK  0 active torsions:
REMARK  status: ('A' for Active; 'I' for Inactive)
ROOT
HETATM    1  C1  UNL     1     -32.273   8.083   2.781  1.00 20.00     0.031 C 
HETATM    2  C2  UNL     1     -31.925   7.570   1.393  1.00 20.00     0.075 C 
HETATM    3  C3  UNL     1     -33.525   5.992   2.871  1.00 20.00     0.094 C 
HETATM    4  C4  UNL     1     -33.633   7.488   3.121  1.00 20.00     0.092 C 
HETATM    5  S5  UNL     1     -32.523   5.855   1.363  1.00 20.00    -0.168 SA
HETATM    6 CL6  UNL     1     -34.079   7.826   4.807  1.00 20.00    -0.124 Cl
ENDROOT
TORSDOF 0
ENDMDL
MODEL 5
REMARK VINA RESULT:      -0.4      2.561      3.243
REMARK  0 active torsions:
REMARK  status: ('A' for Active; 'I' for Inactive)
ROOT
HETATM    1  C1  UNL     1     -33.813   8.057   3.157  1.00 20.00     0.031 C 
HETATM    2  C2  UNL     1     -34.284   6.956   4.094  1.00 20.00     0.075 C 
HETATM    3  C3  UNL     1     -32.935   6.153   1.910  1.00 20.00     0.094 C 
HETATM    4  C4  UNL     1     -32.565   7.518   2.470  1.00 20.00     0.092 C 
HETATM    5  S5  UNL     1     -33.989   5.410   3.188  1.00 20.00    -0.168 SA
HETATM    6 CL6  UNL     1     -32.019   8.612   1.181  1.00 20.00    -0.124 Cl
ENDROOT
TORSDOF 0
ENDMDL
MODEL 6
REMARK VINA RESULT:      -0.3      2.272      2.753
REMARK  0 active torsions:
REMARK  status: ('A' for Active; 'I' for Inactive)
ROOT
HETATM    1  C1  UNL     1     -32.246   7.444   1.571  1.00 20.00     0.031 C 
HETATM    2  C2  UNL     1     -32.348   8.266   2.846  1.00 20.00     0.075 C 
HETATM    3  C3  UNL     1     -33.839   6.029   2.759  1.00 20.00     0.094 C 
HETATM    4  C4  UNL     1     -32.535   6.004   1.976  1.00 20.00     0.092 C 
HETATM    5  S5  UNL     1     -33.734   7.537   3.766  1.00 20.00    -0.168 SA
HETATM    6 CL6  UNL     1     -32.664   4.950   0.552  1.00 20.00    -0.124 Cl
ENDROOT
TORSDOF 0
ENDMDL
MODEL 7
REMARK VINA RESULT:      -0.1      2.478      3.161
REMARK  0 active torsions:
REMARK  status: ('A' for Active; 'I' for Inactive)
ROOT
HETATM    1  C1  UNL     1     -35.063   5.059   4.680  1.00 20.00     0.031 C 
HETATM    2  C2  UNL     1     -35.462   6.308   3.909  1.00 20.00     0.075 C 
HETATM    3  C3  UNL     1     -33.045   5.281   3.327  1.00 20.00     0.094 C 
HETATM    4  C4  UNL     1     -34.112   4.292   3.771  1.00 20.00     0.092 C 
HETATM    5  S5  UNL     1     -33.953   6.828   3.043  1.00 20.00    -0.168 SA
HETATM    6 CL6  UNL     1     -33.388   2.909   4.620  1.00 20.00    -0.124 Cl
ENDROOT
TORSDOF 0
ENDMDL
MODEL 8
REMARK VINA RESULT:      -0.1      2.611      2.802
REMARK  0 active torsions:
REMARK  status: ('A' for Active; 'I' for Inactive)
ROOT
HETATM    1  C1  UNL     1     -32.815   5.642   2.454  1.00 20.00     0.031 C 
HETATM    2  C2  UNL     1     -34.078   5.051   3.064  1.00 20.00     0.075 C 
HETATM    3  C3  UNL     1     -33.706   7.689   3.437  1.00 20.00     0.094 C 
HETATM    4  C4  UNL     1     -33.137   7.101   2.156  1.00 20.00     0.092 C 
HETATM    5  S5  UNL     1     -34.752   6.369   4.116  1.00 20.00    -0.168 SA
HETATM    6 CL6  UNL     1     -31.686   7.984   1.635  1.00 20.00    -0.124 Cl
ENDROOT
TORSDOF 0
ENDMDL
MODEL 9
REMARK VINA RESULT:       0.1      2.573      3.144
REMARK  0 active torsions:
REMARK  status: ('A' for Active; 'I' for Inactive)
ROOT
HETATM    1  C1  UNL     1     -33.081   7.539   2.606  1.00 20.00     0.031 C 
HETATM    2  C2  UNL     1     -33.848   7.818   3.890  1.00 20.00     0.075 C 
HETATM    3  C3  UNL     1     -34.117   5.346   2.864  1.00 20.00     0.094 C 
HETATM    4  C4  UNL     1     -32.791   6.044   2.607  1.00 20.00     0.092 C 
HETATM    5  S5  UNL     1     -34.944   6.385   4.102  1.00 20.00    -0.168 SA
HETATM    6 CL6  UNL     1     -32.084   5.526   1.062  1.00 20.00    -0.124 Cl
ENDROOT
TORSDOF 0
ENDMDL
