MODEL 1
REMARK VINA RESULT:      -0.2      0.000      0.000
REMARK  1 active torsions:
REMARK  status: ('A' for Active; 'I' for Inactive)
REMARK    1  A    between atoms: C4_4  and  C11_11 
ROOT
HETATM    1  C1  UNL     1     -32.190   5.041   1.112  1.00 20.00     0.003 A 
HETATM    2  C2  UNL     1     -31.807   6.380   0.932  1.00 20.00     0.008 A 
HETATM    3  C3  UNL     1     -33.118   4.691   2.097  1.00 20.00     0.029 A 
HETATM    4  C4  UNL     1     -32.340   7.386   1.739  1.00 20.00    -0.045 A 
HETATM    5  C5  UNL     1     -33.263   7.025   2.704  1.00 20.00    -0.024 A 
HETATM    6  C6  UNL     1     -33.664   5.697   2.875  1.00 20.00     0.035 A 
HETATM    7  C7  UNL     1     -33.937   7.878   3.727  1.00 20.00     0.061 C 
HETATM    8  C10 UNL     1     -34.977   6.898   4.311  1.00 20.00     0.124 C 
HETATM    9  N12 UNL     1     -34.553   5.553   3.938  1.00 20.00    -0.389 N 
HETATM   10  H25 UNL     1     -35.145   4.740   4.035  1.00 20.00     0.159 HD
ENDROOT
BRANCH   4  11
HETATM   11  C11 UNL     1     -31.912   8.800   1.564  1.00 20.00     0.019 A 
HETATM   12  C8  UNL     1     -32.741   9.717   0.700  1.00 20.00     0.010 A 
HETATM   13  C9  UNL     1     -31.402   9.253   0.218  1.00 20.00     0.010 A 
ENDBRANCH   4  11
TORSDOF 1
ENDMDL
MODEL 2
REMARK VINA RESULT:       0.1      1.895      4.799
REMARK  1 active torsions:
REMARK  status: ('A' for Active; 'I' for Inactive)
REMARK    1  A    between atoms: C4_4  and  C11_11 
ROOT
HETATM    1  C1  UNL     1     -35.193   6.797   4.304  1.00 20.00     0.003 A 
HETATM    2  C2  UNL     1     -34.875   5.430   4.316  1.00 20.00     0.008 A 
HETATM    3  C3  UNL     1     -34.467   7.692   3.513  1.00 20.00     0.029 A 
HETATM    4  C4  UNL     1     -33.821   4.939   3.544  1.00 20.00    -0.045 A 
HETATM    5  C5  UNL     1     -33.117   5.835   2.760  1.00 20.00    -0.024 A 
HETATM    6  C6  UNL     1     -33.442   7.194   2.728  1.00 20.00     0.035 A 
HETATM    7  C7  UNL     1     -31.924   5.593   1.895  1.00 20.00     0.061 C 
HETATM    8  C10 UNL     1     -31.797   6.944   1.159  1.00 20.00     0.124 C 
HETATM    9  N12 UNL     1     -32.569   7.920   1.920  1.00 20.00    -0.389 N 
HETATM   10  H25 UNL     1     -32.803   8.837   1.567  1.00 20.00     0.159 HD
ENDROOT
BRANCH   4  11
HETATM   11  C11 UNL     1     -33.469   3.493   3.579  1.00 20.00     0.019 A 
HETATM   12  C8  UNL     1     -33.631   2.730   4.870  1.00 20.00     0.010 A 
HETATM   13  C9  UNL     1     -32.259   3.050   4.364  1.00 20.00     0.010 A 
ENDBRANCH   4  11
TORSDOF 1
ENDMDL
MODEL 3
REMARK VINA RESULT:       0.6      1.035      2.697
REMARK  1 active torsions:
REMARK  status: ('A' for Active; 'I' for Inactive)
REMARK    1  A    between atoms: C4_4  and  C11_11 
ROOT
HETATM    1  C1  UNL     1     -34.178   7.780   3.924  1.00 20.00     0.003 A 
HETATM    2  C2  UNL     1     -33.470   8.653   3.083  1.00 20.00     0.008 A 
HETATM    3  C3  UNL     1     -34.121   6.397   3.728  1.00 20.00     0.029 A 
HETATM    4  C4  UNL     1     -32.701   8.157   2.030  1.00 20.00    -0.045 A 
HETATM    5  C5  UNL     1     -32.647   6.786   1.853  1.00 20.00    -0.024 A 
HETATM    6  C6  UNL     1     -33.333   5.910   2.699  1.00 20.00     0.035 A 
HETATM    7  C7  UNL     1     -31.958   6.001   0.785  1.00 20.00     0.061 C 
HETATM    8  C10 UNL     1     -32.121   4.558   1.309  1.00 20.00     0.124 C 
HETATM    9  N12 UNL     1     -33.187   4.582   2.304  1.00 20.00    -0.389 N 
HETATM   10  H25 UNL     1     -33.376   3.813   2.931  1.00 20.00     0.159 HD
ENDROOT
BRANCH   4  11
HETATM   11  C11 UNL     1     -31.973   9.086   1.124  1.00 20.00     0.019 A 
HETATM   12  C8  UNL     1     -32.561  10.445   0.839  1.00 20.00     0.010 A 
HETATM   13  C9  UNL     1     -32.556   9.400  -0.232  1.00 20.00     0.010 A 
ENDBRANCH   4  11
TORSDOF 1
ENDMDL
MODEL 4
REMARK VINA RESULT:       1.3      1.745      4.015
REMARK  1 active torsions:
REMARK  status: ('A' for Active; 'I' for Inactive)
REMARK    1  A    between atoms: C4_4  and  C11_11 
ROOT
HETATM    1  C1  UNL     1     -31.979   5.737   1.151  1.00 20.00     0.003 A 
HETATM    2  C2  UNL     1     -32.540   4.688   1.895  1.00 20.00     0.008 A 
HETATM    3  C3  UNL     1     -32.236   7.069   1.489  1.00 20.00     0.029 A 
HETATM    4  C4  UNL     1     -33.372   4.954   2.984  1.00 20.00    -0.045 A 
HETATM    5  C5  UNL     1     -33.610   6.277   3.311  1.00 20.00    -0.024 A 
HETATM    6  C6  UNL     1     -33.038   7.326   2.586  1.00 20.00     0.035 A 
HETATM    7  C7  UNL     1     -34.494   6.838   4.376  1.00 20.00     0.061 C 
HETATM    8  C10 UNL     1     -34.123   8.336   4.328  1.00 20.00     0.124 C 
HETATM    9  N12 UNL     1     -33.458   8.571   3.051  1.00 20.00    -0.389 N 
HETATM   10  H25 UNL     1     -32.953   9.420   2.838  1.00 20.00     0.159 HD
ENDROOT
BRANCH   4  11
HETATM   11  C11 UNL     1     -33.987   3.840   3.755  1.00 20.00     0.019 A 
HETATM   12  C8  UNL     1     -33.618   3.660   5.206  1.00 20.00     0.010 A 
HETATM   13  C9  UNL     1     -33.124   2.681   4.188  1.00 20.00     0.010 A 
ENDBRANCH   4  11
TORSDOF 1
ENDMDL
MODEL 5
REMARK VINA RESULT:       1.4      1.225      3.196
REMARK  1 active torsions:
REMARK  status: ('A' for Active; 'I' for Inactive)
REMARK    1  A    between atoms: C4_4  and  C11_11 
ROOT
HETATM    1  C1  UNL     1     -31.707   8.239   1.794  1.00 20.00     0.003 A 
HETATM    2  C2  UNL     1     -31.625   6.927   1.304  1.00 20.00     0.008 A 
HETATM    3  C3  UNL     1     -32.652   8.581   2.766  1.00 20.00     0.029 A 
HETATM    4  C4  UNL     1     -32.490   5.938   1.774  1.00 20.00    -0.045 A 
HETATM    5  C5  UNL     1     -33.414   6.288   2.742  1.00 20.00    -0.024 A 
HETATM    6  C6  UNL     1     -33.488   7.589   3.248  1.00 20.00     0.035 A 
HETATM    7  C7  UNL     1     -34.483   5.454   3.368  1.00 20.00     0.061 C 
HETATM    8  C10 UNL     1     -34.982   6.387   4.492  1.00 20.00     0.124 C 
HETATM    9  N12 UNL     1     -34.525   7.733   4.167  1.00 20.00    -0.389 N 
HETATM   10  H25 UNL     1     -34.557   8.501   4.822  1.00 20.00     0.159 HD
ENDROOT
BRANCH   4  11
HETATM   11  C11 UNL     1     -32.418   4.553   1.233  1.00 20.00     0.019 A 
HETATM   12  C8  UNL     1     -31.487   4.261   0.084  1.00 20.00     0.010 A 
HETATM   13  C9  UNL     1     -32.966   4.271  -0.144  1.00 20.00     0.010 A 
ENDBRANCH   4  11
TORSDOF 1
ENDMDL
MODEL 6
REMARK VINA RESULT:       1.4      1.379      3.037
REMARK  1 active torsions:
REMARK  status: ('A' for Active; 'I' for Inactive)
REMARK    1  A    between atoms: C4_4  and  C11_11 
ROOT
HETATM    1  C1  UNL     1     -35.426   6.819   3.971  1.00 20.00     0.003 A 
HETATM    2  C2  UNL     1     -34.406   7.301   3.137  1.00 20.00     0.008 A 
HETATM    3  C3  UNL     1     -35.387   5.512   4.466  1.00 20.00     0.029 A 
HETATM    4  C4  UNL     1     -33.335   6.481   2.778  1.00 20.00    -0.045 A 
HETATM    5  C5  UNL     1     -33.305   5.193   3.282  1.00 20.00    -0.024 A 
HETATM    6  C6  UNL     1     -34.308   4.713   4.129  1.00 20.00     0.035 A 
HETATM    7  C7  UNL     1     -32.322   4.101   3.016  1.00 20.00     0.061 C 
HETATM    8  C10 UNL     1     -32.756   3.036   4.046  1.00 20.00     0.124 C 
HETATM    9  N12 UNL     1     -34.110   3.376   4.468  1.00 20.00    -0.389 N 
HETATM   10  H25 UNL     1     -34.564   2.953   5.265  1.00 20.00     0.159 HD
ENDROOT
BRANCH   4  11
HETATM   11  C11 UNL     1     -32.268   6.986   1.872  1.00 20.00     0.019 A 
HETATM   12  C8  UNL     1     -31.462   8.190   2.287  1.00 20.00     0.010 A 
HETATM   13  C9  UNL     1     -32.459   8.312   1.178  1.00 20.00     0.010 A 
ENDBRANCH   4  11
TORSDOF 1
ENDMDL
MODEL 7
REMARK VINA RESULT:       1.8      1.777      3.815
REMARK  1 active torsions:
REMARK  status: ('A' for Active; 'I' for Inactive)
REMARK    1  A    between atoms: C4_4  and  C11_11 
ROOT
HETATM    1  C1  UNL     1     -32.168   4.886   1.544  1.00 20.00     0.003 A 
HETATM    2  C2  UNL     1     -33.102   5.169   2.553  1.00 20.00     0.008 A 
HETATM    3  C3  UNL     1     -31.587   5.918   0.800  1.00 20.00     0.029 A 
HETATM    4  C4  UNL     1     -33.475   6.485   2.828  1.00 20.00    -0.045 A 
HETATM    5  C5  UNL     1     -32.885   7.495   2.090  1.00 20.00    -0.024 A 
HETATM    6  C6  UNL     1     -31.940   7.222   1.097  1.00 20.00     0.035 A 
HETATM    7  C7  UNL     1     -33.140   8.966   2.136  1.00 20.00     0.061 C 
HETATM    8  C10 UNL     1     -32.010   9.504   1.232  1.00 20.00     0.124 C 
HETATM    9  N12 UNL     1     -31.522   8.379   0.442  1.00 20.00    -0.389 N 
HETATM   10  H25 UNL     1     -30.668   8.411  -0.097  1.00 20.00     0.159 HD
ENDROOT
BRANCH   4  11
HETATM   11  C11 UNL     1     -34.485   6.779   3.880  1.00 20.00     0.019 A 
HETATM   12  C8  UNL     1     -35.302   5.647   4.450  1.00 20.00     0.010 A 
HETATM   13  C9  UNL     1     -35.951   6.650   3.549  1.00 20.00     0.010 A 
ENDBRANCH   4  11
TORSDOF 1
ENDMDL
MODEL 8
REMARK VINA RESULT:       2.6      1.658      4.091
REMARK  1 active torsions:
REMARK  status: ('A' for Active; 'I' for Inactive)
REMARK    1  A    between atoms: C4_4  and  C11_11 
ROOT
HETATM    1  C1  UNL     1     -31.863   8.774   2.476  1.00 20.00     0.003 A 
HETATM    2  C2  UNL     1     -32.914   8.439   3.344  1.00 20.00     0.008 A 
HETATM    3  C3  UNL     1     -31.396   7.854   1.532  1.00 20.00     0.029 A 
HETATM    4  C4  UNL     1     -33.508   7.177   3.286  1.00 20.00    -0.045 A 
HETATM    5  C5  UNL     1     -33.042   6.281   2.342  1.00 20.00    -0.024 A 
HETATM    6  C6  UNL     1     -32.009   6.615   1.461  1.00 20.00     0.035 A 
HETATM    7  C7  UNL     1     -33.452   4.865   2.105  1.00 20.00     0.061 C 
HETATM    8  C10 UNL     1     -32.705   4.543   0.792  1.00 20.00     0.124 C 
HETATM    9  N12 UNL     1     -31.660   5.548   0.637  1.00 20.00    -0.389 N 
HETATM   10  H25 UNL     1     -31.142   5.680  -0.220  1.00 20.00     0.159 HD
ENDROOT
BRANCH   4  11
HETATM   11  C11 UNL     1     -34.605   6.816   4.226  1.00 20.00     0.019 A 
HETATM   12  C8  UNL     1     -35.082   5.386   4.282  1.00 20.00     0.010 A 
HETATM   13  C9  UNL     1     -35.955   6.437   3.670  1.00 20.00     0.010 A 
ENDBRANCH   4  11
TORSDOF 1
ENDMDL
