MODEL 1
REMARK VINA RESULT:      -0.7      0.000      0.000
REMARK  1 active torsions:
REMARK  status: ('A' for Active; 'I' for Inactive)
REMARK    1  A    between atoms: C6_6  and  C8_8 
ROOT
HETATM    1  C1  UNL     1     -31.554   7.093   1.083  1.00 20.00     0.008 C 
HETATM    2  C2  UNL     1     -31.903   8.135   1.853  1.00 20.00     0.028 C 
HETATM    3  C3  UNL     1     -33.263   5.591   1.955  1.00 20.00    -0.005 C 
HETATM    4  C4  UNL     1     -33.953   7.621   4.694  1.00 20.00     0.128 C 
HETATM    5  C5  UNL     1     -32.129   5.760   1.244  1.00 20.00    -0.065 C 
HETATM    6  C6  UNL     1     -34.493   6.669   3.929  1.00 20.00     0.011 C 
HETATM    7  C7  UNL     1     -32.930   7.834   2.866  1.00 20.00     0.046 C 
HETATM    8  C9  UNL     1     -33.971   6.767   2.544  1.00 20.00     0.098 C 
HETATM    9  C10 UNL     1     -31.412   4.627   0.577  1.00 20.00     0.048 C 
HETATM   10  N11 UNL     1     -32.998   8.366   4.050  1.00 20.00    -0.264 NA
ENDROOT
BRANCH   6  11
HETATM   11  C8  UNL     1     -35.513   5.744   4.386  1.00 20.00     0.268 C 
HETATM   12  O12 UNL     1     -35.292   4.552   4.607  1.00 20.00    -0.302 OA
ENDBRANCH   6  11
TORSDOF 1
ENDMDL
MODEL 2
REMARK VINA RESULT:       0.4      1.773      3.004
REMARK  1 active torsions:
REMARK  status: ('A' for Active; 'I' for Inactive)
REMARK    1  A    between atoms: C6_6  and  C8_8 
ROOT
HETATM    1  C1  UNL     1     -31.350   8.750   0.312  1.00 20.00     0.008 C 
HETATM    2  C2  UNL     1     -31.111   7.459   0.587  1.00 20.00     0.028 C 
HETATM    3  C3  UNL     1     -33.124   9.004   1.963  1.00 20.00    -0.005 C 
HETATM    4  C4  UNL     1     -33.492   5.574   2.409  1.00 20.00     0.128 C 
HETATM    5  C5  UNL     1     -32.471   9.490   0.888  1.00 20.00    -0.065 C 
HETATM    6  C6  UNL     1     -33.708   6.742   3.018  1.00 20.00     0.011 C 
HETATM    7  C7  UNL     1     -32.061   6.846   1.533  1.00 20.00     0.046 C 
HETATM    8  C9  UNL     1     -32.681   7.732   2.608  1.00 20.00     0.098 C 
HETATM    9  C10 UNL     1     -32.828  10.792   0.239  1.00 20.00     0.048 C 
HETATM   10  N11 UNL     1     -32.465   5.611   1.500  1.00 20.00    -0.264 NA
ENDROOT
BRANCH   6  11
HETATM   11  C8  UNL     1     -34.745   6.959   4.009  1.00 20.00     0.268 C 
HETATM   12  O12 UNL     1     -35.561   6.094   4.331  1.00 20.00    -0.302 OA
ENDBRANCH   6  11
TORSDOF 1
ENDMDL
MODEL 3
REMARK VINA RESULT:       1.6      2.565      4.641
REMARK  1 active torsions:
REMARK  status: ('A' for Active; 'I' for Inactive)
REMARK    1  A    between atoms: C6_6  and  C8_8 
ROOT
HETATM    1  C1  UNL     1     -34.569   6.477   4.428  1.00 20.00     0.008 C 
HETATM    2  C2  UNL     1     -34.388   5.614   3.417  1.00 20.00     0.028 C 
HETATM    3  C3  UNL     1     -33.286   8.282   3.412  1.00 20.00    -0.005 C 
HETATM    4  C4  UNL     1     -31.833   6.200   1.035  1.00 20.00     0.128 C 
HETATM    5  C5  UNL     1     -33.883   7.765   4.505  1.00 20.00    -0.065 C 
HETATM    6  C6  UNL     1     -32.137   7.479   1.266  1.00 20.00     0.011 C 
HETATM    7  C7  UNL     1     -33.452   6.076   2.375  1.00 20.00     0.046 C 
HETATM    8  C9  UNL     1     -33.361   7.573   2.100  1.00 20.00     0.098 C 
HETATM    9  C10 UNL     1     -33.897   8.462   5.830  1.00 20.00     0.048 C 
HETATM   10  N11 UNL     1     -32.646   5.315   1.696  1.00 20.00    -0.264 NA
ENDROOT
BRANCH   6  11
HETATM   11  C8  UNL     1     -31.415   8.599   0.693  1.00 20.00     0.268 C 
HETATM   12  O12 UNL     1     -31.976   9.583   0.204  1.00 20.00    -0.302 OA
ENDBRANCH   6  11
TORSDOF 1
ENDMDL
MODEL 4
REMARK VINA RESULT:       1.8      1.832      3.824
REMARK  1 active torsions:
REMARK  status: ('A' for Active; 'I' for Inactive)
REMARK    1  A    between atoms: C6_6  and  C8_8 
ROOT
HETATM    1  C1  UNL     1     -34.196   7.579   4.410  1.00 20.00     0.008 C 
HETATM    2  C2  UNL     1     -33.222   8.310   3.848  1.00 20.00     0.028 C 
HETATM    3  C3  UNL     1     -33.815   5.605   3.033  1.00 20.00    -0.005 C 
HETATM    4  C4  UNL     1     -31.849   7.324   0.736  1.00 20.00     0.128 C 
HETATM    5  C5  UNL     1     -34.607   6.274   3.895  1.00 20.00    -0.065 C 
HETATM    6  C6  UNL     1     -32.087   6.096   1.205  1.00 20.00     0.011 C 
HETATM    7  C7  UNL     1     -32.582   7.684   2.676  1.00 20.00     0.046 C 
HETATM    8  C9  UNL     1     -32.489   6.163   2.632  1.00 20.00     0.098 C 
HETATM    9  C10 UNL     1     -35.917   5.735   4.383  1.00 20.00     0.048 C 
HETATM   10  N11 UNL     1     -32.130   8.319   1.636  1.00 20.00    -0.264 NA
ENDROOT
BRANCH   6  11
HETATM   11  C8  UNL     1     -31.880   4.882   0.439  1.00 20.00     0.268 C 
HETATM   12  O12 UNL     1     -32.804   4.229  -0.051  1.00 20.00    -0.302 OA
ENDBRANCH   6  11
TORSDOF 1
ENDMDL
MODEL 5
REMARK VINA RESULT:       2.2      1.871      2.691
REMARK  1 active torsions:
REMARK  status: ('A' for Active; 'I' for Inactive)
REMARK    1  A    between atoms: C6_6  and  C8_8 
ROOT
HETATM    1  C1  UNL     1     -33.642   8.238   2.406  1.00 20.00     0.008 C 
HETATM    2  C2  UNL     1     -34.760   7.888   3.059  1.00 20.00     0.028 C 
HETATM    3  C3  UNL     1     -32.656   6.010   2.447  1.00 20.00    -0.005 C 
HETATM    4  C4  UNL     1     -34.873   4.839   4.857  1.00 20.00     0.128 C 
HETATM    5  C5  UNL     1     -32.506   7.334   2.236  1.00 20.00    -0.065 C 
HETATM    6  C6  UNL     1     -34.070   4.420   3.876  1.00 20.00     0.011 C 
HETATM    7  C7  UNL     1     -34.763   6.508   3.579  1.00 20.00     0.046 C 
HETATM    8  C9  UNL     1     -33.991   5.445   2.806  1.00 20.00     0.098 C 
HETATM    9  C10 UNL     1     -31.208   7.948   1.812  1.00 20.00     0.048 C 
HETATM   10  N11 UNL     1     -35.329   6.121   4.683  1.00 20.00    -0.264 NA
ENDROOT
BRANCH   6  11
HETATM   11  C8  UNL     1     -33.452   3.108   3.839  1.00 20.00     0.268 C 
HETATM   12  O12 UNL     1     -33.063   2.518   4.849  1.00 20.00    -0.302 OA
ENDBRANCH   6  11
TORSDOF 1
ENDMDL
