MODEL 1
REMARK VINA RESULT:      -0.1      0.000      0.000
REMARK  0 active torsions:
REMARK  status: ('A' for Active; 'I' for Inactive)
ROOT
HETATM    1  C1  UNL     1     -35.177   6.455   4.194  1.00 20.00     0.032 A 
HETATM    2  C2  UNL     1     -33.695   7.868   2.565  1.00 20.00     0.040 A 
HETATM    3  C3  UNL     1     -31.979   6.481   1.637  1.00 20.00     0.142 A 
HETATM    4  C4  UNL     1     -35.078   5.124   4.538  1.00 20.00     0.093 A 
HETATM    5  C5  UNL     1     -34.134   6.737   3.273  1.00 20.00     0.013 A 
HETATM    6  C6  UNL     1     -32.590   7.725   1.729  1.00 20.00     0.052 A 
HETATM    7  C7  UNL     1     -33.428   5.552   3.087  1.00 20.00     0.139 A 
HETATM    8  C8  UNL     1     -33.587   3.209   3.958  1.00 20.00     0.157 C 
HETATM    9  N9  UNL     1     -32.357   5.360   2.294  1.00 20.00    -0.241 NA
HETATM   10  N10 UNL     1     -34.015   4.587   3.861  1.00 20.00    -0.345 N 
HETATM   11 CL11 UNL     1     -31.997   9.063   0.830  1.00 20.00    -0.083 Cl
ENDROOT
TORSDOF 0
ENDMDL
MODEL 2
REMARK VINA RESULT:       1.1      2.664      4.430
REMARK  0 active torsions:
REMARK  status: ('A' for Active; 'I' for Inactive)
ROOT
HETATM    1  C1  UNL     1     -32.017   5.812   1.250  1.00 20.00     0.032 A 
HETATM    2  C2  UNL     1     -33.782   5.173   3.074  1.00 20.00     0.040 A 
HETATM    3  C3  UNL     1     -34.642   7.163   4.088  1.00 20.00     0.142 A 
HETATM    4  C4  UNL     1     -31.577   7.056   0.854  1.00 20.00     0.093 A 
HETATM    5  C5  UNL     1     -32.981   6.005   2.275  1.00 20.00     0.013 A 
HETATM    6  C6  UNL     1     -34.630   5.778   3.999  1.00 20.00     0.052 A 
HETATM    7  C7  UNL     1     -33.094   7.379   2.469  1.00 20.00     0.139 A 
HETATM    8  C8  UNL     1     -32.045   9.427   1.476  1.00 20.00     0.157 C 
HETATM    9  N9  UNL     1     -33.894   8.013   3.346  1.00 20.00    -0.241 NA
HETATM   10  N10 UNL     1     -32.236   7.999   1.599  1.00 20.00    -0.345 N 
HETATM   11 CL11 UNL     1     -35.640   4.825   5.009  1.00 20.00    -0.083 Cl
ENDROOT
TORSDOF 0
ENDMDL
MODEL 3
REMARK VINA RESULT:       2.7      1.194      2.162
REMARK  0 active torsions:
REMARK  status: ('A' for Active; 'I' for Inactive)
ROOT
HETATM    1  C1  UNL     1     -32.932   4.350   2.445  1.00 20.00     0.032 A 
HETATM    2  C2  UNL     1     -32.085   6.637   1.498  1.00 20.00     0.040 A 
HETATM    3  C3  UNL     1     -33.247   8.430   2.577  1.00 20.00     0.142 A 
HETATM    4  C4  UNL     1     -33.885   4.098   3.408  1.00 20.00     0.093 A 
HETATM    5  C5  UNL     1     -32.841   5.758   2.291  1.00 20.00     0.013 A 
HETATM    6  C6  UNL     1     -32.302   8.004   1.654  1.00 20.00     0.052 A 
HETATM    7  C7  UNL     1     -33.754   6.321   3.178  1.00 20.00     0.139 A 
HETATM    8  C8  UNL     1     -35.398   5.454   4.857  1.00 20.00     0.157 C 
HETATM    9  N9  UNL     1     -34.002   7.631   3.367  1.00 20.00    -0.241 NA
HETATM   10  N10 UNL     1     -34.377   5.300   3.845  1.00 20.00    -0.345 N 
HETATM   11 CL11 UNL     1     -31.415   9.140   0.719  1.00 20.00    -0.083 Cl
ENDROOT
TORSDOF 0
ENDMDL
MODEL 4
REMARK VINA RESULT:       2.8      2.037      2.854
REMARK  0 active torsions:
REMARK  status: ('A' for Active; 'I' for Inactive)
ROOT
HETATM    1  C1  UNL     1     -34.913   5.335   3.866  1.00 20.00     0.032 A 
HETATM    2  C2  UNL     1     -33.198   4.765   1.975  1.00 20.00     0.040 A 
HETATM    3  C3  UNL     1     -31.850   6.688   1.510  1.00 20.00     0.142 A 
HETATM    4  C4  UNL     1     -35.101   6.514   4.554  1.00 20.00     0.093 A 
HETATM    5  C5  UNL     1     -33.856   5.542   2.942  1.00 20.00     0.013 A 
HETATM    6  C6  UNL     1     -32.171   5.363   1.247  1.00 20.00     0.052 A 
HETATM    7  C7  UNL     1     -33.432   6.858   3.102  1.00 20.00     0.139 A 
HETATM    8  C8  UNL     1     -34.081   8.792   4.556  1.00 20.00     0.157 C 
HETATM    9  N9  UNL     1     -32.449   7.483   2.427  1.00 20.00    -0.241 NA
HETATM   10  N10 UNL     1     -34.198   7.431   4.083  1.00 20.00    -0.345 N 
HETATM   11 CL11 UNL     1     -31.319   4.475   0.050  1.00 20.00    -0.083 Cl
ENDROOT
TORSDOF 0
ENDMDL
