MODEL 1
REMARK VINA RESULT:       1.0      0.000      0.000
REMARK  0 active torsions:
REMARK  status: ('A' for Active; 'I' for Inactive)
ROOT
HETATM    1  C1  UNL     1     -31.804   8.485   0.282  1.00 20.00    -0.025 C 
HETATM    2  C2  UNL     1     -32.411   9.425   1.022  1.00 20.00    -0.025 C 
HETATM    3  C3  UNL     1     -32.998   5.460   2.316  1.00 20.00    -0.024 C 
HETATM    4  C4  UNL     1     -33.668   5.674   3.450  1.00 20.00    -0.025 C 
HETATM    5  C5  UNL     1     -31.340   8.014   2.490  1.00 20.00     0.018 C 
HETATM    6  C6  UNL     1     -31.606   7.278   1.170  1.00 20.00     0.016 C 
HETATM    7  C7  UNL     1     -32.627   8.840   2.404  1.00 20.00     0.014 C 
HETATM    8  C8  UNL     1     -33.002   6.652   1.415  1.00 20.00     0.021 C 
HETATM    9  C9  UNL     1     -34.263   7.048   3.528  1.00 20.00     0.009 C 
HETATM   10  C10 UNL     1     -33.736   7.759   2.260  1.00 20.00     0.009 C 
HETATM   11  C11 UNL     1     -33.973   7.748   4.848  1.00 20.00     0.014 C 
ENDROOT
TORSDOF 0
ENDMDL
MODEL 2
REMARK VINA RESULT:       1.3      0.986      3.420
REMARK  0 active torsions:
REMARK  status: ('A' for Active; 'I' for Inactive)
ROOT
HETATM    1  C1  UNL     1     -34.630   6.397   4.744  1.00 20.00    -0.025 C 
HETATM    2  C2  UNL     1     -34.248   7.681   4.810  1.00 20.00    -0.025 C 
HETATM    3  C3  UNL     1     -32.776   5.535   1.499  1.00 20.00    -0.024 C 
HETATM    4  C4  UNL     1     -32.167   6.515   0.828  1.00 20.00    -0.025 C 
HETATM    5  C5  UNL     1     -34.967   7.313   2.656  1.00 20.00     0.018 C 
HETATM    6  C6  UNL     1     -34.546   5.982   3.292  1.00 20.00     0.016 C 
HETATM    7  C7  UNL     1     -33.900   8.121   3.401  1.00 20.00     0.014 C 
HETATM    8  C8  UNL     1     -33.044   5.897   2.924  1.00 20.00     0.021 C 
HETATM    9  C9  UNL     1     -31.897   7.723   1.674  1.00 20.00     0.009 C 
HETATM   10  C10 UNL     1     -32.576   7.396   3.024  1.00 20.00     0.009 C 
HETATM   11  C11 UNL     1     -32.332   9.023   1.013  1.00 20.00     0.014 C 
ENDROOT
TORSDOF 0
ENDMDL
MODEL 3
REMARK VINA RESULT:       1.4      1.025      3.747
REMARK  0 active torsions:
REMARK  status: ('A' for Active; 'I' for Inactive)
ROOT
HETATM    1  C1  UNL     1     -35.251   7.111   4.210  1.00 20.00    -0.025 C 
HETATM    2  C2  UNL     1     -35.290   5.860   3.728  1.00 20.00    -0.025 C 
HETATM    3  C3  UNL     1     -32.200   8.279   2.200  1.00 20.00    -0.024 C 
HETATM    4  C4  UNL     1     -31.536   7.385   1.464  1.00 20.00    -0.025 C 
HETATM    5  C5  UNL     1     -33.105   6.275   4.315  1.00 20.00     0.018 C 
HETATM    6  C6  UNL     1     -33.830   7.603   4.055  1.00 20.00     0.016 C 
HETATM    7  C7  UNL     1     -33.896   5.520   3.242  1.00 20.00     0.014 C 
HETATM    8  C8  UNL     1     -33.582   7.826   2.542  1.00 20.00     0.021 C 
HETATM    9  C9  UNL     1     -32.348   6.162   1.157  1.00 20.00     0.009 C 
HETATM   10  C10 UNL     1     -33.654   6.366   1.959  1.00 20.00     0.009 C 
HETATM   11  C11 UNL     1     -31.599   4.866   1.432  1.00 20.00     0.014 C 
ENDROOT
TORSDOF 0
ENDMDL
MODEL 4
REMARK VINA RESULT:       1.8      1.154      2.772
REMARK  0 active torsions:
REMARK  status: ('A' for Active; 'I' for Inactive)
ROOT
HETATM    1  C1  UNL     1     -32.340   7.922   1.649  1.00 20.00    -0.025 C 
HETATM    2  C2  UNL     1     -31.553   6.847   1.807  1.00 20.00    -0.025 C 
HETATM    3  C3  UNL     1     -35.262   6.668   3.795  1.00 20.00    -0.024 C 
HETATM    4  C4  UNL     1     -35.222   5.420   4.267  1.00 20.00    -0.025 C 
HETATM    5  C5  UNL     1     -33.650   6.062   1.278  1.00 20.00     0.018 C 
HETATM    6  C6  UNL     1     -33.764   7.468   1.880  1.00 20.00     0.016 C 
HETATM    7  C7  UNL     1     -32.453   5.677   2.152  1.00 20.00     0.014 C 
HETATM    8  C8  UNL     1     -33.914   7.171   3.393  1.00 20.00     0.021 C 
HETATM    9  C9  UNL     1     -33.837   4.845   4.285  1.00 20.00     0.009 C 
HETATM   10  C10 UNL     1     -32.972   5.927   3.598  1.00 20.00     0.009 C 
HETATM   11  C11 UNL     1     -33.763   3.453   3.675  1.00 20.00     0.014 C 
ENDROOT
TORSDOF 0
ENDMDL
MODEL 5
REMARK VINA RESULT:       2.2      1.251      2.687
REMARK  0 active torsions:
REMARK  status: ('A' for Active; 'I' for Inactive)
ROOT
HETATM    1  C1  UNL     1     -31.421   6.102   1.093  1.00 20.00    -0.025 C 
HETATM    2  C2  UNL     1     -32.237   5.048   1.239  1.00 20.00    -0.025 C 
HETATM    3  C3  UNL     1     -33.143   8.371   3.662  1.00 20.00    -0.024 C 
HETATM    4  C4  UNL     1     -34.282   7.958   4.222  1.00 20.00    -0.025 C 
HETATM    5  C5  UNL     1     -33.582   6.901   1.026  1.00 20.00     0.018 C 
HETATM    6  C6  UNL     1     -32.195   7.327   1.526  1.00 20.00     0.016 C 
HETATM    7  C7  UNL     1     -33.554   5.568   1.779  1.00 20.00     0.014 C 
HETATM    8  C8  UNL     1     -32.358   7.249   3.064  1.00 20.00     0.021 C 
HETATM    9  C9  UNL     1     -34.479   6.475   4.119  1.00 20.00     0.009 C 
HETATM   10  C10 UNL     1     -33.292   5.996   3.252  1.00 20.00     0.009 C 
HETATM   11  C11 UNL     1     -35.863   6.092   3.616  1.00 20.00     0.014 C 
ENDROOT
TORSDOF 0
ENDMDL
MODEL 6
REMARK VINA RESULT:       3.5      1.390      2.173
REMARK  0 active torsions:
REMARK  status: ('A' for Active; 'I' for Inactive)
ROOT
HETATM    1  C1  UNL     1     -32.905   5.690   0.579  1.00 20.00    -0.025 C 
HETATM    2  C2  UNL     1     -32.145   6.776   0.788  1.00 20.00    -0.025 C 
HETATM    3  C3  UNL     1     -35.038   6.009   3.751  1.00 20.00    -0.024 C 
HETATM    4  C4  UNL     1     -34.724   6.952   4.643  1.00 20.00    -0.025 C 
HETATM    5  C5  UNL     1     -32.181   5.602   2.766  1.00 20.00     0.018 C 
HETATM    6  C6  UNL     1     -33.414   5.238   1.929  1.00 20.00     0.016 C 
HETATM    7  C7  UNL     1     -32.155   7.053   2.278  1.00 20.00     0.014 C 
HETATM    8  C8  UNL     1     -34.456   6.282   2.402  1.00 20.00     0.021 C 
HETATM    9  C9  UNL     1     -33.880   8.047   4.065  1.00 20.00     0.009 C 
HETATM   10  C10 UNL     1     -33.581   7.571   2.624  1.00 20.00     0.009 C 
HETATM   11  C11 UNL     1     -32.664   8.376   4.919  1.00 20.00     0.014 C 
ENDROOT
TORSDOF 0
ENDMDL
MODEL 7
REMARK VINA RESULT:       3.6      0.984      3.399
REMARK  0 active torsions:
REMARK  status: ('A' for Active; 'I' for Inactive)
ROOT
HETATM    1  C1  UNL     1     -34.399   5.184   3.639  1.00 20.00    -0.025 C 
HETATM    2  C2  UNL     1     -34.608   6.391   4.185  1.00 20.00    -0.025 C 
HETATM    3  C3  UNL     1     -31.804   6.299   1.044  1.00 20.00    -0.024 C 
HETATM    4  C4  UNL     1     -31.551   7.603   0.909  1.00 20.00    -0.025 C 
HETATM    5  C5  UNL     1     -34.707   6.670   1.904  1.00 20.00     0.018 C 
HETATM    6  C6  UNL     1     -33.890   5.414   2.234  1.00 20.00     0.016 C 
HETATM    7  C7  UNL     1     -34.229   7.428   3.146  1.00 20.00     0.014 C 
HETATM    8  C8  UNL     1     -32.451   5.974   2.351  1.00 20.00     0.021 C 
HETATM    9  C9  UNL     1     -31.968   8.406   2.104  1.00 20.00     0.009 C 
HETATM   10  C10 UNL     1     -32.679   7.381   3.018  1.00 20.00     0.009 C 
HETATM   11  C11 UNL     1     -32.780   9.641   1.738  1.00 20.00     0.014 C 
ENDROOT
TORSDOF 0
ENDMDL
MODEL 8
REMARK VINA RESULT:       3.9      1.090      3.996
REMARK  0 active torsions:
REMARK  status: ('A' for Active; 'I' for Inactive)
ROOT
HETATM    1  C1  UNL     1     -33.387   7.049   3.071  1.00 20.00    -0.025 C 
HETATM    2  C2  UNL     1     -32.877   6.316   2.070  1.00 20.00    -0.025 C 
HETATM    3  C3  UNL     1     -32.902  10.477   1.419  1.00 20.00    -0.024 C 
HETATM    4  C4  UNL     1     -32.242  10.543   0.260  1.00 20.00    -0.025 C 
HETATM    5  C5  UNL     1     -31.396   8.034   2.453  1.00 20.00     0.018 C 
HETATM    6  C6  UNL     1     -32.789   8.434   2.957  1.00 20.00     0.016 C 
HETATM    7  C7  UNL     1     -31.946   7.215   1.281  1.00 20.00     0.014 C 
HETATM    8  C8  UNL     1     -33.415   9.104   1.708  1.00 20.00     0.021 C 
HETATM    9  C9  UNL     1     -32.194   9.229  -0.461  1.00 20.00     0.009 C 
HETATM   10  C10 UNL     1     -32.847   8.234   0.526  1.00 20.00     0.009 C 
HETATM   11  C11 UNL     1     -30.797   8.865  -0.941  1.00 20.00     0.014 C 
ENDROOT
TORSDOF 0
ENDMDL
