MODEL 1
REMARK VINA RESULT:      -2.2      0.000      0.000
REMARK  2 active torsions:
REMARK  status: ('A' for Active; 'I' for Inactive)
REMARK    1  A    between atoms: C5_5  and  C6_6 
REMARK    2  A    between atoms: C7_7  and  O8_8 
ROOT
HETATM    1  C3  UNL     1     -34.320   7.229   4.255  1.00 20.00     0.010 C 
HETATM    2  C4  UNL     1     -35.547   6.375   3.898  1.00 20.00     0.032 C 
HETATM    3  C6  UNL     1     -33.465   6.301   3.355  1.00 20.00     0.018 C 
HETATM    4  C7  UNL     1     -34.584   5.232   3.517  1.00 20.00     0.122 C 
ENDROOT
BRANCH   3   5
HETATM    5  C5  UNL     1     -33.103   6.772   1.958  1.00 20.00    -0.008 A 
HETATM    6  C1  UNL     1     -31.942   7.684   1.671  1.00 20.00     0.005 A 
HETATM    7  C2  UNL     1     -31.911   6.258   1.200  1.00 20.00     0.005 A 
ENDBRANCH   3   5
BRANCH   4   8
HETATM    8  O8  UNL     1     -34.352   4.242   4.540  1.00 20.00    -0.395 OA
HETATM    9  H20 UNL     1     -33.529   3.799   4.296  1.00 20.00     0.210 HD
ENDBRANCH   4   8
TORSDOF 2
ENDMDL
MODEL 2
REMARK VINA RESULT:      -1.5      2.329      3.120
REMARK  2 active torsions:
REMARK  status: ('A' for Active; 'I' for Inactive)
REMARK    1  A    between atoms: C5_5  and  C6_6 
REMARK    2  A    between atoms: C7_7  and  O8_8 
ROOT
HETATM    1  C3  UNL     1     -32.376   8.069   3.095  1.00 20.00     0.010 C 
HETATM    2  C4  UNL     1     -33.401   6.936   2.922  1.00 20.00     0.032 C 
HETATM    3  C6  UNL     1     -32.186   8.074   1.557  1.00 20.00     0.018 C 
HETATM    4  C7  UNL     1     -32.761   6.629   1.552  1.00 20.00     0.122 C 
ENDROOT
BRANCH   3   5
HETATM    5  C5  UNL     1     -32.889   9.142   0.738  1.00 20.00    -0.008 A 
HETATM    6  C1  UNL     1     -32.412  10.566   0.658  1.00 20.00     0.005 A 
HETATM    7  C2  UNL     1     -32.343   9.680  -0.554  1.00 20.00     0.005 A 
ENDBRANCH   3   5
BRANCH   4   8
HETATM    8  O8  UNL     1     -31.782   5.571   1.542  1.00 20.00    -0.395 OA
HETATM    9  H20 UNL     1     -30.923   6.006   1.626  1.00 20.00     0.210 HD
ENDBRANCH   4   8
TORSDOF 2
ENDMDL
MODEL 3
REMARK VINA RESULT:      -1.2      1.787      3.540
REMARK  2 active torsions:
REMARK  status: ('A' for Active; 'I' for Inactive)
REMARK    1  A    between atoms: C5_5  and  C6_6 
REMARK    2  A    between atoms: C7_7  and  O8_8 
ROOT
HETATM    1  C3  UNL     1     -32.114   7.187   1.617  1.00 20.00     0.010 C 
HETATM    2  C4  UNL     1     -31.505   5.782   1.486  1.00 20.00     0.032 C 
HETATM    3  C6  UNL     1     -33.449   6.523   2.043  1.00 20.00     0.018 C 
HETATM    4  C7  UNL     1     -32.938   5.223   1.357  1.00 20.00     0.122 C 
ENDROOT
BRANCH   3   5
HETATM    5  C5  UNL     1     -33.804   6.479   3.518  1.00 20.00    -0.008 A 
HETATM    6  C1  UNL     1     -34.437   7.632   4.247  1.00 20.00     0.005 A 
HETATM    7  C2  UNL     1     -35.216   6.367   4.021  1.00 20.00     0.005 A 
ENDBRANCH   3   5
BRANCH   4   8
HETATM    8  O8  UNL     1     -33.406   5.007   0.011  1.00 20.00    -0.395 OA
HETATM    9  H20 UNL     1     -32.616   5.012  -0.547  1.00 20.00     0.210 HD
ENDBRANCH   4   8
TORSDOF 2
ENDMDL
MODEL 4
REMARK VINA RESULT:      -1.2      2.131      3.501
REMARK  2 active torsions:
REMARK  status: ('A' for Active; 'I' for Inactive)
REMARK    1  A    between atoms: C5_5  and  C6_6 
REMARK    2  A    between atoms: C7_7  and  O8_8 
ROOT
HETATM    1  C3  UNL     1     -35.369   5.965   3.884  1.00 20.00     0.010 C 
HETATM    2  C4  UNL     1     -34.243   7.002   4.027  1.00 20.00     0.032 C 
HETATM    3  C6  UNL     1     -34.289   4.893   3.594  1.00 20.00     0.018 C 
HETATM    4  C7  UNL     1     -33.335   6.060   3.207  1.00 20.00     0.122 C 
ENDROOT
BRANCH   3   5
HETATM    5  C5  UNL     1     -33.875   3.953   4.712  1.00 20.00    -0.008 A 
HETATM    6  C1  UNL     1     -33.489   2.518   4.482  1.00 20.00     0.005 A 
HETATM    7  C2  UNL     1     -32.456   3.512   4.932  1.00 20.00     0.005 A 
ENDBRANCH   3   5
BRANCH   4   8
HETATM    8  O8  UNL     1     -33.247   6.348   1.797  1.00 20.00    -0.395 OA
HETATM    9  H20 UNL     1     -33.327   7.308   1.718  1.00 20.00     0.210 HD
ENDBRANCH   4   8
TORSDOF 2
ENDMDL
MODEL 5
REMARK VINA RESULT:      -1.0      1.794      3.609
REMARK  2 active torsions:
REMARK  status: ('A' for Active; 'I' for Inactive)
REMARK    1  A    between atoms: C5_5  and  C6_6 
REMARK    2  A    between atoms: C7_7  and  O8_8 
ROOT
HETATM    1  C3  UNL     1     -32.972   7.832   1.595  1.00 20.00     0.010 C 
HETATM    2  C4  UNL     1     -31.523   7.391   1.860  1.00 20.00     0.032 C 
HETATM    3  C6  UNL     1     -33.445   6.465   2.151  1.00 20.00     0.018 C 
HETATM    4  C7  UNL     1     -32.015   5.928   1.852  1.00 20.00     0.122 C 
ENDROOT
BRANCH   3   5
HETATM    5  C5  UNL     1     -33.967   6.397   3.575  1.00 20.00    -0.008 A 
HETATM    6  C1  UNL     1     -35.429   6.451   3.920  1.00 20.00     0.005 A 
HETATM    7  C2  UNL     1     -34.650   5.186   4.144  1.00 20.00     0.005 A 
ENDBRANCH   3   5
BRANCH   4   8
HETATM    8  O8  UNL     1     -31.865   5.225   0.603  1.00 20.00    -0.395 OA
HETATM    9  H20 UNL     1     -31.793   4.289   0.834  1.00 20.00     0.210 HD
ENDBRANCH   4   8
TORSDOF 2
ENDMDL
MODEL 6
REMARK VINA RESULT:      -0.8      2.131      3.864
REMARK  2 active torsions:
REMARK  status: ('A' for Active; 'I' for Inactive)
REMARK    1  A    between atoms: C5_5  and  C6_6 
REMARK    2  A    between atoms: C7_7  and  O8_8 
ROOT
HETATM    1  C3  UNL     1     -32.021   6.848   1.453  1.00 20.00     0.010 C 
HETATM    2  C4  UNL     1     -32.300   8.357   1.356  1.00 20.00     0.032 C 
HETATM    3  C6  UNL     1     -32.719   6.850   2.836  1.00 20.00     0.018 C 
HETATM    4  C7  UNL     1     -32.446   8.381   2.892  1.00 20.00     0.122 C 
ENDROOT
BRANCH   3   5
HETATM    5  C5  UNL     1     -34.153   6.361   2.931  1.00 20.00    -0.008 A 
HETATM    6  C1  UNL     1     -34.595   5.288   3.888  1.00 20.00     0.005 A 
HETATM    7  C2  UNL     1     -35.064   6.703   4.076  1.00 20.00     0.005 A 
ENDBRANCH   3   5
BRANCH   4   8
HETATM    8  O8  UNL     1     -31.269   8.776   3.626  1.00 20.00    -0.395 OA
HETATM    9  H20 UNL     1     -31.010   9.634   3.267  1.00 20.00     0.210 HD
ENDBRANCH   4   8
TORSDOF 2
ENDMDL
MODEL 7
REMARK VINA RESULT:      -0.8      1.364      2.069
REMARK  2 active torsions:
REMARK  status: ('A' for Active; 'I' for Inactive)
REMARK    1  A    between atoms: C5_5  and  C6_6 
REMARK    2  A    between atoms: C7_7  and  O8_8 
ROOT
HETATM    1  C3  UNL     1     -33.430   5.406   2.011  1.00 20.00     0.010 C 
HETATM    2  C4  UNL     1     -33.480   5.111   3.519  1.00 20.00     0.032 C 
HETATM    3  C6  UNL     1     -33.642   6.906   2.341  1.00 20.00     0.018 C 
HETATM    4  C7  UNL     1     -34.224   6.450   3.710  1.00 20.00     0.122 C 
ENDROOT
BRANCH   3   5
HETATM    5  C5  UNL     1     -32.439   7.832   2.332  1.00 20.00    -0.008 A 
HETATM    6  C1  UNL     1     -31.303   7.697   1.356  1.00 20.00     0.005 A 
HETATM    7  C2  UNL     1     -32.220   8.885   1.282  1.00 20.00     0.005 A 
ENDBRANCH   3   5
BRANCH   4   8
HETATM    8  O8  UNL     1     -35.662   6.362   3.774  1.00 20.00    -0.395 OA
HETATM    9  H20 UNL     1     -35.955   7.166   4.224  1.00 20.00     0.210 HD
ENDBRANCH   4   8
TORSDOF 2
ENDMDL
MODEL 8
REMARK VINA RESULT:      -0.5      2.375      3.505
REMARK  2 active torsions:
REMARK  status: ('A' for Active; 'I' for Inactive)
REMARK    1  A    between atoms: C5_5  and  C6_6 
REMARK    2  A    between atoms: C7_7  and  O8_8 
ROOT
HETATM    1  C3  UNL     1     -32.871   6.667   0.866  1.00 20.00     0.010 C 
HETATM    2  C4  UNL     1     -31.936   6.404   2.058  1.00 20.00     0.032 C 
HETATM    3  C6  UNL     1     -33.013   8.131   1.355  1.00 20.00     0.018 C 
HETATM    4  C7  UNL     1     -32.557   7.632   2.757  1.00 20.00     0.122 C 
ENDROOT
BRANCH   3   5
HETATM    5  C5  UNL     1     -32.201   9.213   0.666  1.00 20.00    -0.008 A 
HETATM    6  C1  UNL     1     -32.612   9.850  -0.633  1.00 20.00     0.005 A 
HETATM    7  C2  UNL     1     -32.614  10.657   0.635  1.00 20.00     0.005 A 
ENDBRANCH   3   5
BRANCH   4   8
HETATM    8  O8  UNL     1     -33.619   7.350   3.690  1.00 20.00    -0.395 OA
HETATM    9  H20 UNL     1     -33.234   7.461   4.569  1.00 20.00     0.210 HD
ENDBRANCH   4   8
TORSDOF 2
ENDMDL
MODEL 9
REMARK VINA RESULT:      -0.2      2.799      3.505
REMARK  2 active torsions:
REMARK  status: ('A' for Active; 'I' for Inactive)
REMARK    1  A    between atoms: C5_5  and  C6_6 
REMARK    2  A    between atoms: C7_7  and  O8_8 
ROOT
HETATM    1  C3  UNL     1     -33.387   7.721   3.207  1.00 20.00     0.010 C 
HETATM    2  C4  UNL     1     -31.962   8.297   3.187  1.00 20.00     0.032 C 
HETATM    3  C6  UNL     1     -33.105   7.086   1.822  1.00 20.00     0.018 C 
HETATM    4  C7  UNL     1     -31.968   8.134   1.652  1.00 20.00     0.122 C 
ENDROOT
BRANCH   3   5
HETATM    5  C5  UNL     1     -32.753   5.610   1.754  1.00 20.00    -0.008 A 
HETATM    6  C1  UNL     1     -33.021   4.755   0.546  1.00 20.00     0.005 A 
HETATM    7  C2  UNL     1     -31.607   5.075   0.943  1.00 20.00     0.005 A 
ENDBRANCH   3   5
BRANCH   4   8
HETATM    8  O8  UNL     1     -32.318   9.313   0.899  1.00 20.00    -0.395 OA
HETATM    9  H20 UNL     1     -31.723   9.327   0.138  1.00 20.00     0.210 HD
ENDBRANCH   4   8
TORSDOF 2
ENDMDL
