MODEL 1
REMARK VINA RESULT:       0.0      0.000      0.000
REMARK  0 active torsions:
REMARK  status: ('A' for Active; 'I' for Inactive)
ROOT
HETATM    1  C1  UNL     1     -31.182   6.431   1.638  1.00 20.00    -0.025 C 
HETATM    2  C2  UNL     1     -31.988   5.366   1.478  1.00 20.00    -0.025 C 
HETATM    3  C3  UNL     1     -32.975   8.151   4.243  1.00 20.00    -0.024 C 
HETATM    4  C4  UNL     1     -34.075   7.578   4.787  1.00 20.00    -0.025 C 
HETATM    5  C5  UNL     1     -33.124   7.123   0.618  1.00 20.00     0.018 C 
HETATM    6  C6  UNL     1     -32.044   7.673   1.602  1.00 20.00     0.016 C 
HETATM    7  C7  UNL     1     -33.428   5.878   1.467  1.00 20.00     0.014 C 
HETATM    8  C8  UNL     1     -33.000   7.840   2.792  1.00 20.00     0.021 C 
HETATM    9  C9  UNL     1     -34.808   6.679   3.776  1.00 20.00     0.009 C 
HETATM   10  C10 UNL     1     -33.597   6.412   2.904  1.00 20.00     0.009 C 
HETATM   11  C11 UNL     1     -35.384   5.413   4.389  1.00 20.00     0.014 C 
ENDROOT
TORSDOF 0
ENDMDL
MODEL 2
REMARK VINA RESULT:       0.4      1.162      2.769
REMARK  0 active torsions:
REMARK  status: ('A' for Active; 'I' for Inactive)
ROOT
HETATM    1  C1  UNL     1     -32.099   8.902   0.395  1.00 20.00    -0.025 C 
HETATM    2  C2  UNL     1     -32.813   9.533   1.345  1.00 20.00    -0.025 C 
HETATM    3  C3  UNL     1     -32.827   5.487   1.271  1.00 20.00    -0.024 C 
HETATM    4  C4  UNL     1     -33.701   5.226   2.271  1.00 20.00    -0.025 C 
HETATM    5  C5  UNL     1     -31.050   8.609   2.421  1.00 20.00     0.018 C 
HETATM    6  C6  UNL     1     -31.256   7.847   1.073  1.00 20.00     0.016 C 
HETATM    7  C7  UNL     1     -32.554   8.812   2.667  1.00 20.00     0.014 C 
HETATM    8  C8  UNL     1     -32.041   6.676   1.684  1.00 20.00     0.021 C 
HETATM    9  C9  UNL     1     -33.698   6.337   3.335  1.00 20.00     0.009 C 
HETATM   10  C10 UNL     1     -33.186   7.428   2.415  1.00 20.00     0.009 C 
HETATM   11  C11 UNL     1     -35.074   6.643   3.904  1.00 20.00     0.014 C 
ENDROOT
TORSDOF 0
ENDMDL
MODEL 3
REMARK VINA RESULT:       0.4      1.177      1.833
REMARK  0 active torsions:
REMARK  status: ('A' for Active; 'I' for Inactive)
ROOT
HETATM    1  C1  UNL     1     -32.033   7.533   1.894  1.00 20.00    -0.025 C 
HETATM    2  C2  UNL     1     -31.409   6.341   1.869  1.00 20.00    -0.025 C 
HETATM    3  C3  UNL     1     -34.826   6.699   4.008  1.00 20.00    -0.024 C 
HETATM    4  C4  UNL     1     -34.898   5.467   4.563  1.00 20.00    -0.025 C 
HETATM    5  C5  UNL     1     -33.280   6.074   0.625  1.00 20.00     0.018 C 
HETATM    6  C6  UNL     1     -33.491   7.298   1.571  1.00 20.00     0.016 C 
HETATM    7  C7  UNL     1     -32.477   5.269   1.659  1.00 20.00     0.014 C 
HETATM    8  C8  UNL     1     -34.281   6.525   2.638  1.00 20.00     0.021 C 
HETATM    9  C9  UNL     1     -34.225   4.403   3.678  1.00 20.00     0.009 C 
HETATM   10  C10 UNL     1     -33.300   5.366   2.960  1.00 20.00     0.009 C 
HETATM   11  C11 UNL     1     -33.475   3.340   4.463  1.00 20.00     0.014 C 
ENDROOT
TORSDOF 0
ENDMDL
MODEL 4
REMARK VINA RESULT:       1.1      0.928      3.507
REMARK  0 active torsions:
REMARK  status: ('A' for Active; 'I' for Inactive)
ROOT
HETATM    1  C1  UNL     1     -35.247   7.723   3.630  1.00 20.00    -0.025 C 
HETATM    2  C2  UNL     1     -35.419   6.408   3.399  1.00 20.00    -0.025 C 
HETATM    3  C3  UNL     1     -32.250   8.278   1.714  1.00 20.00    -0.024 C 
HETATM    4  C4  UNL     1     -31.729   7.266   0.981  1.00 20.00    -0.025 C 
HETATM    5  C5  UNL     1     -33.628   6.555   4.773  1.00 20.00     0.018 C 
HETATM    6  C6  UNL     1     -33.814   7.933   4.062  1.00 20.00     0.016 C 
HETATM    7  C7  UNL     1     -34.055   5.735   3.545  1.00 20.00     0.014 C 
HETATM    8  C8  UNL     1     -32.759   7.680   2.973  1.00 20.00     0.021 C 
HETATM    9  C9  UNL     1     -32.030   5.894   1.609  1.00 20.00     0.009 C 
HETATM   10  C10 UNL     1     -33.262   6.341   2.370  1.00 20.00     0.009 C 
HETATM   11  C11 UNL     1     -32.328   4.807   0.590  1.00 20.00     0.014 C 
ENDROOT
TORSDOF 0
ENDMDL
MODEL 5
REMARK VINA RESULT:       2.0      0.933      2.487
REMARK  0 active torsions:
REMARK  status: ('A' for Active; 'I' for Inactive)
ROOT
HETATM    1  C1  UNL     1     -32.768   8.030   0.355  1.00 20.00    -0.025 C 
HETATM    2  C2  UNL     1     -32.291   9.004   1.152  1.00 20.00    -0.025 C 
HETATM    3  C3  UNL     1     -34.629   6.131   2.783  1.00 20.00    -0.024 C 
HETATM    4  C4  UNL     1     -34.724   6.584   4.055  1.00 20.00    -0.025 C 
HETATM    5  C5  UNL     1     -31.151   7.136   1.725  1.00 20.00     0.018 C 
HETATM    6  C6  UNL     1     -32.475   6.704   1.019  1.00 20.00     0.016 C 
HETATM    7  C7  UNL     1     -31.788   8.342   2.434  1.00 20.00     0.014 C 
HETATM    8  C8  UNL     1     -33.254   6.436   2.317  1.00 20.00     0.021 C 
HETATM    9  C9  UNL     1     -33.484   7.400   4.463  1.00 20.00     0.009 C 
HETATM   10  C10 UNL     1     -33.090   7.793   3.053  1.00 20.00     0.009 C 
HETATM   11  C11 UNL     1     -33.802   8.597   5.342  1.00 20.00     0.014 C 
ENDROOT
TORSDOF 0
ENDMDL
MODEL 6
REMARK VINA RESULT:       2.0      0.915      3.857
REMARK  0 active torsions:
REMARK  status: ('A' for Active; 'I' for Inactive)
ROOT
HETATM    1  C1  UNL     1     -34.067   6.360   4.937  1.00 20.00    -0.025 C 
HETATM    2  C2  UNL     1     -33.937   7.695   4.825  1.00 20.00    -0.025 C 
HETATM    3  C3  UNL     1     -32.439   5.342   1.891  1.00 20.00    -0.024 C 
HETATM    4  C4  UNL     1     -31.857   6.276   1.102  1.00 20.00    -0.025 C 
HETATM    5  C5  UNL     1     -35.475   7.101   3.276  1.00 20.00     0.018 C 
HETATM    6  C6  UNL     1     -34.628   5.838   3.634  1.00 20.00     0.016 C 
HETATM    7  C7  UNL     1     -34.286   8.069   3.385  1.00 20.00     0.014 C 
HETATM    8  C8  UNL     1     -33.685   5.946   2.426  1.00 20.00     0.021 C 
HETATM    9  C9  UNL     1     -32.569   7.636   1.207  1.00 20.00     0.009 C 
HETATM   10  C10 UNL     1     -33.153   7.395   2.586  1.00 20.00     0.009 C 
HETATM   11  C11 UNL     1     -31.625   8.825   1.166  1.00 20.00     0.014 C 
ENDROOT
TORSDOF 0
ENDMDL
MODEL 7
REMARK VINA RESULT:       2.0      1.118      3.424
REMARK  0 active torsions:
REMARK  status: ('A' for Active; 'I' for Inactive)
ROOT
HETATM    1  C1  UNL     1     -33.172   8.062   4.990  1.00 20.00    -0.025 C 
HETATM    2  C2  UNL     1     -32.338   8.409   3.992  1.00 20.00    -0.025 C 
HETATM    3  C3  UNL     1     -34.134   4.785   3.848  1.00 20.00    -0.024 C 
HETATM    4  C4  UNL     1     -33.561   4.272   2.734  1.00 20.00    -0.025 C 
HETATM    5  C5  UNL     1     -34.416   8.471   3.098  1.00 20.00     0.018 C 
HETATM    6  C6  UNL     1     -34.455   7.561   4.367  1.00 20.00     0.016 C 
HETATM    7  C7  UNL     1     -33.009   8.016   2.676  1.00 20.00     0.014 C 
HETATM    8  C8  UNL     1     -34.336   6.234   3.601  1.00 20.00     0.021 C 
HETATM    9  C9  UNL     1     -33.160   5.375   1.740  1.00 20.00     0.009 C 
HETATM   10  C10 UNL     1     -33.045   6.478   2.774  1.00 20.00     0.009 C 
HETATM   11  C11 UNL     1     -31.850   5.102   1.020  1.00 20.00     0.014 C 
ENDROOT
TORSDOF 0
ENDMDL
MODEL 8
REMARK VINA RESULT:       2.8      1.354      2.436
REMARK  0 active torsions:
REMARK  status: ('A' for Active; 'I' for Inactive)
ROOT
HETATM    1  C1  UNL     1     -32.706   4.745   0.381  1.00 20.00    -0.025 C 
HETATM    2  C2  UNL     1     -33.447   5.866   0.297  1.00 20.00    -0.025 C 
HETATM    3  C3  UNL     1     -33.490   3.765   3.756  1.00 20.00    -0.024 C 
HETATM    4  C4  UNL     1     -34.401   4.475   4.463  1.00 20.00    -0.025 C 
HETATM    5  C5  UNL     1     -31.729   6.375   1.679  1.00 20.00     0.018 C 
HETATM    6  C6  UNL     1     -31.895   4.822   1.655  1.00 20.00     0.016 C 
HETATM    7  C7  UNL     1     -33.239   6.651   1.592  1.00 20.00     0.014 C 
HETATM    8  C8  UNL     1     -32.709   4.740   2.955  1.00 20.00     0.021 C 
HETATM    9  C9  UNL     1     -34.425   5.953   4.038  1.00 20.00     0.009 C 
HETATM   10  C10 UNL     1     -33.872   5.721   2.645  1.00 20.00     0.009 C 
HETATM   11  C11 UNL     1     -35.816   6.564   4.026  1.00 20.00     0.014 C 
ENDROOT
TORSDOF 0
ENDMDL
