MODEL 1
REMARK VINA RESULT:      -1.4      0.000      0.000
REMARK  0 active torsions:
REMARK  status: ('A' for Active; 'I' for Inactive)
ROOT
HETATM    1  C1  UNL     1     -34.765   4.913   4.504  1.00 20.00     0.008 C 
HETATM    2  C2  UNL     1     -34.926   6.168   4.057  1.00 20.00     0.028 C 
HETATM    3  C3  UNL     1     -33.053   4.318   2.875  1.00 20.00    -0.005 C 
HETATM    4  C4  UNL     1     -32.337   6.357   1.508  1.00 20.00     0.015 C 
HETATM    5  C5  UNL     1     -33.711   4.026   4.015  1.00 20.00    -0.065 C 
HETATM    6  C6  UNL     1     -32.472   7.616   1.949  1.00 20.00     0.028 C 
HETATM    7  C7  UNL     1     -33.964   6.580   3.019  1.00 20.00     0.046 C 
HETATM    8  C8  UNL     1     -33.429   5.519   2.072  1.00 20.00     0.085 C 
HETATM    9  C9  UNL     1     -33.424   2.802   4.829  1.00 20.00     0.048 C 
HETATM   10  C10 UNL     1     -31.624   8.779   1.577  1.00 20.00     0.070 C 
HETATM   11  N11 UNL     1     -33.482   7.775   2.868  1.00 20.00    -0.258 NA
ENDROOT
TORSDOF 0
ENDMDL
MODEL 2
REMARK VINA RESULT:      -1.2      1.594      2.796
REMARK  0 active torsions:
REMARK  status: ('A' for Active; 'I' for Inactive)
ROOT
HETATM    1  C1  UNL     1     -33.463   5.375   2.667  1.00 20.00     0.008 C 
HETATM    2  C2  UNL     1     -32.590   5.744   1.717  1.00 20.00     0.028 C 
HETATM    3  C3  UNL     1     -33.756   7.615   3.579  1.00 20.00    -0.005 C 
HETATM    4  C4  UNL     1     -32.565   9.359   2.135  1.00 20.00     0.015 C 
HETATM    5  C5  UNL     1     -34.176   6.336   3.507  1.00 20.00    -0.065 C 
HETATM    6  C6  UNL     1     -32.286   9.165   0.839  1.00 20.00     0.028 C 
HETATM    7  C7  UNL     1     -32.392   7.200   1.595  1.00 20.00     0.046 C 
HETATM    8  C8  UNL     1     -32.531   8.051   2.846  1.00 20.00     0.085 C 
HETATM    9  C9  UNL     1     -35.358   5.823   4.270  1.00 20.00     0.048 C 
HETATM   10  C10 UNL     1     -32.162  10.216  -0.206  1.00 20.00     0.070 C 
HETATM   11  N11 UNL     1     -32.159   7.841   0.491  1.00 20.00    -0.258 NA
ENDROOT
TORSDOF 0
ENDMDL
MODEL 3
REMARK VINA RESULT:       1.4      1.368      4.411
REMARK  0 active torsions:
REMARK  status: ('A' for Active; 'I' for Inactive)
ROOT
HETATM    1  C1  UNL     1     -32.338   7.125   1.394  1.00 20.00     0.008 C 
HETATM    2  C2  UNL     1     -32.558   5.807   1.271  1.00 20.00     0.028 C 
HETATM    3  C3  UNL     1     -33.573   7.361   3.481  1.00 20.00    -0.005 C 
HETATM    4  C4  UNL     1     -34.294   5.079   4.386  1.00 20.00     0.015 C 
HETATM    5  C5  UNL     1     -32.712   7.885   2.586  1.00 20.00    -0.065 C 
HETATM    6  C6  UNL     1     -33.665   3.938   4.073  1.00 20.00     0.028 C 
HETATM    7  C7  UNL     1     -33.223   5.183   2.431  1.00 20.00     0.046 C 
HETATM    8  C8  UNL     1     -34.194   6.025   3.241  1.00 20.00     0.085 C 
HETATM    9  C9  UNL     1     -32.107   9.246   2.739  1.00 20.00     0.048 C 
HETATM   10  C10 UNL     1     -33.580   2.716   4.916  1.00 20.00     0.070 C 
HETATM   11  N11 UNL     1     -33.013   3.978   2.863  1.00 20.00    -0.258 NA
ENDROOT
TORSDOF 0
ENDMDL
MODEL 4
REMARK VINA RESULT:       1.4      1.553      4.539
REMARK  0 active torsions:
REMARK  status: ('A' for Active; 'I' for Inactive)
ROOT
HETATM    1  C1  UNL     1     -31.784   9.386   2.033  1.00 20.00     0.008 C 
HETATM    2  C2  UNL     1     -32.033   8.874   3.248  1.00 20.00     0.028 C 
HETATM    3  C3  UNL     1     -32.704   7.495   0.804  1.00 20.00    -0.005 C 
HETATM    4  C4  UNL     1     -33.836   5.833   2.385  1.00 20.00     0.015 C 
HETATM    5  C5  UNL     1     -32.263   8.769   0.798  1.00 20.00    -0.065 C 
HETATM    6  C6  UNL     1     -34.311   6.179   3.589  1.00 20.00     0.028 C 
HETATM    7  C7  UNL     1     -32.817   7.625   3.240  1.00 20.00     0.046 C 
HETATM    8  C8  UNL     1     -32.661   6.685   2.057  1.00 20.00     0.085 C 
HETATM    9  C9  UNL     1     -32.221   9.610  -0.441  1.00 20.00     0.048 C 
HETATM   10  C10 UNL     1     -35.440   5.537   4.312  1.00 20.00     0.070 C 
HETATM   11  N11 UNL     1     -33.683   7.272   4.140  1.00 20.00    -0.258 NA
ENDROOT
TORSDOF 0
ENDMDL
