MODEL 1
REMARK VINA RESULT:      -1.9      0.000      0.000
REMARK  1 active torsions:
REMARK  status: ('A' for Active; 'I' for Inactive)
REMARK    1  A    between atoms: C3_3  and  C7_7 
ROOT
HETATM    1  C1  UNL     1     -33.143   8.130   2.739  1.00 20.00     0.024 A 
HETATM    2  C2  UNL     1     -32.111   6.616   1.222  1.00 20.00     0.131 A 
HETATM    3  C3  UNL     1     -32.334   7.922   1.628  1.00 20.00     0.024 A 
HETATM    4  C4  UNL     1     -33.698   7.040   3.402  1.00 20.00    -0.021 A 
HETATM    5  C5  UNL     1     -33.414   5.773   2.917  1.00 20.00     0.131 A 
HETATM    6  C6  UNL     1     -34.565   7.268   4.592  1.00 20.00     0.051 C 
HETATM    7  N8  UNL     1     -32.632   5.533   1.840  1.00 20.00    -0.248 NA
HETATM    8 CL11 UNL     1     -34.040   4.348   3.648  1.00 20.00    -0.062 Cl
ENDROOT
BRANCH   3   9
HETATM    9  C7  UNL     1     -31.728   9.067   0.896  1.00 20.00     0.388 C 
HETATM   10  F9  UNL     1     -32.684   9.803   0.267  1.00 20.00    -0.209 F 
HETATM   11  F10 UNL     1     -30.882   8.631  -0.075  1.00 20.00    -0.209 F 
ENDBRANCH   3   9
TORSDOF 1
ENDMDL
MODEL 2
REMARK VINA RESULT:      -1.8      3.577      4.659
REMARK  1 active torsions:
REMARK  status: ('A' for Active; 'I' for Inactive)
REMARK    1  A    between atoms: C3_3  and  C7_7 
ROOT
HETATM    1  C1  UNL     1     -33.567   5.630   2.492  1.00 20.00     0.024 A 
HETATM    2  C2  UNL     1     -33.721   7.765   3.529  1.00 20.00     0.131 A 
HETATM    3  C3  UNL     1     -34.166   6.456   3.436  1.00 20.00     0.024 A 
HETATM    4  C4  UNL     1     -32.556   6.132   1.679  1.00 20.00    -0.021 A 
HETATM    5  C5  UNL     1     -32.183   7.456   1.851  1.00 20.00     0.131 A 
HETATM    6  C6  UNL     1     -31.917   5.243   0.668  1.00 20.00     0.051 C 
HETATM    7  N8  UNL     1     -32.742   8.288   2.758  1.00 20.00    -0.248 NA
HETATM    8 CL11 UNL     1     -30.948   8.191   0.907  1.00 20.00    -0.062 Cl
ENDROOT
BRANCH   3   9
HETATM    9  C7  UNL     1     -35.252   5.950   4.319  1.00 20.00     0.388 C 
HETATM   10  F9  UNL     1     -35.139   4.607   4.507  1.00 20.00    -0.209 F 
HETATM   11  F10 UNL     1     -36.472   6.155   3.755  1.00 20.00    -0.209 F 
ENDBRANCH   3   9
TORSDOF 1
ENDMDL
MODEL 3
REMARK VINA RESULT:      -1.4      3.728      4.728
REMARK  1 active torsions:
REMARK  status: ('A' for Active; 'I' for Inactive)
REMARK    1  A    between atoms: C3_3  and  C7_7 
ROOT
HETATM    1  C1  UNL     1     -33.580   5.409   2.452  1.00 20.00     0.024 A 
HETATM    2  C2  UNL     1     -33.993   7.434   3.629  1.00 20.00     0.131 A 
HETATM    3  C3  UNL     1     -34.290   6.096   3.431  1.00 20.00     0.024 A 
HETATM    4  C4  UNL     1     -32.608   6.072   1.713  1.00 20.00    -0.021 A 
HETATM    5  C5  UNL     1     -32.385   7.413   1.988  1.00 20.00     0.131 A 
HETATM    6  C6  UNL     1     -31.849   5.332   0.665  1.00 20.00     0.051 C 
HETATM    7  N8  UNL     1     -33.055   8.112   2.931  1.00 20.00    -0.248 NA
HETATM    8 CL11 UNL     1     -31.211   8.341   1.142  1.00 20.00    -0.062 Cl
ENDROOT
BRANCH   3   9
HETATM    9  C7  UNL     1     -35.339   5.415   4.237  1.00 20.00     0.388 C 
HETATM   10  F9  UNL     1     -35.749   6.203   5.268  1.00 20.00    -0.209 F 
HETATM   11  F10 UNL     1     -34.857   4.274   4.798  1.00 20.00    -0.209 F 
ENDBRANCH   3   9
TORSDOF 1
ENDMDL
MODEL 4
REMARK VINA RESULT:      -1.3      2.777      3.146
REMARK  1 active torsions:
REMARK  status: ('A' for Active; 'I' for Inactive)
REMARK    1  A    between atoms: C3_3  and  C7_7 
ROOT
HETATM    1  C1  UNL     1     -33.741   5.540   2.382  1.00 20.00     0.024 A 
HETATM    2  C2  UNL     1     -32.128   7.225   1.912  1.00 20.00     0.131 A 
HETATM    3  C3  UNL     1     -32.703   6.008   1.583  1.00 20.00     0.024 A 
HETATM    4  C4  UNL     1     -34.165   6.293   3.470  1.00 20.00    -0.021 A 
HETATM    5  C5  UNL     1     -33.525   7.498   3.716  1.00 20.00     0.131 A 
HETATM    6  C6  UNL     1     -35.278   5.788   4.324  1.00 20.00     0.051 C 
HETATM    7  N8  UNL     1     -32.514   7.984   2.962  1.00 20.00    -0.248 NA
HETATM    8 CL11 UNL     1     -33.959   8.517   5.031  1.00 20.00    -0.062 Cl
ENDROOT
BRANCH   3   9
HETATM    9  C7  UNL     1     -32.224   5.225   0.412  1.00 20.00     0.388 C 
HETATM   10  F9  UNL     1     -33.164   4.327   0.010  1.00 20.00    -0.209 F 
HETATM   11  F10 UNL     1     -31.117   4.502   0.730  1.00 20.00    -0.209 F 
ENDBRANCH   3   9
TORSDOF 1
ENDMDL
MODEL 5
REMARK VINA RESULT:      -1.0      1.187      2.129
REMARK  1 active torsions:
REMARK  status: ('A' for Active; 'I' for Inactive)
REMARK    1  A    between atoms: C3_3  and  C7_7 
ROOT
HETATM    1  C1  UNL     1     -32.198   7.003   1.097  1.00 20.00     0.024 A 
HETATM    2  C2  UNL     1     -33.220   8.229   2.860  1.00 20.00     0.131 A 
HETATM    3  C3  UNL     1     -32.488   8.230   1.684  1.00 20.00     0.024 A 
HETATM    4  C4  UNL     1     -32.642   5.830   1.695  1.00 20.00    -0.021 A 
HETATM    5  C5  UNL     1     -33.368   5.936   2.872  1.00 20.00     0.131 A 
HETATM    6  C6  UNL     1     -32.328   4.518   1.062  1.00 20.00     0.051 C 
HETATM    7  N8  UNL     1     -33.669   7.110   3.471  1.00 20.00    -0.248 NA
HETATM    8 CL11 UNL     1     -33.970   4.558   3.706  1.00 20.00    -0.062 Cl
ENDROOT
BRANCH   3   9
HETATM    9  C7  UNL     1     -32.025   9.503   1.069  1.00 20.00     0.388 C 
HETATM   10  F9  UNL     1     -33.081  10.290   0.726  1.00 20.00    -0.209 F 
HETATM   11  F10 UNL     1     -31.336   9.267  -0.078  1.00 20.00    -0.209 F 
ENDBRANCH   3   9
TORSDOF 1
ENDMDL
MODEL 6
REMARK VINA RESULT:      -0.5      3.769      4.428
REMARK  1 active torsions:
REMARK  status: ('A' for Active; 'I' for Inactive)
REMARK    1  A    between atoms: C3_3  and  C7_7 
ROOT
HETATM    1  C1  UNL     1     -33.983   6.270   3.800  1.00 20.00     0.024 A 
HETATM    2  C2  UNL     1     -32.742   5.055   2.174  1.00 20.00     0.131 A 
HETATM    3  C3  UNL     1     -33.555   5.047   3.297  1.00 20.00     0.024 A 
HETATM    4  C4  UNL     1     -33.590   7.448   3.174  1.00 20.00    -0.021 A 
HETATM    5  C5  UNL     1     -32.776   7.349   2.056  1.00 20.00     0.131 A 
HETATM    6  C6  UNL     1     -34.051   8.757   3.717  1.00 20.00     0.051 C 
HETATM    7  N8  UNL     1     -32.341   6.178   1.539  1.00 20.00    -0.248 NA
HETATM    8 CL11 UNL     1     -32.224   8.733   1.197  1.00 20.00    -0.062 Cl
ENDROOT
BRANCH   3   9
HETATM    9  C7  UNL     1     -33.955   3.769   3.945  1.00 20.00     0.388 C 
HETATM   10  F9  UNL     1     -34.918   3.980   4.883  1.00 20.00    -0.209 F 
HETATM   11  F10 UNL     1     -32.904   3.204   4.597  1.00 20.00    -0.209 F 
ENDBRANCH   3   9
TORSDOF 1
ENDMDL
MODEL 7
REMARK VINA RESULT:      -0.2      1.808      2.582
REMARK  1 active torsions:
REMARK  status: ('A' for Active; 'I' for Inactive)
REMARK    1  A    between atoms: C3_3  and  C7_7 
ROOT
HETATM    1  C1  UNL     1     -32.801   5.648   2.581  1.00 20.00     0.024 A 
HETATM    2  C2  UNL     1     -33.902   7.686   3.122  1.00 20.00     0.131 A 
HETATM    3  C3  UNL     1     -32.905   7.025   2.423  1.00 20.00     0.024 A 
HETATM    4  C4  UNL     1     -33.686   4.982   3.422  1.00 20.00    -0.021 A 
HETATM    5  C5  UNL     1     -34.650   5.734   4.076  1.00 20.00     0.131 A 
HETATM    6  C6  UNL     1     -33.571   3.505   3.588  1.00 20.00     0.051 C 
HETATM    7  N8  UNL     1     -34.781   7.073   3.947  1.00 20.00    -0.248 NA
HETATM    8 CL11 UNL     1     -35.799   5.026   5.141  1.00 20.00    -0.062 Cl
ENDROOT
BRANCH   3   9
HETATM    9  C7  UNL     1     -31.971   7.767   1.533  1.00 20.00     0.388 C 
HETATM   10  F9  UNL     1     -30.792   8.017   2.165  1.00 20.00    -0.209 F 
HETATM   11  F10 UNL     1     -32.485   8.978   1.191  1.00 20.00    -0.209 F 
ENDBRANCH   3   9
TORSDOF 1
ENDMDL
MODEL 8
REMARK VINA RESULT:      -0.1      2.899      3.952
REMARK  1 active torsions:
REMARK  status: ('A' for Active; 'I' for Inactive)
REMARK    1  A    between atoms: C3_3  and  C7_7 
ROOT
HETATM    1  C1  UNL     1     -32.950   7.712   2.505  1.00 20.00     0.024 A 
HETATM    2  C2  UNL     1     -33.805   5.577   3.110  1.00 20.00     0.131 A 
HETATM    3  C3  UNL     1     -33.790   6.948   3.307  1.00 20.00     0.024 A 
HETATM    4  C4  UNL     1     -32.162   7.090   1.543  1.00 20.00    -0.021 A 
HETATM    5  C5  UNL     1     -32.250   5.712   1.425  1.00 20.00     0.131 A 
HETATM    6  C6  UNL     1     -31.263   7.913   0.686  1.00 20.00     0.051 C 
HETATM    7  N8  UNL     1     -33.055   4.937   2.186  1.00 20.00    -0.248 NA
HETATM    8 CL11 UNL     1     -31.325   4.828   0.275  1.00 20.00    -0.062 Cl
ENDROOT
BRANCH   3   9
HETATM    9  C7  UNL     1     -34.644   7.584   4.347  1.00 20.00     0.388 C 
HETATM   10  F9  UNL     1     -33.884   8.119   5.341  1.00 20.00    -0.209 F 
HETATM   11  F10 UNL     1     -35.455   6.667   4.937  1.00 20.00    -0.209 F 
ENDBRANCH   3   9
TORSDOF 1
ENDMDL
MODEL 9
REMARK VINA RESULT:       0.1      3.464      4.315
REMARK  1 active torsions:
REMARK  status: ('A' for Active; 'I' for Inactive)
REMARK    1  A    between atoms: C3_3  and  C7_7 
ROOT
HETATM    1  C1  UNL     1     -33.404   7.566   3.826  1.00 20.00     0.024 A 
HETATM    2  C2  UNL     1     -33.815   5.864   2.215  1.00 20.00     0.131 A 
HETATM    3  C3  UNL     1     -34.133   6.450   3.430  1.00 20.00     0.024 A 
HETATM    4  C4  UNL     1     -32.393   8.055   3.006  1.00 20.00    -0.021 A 
HETATM    5  C5  UNL     1     -32.153   7.398   1.809  1.00 20.00     0.131 A 
HETATM    6  C6  UNL     1     -31.614   9.251   3.434  1.00 20.00     0.051 C 
HETATM    7  N8  UNL     1     -32.841   6.311   1.392  1.00 20.00    -0.248 NA
HETATM    8 CL11 UNL     1     -30.931   7.906   0.712  1.00 20.00    -0.062 Cl
ENDROOT
BRANCH   3   9
HETATM    9  C7  UNL     1     -35.219   5.901   4.286  1.00 20.00     0.388 C 
HETATM   10  F9  UNL     1     -35.096   4.553   4.424  1.00 20.00    -0.209 F 
HETATM   11  F10 UNL     1     -36.438   6.117   3.724  1.00 20.00    -0.209 F 
ENDBRANCH   3   9
TORSDOF 1
ENDMDL
