MODEL 1
REMARK VINA RESULT:       1.7      0.000      0.000
REMARK  1 active torsions:
REMARK  status: ('A' for Active; 'I' for Inactive)
REMARK    1  A    between atoms: C3_3  and  C6_6 
ROOT
HETATM    1  C1  UNL     1     -33.621   5.733   2.493  1.00 20.00    -0.025 C 
HETATM    2  C2  UNL     1     -34.103   6.350   3.583  1.00 20.00    -0.026 C 
HETATM    3  C4  UNL     1     -32.916   6.439   1.359  1.00 20.00     0.015 C 
HETATM    4  C5  UNL     1     -33.978   7.835   3.827  1.00 20.00     0.008 C 
HETATM    5  C6  UNL     1     -33.007   7.977   1.505  1.00 20.00     0.066 C 
HETATM    6  C7  UNL     1     -32.864   8.488   2.960  1.00 20.00     0.000 C 
HETATM    7  C9  UNL     1     -31.500   5.874   1.200  1.00 20.00     0.015 C 
HETATM    8  C10 UNL     1     -33.824   8.131   5.320  1.00 20.00     0.014 C 
HETATM    9  C11 UNL     1     -31.457   8.296   3.545  1.00 20.00     0.011 C 
ENDROOT
BRANCH   5  10
HETATM   10  C3  UNL     1     -32.120   8.717   0.544  1.00 20.00     0.128 C 
HETATM   11  C8  UNL     1     -32.693   9.959  -0.086  1.00 20.00     0.091 C 
HETATM   12  O12 UNL     1     -30.982   8.329   0.285  1.00 20.00    -0.298 OA
ENDBRANCH   5  10
TORSDOF 1
ENDMDL
MODEL 2
REMARK VINA RESULT:       2.0      2.352      4.506
REMARK  1 active torsions:
REMARK  status: ('A' for Active; 'I' for Inactive)
REMARK    1  A    between atoms: C3_3  and  C6_6 
ROOT
HETATM    1  C1  UNL     1     -32.261   8.051   2.566  1.00 20.00    -0.025 C 
HETATM    2  C2  UNL     1     -31.776   7.199   1.649  1.00 20.00    -0.026 C 
HETATM    3  C4  UNL     1     -33.571   7.862   3.292  1.00 20.00     0.015 C 
HETATM    4  C5  UNL     1     -32.472   5.921   1.244  1.00 20.00     0.008 C 
HETATM    5  C6  UNL     1     -34.383   6.685   2.700  1.00 20.00     0.066 C 
HETATM    6  C7  UNL     1     -33.526   5.461   2.292  1.00 20.00     0.000 C 
HETATM    7  C9  UNL     1     -33.318   7.795   4.802  1.00 20.00     0.015 C 
HETATM    8  C10 UNL     1     -31.453   4.831   0.902  1.00 20.00     0.014 C 
HETATM    9  C11 UNL     1     -32.904   4.720   3.484  1.00 20.00     0.011 C 
ENDROOT
BRANCH   5  10
HETATM   10  C3  UNL     1     -35.571   6.304   3.536  1.00 20.00     0.128 C 
HETATM   11  C8  UNL     1     -35.333   5.301   4.633  1.00 20.00     0.091 C 
HETATM   12  O12 UNL     1     -36.684   6.789   3.336  1.00 20.00    -0.298 OA
ENDBRANCH   5  10
TORSDOF 1
ENDMDL
MODEL 3
REMARK VINA RESULT:       3.0      2.576      4.231
REMARK  1 active torsions:
REMARK  status: ('A' for Active; 'I' for Inactive)
REMARK    1  A    between atoms: C3_3  and  C6_6 
ROOT
HETATM    1  C1  UNL     1     -32.371   6.755   1.707  1.00 20.00    -0.025 C 
HETATM    2  C2  UNL     1     -32.658   7.912   2.322  1.00 20.00    -0.026 C 
HETATM    3  C4  UNL     1     -32.753   5.394   2.239  1.00 20.00     0.015 C 
HETATM    4  C5  UNL     1     -33.427   8.003   3.619  1.00 20.00     0.008 C 
HETATM    5  C6  UNL     1     -33.322   5.485   3.674  1.00 20.00     0.066 C 
HETATM    6  C7  UNL     1     -34.238   6.710   3.920  1.00 20.00     0.000 C 
HETATM    7  C9  UNL     1     -33.642   4.673   1.220  1.00 20.00     0.015 C 
HETATM    8  C10 UNL     1     -34.285   9.269   3.656  1.00 20.00     0.014 C 
HETATM    9  C11 UNL     1     -35.570   6.646   3.159  1.00 20.00     0.011 C 
ENDROOT
BRANCH   5  10
HETATM   10  C3  UNL     1     -33.939   4.200   4.151  1.00 20.00     0.128 C 
HETATM   11  C8  UNL     1     -33.031   3.002   4.231  1.00 20.00     0.091 C 
HETATM   12  O12 UNL     1     -35.127   4.130   4.462  1.00 20.00    -0.298 OA
ENDBRANCH   5  10
TORSDOF 1
ENDMDL
MODEL 4
REMARK VINA RESULT:       3.1      1.282      1.578
REMARK  1 active torsions:
REMARK  status: ('A' for Active; 'I' for Inactive)
REMARK    1  A    between atoms: C3_3  and  C6_6 
ROOT
HETATM    1  C1  UNL     1     -32.517   5.574   1.757  1.00 20.00    -0.025 C 
HETATM    2  C2  UNL     1     -33.594   5.387   2.536  1.00 20.00    -0.026 C 
HETATM    3  C4  UNL     1     -32.089   6.913   1.207  1.00 20.00     0.015 C 
HETATM    4  C5  UNL     1     -34.505   6.504   2.985  1.00 20.00     0.008 C 
HETATM    5  C6  UNL     1     -33.156   8.002   1.472  1.00 20.00     0.066 C 
HETATM    6  C7  UNL     1     -33.836   7.903   2.860  1.00 20.00     0.000 C 
HETATM    7  C9  UNL     1     -30.674   7.243   1.695  1.00 20.00     0.015 C 
HETATM    8  C10 UNL     1     -35.056   6.227   4.386  1.00 20.00     0.014 C 
HETATM    9  C11 UNL     1     -32.897   8.227   4.031  1.00 20.00     0.011 C 
ENDROOT
BRANCH   5  10
HETATM   10  C3  UNL     1     -32.675   9.392   1.164  1.00 20.00     0.128 C 
HETATM   11  C8  UNL     1     -32.609   9.779  -0.289  1.00 20.00     0.091 C 
HETATM   12  O12 UNL     1     -32.353  10.176   2.055  1.00 20.00    -0.298 OA
ENDBRANCH   5  10
TORSDOF 1
ENDMDL
MODEL 5
REMARK VINA RESULT:       4.1      2.033      3.643
REMARK  1 active torsions:
REMARK  status: ('A' for Active; 'I' for Inactive)
REMARK    1  A    between atoms: C3_3  and  C6_6 
ROOT
HETATM    1  C1  UNL     1     -35.535   5.513   4.598  1.00 20.00    -0.025 C 
HETATM    2  C2  UNL     1     -34.822   4.396   4.809  1.00 20.00    -0.026 C 
HETATM    3  C4  UNL     1     -35.014   6.729   3.870  1.00 20.00     0.015 C 
HETATM    4  C5  UNL     1     -33.407   4.202   4.318  1.00 20.00     0.008 C 
HETATM    5  C6  UNL     1     -33.497   6.612   3.585  1.00 20.00     0.066 C 
HETATM    6  C7  UNL     1     -33.033   5.192   3.178  1.00 20.00     0.000 C 
HETATM    7  C9  UNL     1     -35.894   7.015   2.648  1.00 20.00     0.015 C 
HETATM    8  C10 UNL     1     -33.156   2.739   3.946  1.00 20.00     0.014 C 
HETATM    9  C11 UNL     1     -33.548   4.746   1.801  1.00 20.00     0.011 C 
ENDROOT
BRANCH   5  10
HETATM   10  C3  UNL     1     -32.984   7.675   2.655  1.00 20.00     0.128 C 
HETATM   11  C8  UNL     1     -31.918   7.262   1.676  1.00 20.00     0.091 C 
HETATM   12  O12 UNL     1     -33.415   8.827   2.691  1.00 20.00    -0.298 OA
ENDBRANCH   5  10
TORSDOF 1
ENDMDL
MODEL 6
REMARK VINA RESULT:       4.5      1.542      3.062
REMARK  1 active torsions:
REMARK  status: ('A' for Active; 'I' for Inactive)
REMARK    1  A    between atoms: C3_3  and  C6_6 
ROOT
HETATM    1  C1  UNL     1     -31.581   8.892   2.749  1.00 20.00    -0.025 C 
HETATM    2  C2  UNL     1     -32.125   8.755   3.968  1.00 20.00    -0.026 C 
HETATM    3  C4  UNL     1     -31.688   7.861   1.650  1.00 20.00     0.015 C 
HETATM    4  C5  UNL     1     -32.941   7.556   4.390  1.00 20.00     0.008 C 
HETATM    5  C6  UNL     1     -32.314   6.544   2.168  1.00 20.00     0.066 C 
HETATM    6  C7  UNL     1     -33.473   6.743   3.176  1.00 20.00     0.000 C 
HETATM    7  C9  UNL     1     -32.371   8.481   0.427  1.00 20.00     0.015 C 
HETATM    8  C10 UNL     1     -34.045   7.966   5.367  1.00 20.00     0.014 C 
HETATM    9  C11 UNL     1     -34.736   7.355   2.550  1.00 20.00     0.011 C 
ENDROOT
BRANCH   5  10
HETATM   10  C3  UNL     1     -32.665   5.582   1.068  1.00 20.00     0.128 C 
HETATM   11  C8  UNL     1     -31.585   4.627   0.634  1.00 20.00     0.091 C 
HETATM   12  O12 UNL     1     -33.780   5.573   0.549  1.00 20.00    -0.298 OA
ENDBRANCH   5  10
TORSDOF 1
ENDMDL
