MODEL 1
REMARK VINA RESULT:      -0.5      0.000      0.000
REMARK  0 active torsions:
REMARK  status: ('A' for Active; 'I' for Inactive)
ROOT
HETATM    1  C1  UNL     1     -34.054   6.181   3.534  1.00 20.00     0.002 C 
HETATM    2  C2  UNL     1     -33.816   7.498   3.647  1.00 20.00     0.030 C 
HETATM    3  C3  UNL     1     -33.569   5.392   2.413  1.00 20.00    -0.001 C 
HETATM    4  C4  UNL     1     -32.608   5.858   1.596  1.00 20.00     0.006 C 
HETATM    5  C5  UNL     1     -33.004   8.060   2.559  1.00 20.00     0.066 C 
HETATM    6  C6  UNL     1     -32.274   9.142   0.929  1.00 20.00     0.219 C 
HETATM    7  C7  UNL     1     -31.991   7.189   1.860  1.00 20.00     0.186 C 
HETATM    8  N8  UNL     1     -33.061   9.241   2.049  1.00 20.00    -0.221 NA
HETATM    9  N9  UNL     1     -31.693   8.006   0.670  1.00 20.00    -0.245 NA
HETATM   10 CL10 UNL     1     -32.144  10.470  -0.120  1.00 20.00    -0.041 Cl
ENDROOT
TORSDOF 0
ENDMDL
MODEL 2
REMARK VINA RESULT:      -0.4      2.358      3.082
REMARK  0 active torsions:
REMARK  status: ('A' for Active; 'I' for Inactive)
ROOT
HETATM    1  C1  UNL     1     -34.223   7.615   4.632  1.00 20.00     0.002 C 
HETATM    2  C2  UNL     1     -34.583   6.709   3.709  1.00 20.00     0.030 C 
HETATM    3  C3  UNL     1     -32.951   8.320   4.582  1.00 20.00    -0.001 C 
HETATM    4  C4  UNL     1     -32.207   8.336   3.463  1.00 20.00     0.006 C 
HETATM    5  C5  UNL     1     -33.598   6.515   2.636  1.00 20.00     0.066 C 
HETATM    6  C6  UNL     1     -32.187   5.758   1.297  1.00 20.00     0.219 C 
HETATM    7  C7  UNL     1     -32.705   7.660   2.231  1.00 20.00     0.186 C 
HETATM    8  N8  UNL     1     -33.333   5.439   1.982  1.00 20.00    -0.221 NA
HETATM    9  N9  UNL     1     -31.689   6.952   1.432  1.00 20.00    -0.245 NA
HETATM   10 CL10 UNL     1     -31.415   4.568   0.362  1.00 20.00    -0.041 Cl
ENDROOT
TORSDOF 0
ENDMDL
MODEL 3
REMARK VINA RESULT:       0.0      1.171      1.461
REMARK  0 active torsions:
REMARK  status: ('A' for Active; 'I' for Inactive)
ROOT
HETATM    1  C1  UNL     1     -34.666   7.108   4.564  1.00 20.00     0.002 C 
HETATM    2  C2  UNL     1     -33.678   7.999   4.385  1.00 20.00     0.030 C 
HETATM    3  C3  UNL     1     -34.939   6.040   3.616  1.00 20.00    -0.001 C 
HETATM    4  C4  UNL     1     -34.041   5.695   2.677  1.00 20.00     0.006 C 
HETATM    5  C5  UNL     1     -32.883   7.782   3.168  1.00 20.00     0.066 C 
HETATM    6  C6  UNL     1     -31.934   7.942   1.315  1.00 20.00     0.219 C 
HETATM    7  C7  UNL     1     -32.719   6.384   2.626  1.00 20.00     0.186 C 
HETATM    8  N8  UNL     1     -32.310   8.660   2.422  1.00 20.00    -0.221 NA
HETATM    9  N9  UNL     1     -32.196   6.668   1.277  1.00 20.00    -0.245 NA
HETATM   10 CL10 UNL     1     -31.215   8.745   0.003  1.00 20.00    -0.041 Cl
ENDROOT
TORSDOF 0
ENDMDL
MODEL 4
REMARK VINA RESULT:       0.2      2.889      4.061
REMARK  0 active torsions:
REMARK  status: ('A' for Active; 'I' for Inactive)
ROOT
HETATM    1  C1  UNL     1     -31.594   7.618   0.593  1.00 20.00     0.002 C 
HETATM    2  C2  UNL     1     -31.888   6.435   1.153  1.00 20.00     0.030 C 
HETATM    3  C3  UNL     1     -32.138   8.874   1.086  1.00 20.00    -0.001 C 
HETATM    4  C4  UNL     1     -32.709   8.958   2.300  1.00 20.00     0.006 C 
HETATM    5  C5  UNL     1     -32.779   6.523   2.319  1.00 20.00     0.066 C 
HETATM    6  C6  UNL     1     -34.357   6.364   3.676  1.00 20.00     0.219 C 
HETATM    7  C7  UNL     1     -32.753   7.758   3.184  1.00 20.00     0.186 C 
HETATM    8  N8  UNL     1     -33.666   5.676   2.711  1.00 20.00    -0.221 NA
HETATM    9  N9  UNL     1     -33.991   7.580   3.963  1.00 20.00    -0.245 NA
HETATM   10 CL10 UNL     1     -35.709   5.643   4.409  1.00 20.00    -0.041 Cl
ENDROOT
TORSDOF 0
ENDMDL
MODEL 5
REMARK VINA RESULT:       0.3      3.646      4.319
REMARK  0 active torsions:
REMARK  status: ('A' for Active; 'I' for Inactive)
ROOT
HETATM    1  C1  UNL     1     -33.409   8.390   3.107  1.00 20.00     0.002 C 
HETATM    2  C2  UNL     1     -34.261   7.579   3.753  1.00 20.00     0.030 C 
HETATM    3  C3  UNL     1     -32.320   7.887   2.285  1.00 20.00    -0.001 C 
HETATM    4  C4  UNL     1     -32.289   6.606   1.878  1.00 20.00     0.006 C 
HETATM    5  C5  UNL     1     -34.015   6.147   3.534  1.00 20.00     0.066 C 
HETATM    6  C6  UNL     1     -33.587   4.114   3.734  1.00 20.00     0.219 C 
HETATM    7  C7  UNL     1     -33.408   5.687   2.233  1.00 20.00     0.186 C 
HETATM    8  N8  UNL     1     -34.207   5.171   4.351  1.00 20.00    -0.221 NA
HETATM    9  N9  UNL     1     -33.021   4.307   2.578  1.00 20.00    -0.245 NA
HETATM   10 CL10 UNL     1     -33.508   2.614   4.527  1.00 20.00    -0.041 Cl
ENDROOT
TORSDOF 0
ENDMDL
MODEL 6
REMARK VINA RESULT:       0.8      3.146      3.862
REMARK  0 active torsions:
REMARK  status: ('A' for Active; 'I' for Inactive)
ROOT
HETATM    1  C1  UNL     1     -31.632   8.364   1.806  1.00 20.00     0.002 C 
HETATM    2  C2  UNL     1     -32.778   8.555   2.479  1.00 20.00     0.030 C 
HETATM    3  C3  UNL     1     -31.151   7.041   1.439  1.00 20.00    -0.001 C 
HETATM    4  C4  UNL     1     -31.961   5.969   1.477  1.00 20.00     0.006 C 
HETATM    5  C5  UNL     1     -33.512   7.319   2.785  1.00 20.00     0.066 C 
HETATM    6  C6  UNL     1     -34.471   5.711   3.708  1.00 20.00     0.219 C 
HETATM    7  C7  UNL     1     -33.393   6.135   1.859  1.00 20.00     0.186 C 
HETATM    8  N8  UNL     1     -34.247   7.061   3.809  1.00 20.00    -0.221 NA
HETATM    9  N9  UNL     1     -33.961   5.065   2.700  1.00 20.00    -0.245 NA
HETATM   10 CL10 UNL     1     -35.334   4.914   4.934  1.00 20.00    -0.041 Cl
ENDROOT
TORSDOF 0
ENDMDL
MODEL 7
REMARK VINA RESULT:       1.3      1.556      2.665
REMARK  0 active torsions:
REMARK  status: ('A' for Active; 'I' for Inactive)
ROOT
HETATM    1  C1  UNL     1     -34.247   4.230   3.980  1.00 20.00     0.002 C 
HETATM    2  C2  UNL     1     -33.447   4.291   2.904  1.00 20.00     0.030 C 
HETATM    3  C3  UNL     1     -34.793   5.418   4.617  1.00 20.00    -0.001 C 
HETATM    4  C4  UNL     1     -34.784   6.610   3.995  1.00 20.00     0.006 C 
HETATM    5  C5  UNL     1     -33.197   5.653   2.413  1.00 20.00     0.066 C 
HETATM    6  C6  UNL     1     -32.352   7.471   1.831  1.00 20.00     0.219 C 
HETATM    7  C7  UNL     1     -34.246   6.719   2.608  1.00 20.00     0.186 C 
HETATM    8  N8  UNL     1     -32.136   6.116   1.850  1.00 20.00    -0.221 NA
HETATM    9  N9  UNL     1     -33.467   7.935   2.316  1.00 20.00    -0.245 NA
HETATM   10 CL10 UNL     1     -31.134   8.502   1.251  1.00 20.00    -0.041 Cl
ENDROOT
TORSDOF 0
ENDMDL
MODEL 8
REMARK VINA RESULT:       1.4      2.593      3.333
REMARK  0 active torsions:
REMARK  status: ('A' for Active; 'I' for Inactive)
ROOT
HETATM    1  C1  UNL     1     -34.663   7.666   4.055  1.00 20.00     0.002 C 
HETATM    2  C2  UNL     1     -33.525   7.811   3.358  1.00 20.00     0.030 C 
HETATM    3  C3  UNL     1     -35.350   6.390   4.175  1.00 20.00    -0.001 C 
HETATM    4  C4  UNL     1     -34.737   5.235   3.861  1.00 20.00     0.006 C 
HETATM    5  C5  UNL     1     -33.024   6.568   2.755  1.00 20.00     0.066 C 
HETATM    6  C6  UNL     1     -32.385   5.063   1.456  1.00 20.00     0.219 C 
HETATM    7  C7  UNL     1     -33.311   5.248   3.423  1.00 20.00     0.186 C 
HETATM    8  N8  UNL     1     -32.378   6.421   1.651  1.00 20.00    -0.221 NA
HETATM    9  N9  UNL     1     -32.964   4.306   2.344  1.00 20.00    -0.245 NA
HETATM   10 CL10 UNL     1     -31.714   4.419   0.036  1.00 20.00    -0.041 Cl
ENDROOT
TORSDOF 0
ENDMDL
MODEL 9
REMARK VINA RESULT:       1.7      2.512      3.345
REMARK  0 active torsions:
REMARK  status: ('A' for Active; 'I' for Inactive)
ROOT
HETATM    1  C1  UNL     1     -31.701   6.355   0.920  1.00 20.00     0.002 C 
HETATM    2  C2  UNL     1     -31.771   7.579   1.467  1.00 20.00     0.030 C 
HETATM    3  C3  UNL     1     -32.475   5.229   1.418  1.00 20.00    -0.001 C 
HETATM    4  C4  UNL     1     -33.521   5.413   2.243  1.00 20.00     0.006 C 
HETATM    5  C5  UNL     1     -32.714   7.686   2.589  1.00 20.00     0.066 C 
HETATM    6  C6  UNL     1     -33.627   7.957   4.447  1.00 20.00     0.219 C 
HETATM    7  C7  UNL     1     -33.930   6.795   2.626  1.00 20.00     0.186 C 
HETATM    8  N8  UNL     1     -32.632   8.435   3.632  1.00 20.00    -0.221 NA
HETATM    9  N9  UNL     1     -34.364   6.972   4.023  1.00 20.00    -0.245 NA
HETATM   10 CL10 UNL     1     -33.815   8.608   6.004  1.00 20.00    -0.041 Cl
ENDROOT
TORSDOF 0
ENDMDL
