MODEL 1
REMARK VINA RESULT:      -0.9      0.000      0.000
REMARK  0 active torsions:
REMARK  status: ('A' for Active; 'I' for Inactive)
ROOT
HETATM    1  C1  UNL     1     -34.109   6.253   3.621  1.00 20.00     0.002 C 
HETATM    2  C2  UNL     1     -33.795   7.555   3.695  1.00 20.00     0.028 C 
HETATM    3  C3  UNL     1     -33.702   5.411   2.509  1.00 20.00    -0.003 C 
HETATM    4  C4  UNL     1     -32.733   5.800   1.660  1.00 20.00    -0.012 C 
HETATM    5  C5  UNL     1     -31.750   7.959   0.704  1.00 20.00     0.032 C 
HETATM    6  C6  UNL     1     -32.303   9.159   0.915  1.00 20.00     0.123 C 
HETATM    7  C7  UNL     1     -32.982   8.056   2.568  1.00 20.00     0.047 C 
HETATM    8  C8  UNL     1     -32.023   7.093   1.883  1.00 20.00     0.086 C 
HETATM    9  N9  UNL     1     -33.050   9.249   2.061  1.00 20.00    -0.241 NA
HETATM   10 CL10 UNL     1     -32.179  10.477  -0.159  1.00 20.00    -0.063 Cl
ENDROOT
TORSDOF 0
ENDMDL
MODEL 2
REMARK VINA RESULT:      -0.6      2.454      3.096
REMARK  0 active torsions:
REMARK  status: ('A' for Active; 'I' for Inactive)
ROOT
HETATM    1  C1  UNL     1     -34.216   7.597   4.647  1.00 20.00     0.002 C 
HETATM    2  C2  UNL     1     -34.568   6.711   3.702  1.00 20.00     0.028 C 
HETATM    3  C3  UNL     1     -32.953   8.314   4.617  1.00 20.00    -0.003 C 
HETATM    4  C4  UNL     1     -32.212   8.373   3.495  1.00 20.00    -0.012 C 
HETATM    5  C5  UNL     1     -31.746   6.968   1.409  1.00 20.00     0.032 C 
HETATM    6  C6  UNL     1     -32.204   5.720   1.262  1.00 20.00     0.123 C 
HETATM    7  C7  UNL     1     -33.579   6.545   2.618  1.00 20.00     0.047 C 
HETATM    8  C8  UNL     1     -32.711   7.737   2.241  1.00 20.00     0.086 C 
HETATM    9  N9  UNL     1     -33.337   5.440   1.981  1.00 20.00    -0.241 NA
HETATM   10 CL10 UNL     1     -31.437   4.517   0.329  1.00 20.00    -0.063 Cl
ENDROOT
TORSDOF 0
ENDMDL
MODEL 3
REMARK VINA RESULT:      -0.1      2.731      4.088
REMARK  0 active torsions:
REMARK  status: ('A' for Active; 'I' for Inactive)
ROOT
HETATM    1  C1  UNL     1     -31.620   7.790   0.539  1.00 20.00     0.002 C 
HETATM    2  C2  UNL     1     -31.853   6.613   1.139  1.00 20.00     0.028 C 
HETATM    3  C3  UNL     1     -32.215   9.033   0.998  1.00 20.00    -0.003 C 
HETATM    4  C4  UNL     1     -32.768   9.132   2.220  1.00 20.00    -0.012 C 
HETATM    5  C5  UNL     1     -33.960   7.647   3.928  1.00 20.00     0.032 C 
HETATM    6  C6  UNL     1     -34.327   6.389   3.660  1.00 20.00     0.123 C 
HETATM    7  C7  UNL     1     -32.740   6.689   2.317  1.00 20.00     0.047 C 
HETATM    8  C8  UNL     1     -32.733   7.964   3.148  1.00 20.00     0.086 C 
HETATM    9  N9  UNL     1     -33.583   5.774   2.686  1.00 20.00    -0.241 NA
HETATM   10 CL10 UNL     1     -35.650   5.597   4.387  1.00 20.00    -0.063 Cl
ENDROOT
TORSDOF 0
ENDMDL
MODEL 4
REMARK VINA RESULT:       0.0      3.449      4.347
REMARK  0 active torsions:
REMARK  status: ('A' for Active; 'I' for Inactive)
ROOT
HETATM    1  C1  UNL     1     -33.453   8.364   3.142  1.00 20.00     0.002 C 
HETATM    2  C2  UNL     1     -34.287   7.514   3.761  1.00 20.00     0.028 C 
HETATM    3  C3  UNL     1     -32.350   7.912   2.311  1.00 20.00    -0.003 C 
HETATM    4  C4  UNL     1     -32.291   6.647   1.859  1.00 20.00    -0.012 C 
HETATM    5  C5  UNL     1     -33.039   4.305   2.564  1.00 20.00     0.032 C 
HETATM    6  C6  UNL     1     -33.572   4.048   3.763  1.00 20.00     0.123 C 
HETATM    7  C7  UNL     1     -34.008   6.086   3.507  1.00 20.00     0.047 C 
HETATM    8  C8  UNL     1     -33.396   5.694   2.169  1.00 20.00     0.086 C 
HETATM    9  N9  UNL     1     -34.186   5.120   4.356  1.00 20.00    -0.241 NA
HETATM   10 CL10 UNL     1     -33.459   2.547   4.565  1.00 20.00    -0.063 Cl
ENDROOT
TORSDOF 0
ENDMDL
MODEL 5
REMARK VINA RESULT:       0.7      2.884      3.875
REMARK  0 active torsions:
REMARK  status: ('A' for Active; 'I' for Inactive)
ROOT
HETATM    1  C1  UNL     1     -31.618   8.389   1.832  1.00 20.00     0.002 C 
HETATM    2  C2  UNL     1     -32.776   8.560   2.487  1.00 20.00     0.028 C 
HETATM    3  C3  UNL     1     -31.120   7.079   1.450  1.00 20.00    -0.003 C 
HETATM    4  C4  UNL     1     -31.926   6.002   1.445  1.00 20.00    -0.012 C 
HETATM    5  C5  UNL     1     -33.996   5.130   2.669  1.00 20.00     0.032 C 
HETATM    6  C6  UNL     1     -34.513   5.742   3.739  1.00 20.00     0.123 C 
HETATM    7  C7  UNL     1     -33.515   7.311   2.764  1.00 20.00     0.047 C 
HETATM    8  C8  UNL     1     -33.370   6.152   1.787  1.00 20.00     0.086 C 
HETATM    9  N9  UNL     1     -34.246   7.085   3.812  1.00 20.00    -0.241 NA
HETATM   10 CL10 UNL     1     -35.378   4.950   4.977  1.00 20.00    -0.063 Cl
ENDROOT
TORSDOF 0
ENDMDL
MODEL 6
REMARK VINA RESULT:       1.1      1.700      2.708
REMARK  0 active torsions:
REMARK  status: ('A' for Active; 'I' for Inactive)
ROOT
HETATM    1  C1  UNL     1     -34.231   4.123   4.014  1.00 20.00     0.002 C 
HETATM    2  C2  UNL     1     -33.454   4.246   2.927  1.00 20.00     0.028 C 
HETATM    3  C3  UNL     1     -34.820   5.267   4.689  1.00 20.00    -0.003 C 
HETATM    4  C4  UNL     1     -34.886   6.470   4.092  1.00 20.00    -0.012 C 
HETATM    5  C5  UNL     1     -33.595   7.845   2.364  1.00 20.00     0.032 C 
HETATM    6  C6  UNL     1     -32.412   7.460   1.873  1.00 20.00     0.123 C 
HETATM    7  C7  UNL     1     -33.269   5.635   2.459  1.00 20.00     0.047 C 
HETATM    8  C8  UNL     1     -34.394   6.634   2.693  1.00 20.00     0.086 C 
HETATM    9  N9  UNL     1     -32.195   6.107   1.905  1.00 20.00    -0.241 NA
HETATM   10 CL10 UNL     1     -31.209   8.530   1.311  1.00 20.00    -0.063 Cl
ENDROOT
TORSDOF 0
ENDMDL
MODEL 7
REMARK VINA RESULT:       1.3      2.349      3.370
REMARK  0 active torsions:
REMARK  status: ('A' for Active; 'I' for Inactive)
ROOT
HETATM    1  C1  UNL     1     -31.700   6.378   0.943  1.00 20.00     0.002 C 
HETATM    2  C2  UNL     1     -31.771   7.591   1.512  1.00 20.00     0.028 C 
HETATM    3  C3  UNL     1     -32.477   5.245   1.416  1.00 20.00    -0.003 C 
HETATM    4  C4  UNL     1     -33.532   5.416   2.232  1.00 20.00    -0.012 C 
HETATM    5  C5  UNL     1     -34.335   7.034   4.043  1.00 20.00     0.032 C 
HETATM    6  C6  UNL     1     -33.560   8.006   4.537  1.00 20.00     0.123 C 
HETATM    7  C7  UNL     1     -32.721   7.686   2.639  1.00 20.00     0.047 C 
HETATM    8  C8  UNL     1     -33.953   6.792   2.625  1.00 20.00     0.086 C 
HETATM    9  N9  UNL     1     -32.573   8.435   3.689  1.00 20.00    -0.241 NA
HETATM   10 CL10 UNL     1     -33.701   8.641   6.113  1.00 20.00    -0.063 Cl
ENDROOT
TORSDOF 0
ENDMDL
MODEL 8
REMARK VINA RESULT:       1.4      2.636      3.308
REMARK  0 active torsions:
REMARK  status: ('A' for Active; 'I' for Inactive)
ROOT
HETATM    1  C1  UNL     1     -34.655   7.724   4.039  1.00 20.00     0.002 C 
HETATM    2  C2  UNL     1     -33.496   7.816   3.368  1.00 20.00     0.028 C 
HETATM    3  C3  UNL     1     -35.391   6.478   4.163  1.00 20.00    -0.003 C 
HETATM    4  C4  UNL     1     -34.810   5.295   3.893  1.00 20.00    -0.012 C 
HETATM    5  C5  UNL     1     -32.969   4.343   2.393  1.00 20.00     0.032 C 
HETATM    6  C6  UNL     1     -32.361   5.068   1.448  1.00 20.00     0.123 C 
HETATM    7  C7  UNL     1     -33.019   6.543   2.790  1.00 20.00     0.047 C 
HETATM    8  C8  UNL     1     -33.369   5.246   3.506  1.00 20.00     0.086 C 
HETATM    9  N9  UNL     1     -32.363   6.420   1.677  1.00 20.00    -0.241 NA
HETATM   10 CL10 UNL     1     -31.687   4.420   0.022  1.00 20.00    -0.063 Cl
ENDROOT
TORSDOF 0
ENDMDL
