MODEL 1
REMARK VINA RESULT:      -1.8      0.000      0.000
REMARK  0 active torsions:
REMARK  status: ('A' for Active; 'I' for Inactive)
ROOT
HETATM    1  C1  UNL     1     -35.488   6.246   3.902  1.00 20.00     0.011 A 
HETATM    2  C2  UNL     1     -34.210   5.419   3.738  1.00 20.00     0.011 A 
HETATM    3  C3  UNL     1     -33.442   7.896   4.530  1.00 20.00     0.027 A 
HETATM    4  C4  UNL     1     -33.604   7.970   3.003  1.00 20.00     0.067 A 
HETATM    5  C5  UNL     1     -34.175   6.878   3.783  1.00 20.00    -0.026 A 
HETATM    6 BR6  UNL     1     -32.057   7.645   1.937  1.00 20.00    -0.090 Br
ENDROOT
TORSDOF 0
ENDMDL
MODEL 2
REMARK VINA RESULT:      -1.5      1.058      1.062
REMARK  0 active torsions:
REMARK  status: ('A' for Active; 'I' for Inactive)
ROOT
HETATM    1  C1  UNL     1     -35.564   6.290   3.976  1.00 20.00     0.011 A 
HETATM    2  C2  UNL     1     -34.515   5.188   4.156  1.00 20.00     0.011 A 
HETATM    3  C3  UNL     1     -33.158   7.489   3.692  1.00 20.00     0.027 A 
HETATM    4  C4  UNL     1     -33.528   6.930   2.309  1.00 20.00     0.067 A 
HETATM    5  C5  UNL     1     -34.183   6.463   3.526  1.00 20.00    -0.026 A 
HETATM    6 BR6  UNL     1     -32.255   5.803   1.445  1.00 20.00    -0.090 Br
ENDROOT
TORSDOF 0
ENDMDL
MODEL 3
REMARK VINA RESULT:      -1.4      2.493      3.599
REMARK  0 active torsions:
REMARK  status: ('A' for Active; 'I' for Inactive)
ROOT
HETATM    1  C1  UNL     1     -31.905   8.406   0.953  1.00 20.00     0.011 A 
HETATM    2  C2  UNL     1     -31.629   8.344   2.458  1.00 20.00     0.011 A 
HETATM    3  C3  UNL     1     -32.240   5.823   1.672  1.00 20.00     0.027 A 
HETATM    4  C4  UNL     1     -33.584   6.522   1.934  1.00 20.00     0.067 A 
HETATM    5  C5  UNL     1     -32.346   7.276   1.768  1.00 20.00    -0.026 A 
HETATM    6 BR6  UNL     1     -34.342   6.346   3.675  1.00 20.00    -0.090 Br
ENDROOT
TORSDOF 0
ENDMDL
MODEL 4
REMARK VINA RESULT:      -1.2      2.814      4.133
REMARK  0 active torsions:
REMARK  status: ('A' for Active; 'I' for Inactive)
ROOT
HETATM    1  C1  UNL     1     -32.483   9.430  -0.222  1.00 20.00     0.011 A 
HETATM    2  C2  UNL     1     -32.779  10.217   1.059  1.00 20.00     0.011 A 
HETATM    3  C3  UNL     1     -31.265   8.086   1.782  1.00 20.00     0.027 A 
HETATM    4  C4  UNL     1     -32.716   7.581   1.742  1.00 20.00     0.067 A 
HETATM    5  C5  UNL     1     -32.321   8.831   1.101  1.00 20.00    -0.026 A 
HETATM    6 BR6  UNL     1     -33.714   7.640   3.366  1.00 20.00    -0.090 Br
ENDROOT
TORSDOF 0
ENDMDL
MODEL 5
REMARK VINA RESULT:      -1.2      2.527      3.056
REMARK  0 active torsions:
REMARK  status: ('A' for Active; 'I' for Inactive)
ROOT
HETATM    1  C1  UNL     1     -31.719   5.498   1.267  1.00 20.00     0.011 A 
HETATM    2  C2  UNL     1     -33.238   5.562   1.076  1.00 20.00     0.011 A 
HETATM    3  C3  UNL     1     -32.421   8.073   1.688  1.00 20.00     0.027 A 
HETATM    4  C4  UNL     1     -32.607   7.350   3.032  1.00 20.00     0.067 A 
HETATM    5  C5  UNL     1     -32.510   6.618   1.772  1.00 20.00    -0.026 A 
HETATM    6 BR6  UNL     1     -34.302   7.508   3.889  1.00 20.00    -0.090 Br
ENDROOT
TORSDOF 0
ENDMDL
MODEL 6
REMARK VINA RESULT:      -1.1      1.640      2.252
REMARK  0 active torsions:
REMARK  status: ('A' for Active; 'I' for Inactive)
ROOT
HETATM    1  C1  UNL     1     -33.898   5.099   3.736  1.00 20.00     0.011 A 
HETATM    2  C2  UNL     1     -34.500   6.485   3.481  1.00 20.00     0.011 A 
HETATM    3  C3  UNL     1     -33.385   5.675   1.146  1.00 20.00     0.027 A 
HETATM    4  C4  UNL     1     -32.246   6.306   1.962  1.00 20.00     0.067 A 
HETATM    5  C5  UNL     1     -33.505   5.907   2.582  1.00 20.00    -0.026 A 
HETATM    6 BR6  UNL     1     -31.889   8.159   1.689  1.00 20.00    -0.090 Br
ENDROOT
TORSDOF 0
ENDMDL
MODEL 7
REMARK VINA RESULT:      -1.0      1.987      2.919
REMARK  0 active torsions:
REMARK  status: ('A' for Active; 'I' for Inactive)
ROOT
HETATM    1  C1  UNL     1     -33.835   8.050   4.168  1.00 20.00     0.011 A 
HETATM    2  C2  UNL     1     -33.273   7.254   2.986  1.00 20.00     0.011 A 
HETATM    3  C3  UNL     1     -35.675   6.155   3.596  1.00 20.00     0.027 A 
HETATM    4  C4  UNL     1     -34.656   5.497   4.541  1.00 20.00     0.067 A 
HETATM    5  C5  UNL     1     -34.351   6.727   3.818  1.00 20.00    -0.026 A 
HETATM    6 BR6  UNL     1     -33.859   3.860   3.973  1.00 20.00    -0.090 Br
ENDROOT
TORSDOF 0
ENDMDL
MODEL 8
REMARK VINA RESULT:      -1.0      2.312      2.756
REMARK  0 active torsions:
REMARK  status: ('A' for Active; 'I' for Inactive)
ROOT
HETATM    1  C1  UNL     1     -33.225   6.252   2.414  1.00 20.00     0.011 A 
HETATM    2  C2  UNL     1     -32.518   6.092   1.064  1.00 20.00     0.011 A 
HETATM    3  C3  UNL     1     -31.355   8.200   2.312  1.00 20.00     0.027 A 
HETATM    4  C4  UNL     1     -32.602   8.760   1.608  1.00 20.00     0.067 A 
HETATM    5  C5  UNL     1     -32.426   7.329   1.834  1.00 20.00    -0.026 A 
HETATM    6 BR6  UNL     1     -32.379   9.459  -0.152  1.00 20.00    -0.090 Br
ENDROOT
TORSDOF 0
ENDMDL
MODEL 9
REMARK VINA RESULT:      -1.0      1.592      2.342
REMARK  0 active torsions:
REMARK  status: ('A' for Active; 'I' for Inactive)
ROOT
HETATM    1  C1  UNL     1     -33.405   7.268   4.144  1.00 20.00     0.011 A 
HETATM    2  C2  UNL     1     -34.451   7.759   3.139  1.00 20.00     0.011 A 
HETATM    3  C3  UNL     1     -32.483   6.570   1.702  1.00 20.00     0.027 A 
HETATM    4  C4  UNL     1     -32.016   8.015   1.943  1.00 20.00     0.067 A 
HETATM    5  C5  UNL     1     -33.094   7.415   2.724  1.00 20.00    -0.026 A 
HETATM    6 BR6  UNL     1     -32.441   9.311   0.611  1.00 20.00    -0.090 Br
ENDROOT
TORSDOF 0
ENDMDL
