MODEL 1
REMARK VINA RESULT:       0.8      0.000      0.000
REMARK  0 active torsions:
REMARK  status: ('A' for Active; 'I' for Inactive)
ROOT
HETATM    1  C1  UNL     1     -31.900   8.380   1.846  1.00 20.00     0.147 A 
HETATM    2  C2  UNL     1     -32.844   7.817   2.723  1.00 20.00    -0.015 A 
HETATM    3  C3  UNL     1     -32.992   6.524   2.280  1.00 20.00     0.036 A 
HETATM    4  C4  UNL     1     -33.598   8.369   3.873  1.00 20.00     0.043 C 
HETATM    5  C5  UNL     1     -33.859   5.471   2.865  1.00 20.00     0.068 C 
HETATM    6  C6  UNL     1     -34.232   7.234   4.705  1.00 20.00     0.014 C 
HETATM    7  C7  UNL     1     -34.895   6.105   3.848  1.00 20.00    -0.042 C 
HETATM    8  C8  UNL     1     -35.418   5.007   4.793  1.00 20.00     0.015 C 
HETATM    9  C9  UNL     1     -36.096   6.668   3.061  1.00 20.00     0.015 C 
HETATM   10  N10 UNL     1     -31.478   7.511   0.920  1.00 20.00    -0.186 NA
HETATM   11  N11 UNL     1     -32.161   6.388   1.211  1.00 20.00    -0.282 N 
HETATM   12  H25 UNL     1     -32.009   5.569   0.634  1.00 20.00     0.189 HD
ENDROOT
TORSDOF 0
ENDMDL
MODEL 2
REMARK VINA RESULT:       0.9      1.823      3.771
REMARK  0 active torsions:
REMARK  status: ('A' for Active; 'I' for Inactive)
ROOT
HETATM    1  C1  UNL     1     -34.689   5.051   4.477  1.00 20.00     0.147 A 
HETATM    2  C2  UNL     1     -34.211   6.177   3.784  1.00 20.00    -0.015 A 
HETATM    3  C3  UNL     1     -33.376   5.657   2.824  1.00 20.00     0.036 A 
HETATM    4  C4  UNL     1     -34.442   7.631   3.954  1.00 20.00     0.043 C 
HETATM    5  C5  UNL     1     -32.618   6.410   1.793  1.00 20.00     0.068 C 
HETATM    6  C6  UNL     1     -33.959   8.408   2.710  1.00 20.00     0.014 C 
HETATM    7  C7  UNL     1     -32.578   7.930   2.152  1.00 20.00    -0.042 C 
HETATM    8  C8  UNL     1     -32.254   8.732   0.878  1.00 20.00     0.015 C 
HETATM    9  C9  UNL     1     -31.463   8.202   3.183  1.00 20.00     0.015 C 
HETATM   10  N10 UNL     1     -34.201   3.903   3.991  1.00 20.00    -0.186 NA
HETATM   11  N11 UNL     1     -33.403   4.305   2.983  1.00 20.00    -0.282 N 
HETATM   12  H25 UNL     1     -32.909   3.600   2.449  1.00 20.00     0.189 HD
ENDROOT
TORSDOF 0
ENDMDL
MODEL 3
REMARK VINA RESULT:       1.5      2.133      4.219
REMARK  0 active torsions:
REMARK  status: ('A' for Active; 'I' for Inactive)
ROOT
HETATM    1  C1  UNL     1     -34.961   5.533   3.562  1.00 20.00     0.147 A 
HETATM    2  C2  UNL     1     -33.880   6.074   2.843  1.00 20.00    -0.015 A 
HETATM    3  C3  UNL     1     -33.619   7.269   3.470  1.00 20.00     0.036 A 
HETATM    4  C4  UNL     1     -33.124   5.598   1.662  1.00 20.00     0.043 C 
HETATM    5  C5  UNL     1     -32.552   8.244   3.130  1.00 20.00     0.068 C 
HETATM    6  C6  UNL     1     -31.813   6.396   1.496  1.00 20.00     0.014 C 
HETATM    7  C7  UNL     1     -31.968   7.937   1.714  1.00 20.00    -0.042 C 
HETATM    8  C8  UNL     1     -30.582   8.597   1.595  1.00 20.00     0.015 C 
HETATM    9  C9  UNL     1     -32.878   8.540   0.624  1.00 20.00     0.015 C 
HETATM   10  N10 UNL     1     -35.353   6.321   4.571  1.00 20.00    -0.186 NA
HETATM   11  N11 UNL     1     -34.515   7.371   4.490  1.00 20.00    -0.282 N 
HETATM   12  H25 UNL     1     -34.616   8.121   5.164  1.00 20.00     0.189 HD
ENDROOT
TORSDOF 0
ENDMDL
MODEL 4
REMARK VINA RESULT:       2.1      1.756      2.696
REMARK  0 active torsions:
REMARK  status: ('A' for Active; 'I' for Inactive)
ROOT
HETATM    1  C1  UNL     1     -31.381   8.871   0.321  1.00 20.00     0.147 A 
HETATM    2  C2  UNL     1     -32.085   8.088   1.253  1.00 20.00    -0.015 A 
HETATM    3  C3  UNL     1     -33.125   8.891   1.655  1.00 20.00     0.036 A 
HETATM    4  C4  UNL     1     -31.862   6.724   1.787  1.00 20.00     0.043 C 
HETATM    5  C5  UNL     1     -34.199   8.549   2.622  1.00 20.00     0.068 C 
HETATM    6  C6  UNL     1     -33.124   6.211   2.515  1.00 20.00     0.014 C 
HETATM    7  C7  UNL     1     -33.809   7.273   3.436  1.00 20.00    -0.042 C 
HETATM    8  C8  UNL     1     -35.087   6.658   4.036  1.00 20.00     0.015 C 
HETATM    9  C9  UNL     1     -32.871   7.654   4.600  1.00 20.00     0.015 C 
HETATM   10  N10 UNL     1     -31.933  10.077   0.142  1.00 20.00    -0.186 NA
HETATM   11  N11 UNL     1     -32.996  10.059   0.968  1.00 20.00    -0.282 N 
HETATM   12  H25 UNL     1     -33.586  10.881   1.012  1.00 20.00     0.189 HD
ENDROOT
TORSDOF 0
ENDMDL
MODEL 5
REMARK VINA RESULT:       2.6      2.296      3.615
REMARK  0 active torsions:
REMARK  status: ('A' for Active; 'I' for Inactive)
ROOT
HETATM    1  C1  UNL     1     -33.313   8.403   4.263  1.00 20.00     0.147 A 
HETATM    2  C2  UNL     1     -32.956   7.652   3.129  1.00 20.00    -0.015 A 
HETATM    3  C3  UNL     1     -33.763   6.541   3.188  1.00 20.00     0.036 A 
HETATM    4  C4  UNL     1     -31.954   7.869   2.059  1.00 20.00     0.043 C 
HETATM    5  C5  UNL     1     -33.816   5.421   2.215  1.00 20.00     0.068 C 
HETATM    6  C6  UNL     1     -32.215   6.922   0.868  1.00 20.00     0.014 C 
HETATM    7  C7  UNL     1     -32.565   5.454   1.280  1.00 20.00    -0.042 C 
HETATM    8  C8  UNL     1     -32.874   4.643   0.009  1.00 20.00     0.015 C 
HETATM    9  C9  UNL     1     -31.360   4.797   1.984  1.00 20.00     0.015 C 
HETATM   10  N10 UNL     1     -34.276   7.817   4.984  1.00 20.00    -0.186 NA
HETATM   11  N11 UNL     1     -34.531   6.683   4.303  1.00 20.00    -0.282 N 
HETATM   12  H25 UNL     1     -35.240   6.055   4.661  1.00 20.00     0.189 HD
ENDROOT
TORSDOF 0
ENDMDL
MODEL 6
REMARK VINA RESULT:       3.1      1.359      2.305
REMARK  0 active torsions:
REMARK  status: ('A' for Active; 'I' for Inactive)
ROOT
HETATM    1  C1  UNL     1     -31.316   7.766   1.385  1.00 20.00     0.147 A 
HETATM    2  C2  UNL     1     -32.382   6.984   1.862  1.00 20.00    -0.015 A 
HETATM    3  C3  UNL     1     -32.752   7.592   3.038  1.00 20.00     0.036 A 
HETATM    4  C4  UNL     1     -33.038   5.761   1.343  1.00 20.00     0.043 C 
HETATM    5  C5  UNL     1     -33.853   7.187   3.948  1.00 20.00     0.068 C 
HETATM    6  C6  UNL     1     -34.382   5.516   2.061  1.00 20.00     0.014 C 
HETATM    7  C7  UNL     1     -34.332   5.739   3.608  1.00 20.00    -0.042 C 
HETATM    8  C8  UNL     1     -35.745   5.537   4.185  1.00 20.00     0.015 C 
HETATM    9  C9  UNL     1     -33.397   4.705   4.267  1.00 20.00     0.015 C 
HETATM   10  N10 UNL     1     -31.032   8.795   2.193  1.00 20.00    -0.186 NA
HETATM   11  N11 UNL     1     -31.926   8.663   3.192  1.00 20.00    -0.282 N 
HETATM   12  H25 UNL     1     -31.909   9.340   3.945  1.00 20.00     0.189 HD
ENDROOT
TORSDOF 0
ENDMDL
MODEL 7
REMARK VINA RESULT:       3.2      2.171      3.654
REMARK  0 active torsions:
REMARK  status: ('A' for Active; 'I' for Inactive)
ROOT
HETATM    1  C1  UNL     1     -34.558   7.141   4.441  1.00 20.00     0.147 A 
HETATM    2  C2  UNL     1     -33.937   6.255   3.544  1.00 20.00    -0.015 A 
HETATM    3  C3  UNL     1     -33.125   7.059   2.780  1.00 20.00     0.036 A 
HETATM    4  C4  UNL     1     -34.053   4.792   3.338  1.00 20.00     0.043 C 
HETATM    5  C5  UNL     1     -32.218   6.632   1.684  1.00 20.00     0.068 C 
HETATM    6  C6  UNL     1     -32.892   4.272   2.464  1.00 20.00     0.014 C 
HETATM    7  C7  UNL     1     -32.563   5.177   1.231  1.00 20.00    -0.042 C 
HETATM    8  C8  UNL     1     -31.346   4.586   0.494  1.00 20.00     0.015 C 
HETATM    9  C9  UNL     1     -33.752   5.196   0.249  1.00 20.00     0.015 C 
HETATM   10  N10 UNL     1     -34.168   8.409   4.265  1.00 20.00    -0.186 NA
HETATM   11  N11 UNL     1     -33.292   8.327   3.245  1.00 20.00    -0.282 N 
HETATM   12  H25 UNL     1     -32.851   9.178   2.919  1.00 20.00     0.189 HD
ENDROOT
TORSDOF 0
ENDMDL
