MODEL 1
REMARK VINA RESULT:      -1.7      0.000      0.000
REMARK  0 active torsions:
REMARK  status: ('A' for Active; 'I' for Inactive)
ROOT
HETATM    1  C1  UNL     1     -31.851   6.535   1.450  1.00 20.00    -0.026 C 
HETATM    2  C2  UNL     1     -32.528   5.413   1.729  1.00 20.00    -0.025 C 
HETATM    3  C3  UNL     1     -33.611   7.889   2.648  1.00 20.00     0.012 C 
HETATM    4  C4  UNL     1     -32.207   7.881   2.020  1.00 20.00     0.004 C 
HETATM    5  C5  UNL     1     -33.702   5.354   2.677  1.00 20.00     0.007 C 
HETATM    6  C6  UNL     1     -33.842   6.647   3.525  1.00 20.00    -0.011 C 
HETATM    7  C7  UNL     1     -32.105   8.970   0.952  1.00 20.00     0.014 C 
HETATM    8  C8  UNL     1     -33.576   4.114   3.570  1.00 20.00     0.014 C 
HETATM    9  C9  UNL     1     -35.210   6.739   4.206  1.00 20.00     0.010 C 
ENDROOT
TORSDOF 0
ENDMDL
MODEL 2
REMARK VINA RESULT:      -1.2      0.985      3.866
REMARK  0 active torsions:
REMARK  status: ('A' for Active; 'I' for Inactive)
ROOT
HETATM    1  C1  UNL     1     -34.021   7.438   3.932  1.00 20.00    -0.026 C 
HETATM    2  C2  UNL     1     -33.378   8.108   2.967  1.00 20.00    -0.025 C 
HETATM    3  C3  UNL     1     -33.816   5.313   2.588  1.00 20.00     0.012 C 
HETATM    4  C4  UNL     1     -34.164   5.940   3.948  1.00 20.00     0.004 C 
HETATM    5  C5  UNL     1     -32.684   7.442   1.802  1.00 20.00     0.007 C 
HETATM    6  C6  UNL     1     -32.525   5.912   2.006  1.00 20.00    -0.011 C 
HETATM    7  C7  UNL     1     -35.576   5.531   4.368  1.00 20.00     0.014 C 
HETATM    8  C8  UNL     1     -31.327   8.116   1.563  1.00 20.00     0.014 C 
HETATM    9  C9  UNL     1     -32.162   5.196   0.702  1.00 20.00     0.010 C 
ENDROOT
TORSDOF 0
ENDMDL
MODEL 3
REMARK VINA RESULT:      -0.9      1.168      3.151
REMARK  0 active torsions:
REMARK  status: ('A' for Active; 'I' for Inactive)
ROOT
HETATM    1  C1  UNL     1     -34.312   6.277   3.751  1.00 20.00    -0.026 C 
HETATM    2  C2  UNL     1     -33.737   5.446   2.870  1.00 20.00    -0.025 C 
HETATM    3  C3  UNL     1     -32.671   8.083   3.110  1.00 20.00     0.012 C 
HETATM    4  C4  UNL     1     -33.972   7.739   3.855  1.00 20.00     0.004 C 
HETATM    5  C5  UNL     1     -32.712   5.882   1.850  1.00 20.00     0.007 C 
HETATM    6  C6  UNL     1     -32.628   7.427   1.721  1.00 20.00    -0.011 C 
HETATM    7  C7  UNL     1     -33.868   8.171   5.318  1.00 20.00     0.014 C 
HETATM    8  C8  UNL     1     -33.024   5.226   0.500  1.00 20.00     0.014 C 
HETATM    9  C9  UNL     1     -31.366   7.870   0.976  1.00 20.00     0.010 C 
ENDROOT
TORSDOF 0
ENDMDL
MODEL 4
REMARK VINA RESULT:      -0.9      1.118      2.682
REMARK  0 active torsions:
REMARK  status: ('A' for Active; 'I' for Inactive)
ROOT
HETATM    1  C1  UNL     1     -32.149   7.181   1.698  1.00 20.00    -0.026 C 
HETATM    2  C2  UNL     1     -32.444   7.840   2.827  1.00 20.00    -0.025 C 
HETATM    3  C3  UNL     1     -33.500   5.208   2.502  1.00 20.00     0.012 C 
HETATM    4  C4  UNL     1     -32.777   5.869   1.316  1.00 20.00     0.004 C 
HETATM    5  C5  UNL     1     -33.469   7.368   3.832  1.00 20.00     0.007 C 
HETATM    6  C6  UNL     1     -34.357   6.224   3.275  1.00 20.00    -0.011 C 
HETATM    7  C7  UNL     1     -31.733   4.912   0.740  1.00 20.00     0.014 C 
HETATM    8  C8  UNL     1     -34.317   8.558   4.293  1.00 20.00     0.014 C 
HETATM    9  C9  UNL     1     -35.133   5.510   4.385  1.00 20.00     0.010 C 
ENDROOT
TORSDOF 0
ENDMDL
MODEL 5
REMARK VINA RESULT:      -0.1      1.008      3.192
REMARK  0 active torsions:
REMARK  status: ('A' for Active; 'I' for Inactive)
ROOT
HETATM    1  C1  UNL     1     -33.491   5.165   2.675  1.00 20.00    -0.026 C 
HETATM    2  C2  UNL     1     -34.054   6.150   3.387  1.00 20.00    -0.025 C 
HETATM    3  C3  UNL     1     -32.346   6.880   1.220  1.00 20.00     0.012 C 
HETATM    4  C4  UNL     1     -32.437   5.399   1.627  1.00 20.00     0.004 C 
HETATM    5  C5  UNL     1     -33.675   7.606   3.255  1.00 20.00     0.007 C 
HETATM    6  C6  UNL     1     -32.363   7.803   2.450  1.00 20.00    -0.011 C 
HETATM    7  C7  UNL     1     -32.693   4.532   0.394  1.00 20.00     0.014 C 
HETATM    8  C8  UNL     1     -33.572   8.235   4.650  1.00 20.00     0.014 C 
HETATM    9  C9  UNL     1     -32.175   9.257   2.009  1.00 20.00     0.010 C 
ENDROOT
TORSDOF 0
ENDMDL
MODEL 6
REMARK VINA RESULT:       0.1      0.850      3.339
REMARK  0 active torsions:
REMARK  status: ('A' for Active; 'I' for Inactive)
ROOT
HETATM    1  C1  UNL     1     -32.844   4.989   2.013  1.00 20.00    -0.026 C 
HETATM    2  C2  UNL     1     -32.197   6.125   1.723  1.00 20.00    -0.025 C 
HETATM    3  C3  UNL     1     -33.894   6.105   4.017  1.00 20.00     0.012 C 
HETATM    4  C4  UNL     1     -33.900   4.886   3.080  1.00 20.00     0.004 C 
HETATM    5  C5  UNL     1     -32.474   7.447   2.399  1.00 20.00     0.007 C 
HETATM    6  C6  UNL     1     -33.786   7.421   3.229  1.00 20.00    -0.011 C 
HETATM    7  C7  UNL     1     -33.733   3.601   3.891  1.00 20.00     0.014 C 
HETATM    8  C8  UNL     1     -32.503   8.562   1.347  1.00 20.00     0.014 C 
HETATM    9  C9  UNL     1     -33.879   8.610   4.188  1.00 20.00     0.010 C 
ENDROOT
TORSDOF 0
ENDMDL
MODEL 7
REMARK VINA RESULT:       0.1      0.921      2.437
REMARK  0 active torsions:
REMARK  status: ('A' for Active; 'I' for Inactive)
ROOT
HETATM    1  C1  UNL     1     -33.458   7.963   2.704  1.00 20.00    -0.026 C 
HETATM    2  C2  UNL     1     -34.139   7.523   3.770  1.00 20.00    -0.025 C 
HETATM    3  C3  UNL     1     -32.499   5.654   2.369  1.00 20.00     0.012 C 
HETATM    4  C4  UNL     1     -32.701   7.057   1.772  1.00 20.00     0.004 C 
HETATM    5  C5  UNL     1     -34.265   6.065   4.144  1.00 20.00     0.007 C 
HETATM    6  C6  UNL     1     -33.795   5.122   3.004  1.00 20.00    -0.011 C 
HETATM    7  C7  UNL     1     -31.349   7.665   1.397  1.00 20.00     0.014 C 
HETATM    8  C8  UNL     1     -35.711   5.766   4.554  1.00 20.00     0.014 C 
HETATM    9  C9  UNL     1     -33.579   3.689   3.500  1.00 20.00     0.010 C 
ENDROOT
TORSDOF 0
ENDMDL
MODEL 8
REMARK VINA RESULT:       0.1      1.152      3.459
REMARK  0 active torsions:
REMARK  status: ('A' for Active; 'I' for Inactive)
ROOT
HETATM    1  C1  UNL     1     -33.928   5.676   2.141  1.00 20.00    -0.026 C 
HETATM    2  C2  UNL     1     -32.807   6.099   1.539  1.00 20.00    -0.025 C 
HETATM    3  C3  UNL     1     -33.461   7.218   4.083  1.00 20.00     0.012 C 
HETATM    4  C4  UNL     1     -34.485   6.304   3.390  1.00 20.00     0.004 C 
HETATM    5  C5  UNL     1     -31.991   7.277   2.016  1.00 20.00     0.007 C 
HETATM    6  C6  UNL     1     -32.745   8.129   3.071  1.00 20.00    -0.011 C 
HETATM    7  C7  UNL     1     -34.976   5.233   4.365  1.00 20.00     0.014 C 
HETATM    8  C8  UNL     1     -31.570   8.126   0.811  1.00 20.00     0.014 C 
HETATM    9  C9  UNL     1     -31.807   9.087   3.809  1.00 20.00     0.010 C 
ENDROOT
TORSDOF 0
ENDMDL
MODEL 9
REMARK VINA RESULT:       0.7      1.347      4.242
REMARK  0 active torsions:
REMARK  status: ('A' for Active; 'I' for Inactive)
ROOT
HETATM    1  C1  UNL     1     -34.677   4.467   4.874  1.00 20.00    -0.026 C 
HETATM    2  C2  UNL     1     -35.232   5.580   4.374  1.00 20.00    -0.025 C 
HETATM    3  C3  UNL     1     -32.968   4.490   3.019  1.00 20.00     0.012 C 
HETATM    4  C4  UNL     1     -33.383   3.887   4.371  1.00 20.00     0.004 C 
HETATM    5  C5  UNL     1     -34.608   6.408   3.276  1.00 20.00     0.007 C 
HETATM    6  C6  UNL     1     -33.129   6.019   3.011  1.00 20.00    -0.011 C 
HETATM    7  C7  UNL     1     -33.474   2.365   4.261  1.00 20.00     0.014 C 
HETATM    8  C8  UNL     1     -34.739   7.896   3.622  1.00 20.00     0.014 C 
HETATM    9  C9  UNL     1     -32.617   6.588   1.685  1.00 20.00     0.010 C 
ENDROOT
TORSDOF 0
ENDMDL
