MODEL 1
REMARK VINA RESULT:      -0.7      0.000      0.000
REMARK  1 active torsions:
REMARK  status: ('A' for Active; 'I' for Inactive)
REMARK    1  A    between atoms: C4_4  and  C8_8 
ROOT
HETATM    1  C1  UNL     1     -35.226   5.089   4.586  1.00 20.00     0.079 A 
HETATM    2  C2  UNL     1     -33.143   4.867   3.197  1.00 20.00     0.088 A 
HETATM    3  C3  UNL     1     -35.320   6.320   4.079  1.00 20.00     0.146 A 
HETATM    4  C4  UNL     1     -33.346   6.122   2.757  1.00 20.00     0.064 A 
HETATM    5  C5  UNL     1     -34.086   4.256   4.158  1.00 20.00     0.176 A 
HETATM    6  O10 UNL     1     -33.930   3.116   4.578  1.00 20.00    -0.288 OA
HETATM    7  O11 UNL     1     -34.436   6.877   3.188  1.00 20.00    -0.326 OA
ENDROOT
BRANCH   4   8
HETATM    8  C8  UNL     1     -32.431   6.783   1.797  1.00 20.00     0.006 A 
HETATM    9  C6  UNL     1     -31.645   7.962   2.315  1.00 20.00     0.017 A 
HETATM   10  C7  UNL     1     -32.791   8.187   1.378  1.00 20.00     0.017 A 
HETATM   11  C9  UNL     1     -31.786   5.881   0.788  1.00 20.00     0.022 C 
ENDBRANCH   4   8
TORSDOF 1
ENDMDL
MODEL 2
REMARK VINA RESULT:      -0.0      0.502      1.455
REMARK  1 active torsions:
REMARK  status: ('A' for Active; 'I' for Inactive)
REMARK    1  A    between atoms: C4_4  and  C8_8 
ROOT
HETATM    1  C1  UNL     1     -35.211   4.915   4.801  1.00 20.00     0.079 A 
HETATM    2  C2  UNL     1     -33.219   4.670   3.287  1.00 20.00     0.088 A 
HETATM    3  C3  UNL     1     -35.367   6.117   4.245  1.00 20.00     0.146 A 
HETATM    4  C4  UNL     1     -33.482   5.898   2.803  1.00 20.00     0.064 A 
HETATM    5  C5  UNL     1     -34.082   4.086   4.337  1.00 20.00     0.176 A 
HETATM    6  O10 UNL     1     -33.871   2.971   4.798  1.00 20.00    -0.288 OA
HETATM    7  O11 UNL     1     -34.558   6.650   3.271  1.00 20.00    -0.326 OA
ENDROOT
BRANCH   4   8
HETATM    8  C8  UNL     1     -32.649   6.531   1.753  1.00 20.00     0.006 A 
HETATM    9  C6  UNL     1     -32.981   6.178   0.324  1.00 20.00     0.017 A 
HETATM   10  C7  UNL     1     -31.748   5.616   0.963  1.00 20.00     0.017 A 
HETATM   11  C9  UNL     1     -32.170   7.920   2.054  1.00 20.00     0.022 C 
ENDBRANCH   4   8
TORSDOF 1
ENDMDL
MODEL 3
REMARK VINA RESULT:       0.1      1.850      3.978
REMARK  1 active torsions:
REMARK  status: ('A' for Active; 'I' for Inactive)
REMARK    1  A    between atoms: C4_4  and  C8_8 
ROOT
HETATM    1  C1  UNL     1     -31.443   7.021   0.874  1.00 20.00     0.079 A 
HETATM    2  C2  UNL     1     -33.137   5.712   2.191  1.00 20.00     0.088 A 
HETATM    3  C3  UNL     1     -31.794   8.060   1.634  1.00 20.00     0.146 A 
HETATM    4  C4  UNL     1     -33.403   6.831   2.890  1.00 20.00     0.064 A 
HETATM    5  C5  UNL     1     -32.120   5.734   1.117  1.00 20.00     0.176 A 
HETATM    6  O10 UNL     1     -31.854   4.734   0.462  1.00 20.00    -0.288 OA
HETATM    7  O11 UNL     1     -32.741   8.029   2.628  1.00 20.00    -0.326 OA
ENDROOT
BRANCH   4   8
HETATM    8  C8  UNL     1     -34.413   6.866   3.974  1.00 20.00     0.006 A 
HETATM    9  C6  UNL     1     -35.056   5.552   4.342  1.00 20.00     0.017 A 
HETATM   10  C7  UNL     1     -35.839   6.576   3.579  1.00 20.00     0.017 A 
HETATM   11  C9  UNL     1     -34.163   7.868   5.062  1.00 20.00     0.022 C 
ENDBRANCH   4   8
TORSDOF 1
ENDMDL
MODEL 4
REMARK VINA RESULT:       0.2      0.774      1.483
REMARK  1 active torsions:
REMARK  status: ('A' for Active; 'I' for Inactive)
REMARK    1  A    between atoms: C4_4  and  C8_8 
ROOT
HETATM    1  C1  UNL     1     -35.293   5.200   4.347  1.00 20.00     0.079 A 
HETATM    2  C2  UNL     1     -33.067   5.504   3.220  1.00 20.00     0.088 A 
HETATM    3  C3  UNL     1     -35.434   6.520   4.215  1.00 20.00     0.146 A 
HETATM    4  C4  UNL     1     -33.326   6.822   3.145  1.00 20.00     0.064 A 
HETATM    5  C5  UNL     1     -34.052   4.589   3.837  1.00 20.00     0.176 A 
HETATM    6  O10 UNL     1     -33.847   3.384   3.920  1.00 20.00    -0.288 OA
HETATM    7  O11 UNL     1     -34.513   7.361   3.641  1.00 20.00    -0.326 OA
ENDROOT
BRANCH   4   8
HETATM    8  C8  UNL     1     -32.376   7.784   2.539  1.00 20.00     0.006 A 
HETATM    9  C6  UNL     1     -32.706   8.278   1.153  1.00 20.00     0.017 A 
HETATM   10  C7  UNL     1     -31.590   7.298   1.347  1.00 20.00     0.017 A 
HETATM   11  C9  UNL     1     -31.710   8.729   3.495  1.00 20.00     0.022 C 
ENDBRANCH   4   8
TORSDOF 1
ENDMDL
MODEL 5
REMARK VINA RESULT:       0.2      1.745      4.422
REMARK  1 active torsions:
REMARK  status: ('A' for Active; 'I' for Inactive)
REMARK    1  A    between atoms: C4_4  and  C8_8 
ROOT
HETATM    1  C1  UNL     1     -31.636   6.403   0.728  1.00 20.00     0.079 A 
HETATM    2  C2  UNL     1     -32.825   7.877   2.380  1.00 20.00     0.088 A 
HETATM    3  C3  UNL     1     -32.308   5.395   1.285  1.00 20.00     0.146 A 
HETATM    4  C4  UNL     1     -33.443   6.781   2.858  1.00 20.00     0.064 A 
HETATM    5  C5  UNL     1     -31.863   7.759   1.263  1.00 20.00     0.176 A 
HETATM    6  O10 UNL     1     -31.285   8.736   0.805  1.00 20.00    -0.288 OA
HETATM    7  O11 UNL     1     -33.199   5.517   2.324  1.00 20.00    -0.326 OA
ENDROOT
BRANCH   4   8
HETATM    8  C8  UNL     1     -34.413   6.841   3.976  1.00 20.00     0.006 A 
HETATM    9  C6  UNL     1     -35.059   5.540   4.381  1.00 20.00     0.017 A 
HETATM   10  C7  UNL     1     -35.856   6.565   3.634  1.00 20.00     0.017 A 
HETATM   11  C9  UNL     1     -34.114   7.853   5.042  1.00 20.00     0.022 C 
ENDBRANCH   4   8
TORSDOF 1
ENDMDL
MODEL 6
REMARK VINA RESULT:       0.6      1.736      3.912
REMARK  1 active torsions:
REMARK  status: ('A' for Active; 'I' for Inactive)
REMARK    1  A    between atoms: C4_4  and  C8_8 
ROOT
HETATM    1  C1  UNL     1     -31.435   7.141   1.015  1.00 20.00     0.079 A 
HETATM    2  C2  UNL     1     -32.885   5.329   1.978  1.00 20.00     0.088 A 
HETATM    3  C3  UNL     1     -32.044   7.957   1.878  1.00 20.00     0.146 A 
HETATM    4  C4  UNL     1     -33.425   6.247   2.800  1.00 20.00     0.064 A 
HETATM    5  C5  UNL     1     -31.835   5.722   1.014  1.00 20.00     0.176 A 
HETATM    6  O10 UNL     1     -31.323   4.911   0.253  1.00 20.00    -0.288 OA
HETATM    7  O11 UNL     1     -33.019   7.581   2.768  1.00 20.00    -0.326 OA
ENDROOT
BRANCH   4   8
HETATM    8  C8  UNL     1     -34.481   5.909   3.782  1.00 20.00     0.006 A 
HETATM    9  C6  UNL     1     -35.834   6.541   3.565  1.00 20.00     0.017 A 
HETATM   10  C7  UNL     1     -34.956   7.027   4.677  1.00 20.00     0.017 A 
HETATM   11  C9  UNL     1     -34.423   4.520   4.346  1.00 20.00     0.022 C 
ENDBRANCH   4   8
TORSDOF 1
ENDMDL
MODEL 7
REMARK VINA RESULT:       0.7      1.987      3.114
REMARK  1 active torsions:
REMARK  status: ('A' for Active; 'I' for Inactive)
REMARK    1  A    between atoms: C4_4  and  C8_8 
ROOT
HETATM    1  C1  UNL     1     -33.540   5.928   3.048  1.00 20.00     0.079 A 
HETATM    2  C2  UNL     1     -33.164   8.383   2.662  1.00 20.00     0.088 A 
HETATM    3  C3  UNL     1     -32.934   5.746   1.874  1.00 20.00     0.146 A 
HETATM    4  C4  UNL     1     -32.572   8.071   1.495  1.00 20.00     0.064 A 
HETATM    5  C5  UNL     1     -33.697   7.312   3.532  1.00 20.00     0.176 A 
HETATM    6  O10 UNL     1     -34.241   7.562   4.600  1.00 20.00    -0.288 OA
HETATM    7  O11 UNL     1     -32.445   6.748   1.073  1.00 20.00    -0.326 OA
ENDROOT
BRANCH   4   8
HETATM    8  C8  UNL     1     -32.023   9.103   0.584  1.00 20.00     0.006 A 
HETATM    9  C6  UNL     1     -32.507  10.516   0.793  1.00 20.00     0.017 A 
HETATM   10  C7  UNL     1     -32.991   9.731  -0.387  1.00 20.00     0.017 A 
HETATM   11  C9  UNL     1     -30.605   8.892   0.142  1.00 20.00     0.022 C 
ENDBRANCH   4   8
TORSDOF 1
ENDMDL
MODEL 8
REMARK VINA RESULT:       0.8      1.242      1.993
REMARK  1 active torsions:
REMARK  status: ('A' for Active; 'I' for Inactive)
REMARK    1  A    between atoms: C4_4  and  C8_8 
ROOT
HETATM    1  C1  UNL     1     -34.957   6.894   4.739  1.00 20.00     0.079 A 
HETATM    2  C2  UNL     1     -33.897   5.343   3.070  1.00 20.00     0.088 A 
HETATM    3  C3  UNL     1     -34.218   7.852   4.177  1.00 20.00     0.146 A 
HETATM    4  C4  UNL     1     -33.205   6.392   2.589  1.00 20.00     0.064 A 
HETATM    5  C5  UNL     1     -34.836   5.528   4.197  1.00 20.00     0.176 A 
HETATM    6  O10 UNL     1     -35.480   4.594   4.658  1.00 20.00    -0.288 OA
HETATM    7  O11 UNL     1     -33.348   7.669   3.131  1.00 20.00    -0.326 OA
ENDROOT
BRANCH   4   8
HETATM    8  C8  UNL     1     -32.250   6.264   1.463  1.00 20.00     0.006 A 
HETATM    9  C6  UNL     1     -32.593   5.250   0.399  1.00 20.00     0.017 A 
HETATM   10  C7  UNL     1     -31.487   4.966   1.369  1.00 20.00     0.017 A 
HETATM   11  C9  UNL     1     -31.560   7.529   1.049  1.00 20.00     0.022 C 
ENDBRANCH   4   8
TORSDOF 1
ENDMDL
MODEL 9
REMARK VINA RESULT:       0.8      2.065      4.848
REMARK  1 active torsions:
REMARK  status: ('A' for Active; 'I' for Inactive)
REMARK    1  A    between atoms: C4_4  and  C8_8 
ROOT
HETATM    1  C1  UNL     1     -31.583   8.119   0.442  1.00 20.00     0.079 A 
HETATM    2  C2  UNL     1     -33.244   8.863   2.175  1.00 20.00     0.088 A 
HETATM    3  C3  UNL     1     -31.654   6.920   1.024  1.00 20.00     0.146 A 
HETATM    4  C4  UNL     1     -33.229   7.613   2.672  1.00 20.00     0.064 A 
HETATM    5  C5  UNL     1     -32.406   9.205   1.005  1.00 20.00     0.176 A 
HETATM    6  O10 UNL     1     -32.396  10.333   0.528  1.00 20.00    -0.288 OA
HETATM    7  O11 UNL     1     -32.435   6.615   2.111  1.00 20.00    -0.326 OA
ENDROOT
BRANCH   4   8
HETATM    8  C8  UNL     1     -34.047   7.216   3.843  1.00 20.00     0.006 A 
HETATM    9  C6  UNL     1     -34.406   5.755   3.953  1.00 20.00     0.017 A 
HETATM   10  C7  UNL     1     -35.453   6.751   3.559  1.00 20.00     0.017 A 
HETATM   11  C9  UNL     1     -33.791   7.986   5.105  1.00 20.00     0.022 C 
ENDBRANCH   4   8
TORSDOF 1
ENDMDL
