MODEL 1
REMARK VINA RESULT:      -1.5      0.000      0.000
REMARK  0 active torsions:
REMARK  status: ('A' for Active; 'I' for Inactive)
ROOT
HETATM    1  C1  UNL     1     -33.844   6.301   2.142  1.00 20.00     0.108 C 
HETATM    2  C2  UNL     1     -32.750   7.128   2.845  1.00 20.00     0.241 C 
HETATM    3  C3  UNL     1     -33.822   7.545   3.881  1.00 20.00     0.321 C 
HETATM    4  C4  UNL     1     -34.599   6.239   3.499  1.00 20.00     0.249 C 
HETATM    5  O5  UNL     1     -32.273   8.193   2.071  1.00 20.00    -0.229 OA
HETATM    6  F6  UNL     1     -34.505   8.689   3.631  1.00 20.00    -0.198 F 
HETATM    7  F7  UNL     1     -33.396   7.626   5.162  1.00 20.00    -0.198 F 
HETATM    8  F8  UNL     1     -35.940   6.412   3.392  1.00 20.00    -0.219 F 
HETATM    9 CL9  UNL     1     -34.278   4.800   4.515  1.00 20.00    -0.076 Cl
ENDROOT
TORSDOF 0
ENDMDL
MODEL 2
REMARK VINA RESULT:      -1.5      2.251      2.753
REMARK  0 active torsions:
REMARK  status: ('A' for Active; 'I' for Inactive)
ROOT
HETATM    1  C1  UNL     1     -32.993   7.353   3.672  1.00 20.00     0.108 C 
HETATM    2  C2  UNL     1     -32.827   7.700   2.180  1.00 20.00     0.241 C 
HETATM    3  C3  UNL     1     -33.211   6.234   1.863  1.00 20.00     0.321 C 
HETATM    4  C4  UNL     1     -33.945   6.201   3.246  1.00 20.00     0.249 C 
HETATM    5  O5  UNL     1     -31.511   8.024   1.827  1.00 20.00    -0.229 OA
HETATM    6  F6  UNL     1     -32.195   5.343   1.753  1.00 20.00    -0.198 F 
HETATM    7  F7  UNL     1     -33.993   6.058   0.773  1.00 20.00    -0.198 F 
HETATM    8  F8  UNL     1     -33.759   5.048   3.937  1.00 20.00    -0.219 F 
HETATM    9 CL9  UNL     1     -35.693   6.590   3.226  1.00 20.00    -0.076 Cl
ENDROOT
TORSDOF 0
ENDMDL
MODEL 3
REMARK VINA RESULT:      -1.4      2.917      3.285
REMARK  0 active torsions:
REMARK  status: ('A' for Active; 'I' for Inactive)
ROOT
HETATM    1  C1  UNL     1     -33.358   5.822   2.929  1.00 20.00     0.108 C 
HETATM    2  C2  UNL     1     -33.648   7.335   2.954  1.00 20.00     0.241 C 
HETATM    3  C3  UNL     1     -32.491   7.509   1.941  1.00 20.00     0.321 C 
HETATM    4  C4  UNL     1     -32.727   6.018   1.522  1.00 20.00     0.249 C 
HETATM    5  O5  UNL     1     -33.400   7.930   4.198  1.00 20.00    -0.229 OA
HETATM    6  F6  UNL     1     -31.259   7.753   2.453  1.00 20.00    -0.198 F 
HETATM    7  F7  UNL     1     -32.694   8.434   0.976  1.00 20.00    -0.198 F 
HETATM    8  F8  UNL     1     -31.582   5.316   1.329  1.00 20.00    -0.219 F 
HETATM    9 CL9  UNL     1     -33.815   5.750   0.126  1.00 20.00    -0.076 Cl
ENDROOT
TORSDOF 0
ENDMDL
MODEL 4
REMARK VINA RESULT:      -1.2      2.676      3.379
REMARK  0 active torsions:
REMARK  status: ('A' for Active; 'I' for Inactive)
ROOT
HETATM    1  C1  UNL     1     -32.053   6.543   1.840  1.00 20.00     0.108 C 
HETATM    2  C2  UNL     1     -33.522   6.394   2.284  1.00 20.00     0.241 C 
HETATM    3  C3  UNL     1     -33.323   7.664   3.147  1.00 20.00     0.321 C 
HETATM    4  C4  UNL     1     -32.159   8.058   2.174  1.00 20.00     0.249 C 
HETATM    5  O5  UNL     1     -33.762   5.237   3.034  1.00 20.00    -0.229 OA
HETATM    6  F6  UNL     1     -32.932   7.477   4.431  1.00 20.00    -0.198 F 
HETATM    7  F7  UNL     1     -34.374   8.514   3.186  1.00 20.00    -0.198 F 
HETATM    8  F8  UNL     1     -31.068   8.561   2.803  1.00 20.00    -0.219 F 
HETATM    9 CL9  UNL     1     -32.595   9.136   0.813  1.00 20.00    -0.076 Cl
ENDROOT
TORSDOF 0
ENDMDL
MODEL 5
REMARK VINA RESULT:      -1.2      2.233      2.631
REMARK  0 active torsions:
REMARK  status: ('A' for Active; 'I' for Inactive)
ROOT
HETATM    1  C1  UNL     1     -32.856   7.749   2.301  1.00 20.00     0.108 C 
HETATM    2  C2  UNL     1     -33.074   7.259   3.745  1.00 20.00     0.241 C 
HETATM    3  C3  UNL     1     -33.941   6.118   3.160  1.00 20.00     0.321 C 
HETATM    4  C4  UNL     1     -33.151   6.300   1.819  1.00 20.00     0.249 C 
HETATM    5  O5  UNL     1     -33.794   8.162   4.537  1.00 20.00    -0.229 OA
HETATM    6  F6  UNL     1     -35.272   6.352   3.055  1.00 20.00    -0.198 F 
HETATM    7  F7  UNL     1     -33.810   4.916   3.765  1.00 20.00    -0.198 F 
HETATM    8  F8  UNL     1     -33.931   6.236   0.711  1.00 20.00    -0.219 F 
HETATM    9 CL9  UNL     1     -31.726   5.241   1.589  1.00 20.00    -0.076 Cl
ENDROOT
TORSDOF 0
ENDMDL
MODEL 6
REMARK VINA RESULT:      -0.7      2.111      2.439
REMARK  0 active torsions:
REMARK  status: ('A' for Active; 'I' for Inactive)
ROOT
HETATM    1  C1  UNL     1     -34.139   6.333   3.138  1.00 20.00     0.108 C 
HETATM    2  C2  UNL     1     -32.723   6.153   2.556  1.00 20.00     0.241 C 
HETATM    3  C3  UNL     1     -32.648   7.694   2.433  1.00 20.00     0.321 C 
HETATM    4  C4  UNL     1     -33.724   7.768   3.568  1.00 20.00     0.249 C 
HETATM    5  O5  UNL     1     -32.708   5.489   1.323  1.00 20.00    -0.229 OA
HETATM    6  F6  UNL     1     -33.046   8.235   1.255  1.00 20.00    -0.198 F 
HETATM    7  F7  UNL     1     -31.446   8.245   2.720  1.00 20.00    -0.198 F 
HETATM    8  F8  UNL     1     -34.682   8.706   3.354  1.00 20.00    -0.219 F 
HETATM    9 CL9  UNL     1     -33.104   7.942   5.239  1.00 20.00    -0.076 Cl
ENDROOT
TORSDOF 0
ENDMDL
MODEL 7
REMARK VINA RESULT:      -0.7      3.167      3.665
REMARK  0 active torsions:
REMARK  status: ('A' for Active; 'I' for Inactive)
ROOT
HETATM    1  C1  UNL     1     -33.534   7.814   3.022  1.00 20.00     0.108 C 
HETATM    2  C2  UNL     1     -33.288   6.304   3.204  1.00 20.00     0.241 C 
HETATM    3  C3  UNL     1     -32.770   6.277   1.746  1.00 20.00     0.321 C 
HETATM    4  C4  UNL     1     -32.454   7.803   1.904  1.00 20.00     0.249 C 
HETATM    5  O5  UNL     1     -34.463   5.567   3.397  1.00 20.00    -0.229 OA
HETATM    6  F6  UNL     1     -33.677   5.996   0.778  1.00 20.00    -0.198 F 
HETATM    7  F7  UNL     1     -31.706   5.473   1.518  1.00 20.00    -0.198 F 
HETATM    8  F8  UNL     1     -32.780   8.545   0.816  1.00 20.00    -0.219 F 
HETATM    9 CL9  UNL     1     -30.789   8.220   2.414  1.00 20.00    -0.076 Cl
ENDROOT
TORSDOF 0
ENDMDL
MODEL 8
REMARK VINA RESULT:      -0.1      1.997      2.851
REMARK  0 active torsions:
REMARK  status: ('A' for Active; 'I' for Inactive)
ROOT
HETATM    1  C1  UNL     1     -32.534   7.565   2.678  1.00 20.00     0.108 C 
HETATM    2  C2  UNL     1     -33.464   6.546   1.991  1.00 20.00     0.241 C 
HETATM    3  C3  UNL     1     -34.151   6.344   3.363  1.00 20.00     0.321 C 
HETATM    4  C4  UNL     1     -33.640   7.773   3.751  1.00 20.00     0.249 C 
HETATM    5  O5  UNL     1     -32.795   5.408   1.525  1.00 20.00    -0.229 OA
HETATM    6  F6  UNL     1     -33.669   5.350   4.150  1.00 20.00    -0.198 F 
HETATM    7  F7  UNL     1     -35.494   6.185   3.326  1.00 20.00    -0.198 F 
HETATM    8  F8  UNL     1     -33.167   7.859   5.020  1.00 20.00    -0.219 F 
HETATM    9 CL9  UNL     1     -34.775   9.127   3.460  1.00 20.00    -0.076 Cl
ENDROOT
TORSDOF 0
ENDMDL
MODEL 9
REMARK VINA RESULT:       0.0      2.530      3.111
REMARK  0 active torsions:
REMARK  status: ('A' for Active; 'I' for Inactive)
ROOT
HETATM    1  C1  UNL     1     -33.316   9.127   2.327  1.00 20.00     0.108 C 
HETATM    2  C2  UNL     1     -32.750   8.493   1.042  1.00 20.00     0.241 C 
HETATM    3  C3  UNL     1     -31.875   7.593   1.948  1.00 20.00     0.321 C 
HETATM    4  C4  UNL     1     -32.935   7.820   3.079  1.00 20.00     0.249 C 
HETATM    5  O5  UNL     1     -32.011   9.388   0.259  1.00 20.00    -0.229 OA
HETATM    6  F6  UNL     1     -30.635   8.049   2.251  1.00 20.00    -0.198 F 
HETATM    7  F7  UNL     1     -31.721   6.316   1.529  1.00 20.00    -0.198 F 
HETATM    8  F8  UNL     1     -32.392   8.028   4.304  1.00 20.00    -0.219 F 
HETATM    9 CL9  UNL     1     -34.225   6.586   3.216  1.00 20.00    -0.076 Cl
ENDROOT
TORSDOF 0
ENDMDL
