MODEL 1
REMARK VINA RESULT:      -1.6      0.000      0.000
REMARK  0 active torsions:
REMARK  status: ('A' for Active; 'I' for Inactive)
ROOT
HETATM    1  C1  UNL     1     -31.904   6.531   1.106  1.00 20.00     0.002 C 
HETATM    2  C2  UNL     1     -32.617   5.617   1.783  1.00 20.00     0.028 C 
HETATM    3  C3  UNL     1     -31.965   7.951   1.407  1.00 20.00    -0.003 C 
HETATM    4  C4  UNL     1     -32.483   8.396   2.565  1.00 20.00    -0.012 C 
HETATM    5  C5  UNL     1     -34.244   7.704   4.287  1.00 20.00     0.007 C 
HETATM    6  C6  UNL     1     -35.077   6.675   4.098  1.00 20.00     0.114 C 
HETATM    7  C7  UNL     1     -33.447   6.170   2.872  1.00 20.00     0.045 C 
HETATM    8  C8  UNL     1     -32.960   7.421   3.590  1.00 20.00     0.084 C 
HETATM    9  N9  UNL     1     -34.604   5.713   3.246  1.00 20.00    -0.265 NA
ENDROOT
TORSDOF 0
ENDMDL
MODEL 2
REMARK VINA RESULT:      -1.3      1.101      2.056
REMARK  0 active torsions:
REMARK  status: ('A' for Active; 'I' for Inactive)
ROOT
HETATM    1  C1  UNL     1     -31.548   7.375   1.405  1.00 20.00     0.002 C 
HETATM    2  C2  UNL     1     -32.177   8.242   2.213  1.00 20.00     0.028 C 
HETATM    3  C3  UNL     1     -31.908   5.970   1.333  1.00 20.00    -0.003 C 
HETATM    4  C4  UNL     1     -33.078   5.525   1.823  1.00 20.00    -0.012 C 
HETATM    5  C5  UNL     1     -34.750   6.114   3.669  1.00 20.00     0.007 C 
HETATM    6  C6  UNL     1     -34.507   7.047   4.595  1.00 20.00     0.114 C 
HETATM    7  C7  UNL     1     -33.279   7.657   3.003  1.00 20.00     0.045 C 
HETATM    8  C8  UNL     1     -34.055   6.490   2.408  1.00 20.00     0.084 C 
HETATM    9  N9  UNL     1     -33.620   8.014   4.204  1.00 20.00    -0.265 NA
ENDROOT
TORSDOF 0
ENDMDL
MODEL 3
REMARK VINA RESULT:      -1.2      1.370      3.557
REMARK  0 active torsions:
REMARK  status: ('A' for Active; 'I' for Inactive)
ROOT
HETATM    1  C1  UNL     1     -34.389   7.631   4.663  1.00 20.00     0.002 C 
HETATM    2  C2  UNL     1     -33.251   8.149   4.176  1.00 20.00     0.028 C 
HETATM    3  C3  UNL     1     -35.066   6.505   4.042  1.00 20.00    -0.003 C 
HETATM    4  C4  UNL     1     -34.439   5.725   3.144  1.00 20.00    -0.012 C 
HETATM    5  C5  UNL     1     -32.592   5.904   1.383  1.00 20.00     0.007 C 
HETATM    6  C6  UNL     1     -32.038   7.069   1.030  1.00 20.00     0.114 C 
HETATM    7  C7  UNL     1     -32.732   7.467   2.973  1.00 20.00     0.045 C 
HETATM    8  C8  UNL     1     -33.007   5.978   2.810  1.00 20.00     0.084 C 
HETATM    9  N9  UNL     1     -32.097   8.039   1.995  1.00 20.00    -0.265 NA
ENDROOT
TORSDOF 0
ENDMDL
MODEL 4
REMARK VINA RESULT:      -1.0      1.036      3.006
REMARK  0 active torsions:
REMARK  status: ('A' for Active; 'I' for Inactive)
ROOT
HETATM    1  C1  UNL     1     -34.726   6.849   4.422  1.00 20.00     0.002 C 
HETATM    2  C2  UNL     1     -34.670   6.105   3.306  1.00 20.00     0.028 C 
HETATM    3  C3  UNL     1     -33.728   7.855   4.742  1.00 20.00    -0.003 C 
HETATM    4  C4  UNL     1     -32.880   8.317   3.807  1.00 20.00    -0.012 C 
HETATM    5  C5  UNL     1     -31.734   7.508   1.668  1.00 20.00     0.007 C 
HETATM    6  C6  UNL     1     -31.790   6.238   1.252  1.00 20.00     0.114 C 
HETATM    7  C7  UNL     1     -33.527   6.409   2.422  1.00 20.00     0.045 C 
HETATM    8  C8  UNL     1     -32.988   7.833   2.400  1.00 20.00     0.084 C 
HETATM    9  N9  UNL     1     -32.889   5.548   1.689  1.00 20.00    -0.265 NA
ENDROOT
TORSDOF 0
ENDMDL
MODEL 5
REMARK VINA RESULT:      -0.5      1.635      3.503
REMARK  0 active torsions:
REMARK  status: ('A' for Active; 'I' for Inactive)
ROOT
HETATM    1  C1  UNL     1     -34.086   6.473   3.573  1.00 20.00     0.002 C 
HETATM    2  C2  UNL     1     -33.694   7.755   3.610  1.00 20.00     0.028 C 
HETATM    3  C3  UNL     1     -33.717   5.572   2.495  1.00 20.00    -0.003 C 
HETATM    4  C4  UNL     1     -32.717   5.871   1.648  1.00 20.00    -0.012 C 
HETATM    5  C5  UNL     1     -31.593   7.936   0.639  1.00 20.00     0.007 C 
HETATM    6  C6  UNL     1     -32.072   9.174   0.801  1.00 20.00     0.114 C 
HETATM    7  C7  UNL     1     -32.838   8.168   2.479  1.00 20.00     0.045 C 
HETATM    8  C8  UNL     1     -31.931   7.125   1.840  1.00 20.00     0.084 C 
HETATM    9  N9  UNL     1     -32.826   9.345   1.931  1.00 20.00    -0.265 NA
ENDROOT
TORSDOF 0
ENDMDL
MODEL 6
REMARK VINA RESULT:       0.2      1.606      3.007
REMARK  0 active torsions:
REMARK  status: ('A' for Active; 'I' for Inactive)
ROOT
HETATM    1  C1  UNL     1     -34.619   7.650   3.709  1.00 20.00     0.002 C 
HETATM    2  C2  UNL     1     -35.272   6.563   4.148  1.00 20.00     0.028 C 
HETATM    3  C3  UNL     1     -33.309   7.577   3.084  1.00 20.00    -0.003 C 
HETATM    4  C4  UNL     1     -32.819   6.412   2.628  1.00 20.00    -0.012 C 
HETATM    5  C5  UNL     1     -32.986   3.911   3.141  1.00 20.00     0.007 C 
HETATM    6  C6  UNL     1     -33.619   3.433   4.218  1.00 20.00     0.114 C 
HETATM    7  C7  UNL     1     -34.562   5.288   3.923  1.00 20.00     0.045 C 
HETATM    8  C8  UNL     1     -33.647   5.172   2.712  1.00 20.00     0.084 C 
HETATM    9  N9  UNL     1     -34.601   4.253   4.707  1.00 20.00    -0.265 NA
ENDROOT
TORSDOF 0
ENDMDL
MODEL 7
REMARK VINA RESULT:       0.4      1.528      2.673
REMARK  0 active torsions:
REMARK  status: ('A' for Active; 'I' for Inactive)
ROOT
HETATM    1  C1  UNL     1     -33.133   4.459   2.167  1.00 20.00     0.002 C 
HETATM    2  C2  UNL     1     -32.889   5.724   1.793  1.00 20.00     0.028 C 
HETATM    3  C3  UNL     1     -33.774   4.125   3.428  1.00 20.00    -0.003 C 
HETATM    4  C4  UNL     1     -34.438   5.053   4.139  1.00 20.00    -0.012 C 
HETATM    5  C5  UNL     1     -34.380   7.577   4.552  1.00 20.00     0.007 C 
HETATM    6  C6  UNL     1     -33.400   8.364   4.095  1.00 20.00     0.114 C 
HETATM    7  C7  UNL     1     -33.346   6.748   2.754  1.00 20.00     0.045 C 
HETATM    8  C8  UNL     1     -34.569   6.443   3.609  1.00 20.00     0.084 C 
HETATM    9  N9  UNL     1     -32.761   7.884   2.983  1.00 20.00    -0.265 NA
ENDROOT
TORSDOF 0
ENDMDL
