MODEL 1
REMARK VINA RESULT:       1.4      0.000      0.000
REMARK  1 active torsions:
REMARK  status: ('A' for Active; 'I' for Inactive)
REMARK    1  A    between atoms: C8_8  and  C11_11 
ROOT
HETATM    1  C1  UNL     1     -33.392   7.521   3.248  1.00 20.00    -0.084 C 
HETATM    2  C2  UNL     1     -33.875   8.205   4.288  1.00 20.00     0.014 C 
HETATM    3  C3  UNL     1     -31.998   7.629   2.683  1.00 20.00     0.038 C 
HETATM    4  C4  UNL     1     -33.529   6.871   1.019  1.00 20.00     0.014 C 
HETATM    5  C5  UNL     1     -32.183   5.191   2.062  1.00 20.00     0.010 C 
HETATM    6  C6  UNL     1     -34.156   6.545   2.379  1.00 20.00     0.018 C 
HETATM    7  C7  UNL     1     -32.098   6.632   1.509  1.00 20.00    -0.010 C 
HETATM    8  C8  UNL     1     -33.630   5.110   2.606  1.00 20.00    -0.003 C 
ENDROOT
BRANCH   8   9
HETATM    9  C11 UNL     1     -33.712   4.601   4.038  1.00 20.00    -0.018 C 
HETATM   10  C9  UNL     1     -35.109   4.828   4.616  1.00 20.00     0.010 C 
HETATM   11  C10 UNL     1     -33.340   3.120   4.110  1.00 20.00     0.010 C 
ENDBRANCH   8   9
TORSDOF 1
ENDMDL
MODEL 2
REMARK VINA RESULT:       1.8      1.003      1.138
REMARK  1 active torsions:
REMARK  status: ('A' for Active; 'I' for Inactive)
REMARK    1  A    between atoms: C8_8  and  C11_11 
ROOT
HETATM    1  C1  UNL     1     -32.566   8.153   3.714  1.00 20.00    -0.084 C 
HETATM    2  C2  UNL     1     -32.655   8.644   4.952  1.00 20.00     0.014 C 
HETATM    3  C3  UNL     1     -31.291   7.869   2.959  1.00 20.00     0.038 C 
HETATM    4  C4  UNL     1     -33.096   8.269   1.452  1.00 20.00     0.014 C 
HETATM    5  C5  UNL     1     -32.517   5.978   1.826  1.00 20.00     0.010 C 
HETATM    6  C6  UNL     1     -33.719   7.839   2.785  1.00 20.00     0.018 C 
HETATM    7  C7  UNL     1     -31.870   7.367   1.620  1.00 20.00    -0.010 C 
HETATM    8  C8  UNL     1     -33.829   6.312   2.576  1.00 20.00    -0.003 C 
ENDROOT
BRANCH   8   9
HETATM    9  C11 UNL     1     -34.031   5.491   3.841  1.00 20.00    -0.018 C 
HETATM   10  C9  UNL     1     -35.467   5.621   4.350  1.00 20.00     0.010 C 
HETATM   11  C10 UNL     1     -33.684   4.022   3.595  1.00 20.00     0.010 C 
ENDBRANCH   8   9
TORSDOF 1
ENDMDL
MODEL 3
REMARK VINA RESULT:       1.9      1.176      2.767
REMARK  1 active torsions:
REMARK  status: ('A' for Active; 'I' for Inactive)
REMARK    1  A    between atoms: C8_8  and  C11_11 
ROOT
HETATM    1  C1  UNL     1     -33.062   5.706   0.790  1.00 20.00    -0.084 C 
HETATM    2  C2  UNL     1     -33.408   4.643   0.060  1.00 20.00     0.014 C 
HETATM    3  C3  UNL     1     -33.374   7.146   0.468  1.00 20.00     0.038 C 
HETATM    4  C4  UNL     1     -31.432   6.988   1.842  1.00 20.00     0.014 C 
HETATM    5  C5  UNL     1     -33.470   7.562   2.954  1.00 20.00     0.010 C 
HETATM    6  C6  UNL     1     -32.230   5.697   2.054  1.00 20.00     0.018 C 
HETATM    7  C7  UNL     1     -32.684   7.850   1.654  1.00 20.00    -0.010 C 
HETATM    8  C8  UNL     1     -33.104   6.091   3.266  1.00 20.00    -0.003 C 
ENDROOT
BRANCH   8   9
HETATM    9  C11 UNL     1     -34.316   5.204   3.515  1.00 20.00    -0.018 C 
HETATM   10  C9  UNL     1     -33.922   3.958   4.308  1.00 20.00     0.010 C 
HETATM   11  C10 UNL     1     -35.413   5.978   4.248  1.00 20.00     0.010 C 
ENDBRANCH   8   9
TORSDOF 1
ENDMDL
MODEL 4
REMARK VINA RESULT:       2.2      1.311      2.253
REMARK  1 active torsions:
REMARK  status: ('A' for Active; 'I' for Inactive)
REMARK    1  A    between atoms: C8_8  and  C11_11 
ROOT
HETATM    1  C1  UNL     1     -32.454   7.697   1.315  1.00 20.00    -0.084 C 
HETATM    2  C2  UNL     1     -32.614   9.009   1.127  1.00 20.00     0.014 C 
HETATM    3  C3  UNL     1     -31.179   7.008   1.735  1.00 20.00     0.038 C 
HETATM    4  C4  UNL     1     -32.592   5.513   0.528  1.00 20.00     0.014 C 
HETATM    5  C5  UNL     1     -32.621   5.305   2.911  1.00 20.00     0.010 C 
HETATM    6  C6  UNL     1     -33.493   6.621   1.084  1.00 20.00     0.018 C 
HETATM    7  C7  UNL     1     -31.647   5.538   1.733  1.00 20.00    -0.010 C 
HETATM    8  C8  UNL     1     -33.919   5.999   2.433  1.00 20.00    -0.003 C 
ENDROOT
BRANCH   8   9
HETATM    9  C11 UNL     1     -34.495   6.974   3.450  1.00 20.00    -0.018 C 
HETATM   10  C9  UNL     1     -35.578   6.302   4.294  1.00 20.00     0.010 C 
HETATM   11  C10 UNL     1     -33.392   7.536   4.348  1.00 20.00     0.010 C 
ENDBRANCH   8   9
TORSDOF 1
ENDMDL
MODEL 5
REMARK VINA RESULT:       2.3      1.199      3.992
REMARK  1 active torsions:
REMARK  status: ('A' for Active; 'I' for Inactive)
REMARK    1  A    between atoms: C8_8  and  C11_11 
ROOT
HETATM    1  C1  UNL     1     -33.442   5.503   2.204  1.00 20.00    -0.084 C 
HETATM    2  C2  UNL     1     -32.798   4.822   1.253  1.00 20.00     0.014 C 
HETATM    3  C3  UNL     1     -33.574   5.100   3.651  1.00 20.00     0.038 C 
HETATM    4  C4  UNL     1     -35.375   6.520   3.001  1.00 20.00     0.014 C 
HETATM    5  C5  UNL     1     -33.595   7.558   4.216  1.00 20.00     0.010 C 
HETATM    6  C6  UNL     1     -34.228   6.783   2.019  1.00 20.00     0.018 C 
HETATM    7  C7  UNL     1     -34.437   6.262   4.184  1.00 20.00    -0.010 C 
HETATM    8  C8  UNL     1     -33.505   7.954   2.723  1.00 20.00    -0.003 C 
ENDROOT
BRANCH   8   9
HETATM    9  C11 UNL     1     -32.083   8.224   2.251  1.00 20.00    -0.018 C 
HETATM   10  C9  UNL     1     -32.085   9.077   0.983  1.00 20.00     0.010 C 
HETATM   11  C10 UNL     1     -31.267   8.904   3.351  1.00 20.00     0.010 C 
ENDBRANCH   8   9
TORSDOF 1
ENDMDL
MODEL 6
REMARK VINA RESULT:       2.4      1.084      3.629
REMARK  1 active torsions:
REMARK  status: ('A' for Active; 'I' for Inactive)
REMARK    1  A    between atoms: C8_8  and  C11_11 
ROOT
HETATM    1  C1  UNL     1     -34.088   5.017   3.885  1.00 20.00    -0.084 C 
HETATM    2  C2  UNL     1     -33.664   3.751   3.922  1.00 20.00     0.014 C 
HETATM    3  C3  UNL     1     -34.211   5.948   5.065  1.00 20.00     0.038 C 
HETATM    4  C4  UNL     1     -35.708   6.588   3.323  1.00 20.00     0.014 C 
HETATM    5  C5  UNL     1     -33.676   7.839   3.484  1.00 20.00     0.010 C 
HETATM    6  C6  UNL     1     -34.595   5.761   2.669  1.00 20.00     0.018 C 
HETATM    7  C7  UNL     1     -34.774   7.204   4.368  1.00 20.00    -0.010 C 
HETATM    8  C8  UNL     1     -33.598   6.875   2.276  1.00 20.00    -0.003 C 
ENDROOT
BRANCH   8   9
HETATM    9  C11 UNL     1     -32.183   6.407   1.964  1.00 20.00    -0.018 C 
HETATM   10  C9  UNL     1     -32.198   5.303   0.906  1.00 20.00     0.010 C 
HETATM   11  C10 UNL     1     -31.314   7.577   1.502  1.00 20.00     0.010 C 
ENDBRANCH   8   9
TORSDOF 1
ENDMDL
MODEL 7
REMARK VINA RESULT:       2.7      1.710      2.648
REMARK  1 active torsions:
REMARK  status: ('A' for Active; 'I' for Inactive)
REMARK    1  A    between atoms: C8_8  and  C11_11 
ROOT
HETATM    1  C1  UNL     1     -33.795   7.338   3.348  1.00 20.00    -0.084 C 
HETATM    2  C2  UNL     1     -34.821   6.684   3.898  1.00 20.00     0.014 C 
HETATM    3  C3  UNL     1     -32.611   7.915   4.084  1.00 20.00     0.038 C 
HETATM    4  C4  UNL     1     -32.979   9.074   2.033  1.00 20.00     0.014 C 
HETATM    5  C5  UNL     1     -31.239   7.432   2.023  1.00 20.00     0.010 C 
HETATM    6  C6  UNL     1     -33.635   7.697   1.886  1.00 20.00     0.018 C 
HETATM    7  C7  UNL     1     -31.838   8.549   2.909  1.00 20.00    -0.010 C 
HETATM    8  C8  UNL     1     -32.475   6.886   1.267  1.00 20.00    -0.003 C 
ENDROOT
BRANCH   8   9
HETATM    9  C11 UNL     1     -32.616   5.373   1.349  1.00 20.00    -0.018 C 
HETATM   10  C9  UNL     1     -33.623   4.864   0.318  1.00 20.00     0.010 C 
HETATM   11  C10 UNL     1     -31.262   4.690   1.154  1.00 20.00     0.010 C 
ENDBRANCH   8   9
TORSDOF 1
ENDMDL
MODEL 8
REMARK VINA RESULT:       2.8      1.775      4.175
REMARK  1 active torsions:
REMARK  status: ('A' for Active; 'I' for Inactive)
REMARK    1  A    between atoms: C8_8  and  C11_11 
ROOT
HETATM    1  C1  UNL     1     -33.230   7.429   3.061  1.00 20.00    -0.084 C 
HETATM    2  C2  UNL     1     -33.686   8.163   4.079  1.00 20.00     0.014 C 
HETATM    3  C3  UNL     1     -33.922   6.241   2.441  1.00 20.00     0.038 C 
HETATM    4  C4  UNL     1     -31.564   6.117   2.105  1.00 20.00     0.014 C 
HETATM    5  C5  UNL     1     -32.856   6.907   0.253  1.00 20.00     0.010 C 
HETATM    6  C6  UNL     1     -31.898   7.591   2.361  1.00 20.00     0.018 C 
HETATM    7  C7  UNL     1     -32.881   5.842   1.374  1.00 20.00    -0.010 C 
HETATM    8  C8  UNL     1     -32.117   8.094   0.917  1.00 20.00    -0.003 C 
ENDROOT
BRANCH   8   9
HETATM    9  C11 UNL     1     -32.860   9.417   0.790  1.00 20.00    -0.018 C 
HETATM   10  C9  UNL     1     -32.232  10.480   1.692  1.00 20.00     0.010 C 
HETATM   11  C10 UNL     1     -32.875   9.894  -0.663  1.00 20.00     0.010 C 
ENDBRANCH   8   9
TORSDOF 1
ENDMDL
MODEL 9
REMARK VINA RESULT:       3.0      1.787      3.416
REMARK  1 active torsions:
REMARK  status: ('A' for Active; 'I' for Inactive)
REMARK    1  A    between atoms: C8_8  and  C11_11 
ROOT
HETATM    1  C1  UNL     1     -32.507   8.708   1.332  1.00 20.00    -0.084 C 
HETATM    2  C2  UNL     1     -32.218   9.315   0.178  1.00 20.00     0.014 C 
HETATM    3  C3  UNL     1     -33.768   8.888   2.141  1.00 20.00     0.038 C 
HETATM    4  C4  UNL     1     -31.962   8.190   3.532  1.00 20.00     0.014 C 
HETATM    5  C5  UNL     1     -33.507   6.488   2.871  1.00 20.00     0.010 C 
HETATM    6  C6  UNL     1     -31.608   7.765   2.103  1.00 20.00     0.018 C 
HETATM    7  C7  UNL     1     -33.463   7.962   3.336  1.00 20.00    -0.010 C 
HETATM    8  C8  UNL     1     -32.191   6.334   2.071  1.00 20.00    -0.003 C 
ENDROOT
BRANCH   8   9
HETATM    9  C11 UNL     1     -32.389   5.738   0.685  1.00 20.00    -0.018 C 
HETATM   10  C9  UNL     1     -31.499   4.512   0.489  1.00 20.00     0.010 C 
HETATM   11  C10 UNL     1     -33.856   5.374   0.456  1.00 20.00     0.010 C 
ENDBRANCH   8   9
TORSDOF 1
ENDMDL
