MODEL 1
REMARK VINA RESULT:      -1.5      0.000      0.000
REMARK  0 active torsions:
REMARK  status: ('A' for Active; 'I' for Inactive)
ROOT
HETATM    1  C1  UNL     1     -31.720   6.849   1.159  1.00 20.00     0.021 A 
HETATM    2  C2  UNL     1     -32.646   5.790   1.569  1.00 20.00     0.029 A 
HETATM    3  C3  UNL     1     -34.557   4.797   4.411  1.00 20.00     0.025 A 
HETATM    4  C4  UNL     1     -31.773   8.048   1.779  1.00 20.00     0.107 A 
HETATM    5  C5  UNL     1     -34.535   7.305   4.148  1.00 20.00     0.101 C 
HETATM    6  C6  UNL     1     -34.554   5.312   3.198  1.00 20.00     0.038 A 
HETATM    7  C7  UNL     1     -35.142   6.105   4.330  1.00 20.00     0.028 A 
HETATM    8  C8  UNL     1     -33.484   6.066   2.582  1.00 20.00     0.044 A 
HETATM    9  N9  UNL     1     -32.671   8.295   2.800  1.00 20.00    -0.306 N 
HETATM   10  N10 UNL     1     -33.500   7.307   3.227  1.00 20.00    -0.274 N 
HETATM   11  H16 UNL     1     -32.644   9.186   3.282  1.00 20.00     0.186 HD
ENDROOT
TORSDOF 0
ENDMDL
MODEL 2
REMARK VINA RESULT:      -1.3      1.151      3.865
REMARK  0 active torsions:
REMARK  status: ('A' for Active; 'I' for Inactive)
ROOT
HETATM    1  C1  UNL     1     -35.230   6.123   4.515  1.00 20.00     0.021 A 
HETATM    2  C2  UNL     1     -34.623   7.260   3.818  1.00 20.00     0.029 A 
HETATM    3  C3  UNL     1     -31.612   8.111   2.108  1.00 20.00     0.025 A 
HETATM    4  C4  UNL     1     -34.825   4.870   4.210  1.00 20.00     0.107 A 
HETATM    5  C5  UNL     1     -32.304   5.735   1.624  1.00 20.00     0.101 C 
HETATM    6  C6  UNL     1     -32.896   7.825   2.023  1.00 20.00     0.038 A 
HETATM    7  C7  UNL     1     -31.905   6.983   1.271  1.00 20.00     0.028 A 
HETATM    8  C8  UNL     1     -33.656   6.988   2.926  1.00 20.00     0.044 A 
HETATM    9  N9  UNL     1     -33.843   4.638   3.267  1.00 20.00    -0.306 N 
HETATM   10  N10 UNL     1     -33.234   5.684   2.650  1.00 20.00    -0.274 N 
HETATM   11  H16 UNL     1     -33.522   3.690   3.106  1.00 20.00     0.186 HD
ENDROOT
TORSDOF 0
ENDMDL
MODEL 3
REMARK VINA RESULT:      -1.0      1.216      1.955
REMARK  0 active torsions:
REMARK  status: ('A' for Active; 'I' for Inactive)
ROOT
HETATM    1  C1  UNL     1     -31.957   8.165   1.661  1.00 20.00     0.021 A 
HETATM    2  C2  UNL     1     -32.932   8.237   2.753  1.00 20.00     0.029 A 
HETATM    3  C3  UNL     1     -35.702   6.406   4.053  1.00 20.00     0.025 A 
HETATM    4  C4  UNL     1     -31.658   6.962   1.123  1.00 20.00     0.107 A 
HETATM    5  C5  UNL     1     -33.886   4.863   3.226  1.00 20.00     0.101 C 
HETATM    6  C6  UNL     1     -34.442   6.768   4.196  1.00 20.00     0.038 A 
HETATM    7  C7  UNL     1     -34.785   5.306   4.141  1.00 20.00     0.028 A 
HETATM    8  C8  UNL     1     -33.509   7.087   3.137  1.00 20.00     0.044 A 
HETATM    9  N9  UNL     1     -32.259   5.801   1.568  1.00 20.00    -0.306 N 
HETATM   10  N10 UNL     1     -33.204   5.858   2.543  1.00 20.00    -0.274 N 
HETATM   11  H16 UNL     1     -32.055   4.925   1.102  1.00 20.00     0.186 HD
ENDROOT
TORSDOF 0
ENDMDL
MODEL 4
REMARK VINA RESULT:      -0.2      0.939      3.411
REMARK  0 active torsions:
REMARK  status: ('A' for Active; 'I' for Inactive)
ROOT
HETATM    1  C1  UNL     1     -35.083   5.001   4.426  1.00 20.00     0.021 A 
HETATM    2  C2  UNL     1     -34.011   4.548   3.535  1.00 20.00     0.029 A 
HETATM    3  C3  UNL     1     -32.220   5.647   0.655  1.00 20.00     0.025 A 
HETATM    4  C4  UNL     1     -35.324   6.325   4.548  1.00 20.00     0.107 A 
HETATM    5  C5  UNL     1     -32.706   7.562   2.222  1.00 20.00     0.101 C 
HETATM    6  C6  UNL     1     -32.208   5.427   1.954  1.00 20.00     0.038 A 
HETATM    7  C7  UNL     1     -31.896   6.804   1.440  1.00 20.00     0.028 A 
HETATM    8  C8  UNL     1     -33.342   5.490   2.851  1.00 20.00     0.044 A 
HETATM    9  N9  UNL     1     -34.591   7.260   3.842  1.00 20.00    -0.306 N 
HETATM   10  N10 UNL     1     -33.630   6.853   2.973  1.00 20.00    -0.274 N 
HETATM   11  H16 UNL     1     -34.837   8.241   3.913  1.00 20.00     0.186 HD
ENDROOT
TORSDOF 0
ENDMDL
MODEL 5
REMARK VINA RESULT:       0.1      0.800      3.421
REMARK  0 active torsions:
REMARK  status: ('A' for Active; 'I' for Inactive)
ROOT
HETATM    1  C1  UNL     1     -34.849   5.202   3.738  1.00 20.00     0.021 A 
HETATM    2  C2  UNL     1     -33.754   5.189   2.764  1.00 20.00     0.029 A 
HETATM    3  C3  UNL     1     -31.962   7.436   0.654  1.00 20.00     0.025 A 
HETATM    4  C4  UNL     1     -35.130   6.347   4.398  1.00 20.00     0.107 A 
HETATM    5  C5  UNL     1     -32.522   8.504   2.868  1.00 20.00     0.101 C 
HETATM    6  C6  UNL     1     -31.959   6.690   1.741  1.00 20.00     0.038 A 
HETATM    7  C7  UNL     1     -31.682   8.162   1.859  1.00 20.00     0.028 A 
HETATM    8  C8  UNL     1     -33.105   6.346   2.555  1.00 20.00     0.044 A 
HETATM    9  N9  UNL     1     -34.417   7.507   4.168  1.00 20.00    -0.306 N 
HETATM   10  N10 UNL     1     -33.434   7.525   3.231  1.00 20.00    -0.274 N 
HETATM   11  H16 UNL     1     -34.693   8.362   4.638  1.00 20.00     0.186 HD
ENDROOT
TORSDOF 0
ENDMDL
MODEL 6
REMARK VINA RESULT:       1.2      1.351      3.782
REMARK  0 active torsions:
REMARK  status: ('A' for Active; 'I' for Inactive)
ROOT
HETATM    1  C1  UNL     1     -33.084   5.402   2.350  1.00 20.00     0.021 A 
HETATM    2  C2  UNL     1     -32.368   6.097   1.277  1.00 20.00     0.029 A 
HETATM    3  C3  UNL     1     -32.339   9.258  -0.373  1.00 20.00     0.025 A 
HETATM    4  C4  UNL     1     -33.683   6.127   3.320  1.00 20.00     0.107 A 
HETATM    5  C5  UNL     1     -32.774   9.515   2.098  1.00 20.00     0.101 C 
HETATM    6  C6  UNL     1     -31.742   8.438   0.469  1.00 20.00     0.038 A 
HETATM    7  C7  UNL     1     -32.138   9.810   0.937  1.00 20.00     0.028 A 
HETATM    8  C8  UNL     1     -32.379   7.440   1.301  1.00 20.00     0.044 A 
HETATM    9  N9  UNL     1     -33.647   7.508   3.317  1.00 20.00    -0.306 N 
HETATM   10  N10 UNL     1     -33.032   8.168   2.301  1.00 20.00    -0.274 N 
HETATM   11  H16 UNL     1     -34.157   8.021   4.027  1.00 20.00     0.186 HD
ENDROOT
TORSDOF 0
ENDMDL
