MODEL 1
REMARK VINA RESULT:      -2.1      0.000      0.000
REMARK  6 active torsions:
REMARK  status: ('A' for Active; 'I' for Inactive)
REMARK    1  A    between atoms: C2_2  and  C6_6 
REMARK    2  A    between atoms: C6_6  and  C11_11 
REMARK    3  A    between atoms: C7_7  and  C9_9 
REMARK    4  A    between atoms: C8_8  and  C11_11 
REMARK    5  A    between atoms: C9_9  and  C10_10 
REMARK    6  A    between atoms: C10_10  and  C11_11 
ROOT
HETATM    1  C11 UNL     1     -33.078   7.359   1.922  1.00 20.00    -0.011 C 
ENDROOT
BRANCH   1   2
HETATM    2  C6  UNL     1     -31.947   8.334   1.511  1.00 20.00     0.037 C 
BRANCH   2   3
HETATM    3  C2  UNL     1     -32.359   9.411   0.530  1.00 20.00    -0.093 C 
HETATM    4  C1  UNL     1     -32.320   9.205  -0.796  1.00 20.00     0.014 C 
HETATM    5  C3  UNL     1     -32.772  10.737   1.101  1.00 20.00     0.042 C 
ENDBRANCH   2   3
ENDBRANCH   1   2
BRANCH   1   6
HETATM    6  C8  UNL     1     -32.962   6.017   1.167  1.00 20.00     0.000 C 
HETATM    7  C5  UNL     1     -31.675   5.258   1.454  1.00 20.00     0.005 C 
ENDBRANCH   1   6
BRANCH   1   8
HETATM    8  C10 UNL     1     -33.133   7.210   3.463  1.00 20.00     0.005 C 
BRANCH   8   9
HETATM    9  C9  UNL     1     -34.522   7.382   4.088  1.00 20.00     0.000 C 
BRANCH   9  10
HETATM   10  C7  UNL     1     -35.359   6.099   4.054  1.00 20.00    -0.005 C 
HETATM   11  C4  UNL     1     -34.539   4.832   4.238  1.00 20.00     0.005 C 
ENDBRANCH   9  10
ENDBRANCH   8   9
ENDBRANCH   1   8
TORSDOF 6
ENDMDL
MODEL 2
REMARK VINA RESULT:      -2.1      0.847      4.452
REMARK  6 active torsions:
REMARK  status: ('A' for Active; 'I' for Inactive)
REMARK    1  A    between atoms: C2_2  and  C6_6 
REMARK    2  A    between atoms: C6_6  and  C11_11 
REMARK    3  A    between atoms: C7_7  and  C9_9 
REMARK    4  A    between atoms: C8_8  and  C11_11 
REMARK    5  A    between atoms: C9_9  and  C10_10 
REMARK    6  A    between atoms: C10_10  and  C11_11 
ROOT
HETATM    1  C11 UNL     1     -32.326   7.012   2.209  1.00 20.00    -0.011 C 
ENDROOT
BRANCH   1   2
HETATM    2  C6  UNL     1     -33.862   7.100   2.387  1.00 20.00     0.037 C 
BRANCH   2   3
HETATM    3  C2  UNL     1     -34.346   6.977   3.816  1.00 20.00    -0.093 C 
HETATM    4  C1  UNL     1     -35.280   6.079   4.166  1.00 20.00     0.014 C 
HETATM    5  C3  UNL     1     -33.771   7.935   4.819  1.00 20.00     0.042 C 
ENDBRANCH   2   3
ENDBRANCH   1   2
BRANCH   1   6
HETATM    6  C8  UNL     1     -31.935   5.825   1.303  1.00 20.00     0.000 C 
HETATM    7  C5  UNL     1     -33.124   5.107   0.680  1.00 20.00     0.005 C 
ENDBRANCH   1   6
BRANCH   1   8
HETATM    8  C10 UNL     1     -31.754   8.374   1.742  1.00 20.00     0.005 C 
BRANCH   8   9
HETATM    9  C9  UNL     1     -31.675   8.564   0.223  1.00 20.00     0.000 C 
BRANCH   9  10
HETATM   10  C7  UNL     1     -32.487   9.764  -0.275  1.00 20.00    -0.005 C 
HETATM   11  C4  UNL     1     -32.822  10.768   0.818  1.00 20.00     0.005 C 
ENDBRANCH   9  10
ENDBRANCH   8   9
ENDBRANCH   1   8
TORSDOF 6
ENDMDL
MODEL 3
REMARK VINA RESULT:      -2.1      1.521      3.295
REMARK  6 active torsions:
REMARK  status: ('A' for Active; 'I' for Inactive)
REMARK    1  A    between atoms: C2_2  and  C6_6 
REMARK    2  A    between atoms: C6_6  and  C11_11 
REMARK    3  A    between atoms: C7_7  and  C9_9 
REMARK    4  A    between atoms: C8_8  and  C11_11 
REMARK    5  A    between atoms: C9_9  and  C10_10 
REMARK    6  A    between atoms: C10_10  and  C11_11 
ROOT
HETATM    1  C11 UNL     1     -34.036   6.678   3.623  1.00 20.00    -0.011 C 
ENDROOT
BRANCH   1   2
HETATM    2  C6  UNL     1     -33.880   6.649   2.082  1.00 20.00     0.037 C 
BRANCH   2   3
HETATM    3  C2  UNL     1     -32.451   6.584   1.588  1.00 20.00    -0.093 C 
HETATM    4  C1  UNL     1     -31.870   5.416   1.273  1.00 20.00     0.014 C 
HETATM    5  C3  UNL     1     -31.693   7.878   1.507  1.00 20.00     0.042 C 
ENDBRANCH   2   3
ENDBRANCH   1   2
BRANCH   1   6
HETATM    6  C8  UNL     1     -34.017   8.126   4.160  1.00 20.00     0.000 C 
HETATM    7  C5  UNL     1     -33.024   8.350   5.293  1.00 20.00     0.005 C 
ENDBRANCH   1   6
BRANCH   1   8
HETATM    8  C10 UNL     1     -35.279   5.863   4.059  1.00 20.00     0.005 C 
BRANCH   8   9
HETATM    9  C9  UNL     1     -34.980   4.495   4.682  1.00 20.00     0.000 C 
BRANCH   9  10
HETATM   10  C7  UNL     1     -33.776   3.795   4.043  1.00 20.00    -0.005 C 
HETATM   11  C4  UNL     1     -33.040   2.862   4.992  1.00 20.00     0.005 C 
ENDBRANCH   9  10
ENDBRANCH   8   9
ENDBRANCH   1   8
TORSDOF 6
ENDMDL
MODEL 4
REMARK VINA RESULT:      -2.0      0.458      1.220
REMARK  6 active torsions:
REMARK  status: ('A' for Active; 'I' for Inactive)
REMARK    1  A    between atoms: C2_2  and  C6_6 
REMARK    2  A    between atoms: C6_6  and  C11_11 
REMARK    3  A    between atoms: C7_7  and  C9_9 
REMARK    4  A    between atoms: C8_8  and  C11_11 
REMARK    5  A    between atoms: C9_9  and  C10_10 
REMARK    6  A    between atoms: C10_10  and  C11_11 
ROOT
HETATM    1  C11 UNL     1     -32.735   7.257   1.916  1.00 20.00    -0.011 C 
ENDROOT
BRANCH   1   2
HETATM    2  C6  UNL     1     -31.792   8.448   1.611  1.00 20.00     0.037 C 
BRANCH   2   3
HETATM    3  C2  UNL     1     -32.346   9.466   0.638  1.00 20.00    -0.093 C 
HETATM    4  C1  UNL     1     -32.820  10.650   1.056  1.00 20.00     0.014 C 
HETATM    5  C3  UNL     1     -32.387   9.078  -0.812  1.00 20.00     0.042 C 
ENDBRANCH   2   3
ENDBRANCH   1   2
BRANCH   1   6
HETATM    6  C8  UNL     1     -32.150   5.930   1.384  1.00 20.00     0.000 C 
HETATM    7  C5  UNL     1     -33.129   5.113   0.553  1.00 20.00     0.005 C 
ENDBRANCH   1   6
BRANCH   1   8
HETATM    8  C10 UNL     1     -33.100   7.224   3.421  1.00 20.00     0.005 C 
BRANCH   8   9
HETATM    9  C9  UNL     1     -34.584   7.434   3.739  1.00 20.00     0.000 C 
BRANCH   9  10
HETATM   10  C7  UNL     1     -35.313   6.134   4.093  1.00 20.00    -0.005 C 
HETATM   11  C4  UNL     1     -34.411   4.909   4.085  1.00 20.00     0.005 C 
ENDBRANCH   9  10
ENDBRANCH   8   9
ENDBRANCH   1   8
TORSDOF 6
ENDMDL
MODEL 5
REMARK VINA RESULT:      -1.6      1.099      5.230
REMARK  6 active torsions:
REMARK  status: ('A' for Active; 'I' for Inactive)
REMARK    1  A    between atoms: C2_2  and  C6_6 
REMARK    2  A    between atoms: C6_6  and  C11_11 
REMARK    3  A    between atoms: C7_7  and  C9_9 
REMARK    4  A    between atoms: C8_8  and  C11_11 
REMARK    5  A    between atoms: C9_9  and  C10_10 
REMARK    6  A    between atoms: C10_10  and  C11_11 
ROOT
HETATM    1  C11 UNL     1     -33.530   7.076   2.741  1.00 20.00    -0.011 C 
ENDROOT
BRANCH   1   2
HETATM    2  C6  UNL     1     -33.519   5.528   2.676  1.00 20.00     0.037 C 
BRANCH   2   3
HETATM    3  C2  UNL     1     -34.240   4.838   3.814  1.00 20.00    -0.093 C 
HETATM    4  C1  UNL     1     -35.377   5.333   4.327  1.00 20.00     0.014 C 
HETATM    5  C3  UNL     1     -33.605   3.598   4.375  1.00 20.00     0.042 C 
ENDBRANCH   2   3
ENDBRANCH   1   2
BRANCH   1   6
HETATM    6  C8  UNL     1     -34.133   7.575   4.072  1.00 20.00     0.000 C 
HETATM    7  C5  UNL     1     -33.133   8.281   4.977  1.00 20.00     0.005 C 
ENDBRANCH   1   6
BRANCH   1   8
HETATM    8  C10 UNL     1     -32.121   7.643   2.439  1.00 20.00     0.005 C 
BRANCH   8   9
HETATM    9  C9  UNL     1     -31.927   8.195   1.023  1.00 20.00     0.000 C 
BRANCH   9  10
HETATM   10  C7  UNL     1     -32.388   9.648   0.875  1.00 20.00    -0.005 C 
HETATM   11  C4  UNL     1     -32.704  10.044  -0.559  1.00 20.00     0.005 C 
ENDBRANCH   9  10
ENDBRANCH   8   9
ENDBRANCH   1   8
TORSDOF 6
ENDMDL
MODEL 6
REMARK VINA RESULT:      -1.4      0.921      4.501
REMARK  6 active torsions:
REMARK  status: ('A' for Active; 'I' for Inactive)
REMARK    1  A    between atoms: C2_2  and  C6_6 
REMARK    2  A    between atoms: C6_6  and  C11_11 
REMARK    3  A    between atoms: C7_7  and  C9_9 
REMARK    4  A    between atoms: C8_8  and  C11_11 
REMARK    5  A    between atoms: C9_9  and  C10_10 
REMARK    6  A    between atoms: C10_10  and  C11_11 
ROOT
HETATM    1  C11 UNL     1     -33.433   7.143   2.658  1.00 20.00    -0.011 C 
ENDROOT
BRANCH   1   2
HETATM    2  C6  UNL     1     -32.961   5.672   2.545  1.00 20.00     0.037 C 
BRANCH   2   3
HETATM    3  C2  UNL     1     -32.665   5.205   1.135  1.00 20.00    -0.093 C 
HETATM    4  C1  UNL     1     -31.443   4.777   0.781  1.00 20.00     0.014 C 
HETATM    5  C3  UNL     1     -33.784   5.284   0.137  1.00 20.00     0.042 C 
ENDBRANCH   2   3
ENDBRANCH   1   2
BRANCH   1   6
HETATM    6  C8  UNL     1     -34.326   7.349   3.901  1.00 20.00     0.000 C 
HETATM    7  C5  UNL     1     -35.361   6.252   4.106  1.00 20.00     0.005 C 
ENDBRANCH   1   6
BRANCH   1   8
HETATM    8  C10 UNL     1     -32.224   8.109   2.587  1.00 20.00     0.005 C 
BRANCH   8   9
HETATM    9  C9  UNL     1     -31.833   8.566   1.178  1.00 20.00     0.000 C 
BRANCH   9  10
HETATM   10  C7  UNL     1     -32.431   9.924   0.799  1.00 20.00    -0.005 C 
HETATM   11  C4  UNL     1     -32.797  10.040  -0.673  1.00 20.00     0.005 C 
ENDBRANCH   9  10
ENDBRANCH   8   9
ENDBRANCH   1   8
TORSDOF 6
ENDMDL
MODEL 7
REMARK VINA RESULT:      -1.4      1.398      2.942
REMARK  6 active torsions:
REMARK  status: ('A' for Active; 'I' for Inactive)
REMARK    1  A    between atoms: C2_2  and  C6_6 
REMARK    2  A    between atoms: C6_6  and  C11_11 
REMARK    3  A    between atoms: C7_7  and  C9_9 
REMARK    4  A    between atoms: C8_8  and  C11_11 
REMARK    5  A    between atoms: C9_9  and  C10_10 
REMARK    6  A    between atoms: C10_10  and  C11_11 
ROOT
HETATM    1  C11 UNL     1     -33.309   6.440   2.976  1.00 20.00    -0.011 C 
ENDROOT
BRANCH   1   2
HETATM    2  C6  UNL     1     -33.075   7.063   1.578  1.00 20.00     0.037 C 
BRANCH   2   3
HETATM    3  C2  UNL     1     -32.142   8.255   1.559  1.00 20.00    -0.093 C 
HETATM    4  C1  UNL     1     -31.140   8.375   2.445  1.00 20.00     0.014 C 
HETATM    5  C3  UNL     1     -32.411   9.321   0.537  1.00 20.00     0.042 C 
ENDBRANCH   2   3
ENDBRANCH   1   2
BRANCH   1   6
HETATM    6  C8  UNL     1     -34.350   7.248   3.781  1.00 20.00     0.000 C 
HETATM    7  C5  UNL     1     -33.759   8.033   4.943  1.00 20.00     0.005 C 
ENDBRANCH   1   6
BRANCH   1   8
HETATM    8  C10 UNL     1     -33.644   4.933   2.852  1.00 20.00     0.005 C 
BRANCH   8   9
HETATM    9  C9  UNL     1     -34.173   4.272   4.129  1.00 20.00     0.000 C 
BRANCH   9  10
HETATM   10  C7  UNL     1     -33.427   2.984   4.492  1.00 20.00    -0.005 C 
HETATM   11  C4  UNL     1     -32.646   3.079   5.793  1.00 20.00     0.005 C 
ENDBRANCH   9  10
ENDBRANCH   8   9
ENDBRANCH   1   8
TORSDOF 6
ENDMDL
MODEL 8
REMARK VINA RESULT:      -1.0      1.011      3.237
REMARK  6 active torsions:
REMARK  status: ('A' for Active; 'I' for Inactive)
REMARK    1  A    between atoms: C2_2  and  C6_6 
REMARK    2  A    between atoms: C6_6  and  C11_11 
REMARK    3  A    between atoms: C7_7  and  C9_9 
REMARK    4  A    between atoms: C8_8  and  C11_11 
REMARK    5  A    between atoms: C9_9  and  C10_10 
REMARK    6  A    between atoms: C10_10  and  C11_11 
ROOT
HETATM    1  C11 UNL     1     -32.745   7.137   2.679  1.00 20.00    -0.011 C 
ENDROOT
BRANCH   1   2
HETATM    2  C6  UNL     1     -33.368   6.508   1.408  1.00 20.00     0.037 C 
BRANCH   2   3
HETATM    3  C2  UNL     1     -32.686   5.246   0.923  1.00 20.00    -0.093 C 
HETATM    4  C1  UNL     1     -31.448   4.918   1.325  1.00 20.00     0.014 C 
HETATM    5  C3  UNL     1     -33.436   4.397  -0.063  1.00 20.00     0.042 C 
ENDBRANCH   2   3
ENDBRANCH   1   2
BRANCH   1   6
HETATM    6  C8  UNL     1     -31.977   8.434   2.342  1.00 20.00     0.000 C 
HETATM    7  C5  UNL     1     -32.213   8.940   0.925  1.00 20.00     0.005 C 
ENDBRANCH   1   6
BRANCH   1   8
HETATM    8  C10 UNL     1     -33.819   7.312   3.781  1.00 20.00     0.005 C 
BRANCH   8   9
HETATM    9  C9  UNL     1     -35.082   6.462   3.606  1.00 20.00     0.000 C 
BRANCH   9  10
HETATM   10  C7  UNL     1     -35.111   5.235   4.522  1.00 20.00    -0.005 C 
HETATM   11  C4  UNL     1     -34.087   4.173   4.150  1.00 20.00     0.005 C 
ENDBRANCH   9  10
ENDBRANCH   8   9
ENDBRANCH   1   8
TORSDOF 6
ENDMDL
MODEL 9
REMARK VINA RESULT:      -0.9      1.274      4.197
REMARK  6 active torsions:
REMARK  status: ('A' for Active; 'I' for Inactive)
REMARK    1  A    between atoms: C2_2  and  C6_6 
REMARK    2  A    between atoms: C6_6  and  C11_11 
REMARK    3  A    between atoms: C7_7  and  C9_9 
REMARK    4  A    between atoms: C8_8  and  C11_11 
REMARK    5  A    between atoms: C9_9  and  C10_10 
REMARK    6  A    between atoms: C10_10  and  C11_11 
ROOT
HETATM    1  C11 UNL     1     -33.576   5.296   3.375  1.00 20.00    -0.011 C 
ENDROOT
BRANCH   1   2
HETATM    2  C6  UNL     1     -34.663   6.208   3.997  1.00 20.00     0.037 C 
BRANCH   2   3
HETATM    3  C2  UNL     1     -34.265   7.661   4.147  1.00 20.00    -0.093 C 
HETATM    4  C1  UNL     1     -34.809   8.620   3.382  1.00 20.00     0.014 C 
HETATM    5  C3  UNL     1     -33.201   7.979   5.158  1.00 20.00     0.042 C 
ENDBRANCH   2   3
ENDBRANCH   1   2
BRANCH   1   6
HETATM    6  C8  UNL     1     -33.866   3.806   3.661  1.00 20.00     0.000 C 
HETATM    7  C5  UNL     1     -33.116   3.251   4.863  1.00 20.00     0.005 C 
ENDBRANCH   1   6
BRANCH   1   8
HETATM    8  C10 UNL     1     -33.387   5.621   1.873  1.00 20.00     0.005 C 
BRANCH   8   9
HETATM    9  C9  UNL     1     -31.979   6.076   1.473  1.00 20.00     0.000 C 
BRANCH   9  10
HETATM   10  C7  UNL     1     -31.680   7.524   1.874  1.00 20.00    -0.005 C 
HETATM   11  C4  UNL     1     -32.158   8.549   0.857  1.00 20.00     0.005 C 
ENDBRANCH   9  10
ENDBRANCH   8   9
ENDBRANCH   1   8
TORSDOF 6
ENDMDL
