MODEL 1
REMARK VINA RESULT:       0.1      0.000      0.000
REMARK  1 active torsions:
REMARK  status: ('A' for Active; 'I' for Inactive)
REMARK    1  A    between atoms: C1_1  and  C5_5 
ROOT
HETATM    1  C1  UNL     1     -33.694   4.869   3.792  1.00 20.00    -0.097 C 
HETATM    2  C2  UNL     1     -33.520   3.801   4.312  1.00 20.00    -0.110 C 
HETATM    3  C7  UNL     1     -33.306   2.502   4.947  1.00 20.00     0.112 C 
ENDROOT
BRANCH   1   4
HETATM    4  C5  UNL     1     -33.906   6.163   3.159  1.00 20.00     0.027 C 
HETATM    5  C3  UNL     1     -32.995   7.299   3.720  1.00 20.00     0.024 C 
HETATM    6  C4  UNL     1     -32.778   7.792   2.276  1.00 20.00     0.012 C 
HETATM    7  C6  UNL     1     -33.148   6.365   1.770  1.00 20.00    -0.029 C 
HETATM    8  C9  UNL     1     -31.899   5.501   1.533  1.00 20.00     0.016 C 
HETATM    9  C10 UNL     1     -34.018   6.371   0.513  1.00 20.00     0.016 C 
HETATM   10  C8  UNL     1     -35.392   6.528   3.219  1.00 20.00     0.030 C 
ENDBRANCH   1   4
TORSDOF 1
ENDMDL
MODEL 2
REMARK VINA RESULT:       0.7      1.778      4.658
REMARK  1 active torsions:
REMARK  status: ('A' for Active; 'I' for Inactive)
REMARK    1  A    between atoms: C1_1  and  C5_5 
ROOT
HETATM    1  C1  UNL     1     -32.547   8.766   1.135  1.00 20.00    -0.097 C 
HETATM    2  C2  UNL     1     -32.638   9.606   0.282  1.00 20.00    -0.110 C 
HETATM    3  C7  UNL     1     -32.748  10.627  -0.758  1.00 20.00     0.112 C 
ENDROOT
BRANCH   1   4
HETATM    4  C5  UNL     1     -32.437   7.749   2.171  1.00 20.00     0.027 C 
HETATM    5  C3  UNL     1     -33.681   7.661   3.109  1.00 20.00     0.024 C 
HETATM    6  C4  UNL     1     -33.581   6.124   3.041  1.00 20.00     0.012 C 
HETATM    7  C6  UNL     1     -32.800   6.268   1.701  1.00 20.00    -0.029 C 
HETATM    8  C9  UNL     1     -33.728   6.139   0.482  1.00 20.00     0.016 C 
HETATM    9  C10 UNL     1     -31.633   5.289   1.568  1.00 20.00     0.016 C 
HETATM   10  C8  UNL     1     -31.134   7.948   2.952  1.00 20.00     0.030 C 
ENDBRANCH   1   4
TORSDOF 1
ENDMDL
MODEL 3
REMARK VINA RESULT:       1.4      0.822      2.284
REMARK  1 active torsions:
REMARK  status: ('A' for Active; 'I' for Inactive)
REMARK    1  A    between atoms: C1_1  and  C5_5 
ROOT
HETATM    1  C1  UNL     1     -33.653   4.910   3.726  1.00 20.00    -0.097 C 
HETATM    2  C2  UNL     1     -33.382   3.915   4.340  1.00 20.00    -0.110 C 
HETATM    3  C7  UNL     1     -33.049   2.703   5.087  1.00 20.00     0.112 C 
ENDROOT
BRANCH   1   4
HETATM    4  C5  UNL     1     -33.983   6.117   2.982  1.00 20.00     0.027 C 
HETATM    5  C3  UNL     1     -35.403   6.684   3.291  1.00 20.00     0.024 C 
HETATM    6  C4  UNL     1     -34.798   8.102   3.300  1.00 20.00     0.012 C 
HETATM    7  C6  UNL     1     -33.407   7.469   3.602  1.00 20.00    -0.029 C 
HETATM    8  C9  UNL     1     -33.098   7.461   5.108  1.00 20.00     0.016 C 
HETATM    9  C10 UNL     1     -32.257   8.133   2.842  1.00 20.00     0.016 C 
HETATM   10  C8  UNL     1     -33.770   5.872   1.485  1.00 20.00     0.030 C 
ENDBRANCH   1   4
TORSDOF 1
ENDMDL
MODEL 4
REMARK VINA RESULT:       1.5      1.340      4.009
REMARK  1 active torsions:
REMARK  status: ('A' for Active; 'I' for Inactive)
REMARK    1  A    between atoms: C1_1  and  C5_5 
ROOT
HETATM    1  C1  UNL     1     -32.824   7.899   2.507  1.00 20.00    -0.097 C 
HETATM    2  C2  UNL     1     -32.178   8.401   1.629  1.00 20.00    -0.110 C 
HETATM    3  C7  UNL     1     -31.390   9.015   0.562  1.00 20.00     0.112 C 
ENDROOT
BRANCH   1   4
HETATM    4  C5  UNL     1     -33.608   7.289   3.571  1.00 20.00     0.027 C 
HETATM    5  C3  UNL     1     -35.145   7.530   3.444  1.00 20.00     0.024 C 
HETATM    6  C4  UNL     1     -35.375   6.059   3.846  1.00 20.00     0.012 C 
HETATM    7  C6  UNL     1     -33.926   5.739   3.369  1.00 20.00    -0.029 C 
HETATM    8  C9  UNL     1     -33.904   5.212   1.924  1.00 20.00     0.016 C 
HETATM    9  C10 UNL     1     -33.185   4.764   4.286  1.00 20.00     0.016 C 
HETATM   10  C8  UNL     1     -33.063   7.732   4.932  1.00 20.00     0.030 C 
ENDBRANCH   1   4
TORSDOF 1
ENDMDL
MODEL 5
REMARK VINA RESULT:       1.6      1.316      4.364
REMARK  1 active torsions:
REMARK  status: ('A' for Active; 'I' for Inactive)
REMARK    1  A    between atoms: C1_1  and  C5_5 
ROOT
HETATM    1  C1  UNL     1     -32.886   7.902   1.222  1.00 20.00    -0.097 C 
HETATM    2  C2  UNL     1     -32.535   8.982   0.834  1.00 20.00    -0.110 C 
HETATM    3  C7  UNL     1     -32.108  10.298   0.362  1.00 20.00     0.112 C 
ENDROOT
BRANCH   1   4
HETATM    4  C5  UNL     1     -33.312   6.592   1.692  1.00 20.00     0.027 C 
HETATM    5  C3  UNL     1     -32.140   5.675   2.162  1.00 20.00     0.024 C 
HETATM    6  C4  UNL     1     -33.007   5.237   3.360  1.00 20.00     0.012 C 
HETATM    7  C6  UNL     1     -33.827   6.553   3.201  1.00 20.00    -0.029 C 
HETATM    8  C9  UNL     1     -33.315   7.662   4.134  1.00 20.00     0.016 C 
HETATM    9  C10 UNL     1     -35.331   6.361   3.404  1.00 20.00     0.016 C 
HETATM   10  C8  UNL     1     -34.182   5.920   0.625  1.00 20.00     0.030 C 
ENDBRANCH   1   4
TORSDOF 1
ENDMDL
MODEL 6
REMARK VINA RESULT:       2.4      0.977      2.587
REMARK  1 active torsions:
REMARK  status: ('A' for Active; 'I' for Inactive)
REMARK    1  A    between atoms: C1_1  and  C5_5 
ROOT
HETATM    1  C1  UNL     1     -32.903   4.512   2.917  1.00 20.00    -0.097 C 
HETATM    2  C2  UNL     1     -33.115   3.781   3.844  1.00 20.00    -0.110 C 
HETATM    3  C7  UNL     1     -33.371   2.889   4.975  1.00 20.00     0.112 C 
ENDROOT
BRANCH   1   4
HETATM    4  C5  UNL     1     -32.646   5.399   1.791  1.00 20.00     0.027 C 
HETATM    5  C3  UNL     1     -33.810   5.459   0.753  1.00 20.00     0.024 C 
HETATM    6  C4  UNL     1     -33.608   6.985   0.664  1.00 20.00     0.012 C 
HETATM    7  C6  UNL     1     -32.938   6.942   2.071  1.00 20.00    -0.029 C 
HETATM    8  C9  UNL     1     -33.941   7.264   3.191  1.00 20.00     0.016 C 
HETATM    9  C10 UNL     1     -31.718   7.857   2.192  1.00 20.00     0.016 C 
HETATM   10  C8  UNL     1     -31.308   5.034   1.142  1.00 20.00     0.030 C 
ENDBRANCH   1   4
TORSDOF 1
ENDMDL
MODEL 7
REMARK VINA RESULT:       2.9      2.096      3.394
REMARK  1 active torsions:
REMARK  status: ('A' for Active; 'I' for Inactive)
REMARK    1  A    between atoms: C1_1  and  C5_5 
ROOT
HETATM    1  C1  UNL     1     -33.308   7.436   2.950  1.00 20.00    -0.097 C 
HETATM    2  C2  UNL     1     -34.243   6.844   3.415  1.00 20.00    -0.110 C 
HETATM    3  C7  UNL     1     -35.382   6.124   3.981  1.00 20.00     0.112 C 
ENDROOT
BRANCH   1   4
HETATM    4  C5  UNL     1     -32.174   8.154   2.387  1.00 20.00     0.027 C 
HETATM    5  C3  UNL     1     -31.110   7.232   1.715  1.00 20.00     0.024 C 
HETATM    6  C4  UNL     1     -31.000   8.251   0.564  1.00 20.00     0.012 C 
HETATM    7  C6  UNL     1     -32.421   8.771   0.936  1.00 20.00    -0.029 C 
HETATM    8  C9  UNL     1     -33.514   8.108   0.081  1.00 20.00     0.016 C 
HETATM    9  C10 UNL     1     -32.554  10.293   0.855  1.00 20.00     0.016 C 
HETATM   10  C8  UNL     1     -31.561   9.067   3.453  1.00 20.00     0.030 C 
ENDBRANCH   1   4
TORSDOF 1
ENDMDL
