MODEL 1
REMARK VINA RESULT:      -1.3      0.000      0.000
REMARK  0 active torsions:
REMARK  status: ('A' for Active; 'I' for Inactive)
ROOT
HETATM    1  C1  UNL     1     -33.833   3.787   4.150  1.00 20.00     0.013 C 
HETATM    2  C2  UNL     1     -33.781   4.870   3.635  1.00 20.00    -0.104 C 
HETATM    3  C3  UNL     1     -34.128   6.260   1.560  1.00 20.00     0.069 A 
HETATM    4  C4  UNL     1     -33.718   6.172   3.015  1.00 20.00     0.057 A 
HETATM    5  C5  UNL     1     -32.675   6.411   1.928  1.00 20.00     0.133 A 
HETATM    6  C6  UNL     1     -34.141   7.297   3.926  1.00 20.00     0.032 C 
HETATM    7 CL7  UNL     1     -31.942   8.005   1.734  1.00 20.00    -0.100 Cl
HETATM    8 CL8  UNL     1     -31.579   5.112   1.439  1.00 20.00    -0.100 Cl
ENDROOT
TORSDOF 0
ENDMDL
MODEL 2
REMARK VINA RESULT:      -1.1      2.012      3.694
REMARK  0 active torsions:
REMARK  status: ('A' for Active; 'I' for Inactive)
ROOT
HETATM    1  C1  UNL     1     -31.656   8.637   1.488  1.00 20.00     0.013 C 
HETATM    2  C2  UNL     1     -32.119   7.540   1.643  1.00 20.00    -0.104 C 
HETATM    3  C3  UNL     1     -34.144   6.044   1.509  1.00 20.00     0.069 A 
HETATM    4  C4  UNL     1     -32.675   6.221   1.829  1.00 20.00     0.057 A 
HETATM    5  C5  UNL     1     -33.693   6.011   2.945  1.00 20.00     0.133 A 
HETATM    6  C6  UNL     1     -31.738   5.107   1.434  1.00 20.00     0.032 C 
HETATM    7 CL7  UNL     1     -33.775   4.466   3.795  1.00 20.00    -0.100 Cl
HETATM    8 CL8  UNL     1     -34.181   7.364   3.976  1.00 20.00    -0.100 Cl
ENDROOT
TORSDOF 0
ENDMDL
MODEL 3
REMARK VINA RESULT:      -0.6      1.449      1.585
REMARK  0 active torsions:
REMARK  status: ('A' for Active; 'I' for Inactive)
ROOT
HETATM    1  C1  UNL     1     -35.276   5.240   4.398  1.00 20.00     0.013 C 
HETATM    2  C2  UNL     1     -34.612   6.199   4.112  1.00 20.00    -0.104 C 
HETATM    3  C3  UNL     1     -34.210   8.114   2.522  1.00 20.00     0.069 A 
HETATM    4  C4  UNL     1     -33.813   7.351   3.768  1.00 20.00     0.057 A 
HETATM    5  C5  UNL     1     -32.950   7.289   2.511  1.00 20.00     0.133 A 
HETATM    6  C6  UNL     1     -33.363   8.154   4.963  1.00 20.00     0.032 C 
HETATM    7 CL7  UNL     1     -31.409   8.147   2.449  1.00 20.00    -0.100 Cl
HETATM    8 CL8  UNL     1     -32.944   5.837   1.502  1.00 20.00    -0.100 Cl
ENDROOT
TORSDOF 0
ENDMDL
MODEL 4
REMARK VINA RESULT:      -0.5      1.828      2.617
REMARK  0 active torsions:
REMARK  status: ('A' for Active; 'I' for Inactive)
ROOT
HETATM    1  C1  UNL     1     -34.031   7.858   4.502  1.00 20.00     0.013 C 
HETATM    2  C2  UNL     1     -33.518   7.479   3.484  1.00 20.00    -0.104 C 
HETATM    3  C3  UNL     1     -33.801   6.349   1.249  1.00 20.00     0.069 A 
HETATM    4  C4  UNL     1     -32.901   7.024   2.261  1.00 20.00     0.057 A 
HETATM    5  C5  UNL     1     -32.800   5.522   2.012  1.00 20.00     0.133 A 
HETATM    6  C6  UNL     1     -31.838   7.956   1.736  1.00 20.00     0.032 C 
HETATM    7 CL7  UNL     1     -31.431   4.859   1.117  1.00 20.00    -0.100 Cl
HETATM    8 CL8  UNL     1     -33.437   4.375   3.199  1.00 20.00    -0.100 Cl
ENDROOT
TORSDOF 0
ENDMDL
MODEL 5
REMARK VINA RESULT:      -0.4      2.433      3.338
REMARK  0 active torsions:
REMARK  status: ('A' for Active; 'I' for Inactive)
ROOT
HETATM    1  C1  UNL     1     -34.367   7.376   3.763  1.00 20.00     0.013 C 
HETATM    2  C2  UNL     1     -33.471   7.398   2.963  1.00 20.00    -0.104 C 
HETATM    3  C3  UNL     1     -31.201   8.295   2.333  1.00 20.00     0.069 A 
HETATM    4  C4  UNL     1     -32.395   7.425   2.002  1.00 20.00     0.057 A 
HETATM    5  C5  UNL     1     -32.139   8.717   1.232  1.00 20.00     0.133 A 
HETATM    6  C6  UNL     1     -32.125   6.088   1.358  1.00 20.00     0.032 C 
HETATM    7 CL7  UNL     1     -31.535   8.659  -0.426  1.00 20.00    -0.100 Cl
HETATM    8 CL8  UNL     1     -33.139  10.146   1.526  1.00 20.00    -0.100 Cl
ENDROOT
TORSDOF 0
ENDMDL
MODEL 6
REMARK VINA RESULT:      -0.3      2.427      3.806
REMARK  0 active torsions:
REMARK  status: ('A' for Active; 'I' for Inactive)
ROOT
HETATM    1  C1  UNL     1     -32.348   9.629   0.006  1.00 20.00     0.013 C 
HETATM    2  C2  UNL     1     -32.329   8.821   0.894  1.00 20.00    -0.104 C 
HETATM    3  C3  UNL     1     -31.550   6.565   1.703  1.00 20.00     0.069 A 
HETATM    4  C4  UNL     1     -32.307   7.850   1.961  1.00 20.00     0.057 A 
HETATM    5  C5  UNL     1     -33.054   6.535   1.764  1.00 20.00     0.133 A 
HETATM    6  C6  UNL     1     -32.191   8.462   3.334  1.00 20.00     0.032 C 
HETATM    7 CL7  UNL     1     -33.803   5.723   3.141  1.00 20.00    -0.100 Cl
HETATM    8 CL8  UNL     1     -33.917   6.215   0.253  1.00 20.00    -0.100 Cl
ENDROOT
TORSDOF 0
ENDMDL
MODEL 7
REMARK VINA RESULT:      -0.3      1.655      2.691
REMARK  0 active torsions:
REMARK  status: ('A' for Active; 'I' for Inactive)
ROOT
HETATM    1  C1  UNL     1     -32.540   5.128   0.945  1.00 20.00     0.013 C 
HETATM    2  C2  UNL     1     -33.096   5.569   1.914  1.00 20.00    -0.104 C 
HETATM    3  C3  UNL     1     -34.733   7.241   2.852  1.00 20.00     0.069 A 
HETATM    4  C4  UNL     1     -33.764   6.100   3.078  1.00 20.00     0.057 A 
HETATM    5  C5  UNL     1     -33.419   7.514   3.534  1.00 20.00     0.133 A 
HETATM    6  C6  UNL     1     -34.151   5.047   4.086  1.00 20.00     0.032 C 
HETATM    7 CL7  UNL     1     -33.455   7.929   5.250  1.00 20.00    -0.100 Cl
HETATM    8 CL8  UNL     1     -32.231   8.476   2.643  1.00 20.00    -0.100 Cl
ENDROOT
TORSDOF 0
ENDMDL
MODEL 8
REMARK VINA RESULT:       0.1      1.453      2.618
REMARK  0 active torsions:
REMARK  status: ('A' for Active; 'I' for Inactive)
ROOT
HETATM    1  C1  UNL     1     -33.246   8.429   5.095  1.00 20.00     0.013 C 
HETATM    2  C2  UNL     1     -33.612   7.589   4.318  1.00 20.00    -0.104 C 
HETATM    3  C3  UNL     1     -33.142   5.387   3.185  1.00 20.00     0.069 A 
HETATM    4  C4  UNL     1     -34.051   6.580   3.384  1.00 20.00     0.057 A 
HETATM    5  C5  UNL     1     -33.274   6.405   2.083  1.00 20.00     0.133 A 
HETATM    6  C6  UNL     1     -35.537   6.325   3.425  1.00 20.00     0.032 C 
HETATM    7 CL7  UNL     1     -34.110   5.913   0.608  1.00 20.00    -0.100 Cl
HETATM    8 CL8  UNL     1     -31.862   7.414   1.743  1.00 20.00    -0.100 Cl
ENDROOT
TORSDOF 0
ENDMDL
MODEL 9
REMARK VINA RESULT:       0.1      1.816      2.455
REMARK  0 active torsions:
REMARK  status: ('A' for Active; 'I' for Inactive)
ROOT
HETATM    1  C1  UNL     1     -34.545   5.871   3.923  1.00 20.00     0.013 C 
HETATM    2  C2  UNL     1     -33.918   6.167   2.942  1.00 20.00    -0.104 C 
HETATM    3  C3  UNL     1     -31.673   6.274   1.802  1.00 20.00     0.069 A 
HETATM    4  C4  UNL     1     -33.165   6.523   1.763  1.00 20.00     0.057 A 
HETATM    5  C5  UNL     1     -32.186   7.689   1.850  1.00 20.00     0.133 A 
HETATM    6  C6  UNL     1     -33.887   6.229   0.472  1.00 20.00     0.032 C 
HETATM    7 CL7  UNL     1     -31.897   8.715   0.443  1.00 20.00    -0.100 Cl
HETATM    8 CL8  UNL     1     -31.979   8.572   3.369  1.00 20.00    -0.100 Cl
ENDROOT
TORSDOF 0
ENDMDL
