MODEL 1
REMARK VINA RESULT:       1.2      0.000      0.000
REMARK  0 active torsions:
REMARK  status: ('A' for Active; 'I' for Inactive)
ROOT
HETATM    1  C1  UNL     1     -32.155   6.878   1.829  1.00 20.00    -0.012 C 
HETATM    2  C2  UNL     1     -32.244   7.946   2.644  1.00 20.00    -0.016 C 
HETATM    3  C3  UNL     1     -33.397   5.044   2.772  1.00 20.00    -0.010 C 
HETATM    4  C4  UNL     1     -34.222   5.005   4.042  1.00 20.00     0.014 C 
HETATM    5  C5  UNL     1     -33.425   6.190   2.018  1.00 20.00     0.051 C 
HETATM    6  C6  UNL     1     -33.589   7.986   3.239  1.00 20.00     0.034 C 
HETATM    7  C7  UNL     1     -34.430   7.232   2.470  1.00 20.00     0.224 C 
HETATM    8  C8  UNL     1     -34.829   6.195   4.368  1.00 20.00     0.216 C 
HETATM    9  C9  UNL     1     -33.858   7.432   4.660  1.00 20.00     0.066 C 
HETATM   10  N10 UNL     1     -35.488   6.713   3.225  1.00 20.00     0.115 N 
HETATM   11  H17 UNL     1     -36.238   7.370   3.424  1.00 20.00     0.318 HD
ENDROOT
TORSDOF 0
ENDMDL
MODEL 2
REMARK VINA RESULT:       1.3      1.339      3.207
REMARK  0 active torsions:
REMARK  status: ('A' for Active; 'I' for Inactive)
ROOT
HETATM    1  C1  UNL     1     -34.336   5.958   3.880  1.00 20.00    -0.012 C 
HETATM    2  C2  UNL     1     -33.758   5.119   2.999  1.00 20.00    -0.016 C 
HETATM    3  C3  UNL     1     -33.048   7.986   4.018  1.00 20.00    -0.010 C 
HETATM    4  C4  UNL     1     -31.805   8.381   3.247  1.00 20.00     0.014 C 
HETATM    5  C5  UNL     1     -34.022   7.280   3.358  1.00 20.00     0.051 C 
HETATM    6  C6  UNL     1     -33.197   5.902   1.887  1.00 20.00     0.034 C 
HETATM    7  C7  UNL     1     -33.803   7.126   1.865  1.00 20.00     0.224 C 
HETATM    8  C8  UNL     1     -31.737   7.871   1.971  1.00 20.00     0.216 C 
HETATM    9  C9  UNL     1     -31.696   6.277   1.844  1.00 20.00     0.066 C 
HETATM   10  N10 UNL     1     -32.967   8.102   1.308  1.00 20.00     0.115 N 
HETATM   11  H17 UNL     1     -32.915   8.095   0.293  1.00 20.00     0.318 HD
ENDROOT
TORSDOF 0
ENDMDL
MODEL 3
REMARK VINA RESULT:       1.7      1.488      2.865
REMARK  0 active torsions:
REMARK  status: ('A' for Active; 'I' for Inactive)
ROOT
HETATM    1  C1  UNL     1     -34.576   5.579   3.593  1.00 20.00    -0.012 C 
HETATM    2  C2  UNL     1     -35.139   6.773   3.860  1.00 20.00    -0.016 C 
HETATM    3  C3  UNL     1     -32.874   5.855   1.913  1.00 20.00    -0.010 C 
HETATM    4  C4  UNL     1     -32.397   7.124   1.238  1.00 20.00     0.014 C 
HETATM    5  C5  UNL     1     -33.202   5.914   3.244  1.00 20.00     0.051 C 
HETATM    6  C6  UNL     1     -34.105   7.818   3.794  1.00 20.00     0.034 C 
HETATM    7  C7  UNL     1     -32.880   7.230   3.927  1.00 20.00     0.224 C 
HETATM    8  C8  UNL     1     -32.462   8.251   2.024  1.00 20.00     0.216 C 
HETATM    9  C9  UNL     1     -33.918   8.685   2.525  1.00 20.00     0.066 C 
HETATM   10  N10 UNL     1     -31.882   7.974   3.287  1.00 20.00     0.115 N 
HETATM   11  H17 UNL     1     -31.559   8.791   3.799  1.00 20.00     0.318 HD
ENDROOT
TORSDOF 0
ENDMDL
MODEL 4
REMARK VINA RESULT:       1.9      1.158      2.860
REMARK  0 active torsions:
REMARK  status: ('A' for Active; 'I' for Inactive)
ROOT
HETATM    1  C1  UNL     1     -33.854   8.057   4.108  1.00 20.00    -0.012 C 
HETATM    2  C2  UNL     1     -34.246   6.823   4.480  1.00 20.00    -0.016 C 
HETATM    3  C3  UNL     1     -32.172   7.881   2.395  1.00 20.00    -0.010 C 
HETATM    4  C4  UNL     1     -31.611   6.639   1.733  1.00 20.00     0.014 C 
HETATM    5  C5  UNL     1     -33.510   7.903   2.701  1.00 20.00     0.051 C 
HETATM    6  C6  UNL     1     -34.258   5.946   3.298  1.00 20.00     0.034 C 
HETATM    7  C7  UNL     1     -34.308   6.725   2.176  1.00 20.00     0.224 C 
HETATM    8  C8  UNL     1     -32.504   5.598   1.619  1.00 20.00     0.216 C 
HETATM    9  C9  UNL     1     -33.075   4.998   2.987  1.00 20.00     0.066 C 
HETATM   10  N10 UNL     1     -33.721   6.082   1.080  1.00 20.00     0.115 N 
HETATM   11  H17 UNL     1     -34.302   5.378   0.632  1.00 20.00     0.318 HD
ENDROOT
TORSDOF 0
ENDMDL
MODEL 5
REMARK VINA RESULT:       2.3      1.761      3.008
REMARK  0 active torsions:
REMARK  status: ('A' for Active; 'I' for Inactive)
ROOT
HETATM    1  C1  UNL     1     -32.382   9.414   1.957  1.00 20.00    -0.012 C 
HETATM    2  C2  UNL     1     -32.478   9.061   0.660  1.00 20.00    -0.016 C 
HETATM    3  C3  UNL     1     -33.243   7.639   3.335  1.00 20.00    -0.010 C 
HETATM    4  C4  UNL     1     -33.779   6.284   2.921  1.00 20.00     0.014 C 
HETATM    5  C5  UNL     1     -32.171   8.149   2.646  1.00 20.00     0.051 C 
HETATM    6  C6  UNL     1     -32.213   7.619   0.534  1.00 20.00     0.034 C 
HETATM    7  C7  UNL     1     -31.540   7.200   1.647  1.00 20.00     0.224 C 
HETATM    8  C8  UNL     1     -33.193   5.756   1.794  1.00 20.00     0.216 C 
HETATM    9  C9  UNL     1     -33.369   6.594   0.443  1.00 20.00     0.066 C 
HETATM   10  N10 UNL     1     -31.784   5.847   1.913  1.00 20.00     0.115 N 
HETATM   11  H17 UNL     1     -31.262   5.193   1.335  1.00 20.00     0.318 HD
ENDROOT
TORSDOF 0
ENDMDL
MODEL 6
REMARK VINA RESULT:       2.3      1.258      2.455
REMARK  0 active torsions:
REMARK  status: ('A' for Active; 'I' for Inactive)
ROOT
HETATM    1  C1  UNL     1     -32.032   8.607   3.475  1.00 20.00    -0.012 C 
HETATM    2  C2  UNL     1     -32.933   7.981   4.257  1.00 20.00    -0.016 C 
HETATM    3  C3  UNL     1     -31.355   7.135   1.695  1.00 20.00    -0.010 C 
HETATM    4  C4  UNL     1     -31.838   5.734   1.381  1.00 20.00     0.014 C 
HETATM    5  C5  UNL     1     -32.273   8.048   2.152  1.00 20.00     0.051 C 
HETATM    6  C6  UNL     1     -33.795   7.136   3.415  1.00 20.00     0.034 C 
HETATM    7  C7  UNL     1     -33.714   7.578   2.125  1.00 20.00     0.224 C 
HETATM    8  C8  UNL     1     -33.152   5.493   1.711  1.00 20.00     0.216 C 
HETATM    9  C9  UNL     1     -33.530   5.619   3.260  1.00 20.00     0.066 C 
HETATM   10  N10 UNL     1     -33.960   6.545   1.213  1.00 20.00     0.115 N 
HETATM   11  H17 UNL     1     -34.940   6.308   1.083  1.00 20.00     0.318 HD
ENDROOT
TORSDOF 0
ENDMDL
MODEL 7
REMARK VINA RESULT:       2.5      1.281      2.335
REMARK  0 active torsions:
REMARK  status: ('A' for Active; 'I' for Inactive)
ROOT
HETATM    1  C1  UNL     1     -32.243   8.459   2.632  1.00 20.00    -0.012 C 
HETATM    2  C2  UNL     1     -32.252   7.777   1.471  1.00 20.00    -0.016 C 
HETATM    3  C3  UNL     1     -34.060   7.704   4.019  1.00 20.00    -0.010 C 
HETATM    4  C4  UNL     1     -35.074   6.612   3.750  1.00 20.00     0.014 C 
HETATM    5  C5  UNL     1     -32.769   7.505   3.599  1.00 20.00     0.051 C 
HETATM    6  C6  UNL     1     -32.664   6.388   1.732  1.00 20.00     0.034 C 
HETATM    7  C7  UNL     1     -32.475   6.119   3.058  1.00 20.00     0.224 C 
HETATM    8  C8  UNL     1     -34.603   5.567   2.990  1.00 20.00     0.216 C 
HETATM    9  C9  UNL     1     -34.124   5.926   1.507  1.00 20.00     0.066 C 
HETATM   10  N10 UNL     1     -33.359   5.132   3.511  1.00 20.00     0.115 N 
HETATM   11  H17 UNL     1     -33.102   4.179   3.268  1.00 20.00     0.318 HD
ENDROOT
TORSDOF 0
ENDMDL
MODEL 8
REMARK VINA RESULT:       2.8      1.248      3.146
REMARK  0 active torsions:
REMARK  status: ('A' for Active; 'I' for Inactive)
ROOT
HETATM    1  C1  UNL     1     -34.236   4.757   3.936  1.00 20.00    -0.012 C 
HETATM    2  C2  UNL     1     -33.302   4.097   3.223  1.00 20.00    -0.016 C 
HETATM    3  C3  UNL     1     -33.730   7.110   3.934  1.00 20.00    -0.010 C 
HETATM    4  C4  UNL     1     -32.604   7.843   3.235  1.00 20.00     0.014 C 
HETATM    5  C5  UNL     1     -34.319   6.055   3.282  1.00 20.00     0.051 C 
HETATM    6  C6  UNL     1     -32.899   4.927   2.076  1.00 20.00     0.034 C 
HETATM    7  C7  UNL     1     -33.872   5.858   1.847  1.00 20.00     0.224 C 
HETATM    8  C8  UNL     1     -32.206   7.280   2.045  1.00 20.00     0.216 C 
HETATM    9  C9  UNL     1     -31.618   5.795   2.122  1.00 20.00     0.066 C 
HETATM   10  N10 UNL     1     -33.348   7.010   1.250  1.00 20.00     0.115 N 
HETATM   11  H17 UNL     1     -33.167   6.934   0.252  1.00 20.00     0.318 HD
ENDROOT
TORSDOF 0
ENDMDL
MODEL 9
REMARK VINA RESULT:       3.7      1.326      2.553
REMARK  0 active torsions:
REMARK  status: ('A' for Active; 'I' for Inactive)
ROOT
HETATM    1  C1  UNL     1     -32.360   6.431   1.214  1.00 20.00    -0.012 C 
HETATM    2  C2  UNL     1     -33.181   5.488   1.714  1.00 20.00    -0.016 C 
HETATM    3  C3  UNL     1     -33.037   8.594   2.026  1.00 20.00    -0.010 C 
HETATM    4  C4  UNL     1     -34.154   8.946   2.986  1.00 20.00     0.014 C 
HETATM    5  C5  UNL     1     -32.321   7.446   2.258  1.00 20.00     0.051 C 
HETATM    6  C6  UNL     1     -33.552   5.854   3.091  1.00 20.00     0.034 C 
HETATM    7  C7  UNL     1     -32.635   6.748   3.567  1.00 20.00     0.224 C 
HETATM    8  C8  UNL     1     -34.412   7.989   3.939  1.00 20.00     0.216 C 
HETATM    9  C9  UNL     1     -34.893   6.561   3.402  1.00 20.00     0.066 C 
HETATM   10  N10 UNL     1     -33.194   7.585   4.540  1.00 20.00     0.115 N 
HETATM   11  H17 UNL     1     -33.288   7.170   5.463  1.00 20.00     0.318 HD
ENDROOT
TORSDOF 0
ENDMDL
