MODEL 1
REMARK VINA RESULT:      -2.1      0.000      0.000
REMARK  1 active torsions:
REMARK  status: ('A' for Active; 'I' for Inactive)
REMARK    1  A    between atoms: C5_5  and  C6_6 
ROOT
HETATM    1  C1  UNL     1     -35.240   6.929   3.373  1.00 20.00     0.024 A 
HETATM    2  C2  UNL     1     -32.818   7.872   3.040  1.00 20.00     0.275 C 
HETATM    3  C3  UNL     1     -33.253   5.682   2.221  1.00 20.00     0.285 C 
HETATM    4  C4  UNL     1     -33.874   7.272   3.908  1.00 20.00     0.030 A 
HETATM    5  C5  UNL     1     -34.135   5.895   3.420  1.00 20.00     0.051 A 
HETATM    6  N7  UNL     1     -32.762   7.022   1.834  1.00 20.00     0.084 N 
HETATM    7  H18 UNL     1     -33.413   7.407   1.149  1.00 20.00     0.315 HD
ENDROOT
BRANCH   5   8
HETATM    8  C6  UNL     1     -34.253   4.759   4.386  1.00 20.00     0.363 C 
HETATM    9  F8  UNL     1     -33.881   3.598   3.786  1.00 20.00    -0.214 F 
HETATM   10  F9  UNL     1     -35.551   4.600   4.759  1.00 20.00    -0.214 F 
ENDBRANCH   5   8
TORSDOF 1
ENDMDL
MODEL 2
REMARK VINA RESULT:      -2.1      2.468      3.173
REMARK  1 active torsions:
REMARK  status: ('A' for Active; 'I' for Inactive)
REMARK    1  A    between atoms: C5_5  and  C6_6 
ROOT
HETATM    1  C1  UNL     1     -33.528   7.424   4.038  1.00 20.00     0.024 A 
HETATM    2  C2  UNL     1     -35.626   5.858   4.156  1.00 20.00     0.275 C 
HETATM    3  C3  UNL     1     -33.563   4.864   3.512  1.00 20.00     0.285 C 
HETATM    4  C4  UNL     1     -34.821   6.908   3.463  1.00 20.00     0.030 A 
HETATM    5  C5  UNL     1     -33.542   6.290   3.034  1.00 20.00     0.051 A 
HETATM    6  N7  UNL     1     -34.674   4.777   4.484  1.00 20.00     0.084 N 
HETATM    7  H18 UNL     1     -34.293   4.967   5.412  1.00 20.00     0.315 HD
ENDROOT
BRANCH   5   8
HETATM    8  C6  UNL     1     -33.004   6.538   1.661  1.00 20.00     0.363 C 
HETATM    9  F8  UNL     1     -32.778   5.356   1.030  1.00 20.00    -0.214 F 
HETATM   10  F9  UNL     1     -31.802   7.167   1.740  1.00 20.00    -0.214 F 
ENDBRANCH   5   8
TORSDOF 1
ENDMDL
MODEL 3
REMARK VINA RESULT:      -1.8      0.627      1.181
REMARK  1 active torsions:
REMARK  status: ('A' for Active; 'I' for Inactive)
REMARK    1  A    between atoms: C5_5  and  C6_6 
ROOT
HETATM    1  C1  UNL     1     -35.458   6.816   3.409  1.00 20.00     0.024 A 
HETATM    2  C2  UNL     1     -33.140   7.955   3.854  1.00 20.00     0.275 C 
HETATM    3  C3  UNL     1     -33.181   6.140   2.316  1.00 20.00     0.285 C 
HETATM    4  C4  UNL     1     -34.244   7.041   4.272  1.00 20.00     0.030 A 
HETATM    5  C5  UNL     1     -34.261   5.891   3.333  1.00 20.00     0.051 A 
HETATM    6  N7  UNL     1     -32.795   7.559   2.473  1.00 20.00     0.084 N 
HETATM    7  H18 UNL     1     -33.370   8.111   1.836  1.00 20.00     0.315 HD
ENDROOT
BRANCH   5   8
HETATM    8  C6  UNL     1     -34.398   4.494   3.849  1.00 20.00     0.363 C 
HETATM    9  F8  UNL     1     -35.188   4.482   4.955  1.00 20.00    -0.214 F 
HETATM   10  F9  UNL     1     -33.184   4.023   4.241  1.00 20.00    -0.214 F 
ENDBRANCH   5   8
TORSDOF 1
ENDMDL
MODEL 4
REMARK VINA RESULT:      -1.6      3.036      3.889
REMARK  1 active torsions:
REMARK  status: ('A' for Active; 'I' for Inactive)
REMARK    1  A    between atoms: C5_5  and  C6_6 
ROOT
HETATM    1  C1  UNL     1     -33.446   6.016   1.036  1.00 20.00     0.024 A 
HETATM    2  C2  UNL     1     -33.590   5.024   3.457  1.00 20.00     0.275 C 
HETATM    3  C3  UNL     1     -33.963   7.361   3.217  1.00 20.00     0.285 C 
HETATM    4  C4  UNL     1     -32.790   5.485   2.284  1.00 20.00     0.030 A 
HETATM    5  C5  UNL     1     -32.996   6.948   2.142  1.00 20.00     0.051 A 
HETATM    6  N7  UNL     1     -34.554   6.108   3.735  1.00 20.00     0.084 N 
HETATM    7  H18 UNL     1     -35.402   5.918   3.199  1.00 20.00     0.315 HD
ENDROOT
BRANCH   5   8
HETATM    8  C6  UNL     1     -31.834   7.856   1.890  1.00 20.00     0.363 C 
HETATM    9  F8  UNL     1     -31.445   8.446   3.051  1.00 20.00    -0.214 F 
HETATM   10  F9  UNL     1     -32.204   8.862   1.053  1.00 20.00    -0.214 F 
ENDBRANCH   5   8
TORSDOF 1
ENDMDL
MODEL 5
REMARK VINA RESULT:      -1.4      1.283      2.126
REMARK  1 active torsions:
REMARK  status: ('A' for Active; 'I' for Inactive)
REMARK    1  A    between atoms: C5_5  and  C6_6 
ROOT
HETATM    1  C1  UNL     1     -33.193   5.145   3.372  1.00 20.00     0.024 A 
HETATM    2  C2  UNL     1     -32.811   6.934   1.496  1.00 20.00     0.275 C 
HETATM    3  C3  UNL     1     -33.257   7.739   3.689  1.00 20.00     0.285 C 
HETATM    4  C4  UNL     1     -33.674   5.923   2.175  1.00 20.00     0.030 A 
HETATM    5  C5  UNL     1     -33.979   6.428   3.537  1.00 20.00     0.051 A 
HETATM    6  N7  UNL     1     -32.291   7.803   2.571  1.00 20.00     0.084 N 
HETATM    7  H18 UNL     1     -31.409   7.404   2.897  1.00 20.00     0.315 HD
ENDROOT
BRANCH   5   8
HETATM    8  C6  UNL     1     -35.372   6.355   4.078  1.00 20.00     0.363 C 
HETATM    9  F8  UNL     1     -35.633   5.095   4.516  1.00 20.00    -0.214 F 
HETATM   10  F9  UNL     1     -36.268   6.610   3.088  1.00 20.00    -0.214 F 
ENDBRANCH   5   8
TORSDOF 1
ENDMDL
MODEL 6
REMARK VINA RESULT:      -1.4      2.632      3.401
REMARK  1 active torsions:
REMARK  status: ('A' for Active; 'I' for Inactive)
REMARK    1  A    between atoms: C5_5  and  C6_6 
ROOT
HETATM    1  C1  UNL     1     -33.790   5.804   2.100  1.00 20.00     0.024 A 
HETATM    2  C2  UNL     1     -34.105   4.368   4.270  1.00 20.00     0.275 C 
HETATM    3  C3  UNL     1     -35.326   6.405   4.128  1.00 20.00     0.285 C 
HETATM    4  C4  UNL     1     -33.302   5.313   3.438  1.00 20.00     0.030 A 
HETATM    5  C5  UNL     1     -34.044   6.597   3.365  1.00 20.00     0.051 A 
HETATM    6  N7  UNL     1     -35.462   4.946   4.334  1.00 20.00     0.084 N 
HETATM    7  H18 UNL     1     -36.000   4.570   3.551  1.00 20.00     0.315 HD
ENDROOT
BRANCH   5   8
HETATM    8  C6  UNL     1     -33.329   7.896   3.556  1.00 20.00     0.363 C 
HETATM    9  F8  UNL     1     -32.200   7.920   2.800  1.00 20.00    -0.214 F 
HETATM   10  F9  UNL     1     -32.928   8.020   4.849  1.00 20.00    -0.214 F 
ENDBRANCH   5   8
TORSDOF 1
ENDMDL
MODEL 7
REMARK VINA RESULT:      -1.1      2.874      3.671
REMARK  1 active torsions:
REMARK  status: ('A' for Active; 'I' for Inactive)
REMARK    1  A    between atoms: C5_5  and  C6_6 
ROOT
HETATM    1  C1  UNL     1     -33.606   6.139   1.173  1.00 20.00     0.024 A 
HETATM    2  C2  UNL     1     -33.638   4.976   3.520  1.00 20.00     0.275 C 
HETATM    3  C3  UNL     1     -34.155   7.296   3.451  1.00 20.00     0.285 C 
HETATM    4  C4  UNL     1     -32.893   5.564   2.369  1.00 20.00     0.030 A 
HETATM    5  C5  UNL     1     -33.189   7.019   2.333  1.00 20.00     0.051 A 
HETATM    6  N7  UNL     1     -34.659   5.977   3.890  1.00 20.00     0.084 N 
HETATM    7  H18 UNL     1     -35.505   5.773   3.357  1.00 20.00     0.315 HD
ENDROOT
BRANCH   5   8
HETATM    8  C6  UNL     1     -32.089   8.010   2.124  1.00 20.00     0.363 C 
HETATM    9  F8  UNL     1     -31.026   7.406   1.531  1.00 20.00    -0.214 F 
HETATM   10  F9  UNL     1     -31.647   8.472   3.324  1.00 20.00    -0.214 F 
ENDBRANCH   5   8
TORSDOF 1
ENDMDL
MODEL 8
REMARK VINA RESULT:      -1.1      3.554      4.296
REMARK  1 active torsions:
REMARK  status: ('A' for Active; 'I' for Inactive)
REMARK    1  A    between atoms: C5_5  and  C6_6 
ROOT
HETATM    1  C1  UNL     1     -31.749   8.206   3.092  1.00 20.00     0.024 A 
HETATM    2  C2  UNL     1     -33.967   6.821   3.266  1.00 20.00     0.275 C 
HETATM    3  C3  UNL     1     -32.519   6.328   1.445  1.00 20.00     0.285 C 
HETATM    4  C4  UNL     1     -33.240   8.078   2.921  1.00 20.00     0.030 A 
HETATM    5  C5  UNL     1     -32.352   7.787   1.768  1.00 20.00     0.051 A 
HETATM    6  N7  UNL     1     -33.220   5.733   2.603  1.00 20.00     0.084 N 
HETATM    7  H18 UNL     1     -32.512   5.395   3.257  1.00 20.00     0.315 HD
ENDROOT
BRANCH   5   8
HETATM    8  C6  UNL     1     -32.277   8.733   0.612  1.00 20.00     0.363 C 
HETATM    9  F8  UNL     1     -30.997   8.818   0.163  1.00 20.00    -0.214 F 
HETATM   10  F9  UNL     1     -32.627   9.984   1.013  1.00 20.00    -0.214 F 
ENDBRANCH   5   8
TORSDOF 1
ENDMDL
MODEL 9
REMARK VINA RESULT:      -1.0      2.129      2.852
REMARK  1 active torsions:
REMARK  status: ('A' for Active; 'I' for Inactive)
REMARK    1  A    between atoms: C5_5  and  C6_6 
ROOT
HETATM    1  C1  UNL     1     -32.955   8.510   1.547  1.00 20.00     0.024 A 
HETATM    2  C2  UNL     1     -31.461   6.358   1.606  1.00 20.00     0.275 C 
HETATM    3  C3  UNL     1     -33.710   6.141   2.350  1.00 20.00     0.285 C 
HETATM    4  C4  UNL     1     -31.872   7.675   2.177  1.00 20.00     0.030 A 
HETATM    5  C5  UNL     1     -33.267   7.542   2.668  1.00 20.00     0.051 A 
HETATM    6  N7  UNL     1     -32.715   5.605   1.396  1.00 20.00     0.084 N 
HETATM    7  H18 UNL     1     -33.047   5.808   0.452  1.00 20.00     0.315 HD
ENDROOT
BRANCH   5   8
HETATM    8  C6  UNL     1     -33.654   8.089   4.005  1.00 20.00     0.363 C 
HETATM    9  F8  UNL     1     -32.606   8.002   4.864  1.00 20.00    -0.214 F 
HETATM   10  F9  UNL     1     -34.653   7.339   4.541  1.00 20.00    -0.214 F 
ENDBRANCH   5   8
TORSDOF 1
ENDMDL
