MODEL 1
REMARK VINA RESULT:      -1.8      0.000      0.000
REMARK  0 active torsions:
REMARK  status: ('A' for Active; 'I' for Inactive)
ROOT
HETATM    1  C1  UNL     1     -33.582   6.371   2.855  1.00 20.00    -0.075 C 
HETATM    2  C2  UNL     1     -32.707   6.440   1.849  1.00 20.00     0.015 C 
HETATM    3  C3  UNL     1     -33.982   7.350   3.935  1.00 20.00     0.036 C 
HETATM    4  C4  UNL     1     -35.217   6.441   4.103  1.00 20.00     0.024 C 
HETATM    5  C5  UNL     1     -34.538   5.291   3.321  1.00 20.00     0.086 C 
HETATM    6 BR6  UNL     1     -33.682   3.927   4.393  1.00 20.00    -0.086 Br
ENDROOT
TORSDOF 0
ENDMDL
MODEL 2
REMARK VINA RESULT:      -1.8      1.742      2.520
REMARK  0 active torsions:
REMARK  status: ('A' for Active; 'I' for Inactive)
ROOT
HETATM    1  C1  UNL     1     -34.191   5.269   3.887  1.00 20.00    -0.075 C 
HETATM    2  C2  UNL     1     -34.031   3.987   4.221  1.00 20.00     0.015 C 
HETATM    3  C3  UNL     1     -35.387   6.194   3.910  1.00 20.00     0.036 C 
HETATM    4  C4  UNL     1     -34.339   7.320   3.804  1.00 20.00     0.024 C 
HETATM    5  C5  UNL     1     -33.243   6.325   3.355  1.00 20.00     0.086 C 
HETATM    6 BR6  UNL     1     -32.948   6.194   1.448  1.00 20.00    -0.086 Br
ENDROOT
TORSDOF 0
ENDMDL
MODEL 3
REMARK VINA RESULT:      -1.6      2.932      3.438
REMARK  0 active torsions:
REMARK  status: ('A' for Active; 'I' for Inactive)
ROOT
HETATM    1  C1  UNL     1     -32.713   6.569   1.893  1.00 20.00    -0.075 C 
HETATM    2  C2  UNL     1     -32.469   5.496   1.138  1.00 20.00     0.015 C 
HETATM    3  C3  UNL     1     -33.797   6.893   2.896  1.00 20.00     0.036 C 
HETATM    4  C4  UNL     1     -32.835   8.005   3.362  1.00 20.00     0.024 C 
HETATM    5  C5  UNL     1     -32.001   7.896   2.063  1.00 20.00     0.086 C 
HETATM    6 BR6  UNL     1     -32.427   9.173   0.674  1.00 20.00    -0.086 Br
ENDROOT
TORSDOF 0
ENDMDL
MODEL 4
REMARK VINA RESULT:      -1.1      2.281      3.196
REMARK  0 active torsions:
REMARK  status: ('A' for Active; 'I' for Inactive)
ROOT
HETATM    1  C1  UNL     1     -33.845   6.547   3.132  1.00 20.00    -0.075 C 
HETATM    2  C2  UNL     1     -34.625   7.145   4.035  1.00 20.00     0.015 C 
HETATM    3  C3  UNL     1     -33.207   5.178   3.073  1.00 20.00     0.036 C 
HETATM    4  C4  UNL     1     -33.035   5.479   1.570  1.00 20.00     0.024 C 
HETATM    5  C5  UNL     1     -33.286   6.989   1.794  1.00 20.00     0.086 C 
HETATM    6 BR6  UNL     1     -31.707   8.095   1.956  1.00 20.00    -0.086 Br
ENDROOT
TORSDOF 0
ENDMDL
MODEL 5
REMARK VINA RESULT:      -0.8      1.925      2.618
REMARK  0 active torsions:
REMARK  status: ('A' for Active; 'I' for Inactive)
ROOT
HETATM    1  C1  UNL     1     -32.606   7.021   1.970  1.00 20.00    -0.075 C 
HETATM    2  C2  UNL     1     -32.064   8.213   1.709  1.00 20.00     0.015 C 
HETATM    3  C3  UNL     1     -32.899   5.816   1.105  1.00 20.00     0.036 C 
HETATM    4  C4  UNL     1     -33.013   5.060   2.444  1.00 20.00     0.024 C 
HETATM    5  C5  UNL     1     -33.140   6.383   3.236  1.00 20.00     0.086 C 
HETATM    6 BR6  UNL     1     -34.941   6.941   3.669  1.00 20.00    -0.086 Br
ENDROOT
TORSDOF 0
ENDMDL
MODEL 6
REMARK VINA RESULT:      -0.7      2.360      3.003
REMARK  0 active torsions:
REMARK  status: ('A' for Active; 'I' for Inactive)
ROOT
HETATM    1  C1  UNL     1     -32.426   6.544   1.652  1.00 20.00    -0.075 C 
HETATM    2  C2  UNL     1     -32.458   5.256   1.304  1.00 20.00     0.015 C 
HETATM    3  C3  UNL     1     -31.306   7.556   1.738  1.00 20.00     0.036 C 
HETATM    4  C4  UNL     1     -32.441   8.600   1.748  1.00 20.00     0.024 C 
HETATM    5  C5  UNL     1     -33.495   7.522   2.096  1.00 20.00     0.086 C 
HETATM    6 BR6  UNL     1     -33.950   7.356   3.969  1.00 20.00    -0.086 Br
ENDROOT
TORSDOF 0
ENDMDL
MODEL 7
REMARK VINA RESULT:      -0.6      1.986      2.999
REMARK  0 active torsions:
REMARK  status: ('A' for Active; 'I' for Inactive)
ROOT
HETATM    1  C1  UNL     1     -34.419   6.298   3.608  1.00 20.00    -0.075 C 
HETATM    2  C2  UNL     1     -35.451   5.700   4.208  1.00 20.00     0.015 C 
HETATM    3  C3  UNL     1     -33.294   5.778   2.743  1.00 20.00     0.036 C 
HETATM    4  C4  UNL     1     -33.115   7.255   2.335  1.00 20.00     0.024 C 
HETATM    5  C5  UNL     1     -33.957   7.740   3.539  1.00 20.00     0.086 C 
HETATM    6 BR6  UNL     1     -32.960   8.296   5.101  1.00 20.00    -0.086 Br
ENDROOT
TORSDOF 0
ENDMDL
MODEL 8
REMARK VINA RESULT:      -0.6      2.036      3.164
REMARK  0 active torsions:
REMARK  status: ('A' for Active; 'I' for Inactive)
ROOT
HETATM    1  C1  UNL     1     -33.170   7.385   2.743  1.00 20.00    -0.075 C 
HETATM    2  C2  UNL     1     -34.060   7.307   3.735  1.00 20.00     0.015 C 
HETATM    3  C3  UNL     1     -32.643   8.544   1.927  1.00 20.00     0.036 C 
HETATM    4  C4  UNL     1     -31.504   7.575   1.550  1.00 20.00     0.024 C 
HETATM    5  C5  UNL     1     -32.317   6.352   2.035  1.00 20.00     0.086 C 
HETATM    6 BR6  UNL     1     -33.280   5.379   0.667  1.00 20.00    -0.086 Br
ENDROOT
TORSDOF 0
ENDMDL
MODEL 9
REMARK VINA RESULT:       0.1      1.769      2.436
REMARK  0 active torsions:
REMARK  status: ('A' for Active; 'I' for Inactive)
ROOT
HETATM    1  C1  UNL     1     -33.930   7.396   4.171  1.00 20.00    -0.075 C 
HETATM    2  C2  UNL     1     -33.164   8.168   4.945  1.00 20.00     0.015 C 
HETATM    3  C3  UNL     1     -34.993   6.366   4.482  1.00 20.00     0.036 C 
HETATM    4  C4  UNL     1     -35.401   6.552   3.006  1.00 20.00     0.024 C 
HETATM    5  C5  UNL     1     -34.057   7.240   2.669  1.00 20.00     0.086 C 
HETATM    6 BR6  UNL     1     -32.692   6.104   1.903  1.00 20.00    -0.086 Br
ENDROOT
TORSDOF 0
ENDMDL
