MODEL 1
REMARK VINA RESULT:      -1.3      0.000      0.000
REMARK  1 active torsions:
REMARK  status: ('A' for Active; 'I' for Inactive)
REMARK    1  A    between atoms: C6_6  and  C10_10 
ROOT
HETATM    1  C1  UNL     1     -33.362   5.574   1.947  1.00 20.00     0.142 A 
HETATM    2  C2  UNL     1     -35.014   4.949   4.637  1.00 20.00     0.006 C 
HETATM    3  C3  UNL     1     -35.105   6.192   3.743  1.00 20.00     0.019 C 
HETATM    4  C4  UNL     1     -33.085   4.936   3.213  1.00 20.00     0.076 A 
HETATM    5  C5  UNL     1     -34.058   4.001   3.891  1.00 20.00    -0.006 C 
HETATM    6  C6  UNL     1     -33.717   6.315   3.148  1.00 20.00     0.034 A 
HETATM    7  C7  UNL     1     -33.382   3.013   4.825  1.00 20.00     0.011 C 
HETATM    8  O11 UNL     1     -32.667   5.836   0.986  1.00 20.00    -0.297 OA
ENDROOT
BRANCH   6   9
HETATM    9  C10 UNL     1     -32.915   7.500   3.598  1.00 20.00    -0.006 C 
HETATM   10  C8  UNL     1     -32.547   8.413   2.416  1.00 20.00     0.011 C 
HETATM   11  C9  UNL     1     -33.663   8.315   4.664  1.00 20.00     0.011 C 
ENDBRANCH   6   9
TORSDOF 1
ENDMDL
MODEL 2
REMARK VINA RESULT:      -0.2      1.463      4.127
REMARK  1 active torsions:
REMARK  status: ('A' for Active; 'I' for Inactive)
REMARK    1  A    between atoms: C6_6  and  C10_10 
ROOT
HETATM    1  C1  UNL     1     -32.150   6.210   1.438  1.00 20.00     0.142 A 
HETATM    2  C2  UNL     1     -31.984   9.317   2.263  1.00 20.00     0.006 C 
HETATM    3  C3  UNL     1     -31.943   8.093   3.187  1.00 20.00     0.019 C 
HETATM    4  C4  UNL     1     -32.757   7.441   0.985  1.00 20.00     0.076 A 
HETATM    5  C5  UNL     1     -31.985   8.730   0.840  1.00 20.00    -0.006 C 
HETATM    6  C6  UNL     1     -32.764   7.053   2.452  1.00 20.00     0.034 A 
HETATM    7  C7  UNL     1     -32.598   9.681  -0.174  1.00 20.00     0.011 C 
HETATM    8  O11 UNL     1     -32.306   5.049   1.121  1.00 20.00    -0.297 OA
ENDROOT
BRANCH   6   9
HETATM    9  C10 UNL     1     -34.068   6.677   3.094  1.00 20.00    -0.006 C 
HETATM   10  C8  UNL     1     -34.053   5.221   3.588  1.00 20.00     0.011 C 
HETATM   11  C9  UNL     1     -34.413   7.614   4.261  1.00 20.00     0.011 C 
ENDBRANCH   6   9
TORSDOF 1
ENDMDL
MODEL 3
REMARK VINA RESULT:       0.6      2.136      3.499
REMARK  1 active torsions:
REMARK  status: ('A' for Active; 'I' for Inactive)
REMARK    1  A    between atoms: C6_6  and  C10_10 
ROOT
HETATM    1  C1  UNL     1     -31.820   8.185   3.167  1.00 20.00     0.142 A 
HETATM    2  C2  UNL     1     -33.484   5.686   2.008  1.00 20.00     0.006 C 
HETATM    3  C3  UNL     1     -32.191   6.296   1.452  1.00 20.00     0.019 C 
HETATM    4  C4  UNL     1     -33.216   7.833   3.041  1.00 20.00     0.076 A 
HETATM    5  C5  UNL     1     -33.740   6.445   3.322  1.00 20.00    -0.006 C 
HETATM    6  C6  UNL     1     -32.274   7.755   1.854  1.00 20.00     0.034 A 
HETATM    7  C7  UNL     1     -35.206   6.430   3.719  1.00 20.00     0.011 C 
HETATM    8  O11 UNL     1     -31.254   9.184   3.562  1.00 20.00    -0.297 OA
ENDROOT
BRANCH   6   9
HETATM    9  C10 UNL     1     -32.446   8.733   0.729  1.00 20.00    -0.006 C 
HETATM   10  C8  UNL     1     -32.840  10.126   1.249  1.00 20.00     0.011 C 
HETATM   11  C9  UNL     1     -31.172   8.844  -0.122  1.00 20.00     0.011 C 
ENDBRANCH   6   9
TORSDOF 1
ENDMDL
MODEL 4
REMARK VINA RESULT:       1.4      1.617      3.982
REMARK  1 active torsions:
REMARK  status: ('A' for Active; 'I' for Inactive)
REMARK    1  A    between atoms: C6_6  and  C10_10 
ROOT
HETATM    1  C1  UNL     1     -34.840   6.876   2.965  1.00 20.00     0.142 A 
HETATM    2  C2  UNL     1     -32.039   6.185   1.538  1.00 20.00     0.006 C 
HETATM    3  C3  UNL     1     -33.253   5.267   1.724  1.00 20.00     0.019 C 
HETATM    4  C4  UNL     1     -33.450   7.207   3.185  1.00 20.00     0.076 A 
HETATM    5  C5  UNL     1     -32.503   7.556   2.063  1.00 20.00    -0.006 C 
HETATM    6  C6  UNL     1     -33.898   5.768   3.000  1.00 20.00     0.034 A 
HETATM    7  C7  UNL     1     -31.340   8.424   2.513  1.00 20.00     0.011 C 
HETATM    8  O11 UNL     1     -35.854   7.122   3.585  1.00 20.00    -0.297 OA
ENDROOT
BRANCH   6   9
HETATM    9  C10 UNL     1     -33.836   4.836   4.174  1.00 20.00    -0.006 C 
HETATM   10  C8  UNL     1     -35.206   4.698   4.857  1.00 20.00     0.011 C 
HETATM   11  C9  UNL     1     -33.323   3.447   3.764  1.00 20.00     0.011 C 
ENDBRANCH   6   9
TORSDOF 1
ENDMDL
MODEL 5
REMARK VINA RESULT:       1.7      1.959      3.063
REMARK  1 active torsions:
REMARK  status: ('A' for Active; 'I' for Inactive)
REMARK    1  A    between atoms: C6_6  and  C10_10 
ROOT
HETATM    1  C1  UNL     1     -32.147   7.717   1.901  1.00 20.00     0.142 A 
HETATM    2  C2  UNL     1     -33.489   5.080   0.633  1.00 20.00     0.006 C 
HETATM    3  C3  UNL     1     -34.195   6.327   1.180  1.00 20.00     0.019 C 
HETATM    4  C4  UNL     1     -31.875   6.297   1.922  1.00 20.00     0.076 A 
HETATM    5  C5  UNL     1     -31.990   5.422   0.697  1.00 20.00    -0.006 C 
HETATM    6  C6  UNL     1     -33.254   6.840   2.250  1.00 20.00     0.034 A 
HETATM    7  C7  UNL     1     -31.119   4.180   0.769  1.00 20.00     0.011 C 
HETATM    8  O11 UNL     1     -31.631   8.663   2.459  1.00 20.00    -0.297 OA
ENDROOT
BRANCH   6   9
HETATM    9  C10 UNL     1     -33.753   6.740   3.662  1.00 20.00    -0.006 C 
HETATM   10  C8  UNL     1     -33.727   8.106   4.367  1.00 20.00     0.011 C 
HETATM   11  C9  UNL     1     -35.174   6.158   3.718  1.00 20.00     0.011 C 
ENDBRANCH   6   9
TORSDOF 1
ENDMDL
