MODEL 1
REMARK VINA RESULT:      -3.3      0.000      0.000
REMARK  0 active torsions:
REMARK  status: ('A' for Active; 'I' for Inactive)
ROOT
HETATM    1  C1  UNL     1     -32.495   5.631   1.554  1.00 20.00     0.017 A 
HETATM    2  C2  UNL     1     -31.866   6.809   1.446  1.00 20.00     0.054 A 
HETATM    3  C3  UNL     1     -33.437   7.799   3.139  1.00 20.00     0.060 A 
HETATM    4  C4  UNL     1     -34.077   6.622   3.258  1.00 20.00    -0.044 A 
HETATM    5  C5  UNL     1     -33.664   5.403   2.467  1.00 20.00     0.221 A 
HETATM    6  C6  UNL     1     -32.267   8.022   2.226  1.00 20.00     0.280 A 
HETATM    7  C7  UNL     1     -35.245   6.445   4.183  1.00 20.00     0.046 C 
HETATM    8  F8  UNL     1     -33.368   4.381   3.323  1.00 20.00    -0.240 F 
HETATM    9  F9  UNL     1     -31.203   8.460   2.958  1.00 20.00    -0.197 F 
HETATM   10  F10 UNL     1     -32.555   9.040   1.365  1.00 20.00    -0.197 F 
ENDROOT
TORSDOF 0
ENDMDL
MODEL 2
REMARK VINA RESULT:      -2.7      1.860      2.816
REMARK  0 active torsions:
REMARK  status: ('A' for Active; 'I' for Inactive)
ROOT
HETATM    1  C1  UNL     1     -32.648   8.023   2.840  1.00 20.00     0.017 A 
HETATM    2  C2  UNL     1     -32.226   7.322   1.779  1.00 20.00     0.054 A 
HETATM    3  C3  UNL     1     -33.741   5.427   2.430  1.00 20.00     0.060 A 
HETATM    4  C4  UNL     1     -34.175   6.118   3.499  1.00 20.00    -0.044 A 
HETATM    5  C5  UNL     1     -33.665   7.505   3.815  1.00 20.00     0.221 A 
HETATM    6  C6  UNL     1     -32.726   5.948   1.456  1.00 20.00     0.280 A 
HETATM    7  C7  UNL     1     -35.192   5.556   4.448  1.00 20.00     0.046 C 
HETATM    8  F8  UNL     1     -34.714   8.377   3.868  1.00 20.00    -0.240 F 
HETATM    9  F9  UNL     1     -33.262   5.946   0.202  1.00 20.00    -0.197 F 
HETATM   10  F10 UNL     1     -31.672   5.085   1.399  1.00 20.00    -0.197 F 
ENDROOT
TORSDOF 0
ENDMDL
MODEL 3
REMARK VINA RESULT:      -2.1      1.902      3.097
REMARK  0 active torsions:
REMARK  status: ('A' for Active; 'I' for Inactive)
ROOT
HETATM    1  C1  UNL     1     -33.712   5.394   2.832  1.00 20.00     0.017 A 
HETATM    2  C2  UNL     1     -34.230   6.184   3.782  1.00 20.00     0.054 A 
HETATM    3  C3  UNL     1     -32.925   8.129   2.873  1.00 20.00     0.060 A 
HETATM    4  C4  UNL     1     -32.398   7.348   1.913  1.00 20.00    -0.044 A 
HETATM    5  C5  UNL     1     -32.743   5.883   1.794  1.00 20.00     0.221 A 
HETATM    6  C6  UNL     1     -33.895   7.638   3.907  1.00 20.00     0.280 A 
HETATM    7  C7  UNL     1     -31.429   7.883   0.899  1.00 20.00     0.046 C 
HETATM    8  F8  UNL     1     -33.256   5.632   0.554  1.00 20.00    -0.240 F 
HETATM    9  F9  UNL     1     -35.041   8.373   3.834  1.00 20.00    -0.197 F 
HETATM   10  F10 UNL     1     -33.389   7.880   5.150  1.00 20.00    -0.197 F 
ENDROOT
TORSDOF 0
ENDMDL
MODEL 4
REMARK VINA RESULT:      -2.0      2.084      3.335
REMARK  0 active torsions:
REMARK  status: ('A' for Active; 'I' for Inactive)
ROOT
HETATM    1  C1  UNL     1     -33.379   4.719   3.028  1.00 20.00     0.017 A 
HETATM    2  C2  UNL     1     -34.424   5.166   3.737  1.00 20.00     0.054 A 
HETATM    3  C3  UNL     1     -33.913   7.515   3.004  1.00 20.00     0.060 A 
HETATM    4  C4  UNL     1     -32.862   7.080   2.288  1.00 20.00    -0.044 A 
HETATM    5  C5  UNL     1     -32.484   5.618   2.226  1.00 20.00     0.221 A 
HETATM    6  C6  UNL     1     -34.808   6.612   3.803  1.00 20.00     0.280 A 
HETATM    7  C7  UNL     1     -31.993   8.020   1.504  1.00 20.00     0.046 C 
HETATM    8  F8  UNL     1     -32.482   5.200   0.927  1.00 20.00    -0.240 F 
HETATM    9  F9  UNL     1     -36.094   6.758   3.374  1.00 20.00    -0.197 F 
HETATM   10  F10 UNL     1     -34.812   7.020   5.104  1.00 20.00    -0.197 F 
ENDROOT
TORSDOF 0
ENDMDL
MODEL 5
REMARK VINA RESULT:      -2.0      1.887      2.762
REMARK  0 active torsions:
REMARK  status: ('A' for Active; 'I' for Inactive)
ROOT
HETATM    1  C1  UNL     1     -34.223   7.297   3.603  1.00 20.00     0.017 A 
HETATM    2  C2  UNL     1     -33.534   7.436   2.462  1.00 20.00     0.054 A 
HETATM    3  C3  UNL     1     -33.006   4.979   2.485  1.00 20.00     0.060 A 
HETATM    4  C4  UNL     1     -33.696   4.825   3.629  1.00 20.00    -0.044 A 
HETATM    5  C5  UNL     1     -34.384   5.984   4.312  1.00 20.00     0.221 A 
HETATM    6  C6  UNL     1     -32.850   6.293   1.777  1.00 20.00     0.280 A 
HETATM    7  C7  UNL     1     -33.824   3.490   4.304  1.00 20.00     0.046 C 
HETATM    8  F8  UNL     1     -35.714   5.711   4.448  1.00 20.00    -0.240 F 
HETATM    9  F9  UNL     1     -33.328   6.178   0.505  1.00 20.00    -0.197 F 
HETATM   10  F10 UNL     1     -31.523   6.576   1.641  1.00 20.00    -0.197 F 
ENDROOT
TORSDOF 0
ENDMDL
MODEL 6
REMARK VINA RESULT:      -1.9      1.405      3.593
REMARK  0 active torsions:
REMARK  status: ('A' for Active; 'I' for Inactive)
ROOT
HETATM    1  C1  UNL     1     -33.015   8.253   3.079  1.00 20.00     0.017 A 
HETATM    2  C2  UNL     1     -33.967   7.717   3.853  1.00 20.00     0.054 A 
HETATM    3  C3  UNL     1     -33.835   5.583   2.532  1.00 20.00     0.060 A 
HETATM    4  C4  UNL     1     -32.877   6.108   1.748  1.00 20.00    -0.044 A 
HETATM    5  C5  UNL     1     -32.363   7.515   1.945  1.00 20.00     0.221 A 
HETATM    6  C6  UNL     1     -34.482   6.323   3.666  1.00 20.00     0.280 A 
HETATM    7  C7  UNL     1     -32.258   5.331   0.623  1.00 20.00     0.046 C 
HETATM    8  F8  UNL     1     -31.014   7.485   2.151  1.00 20.00    -0.240 F 
HETATM    9  F9  UNL     1     -34.307   5.619   4.821  1.00 20.00    -0.197 F 
HETATM   10  F10 UNL     1     -35.831   6.361   3.467  1.00 20.00    -0.197 F 
ENDROOT
TORSDOF 0
ENDMDL
MODEL 7
REMARK VINA RESULT:      -1.6      1.803      4.200
REMARK  0 active torsions:
REMARK  status: ('A' for Active; 'I' for Inactive)
ROOT
HETATM    1  C1  UNL     1     -35.341   5.941   4.335  1.00 20.00     0.017 A 
HETATM    2  C2  UNL     1     -34.979   4.680   4.601  1.00 20.00     0.054 A 
HETATM    3  C3  UNL     1     -32.973   4.944   3.111  1.00 20.00     0.060 A 
HETATM    4  C4  UNL     1     -33.324   6.212   2.835  1.00 20.00    -0.044 A 
HETATM    5  C5  UNL     1     -34.560   6.847   3.428  1.00 20.00     0.221 A 
HETATM    6  C6  UNL     1     -33.755   4.041   4.020  1.00 20.00     0.280 A 
HETATM    7  C7  UNL     1     -32.512   7.078   1.917  1.00 20.00     0.046 C 
HETATM    8  F8  UNL     1     -34.210   7.973   4.117  1.00 20.00    -0.240 F 
HETATM    9  F9  UNL     1     -32.947   3.611   5.031  1.00 20.00    -0.197 F 
HETATM   10  F10 UNL     1     -34.112   2.915   3.339  1.00 20.00    -0.197 F 
ENDROOT
TORSDOF 0
ENDMDL
MODEL 8
REMARK VINA RESULT:      -1.4      1.578      3.299
REMARK  0 active torsions:
REMARK  status: ('A' for Active; 'I' for Inactive)
ROOT
HETATM    1  C1  UNL     1     -33.936   6.229   3.431  1.00 20.00     0.017 A 
HETATM    2  C2  UNL     1     -33.500   5.233   2.648  1.00 20.00     0.054 A 
HETATM    3  C3  UNL     1     -32.153   6.879   1.309  1.00 20.00     0.060 A 
HETATM    4  C4  UNL     1     -32.583   7.888   2.087  1.00 20.00    -0.044 A 
HETATM    5  C5  UNL     1     -33.529   7.661   3.243  1.00 20.00     0.221 A 
HETATM    6  C6  UNL     1     -32.560   5.447   1.502  1.00 20.00     0.280 A 
HETATM    7  C7  UNL     1     -32.150   9.306   1.856  1.00 20.00     0.046 C 
HETATM    8  F8  UNL     1     -32.961   8.118   4.397  1.00 20.00    -0.240 F 
HETATM    9  F9  UNL     1     -31.445   4.683   1.684  1.00 20.00    -0.197 F 
HETATM   10  F10 UNL     1     -33.133   4.983   0.355  1.00 20.00    -0.197 F 
ENDROOT
TORSDOF 0
ENDMDL
MODEL 9
REMARK VINA RESULT:      -1.1      1.424      3.456
REMARK  0 active torsions:
REMARK  status: ('A' for Active; 'I' for Inactive)
ROOT
HETATM    1  C1  UNL     1     -32.816   6.188   1.438  1.00 20.00     0.017 A 
HETATM    2  C2  UNL     1     -33.853   5.650   2.093  1.00 20.00     0.054 A 
HETATM    3  C3  UNL     1     -33.574   7.347   3.925  1.00 20.00     0.060 A 
HETATM    4  C4  UNL     1     -32.531   7.898   3.278  1.00 20.00    -0.044 A 
HETATM    5  C5  UNL     1     -32.042   7.367   1.951  1.00 20.00     0.221 A 
HETATM    6  C6  UNL     1     -34.347   6.169   3.407  1.00 20.00     0.280 A 
HETATM    7  C7  UNL     1     -31.785   9.075   3.835  1.00 20.00     0.046 C 
HETATM    8  F8  UNL     1     -32.077   8.364   1.019  1.00 20.00    -0.240 F 
HETATM    9  F9  UNL     1     -35.663   6.511   3.293  1.00 20.00    -0.197 F 
HETATM   10  F10 UNL     1     -34.314   5.167   4.332  1.00 20.00    -0.197 F 
ENDROOT
TORSDOF 0
ENDMDL
