MODEL 1
REMARK VINA RESULT:      -1.8      0.000      0.000
REMARK  4 active torsions:
REMARK  status: ('A' for Active; 'I' for Inactive)
REMARK    1  A    between atoms: C1_1  and  C7_7 
REMARK    2  A    between atoms: C2_2  and  C9_9 
REMARK    3  A    between atoms: C9_9  and  C11_11 
REMARK    4  A    between atoms: C10_10  and  C11_11 
ROOT
HETATM    1  C1  UNL     1     -33.290   7.511   3.068  1.00 20.00    -0.098 C 
HETATM    2  C2  UNL     1     -34.248   6.897   3.452  1.00 20.00    -0.106 C 
ENDROOT
BRANCH   1   3
HETATM    3  C7  UNL     1     -32.119   8.261   2.599  1.00 20.00     0.087 C 
HETATM    4  C4  UNL     1     -31.501   7.569   1.425  1.00 20.00    -0.014 C 
HETATM    5  C3  UNL     1     -31.731   8.217   0.279  1.00 20.00    -0.029 C 
HETATM    6  C5  UNL     1     -32.551   9.444   0.493  1.00 20.00     0.028 C 
HETATM    7  C6  UNL     1     -32.499   9.627   2.013  1.00 20.00     0.025 C 
ENDBRANCH   1   3
BRANCH   2   8
HETATM    8  C9  UNL     1     -35.420   6.146   3.920  1.00 20.00     0.094 C 
BRANCH   8   9
HETATM    9  C11 UNL     1     -35.003   4.862   4.636  1.00 20.00     0.012 C 
BRANCH   9  10
HETATM   10  C10 UNL     1     -33.892   4.137   3.875  1.00 20.00    -0.004 C 
HETATM   11  C8  UNL     1     -33.316   2.991   4.691  1.00 20.00     0.005 C 
ENDBRANCH   9  10
ENDBRANCH   8   9
ENDBRANCH   2   8
TORSDOF 4
ENDMDL
MODEL 2
REMARK VINA RESULT:      -1.2      0.911      1.268
REMARK  4 active torsions:
REMARK  status: ('A' for Active; 'I' for Inactive)
REMARK    1  A    between atoms: C1_1  and  C7_7 
REMARK    2  A    between atoms: C2_2  and  C9_9 
REMARK    3  A    between atoms: C9_9  and  C11_11 
REMARK    4  A    between atoms: C10_10  and  C11_11 
ROOT
HETATM    1  C1  UNL     1     -32.665   8.126   2.247  1.00 20.00    -0.098 C 
HETATM    2  C2  UNL     1     -33.362   7.363   2.860  1.00 20.00    -0.106 C 
ENDROOT
BRANCH   1   3
HETATM    3  C7  UNL     1     -31.814   9.058   1.499  1.00 20.00     0.087 C 
HETATM    4  C4  UNL     1     -31.548   8.523   0.127  1.00 20.00    -0.014 C 
HETATM    5  C3  UNL     1     -32.221   9.192  -0.814  1.00 20.00    -0.029 C 
HETATM    6  C5  UNL     1     -33.059  10.278  -0.228  1.00 20.00     0.028 C 
HETATM    7  C6  UNL     1     -32.524  10.385   1.203  1.00 20.00     0.025 C 
ENDBRANCH   1   3
BRANCH   2   8
HETATM    8  C9  UNL     1     -34.213   6.431   3.611  1.00 20.00     0.094 C 
BRANCH   8   9
HETATM    9  C11 UNL     1     -33.840   4.979   3.311  1.00 20.00     0.012 C 
BRANCH   9  10
HETATM   10  C10 UNL     1     -34.188   4.062   4.485  1.00 20.00    -0.004 C 
HETATM   11  C8  UNL     1     -33.119   3.002   4.698  1.00 20.00     0.005 C 
ENDBRANCH   9  10
ENDBRANCH   8   9
ENDBRANCH   2   8
TORSDOF 4
ENDMDL
MODEL 3
REMARK VINA RESULT:      -0.8      1.348      2.388
REMARK  4 active torsions:
REMARK  status: ('A' for Active; 'I' for Inactive)
REMARK    1  A    between atoms: C1_1  and  C7_7 
REMARK    2  A    between atoms: C2_2  and  C9_9 
REMARK    3  A    between atoms: C9_9  and  C11_11 
REMARK    4  A    between atoms: C10_10  and  C11_11 
ROOT
HETATM    1  C1  UNL     1     -32.230   7.558   1.504  1.00 20.00    -0.098 C 
HETATM    2  C2  UNL     1     -32.751   6.520   1.810  1.00 20.00    -0.106 C 
ENDROOT
BRANCH   1   3
HETATM    3  C7  UNL     1     -31.594   8.827   1.131  1.00 20.00     0.087 C 
HETATM    4  C4  UNL     1     -31.609   8.992  -0.355  1.00 20.00    -0.014 C 
HETATM    5  C3  UNL     1     -32.493   9.913  -0.752  1.00 20.00    -0.029 C 
HETATM    6  C5  UNL     1     -33.226  10.509   0.403  1.00 20.00     0.028 C 
HETATM    7  C6  UNL     1     -32.400  10.043   1.606  1.00 20.00     0.025 C 
ENDBRANCH   1   3
BRANCH   2   8
HETATM    8  C9  UNL     1     -33.387   5.250   2.186  1.00 20.00     0.094 C 
BRANCH   8   9
HETATM    9  C11 UNL     1     -33.955   5.315   3.603  1.00 20.00     0.012 C 
BRANCH   9  10
HETATM   10  C10 UNL     1     -34.907   6.501   3.767  1.00 20.00    -0.004 C 
HETATM   11  C8  UNL     1     -34.234   7.659   4.487  1.00 20.00     0.005 C 
ENDBRANCH   9  10
ENDBRANCH   8   9
ENDBRANCH   2   8
TORSDOF 4
ENDMDL
MODEL 4
REMARK VINA RESULT:      -0.2      0.780      1.214
REMARK  4 active torsions:
REMARK  status: ('A' for Active; 'I' for Inactive)
REMARK    1  A    between atoms: C1_1  and  C7_7 
REMARK    2  A    between atoms: C2_2  and  C9_9 
REMARK    3  A    between atoms: C9_9  and  C11_11 
REMARK    4  A    between atoms: C10_10  and  C11_11 
ROOT
HETATM    1  C1  UNL     1     -33.265   6.830   2.215  1.00 20.00    -0.098 C 
HETATM    2  C2  UNL     1     -34.098   6.565   3.038  1.00 20.00    -0.106 C 
ENDROOT
BRANCH   1   3
HETATM    3  C7  UNL     1     -32.245   7.153   1.210  1.00 20.00     0.087 C 
HETATM    4  C4  UNL     1     -32.842   7.992   0.125  1.00 20.00    -0.014 C 
HETATM    5  C3  UNL     1     -32.439   9.265   0.192  1.00 20.00    -0.029 C 
HETATM    6  C5  UNL     1     -31.515   9.492   1.341  1.00 20.00     0.028 C 
HETATM    7  C6  UNL     1     -31.148   8.068   1.768  1.00 20.00     0.025 C 
ENDBRANCH   1   3
BRANCH   2   8
HETATM    8  C9  UNL     1     -35.118   6.239   4.044  1.00 20.00     0.094 C 
BRANCH   8   9
HETATM    9  C11 UNL     1     -34.927   4.822   4.584  1.00 20.00     0.012 C 
BRANCH   9  10
HETATM   10  C10 UNL     1     -33.822   4.082   3.828  1.00 20.00    -0.004 C 
HETATM   11  C8  UNL     1     -33.177   3.011   4.693  1.00 20.00     0.005 C 
ENDBRANCH   9  10
ENDBRANCH   8   9
ENDBRANCH   2   8
TORSDOF 4
ENDMDL
MODEL 5
REMARK VINA RESULT:       0.2      1.079      5.536
REMARK  4 active torsions:
REMARK  status: ('A' for Active; 'I' for Inactive)
REMARK    1  A    between atoms: C1_1  and  C7_7 
REMARK    2  A    between atoms: C2_2  and  C9_9 
REMARK    3  A    between atoms: C9_9  and  C11_11 
REMARK    4  A    between atoms: C10_10  and  C11_11 
ROOT
HETATM    1  C1  UNL     1     -33.309   6.641   2.330  1.00 20.00    -0.098 C 
HETATM    2  C2  UNL     1     -32.446   7.454   2.141  1.00 20.00    -0.106 C 
ENDROOT
BRANCH   1   3
HETATM    3  C7  UNL     1     -34.364   5.647   2.561  1.00 20.00     0.087 C 
HETATM    4  C4  UNL     1     -33.805   4.461   3.280  1.00 20.00    -0.014 C 
HETATM    5  C3  UNL     1     -34.197   4.413   4.557  1.00 20.00    -0.029 C 
HETATM    6  C5  UNL     1     -35.074   5.568   4.908  1.00 20.00     0.028 C 
HETATM    7  C6  UNL     1     -35.434   6.150   3.538  1.00 20.00     0.025 C 
ENDBRANCH   1   3
BRANCH   2   8
HETATM    8  C9  UNL     1     -31.390   8.449   1.912  1.00 20.00     0.094 C 
BRANCH   8   9
HETATM    9  C11 UNL     1     -31.273   8.798   0.429  1.00 20.00     0.012 C 
BRANCH   9  10
HETATM   10  C10 UNL     1     -32.524   9.521  -0.072  1.00 20.00    -0.004 C 
HETATM   11  C8  UNL     1     -32.726  10.846   0.645  1.00 20.00     0.005 C 
ENDBRANCH   9  10
ENDBRANCH   8   9
ENDBRANCH   2   8
TORSDOF 4
ENDMDL
MODEL 6
REMARK VINA RESULT:       0.3      1.598      5.510
REMARK  4 active torsions:
REMARK  status: ('A' for Active; 'I' for Inactive)
REMARK    1  A    between atoms: C1_1  and  C7_7 
REMARK    2  A    between atoms: C2_2  and  C9_9 
REMARK    3  A    between atoms: C9_9  and  C11_11 
REMARK    4  A    between atoms: C10_10  and  C11_11 
ROOT
HETATM    1  C1  UNL     1     -32.292   7.591   2.165  1.00 20.00    -0.098 C 
HETATM    2  C2  UNL     1     -31.925   8.201   1.198  1.00 20.00    -0.106 C 
ENDROOT
BRANCH   1   3
HETATM    3  C7  UNL     1     -32.741   6.844   3.346  1.00 20.00     0.087 C 
HETATM    4  C4  UNL     1     -33.403   7.768   4.317  1.00 20.00    -0.014 C 
HETATM    5  C3  UNL     1     -34.729   7.603   4.348  1.00 20.00    -0.029 C 
HETATM    6  C5  UNL     1     -35.177   6.549   3.392  1.00 20.00     0.028 C 
HETATM    7  C6  UNL     1     -33.865   5.854   3.015  1.00 20.00     0.025 C 
ENDBRANCH   1   3
BRANCH   2   8
HETATM    8  C9  UNL     1     -31.475   8.947   0.015  1.00 20.00     0.094 C 
BRANCH   8   9
HETATM    9  C11 UNL     1     -32.641   9.670  -0.658  1.00 20.00     0.012 C 
BRANCH   9  10
HETATM   10  C10 UNL     1     -33.285  10.686   0.285  1.00 20.00    -0.004 C 
HETATM   11  C8  UNL     1     -32.236  11.490   1.037  1.00 20.00     0.005 C 
ENDBRANCH   9  10
ENDBRANCH   8   9
ENDBRANCH   2   8
TORSDOF 4
ENDMDL
MODEL 7
REMARK VINA RESULT:       0.3      1.228      1.745
REMARK  4 active torsions:
REMARK  status: ('A' for Active; 'I' for Inactive)
REMARK    1  A    between atoms: C1_1  and  C7_7 
REMARK    2  A    between atoms: C2_2  and  C9_9 
REMARK    3  A    between atoms: C9_9  and  C11_11 
REMARK    4  A    between atoms: C10_10  and  C11_11 
ROOT
HETATM    1  C1  UNL     1     -32.655   8.581   2.481  1.00 20.00    -0.098 C 
HETATM    2  C2  UNL     1     -33.365   8.026   3.273  1.00 20.00    -0.106 C 
ENDROOT
BRANCH   1   3
HETATM    3  C7  UNL     1     -31.786   9.260   1.512  1.00 20.00     0.087 C 
HETATM    4  C4  UNL     1     -31.674   8.446   0.263  1.00 20.00    -0.014 C 
HETATM    5  C3  UNL     1     -32.357   8.983  -0.753  1.00 20.00    -0.029 C 
HETATM    6  C5  UNL     1     -33.051  10.240  -0.349  1.00 20.00     0.028 C 
HETATM    7  C6  UNL     1     -32.399  10.569   0.998  1.00 20.00     0.025 C 
ENDBRANCH   1   3
BRANCH   2   8
HETATM    8  C9  UNL     1     -34.236   7.346   4.242  1.00 20.00     0.094 C 
BRANCH   8   9
HETATM    9  C11 UNL     1     -34.813   6.057   3.655  1.00 20.00     0.012 C 
BRANCH   9  10
HETATM   10  C10 UNL     1     -33.707   5.058   3.313  1.00 20.00    -0.004 C 
HETATM   11  C8  UNL     1     -33.214   5.242   1.886  1.00 20.00     0.005 C 
ENDBRANCH   9  10
ENDBRANCH   8   9
ENDBRANCH   2   8
TORSDOF 4
ENDMDL
MODEL 8
REMARK VINA RESULT:       0.6      0.948      5.711
REMARK  4 active torsions:
REMARK  status: ('A' for Active; 'I' for Inactive)
REMARK    1  A    between atoms: C1_1  and  C7_7 
REMARK    2  A    between atoms: C2_2  and  C9_9 
REMARK    3  A    between atoms: C9_9  and  C11_11 
REMARK    4  A    between atoms: C10_10  and  C11_11 
ROOT
HETATM    1  C1  UNL     1     -33.673   6.102   3.116  1.00 20.00    -0.098 C 
HETATM    2  C2  UNL     1     -33.068   7.123   2.932  1.00 20.00    -0.106 C 
ENDROOT
BRANCH   1   3
HETATM    3  C7  UNL     1     -34.411   4.854   3.340  1.00 20.00     0.087 C 
HETATM    4  C4  UNL     1     -33.498   3.680   3.183  1.00 20.00    -0.014 C 
HETATM    5  C3  UNL     1     -33.201   3.111   4.356  1.00 20.00    -0.029 C 
HETATM    6  C5  UNL     1     -33.858   3.817   5.495  1.00 20.00     0.028 C 
HETATM    7  C6  UNL     1     -34.885   4.711   4.793  1.00 20.00     0.025 C 
ENDBRANCH   1   3
BRANCH   2   8
HETATM    8  C9  UNL     1     -32.328   8.372   2.708  1.00 20.00     0.094 C 
BRANCH   8   9
HETATM    9  C11 UNL     1     -31.998   8.560   1.227  1.00 20.00     0.012 C 
BRANCH   9  10
HETATM   10  C10 UNL     1     -32.373   9.963   0.748  1.00 20.00    -0.004 C 
HETATM   11  C8  UNL     1     -32.781   9.961  -0.716  1.00 20.00     0.005 C 
ENDBRANCH   9  10
ENDBRANCH   8   9
ENDBRANCH   2   8
TORSDOF 4
ENDMDL
MODEL 9
REMARK VINA RESULT:       1.1      1.135      2.210
REMARK  4 active torsions:
REMARK  status: ('A' for Active; 'I' for Inactive)
REMARK    1  A    between atoms: C1_1  and  C7_7 
REMARK    2  A    between atoms: C2_2  and  C9_9 
REMARK    3  A    between atoms: C9_9  and  C11_11 
REMARK    4  A    between atoms: C10_10  and  C11_11 
ROOT
HETATM    1  C1  UNL     1     -32.300   8.045   1.895  1.00 20.00    -0.098 C 
HETATM    2  C2  UNL     1     -32.682   7.827   3.013  1.00 20.00    -0.106 C 
ENDROOT
BRANCH   1   3
HETATM    3  C7  UNL     1     -31.834   8.311   0.529  1.00 20.00     0.087 C 
HETATM    4  C4  UNL     1     -32.989   8.679  -0.346  1.00 20.00    -0.014 C 
HETATM    5  C3  UNL     1     -32.999   9.980  -0.649  1.00 20.00    -0.029 C 
HETATM    6  C5  UNL     1     -31.859  10.704  -0.016  1.00 20.00     0.028 C 
HETATM    7  C6  UNL     1     -30.949   9.562   0.450  1.00 20.00     0.025 C 
ENDBRANCH   1   3
BRANCH   2   8
HETATM    8  C9  UNL     1     -33.150   7.560   4.379  1.00 20.00     0.094 C 
BRANCH   8   9
HETATM    9  C11 UNL     1     -34.661   7.330   4.409  1.00 20.00     0.012 C 
BRANCH   9  10
HETATM   10  C10 UNL     1     -35.049   6.085   3.610  1.00 20.00    -0.004 C 
HETATM   11  C8  UNL     1     -34.554   4.814   4.283  1.00 20.00     0.005 C 
ENDBRANCH   9  10
ENDBRANCH   8   9
ENDBRANCH   2   8
TORSDOF 4
ENDMDL
