MODEL 1
REMARK VINA RESULT:      -0.8      0.000      0.000
REMARK  0 active torsions:
REMARK  status: ('A' for Active; 'I' for Inactive)
ROOT
HETATM    1  C1  UNL     1     -32.560   8.587   2.438  1.00 20.00     0.001 C 
HETATM    2  C2  UNL     1     -35.150   4.958   4.641  1.00 20.00     0.001 C 
HETATM    3  C3  UNL     1     -33.939   8.039   2.833  1.00 20.00     0.005 C 
HETATM    4  C4  UNL     1     -35.346   6.369   4.119  1.00 20.00     0.005 C 
HETATM    5  C5  UNL     1     -31.553   7.564   1.911  1.00 20.00     0.005 C 
HETATM    6  C6  UNL     1     -34.170   4.347   3.650  1.00 20.00     0.005 C 
HETATM    7  C7  UNL     1     -31.786   5.091   1.076  1.00 20.00     0.010 A 
HETATM    8  C8  UNL     1     -33.927   6.802   3.736  1.00 20.00    -0.010 C 
HETATM    9  C9  UNL     1     -32.203   6.537   1.039  1.00 20.00    -0.010 A 
HETATM   10  C10 UNL     1     -33.273   5.510   3.181  1.00 20.00    -0.006 C 
HETATM   11  C11 UNL     1     -33.102   5.509   1.684  1.00 20.00    -0.006 A 
ENDROOT
TORSDOF 0
ENDMDL
MODEL 2
REMARK VINA RESULT:      -0.4      0.785      3.529
REMARK  0 active torsions:
REMARK  status: ('A' for Active; 'I' for Inactive)
ROOT
HETATM    1  C1  UNL     1     -35.341   6.836   4.376  1.00 20.00     0.001 C 
HETATM    2  C2  UNL     1     -31.690   7.095   1.009  1.00 20.00     0.001 C 
HETATM    3  C3  UNL     1     -34.016   7.486   3.953  1.00 20.00     0.005 C 
HETATM    4  C4  UNL     1     -32.222   7.865   2.204  1.00 20.00     0.005 C 
HETATM    5  C5  UNL     1     -35.452   5.327   4.154  1.00 20.00     0.005 C 
HETATM    6  C6  UNL     1     -31.915   5.641   1.397  1.00 20.00     0.005 C 
HETATM    7  C7  UNL     1     -33.690   3.461   3.623  1.00 20.00     0.010 A 
HETATM    8  C8  UNL     1     -33.516   7.123   2.551  1.00 20.00    -0.010 C 
HETATM    9  C9  UNL     1     -34.169   4.620   4.456  1.00 20.00    -0.010 A 
HETATM   10  C10 UNL     1     -33.189   5.635   2.265  1.00 20.00    -0.006 C 
HETATM   11  C11 UNL     1     -33.007   4.802   3.508  1.00 20.00    -0.006 A 
ENDROOT
TORSDOF 0
ENDMDL
MODEL 3
REMARK VINA RESULT:       0.4      0.728      2.545
REMARK  0 active torsions:
REMARK  status: ('A' for Active; 'I' for Inactive)
ROOT
HETATM    1  C1  UNL     1     -31.921   5.304   0.907  1.00 20.00     0.001 C 
HETATM    2  C2  UNL     1     -35.391   5.539   4.462  1.00 20.00     0.001 C 
HETATM    3  C3  UNL     1     -32.416   4.789   2.266  1.00 20.00     0.005 C 
HETATM    4  C4  UNL     1     -34.232   4.659   4.030  1.00 20.00     0.005 C 
HETATM    5  C5  UNL     1     -32.047   6.810   0.670  1.00 20.00     0.005 C 
HETATM    6  C6  UNL     1     -34.909   6.944   4.134  1.00 20.00     0.005 C 
HETATM    7  C7  UNL     1     -32.509   8.840   2.262  1.00 20.00     0.010 A 
HETATM    8  C8  UNL     1     -33.807   5.273   2.692  1.00 20.00    -0.010 C 
HETATM    9  C9  UNL     1     -31.736   7.600   1.902  1.00 20.00    -0.010 A 
HETATM   10  C10 UNL     1     -34.010   6.797   2.892  1.00 20.00    -0.006 C 
HETATM   11  C11 UNL     1     -32.724   7.568   3.045  1.00 20.00    -0.006 A 
ENDROOT
TORSDOF 0
ENDMDL
MODEL 4
REMARK VINA RESULT:       1.4      0.973      4.206
REMARK  0 active torsions:
REMARK  status: ('A' for Active; 'I' for Inactive)
ROOT
HETATM    1  C1  UNL     1     -33.386   4.452   2.512  1.00 20.00     0.001 C 
HETATM    2  C2  UNL     1     -31.409   8.792   1.099  1.00 20.00     0.001 C 
HETATM    3  C3  UNL     1     -33.150   5.456   1.374  1.00 20.00     0.005 C 
HETATM    4  C4  UNL     1     -31.998   7.532   0.489  1.00 20.00     0.005 C 
HETATM    5  C5  UNL     1     -33.748   5.048   3.873  1.00 20.00     0.005 C 
HETATM    6  C6  UNL     1     -32.250   9.004   2.350  1.00 20.00     0.005 C 
HETATM    7  C7  UNL     1     -34.526   7.433   4.633  1.00 20.00     0.010 A 
HETATM    8  C8  UNL     1     -32.213   6.623   1.703  1.00 20.00    -0.010 C 
HETATM    9  C9  UNL     1     -34.662   6.226   3.744  1.00 20.00    -0.010 A 
HETATM   10  C10 UNL     1     -32.639   7.593   2.834  1.00 20.00    -0.006 C 
HETATM   11  C11 UNL     1     -34.102   7.513   3.187  1.00 20.00    -0.006 A 
ENDROOT
TORSDOF 0
ENDMDL
MODEL 5
REMARK VINA RESULT:       2.2      1.380      3.795
REMARK  0 active torsions:
REMARK  status: ('A' for Active; 'I' for Inactive)
ROOT
HETATM    1  C1  UNL     1     -34.126   7.132   3.858  1.00 20.00     0.001 C 
HETATM    2  C2  UNL     1     -32.282  10.101   0.320  1.00 20.00     0.001 C 
HETATM    3  C3  UNL     1     -33.232   8.332   3.514  1.00 20.00     0.005 C 
HETATM    4  C4  UNL     1     -32.411  10.040   1.831  1.00 20.00     0.005 C 
HETATM    5  C5  UNL     1     -34.040   5.933   2.912  1.00 20.00     0.005 C 
HETATM    6  C6  UNL     1     -32.059   8.648  -0.074  1.00 20.00     0.005 C 
HETATM    7  C7  UNL     1     -32.339   5.251   1.040  1.00 20.00     0.010 A 
HETATM    8  C8  UNL     1     -33.291   8.807   2.058  1.00 20.00    -0.010 C 
HETATM    9  C9  UNL     1     -32.640   5.685   2.449  1.00 20.00    -0.010 A 
HETATM   10  C10 UNL     1     -32.842   7.812   0.957  1.00 20.00    -0.006 C 
HETATM   11  C11 UNL     1     -32.021   6.660   1.475  1.00 20.00    -0.006 A 
ENDROOT
TORSDOF 0
ENDMDL
