MODEL 1
REMARK VINA RESULT:      -2.2      0.000      0.000
REMARK  1 active torsions:
REMARK  status: ('A' for Active; 'I' for Inactive)
REMARK    1  A    between atoms: C4_4  and  C6_6 
ROOT
HETATM    1  C1  UNL     1     -33.850   7.530   4.441  1.00 20.00     0.062 C 
HETATM    2  C2  UNL     1     -34.877   7.202   2.606  1.00 20.00     0.062 C 
HETATM    3  C3  UNL     1     -33.525   5.734   3.344  1.00 20.00     0.062 C 
HETATM    4  C4  UNL     1     -33.335   7.260   2.966  1.00 20.00     0.067 C 
HETATM    5  C5  UNL     1     -34.790   6.408   3.932  1.00 20.00     0.106 C 
HETATM    6  F7  UNL     1     -35.781   5.827   4.591  1.00 20.00    -0.243 F 
ENDROOT
BRANCH   4   7
HETATM    7  C6  UNL     1     -32.230   7.910   2.230  1.00 20.00     0.395 C 
HETATM    8  F8  UNL     1     -31.346   8.511   3.069  1.00 20.00    -0.170 F 
HETATM    9  F9  UNL     1     -31.523   7.018   1.486  1.00 20.00    -0.170 F 
HETATM   10  F10 UNL     1     -32.680   8.868   1.378  1.00 20.00    -0.170 F 
ENDBRANCH   4   7
TORSDOF 1
ENDMDL
MODEL 2
REMARK VINA RESULT:      -2.2      0.001      1.196
REMARK  1 active torsions:
REMARK  status: ('A' for Active; 'I' for Inactive)
REMARK    1  A    between atoms: C4_4  and  C6_6 
ROOT
HETATM    1  C1  UNL     1     -33.848   7.528   4.441  1.00 20.00     0.062 C 
HETATM    2  C2  UNL     1     -34.876   7.201   2.606  1.00 20.00     0.062 C 
HETATM    3  C3  UNL     1     -33.524   5.732   3.344  1.00 20.00     0.062 C 
HETATM    4  C4  UNL     1     -33.334   7.259   2.966  1.00 20.00     0.067 C 
HETATM    5  C5  UNL     1     -34.789   6.406   3.932  1.00 20.00     0.106 C 
HETATM    6  F7  UNL     1     -35.780   5.826   4.591  1.00 20.00    -0.243 F 
ENDROOT
BRANCH   4   7
HETATM    7  C6  UNL     1     -32.229   7.909   2.230  1.00 20.00     0.395 C 
HETATM    8  F8  UNL     1     -32.679   8.867   1.379  1.00 20.00    -0.170 F 
HETATM    9  F9  UNL     1     -31.345   8.511   3.070  1.00 20.00    -0.170 F 
HETATM   10  F10 UNL     1     -31.522   7.019   1.485  1.00 20.00    -0.170 F 
ENDBRANCH   4   7
TORSDOF 1
ENDMDL
MODEL 3
REMARK VINA RESULT:      -2.2      0.001      1.196
REMARK  1 active torsions:
REMARK  status: ('A' for Active; 'I' for Inactive)
REMARK    1  A    between atoms: C4_4  and  C6_6 
ROOT
HETATM    1  C1  UNL     1     -33.850   7.529   4.440  1.00 20.00     0.062 C 
HETATM    2  C2  UNL     1     -34.876   7.201   2.605  1.00 20.00     0.062 C 
HETATM    3  C3  UNL     1     -33.525   5.733   3.344  1.00 20.00     0.062 C 
HETATM    4  C4  UNL     1     -33.335   7.260   2.966  1.00 20.00     0.067 C 
HETATM    5  C5  UNL     1     -34.790   6.407   3.932  1.00 20.00     0.106 C 
HETATM    6  F7  UNL     1     -35.781   5.826   4.590  1.00 20.00    -0.243 F 
ENDROOT
BRANCH   4   7
HETATM    7  C6  UNL     1     -32.230   7.909   2.231  1.00 20.00     0.395 C 
HETATM    8  F8  UNL     1     -31.523   7.019   1.485  1.00 20.00    -0.170 F 
HETATM    9  F9  UNL     1     -32.680   8.868   1.378  1.00 20.00    -0.170 F 
HETATM   10  F10 UNL     1     -31.345   8.511   3.069  1.00 20.00    -0.170 F 
ENDBRANCH   4   7
TORSDOF 1
ENDMDL
MODEL 4
REMARK VINA RESULT:      -1.5      1.472      3.800
REMARK  1 active torsions:
REMARK  status: ('A' for Active; 'I' for Inactive)
REMARK    1  A    between atoms: C4_4  and  C6_6 
ROOT
HETATM    1  C1  UNL     1     -32.385   6.407   1.716  1.00 20.00     0.062 C 
HETATM    2  C2  UNL     1     -33.365   8.286   1.517  1.00 20.00     0.062 C 
HETATM    3  C3  UNL     1     -31.900   8.006   3.035  1.00 20.00     0.062 C 
HETATM    4  C4  UNL     1     -33.262   7.261   2.721  1.00 20.00     0.067 C 
HETATM    5  C5  UNL     1     -31.877   7.854   1.493  1.00 20.00     0.106 C 
HETATM    6  F7  UNL     1     -30.934   8.257   0.657  1.00 20.00    -0.243 F 
ENDROOT
BRANCH   4   7
HETATM    7  C6  UNL     1     -34.317   6.811   3.654  1.00 20.00     0.395 C 
HETATM    8  F8  UNL     1     -34.129   5.525   4.051  1.00 20.00    -0.170 F 
HETATM    9  F9  UNL     1     -34.354   7.569   4.782  1.00 20.00    -0.170 F 
HETATM   10  F10 UNL     1     -35.553   6.875   3.094  1.00 20.00    -0.170 F 
ENDBRANCH   4   7
TORSDOF 1
ENDMDL
MODEL 5
REMARK VINA RESULT:      -1.5      1.472      3.801
REMARK  1 active torsions:
REMARK  status: ('A' for Active; 'I' for Inactive)
REMARK    1  A    between atoms: C4_4  and  C6_6 
ROOT
HETATM    1  C1  UNL     1     -32.397   6.421   1.705  1.00 20.00     0.062 C 
HETATM    2  C2  UNL     1     -33.365   8.308   1.528  1.00 20.00     0.062 C 
HETATM    3  C3  UNL     1     -31.894   8.006   3.035  1.00 20.00     0.062 C 
HETATM    4  C4  UNL     1     -33.263   7.273   2.722  1.00 20.00     0.067 C 
HETATM    5  C5  UNL     1     -31.881   7.867   1.492  1.00 20.00     0.106 C 
HETATM    6  F7  UNL     1     -30.939   8.271   0.654  1.00 20.00    -0.243 F 
ENDROOT
BRANCH   4   7
HETATM    7  C6  UNL     1     -34.316   6.822   3.657  1.00 20.00     0.395 C 
HETATM    8  F8  UNL     1     -35.554   6.900   3.104  1.00 20.00    -0.170 F 
HETATM    9  F9  UNL     1     -34.135   5.530   4.040  1.00 20.00    -0.170 F 
HETATM   10  F10 UNL     1     -34.343   7.570   4.791  1.00 20.00    -0.170 F 
ENDBRANCH   4   7
TORSDOF 1
ENDMDL
MODEL 6
REMARK VINA RESULT:      -1.5      1.471      3.802
REMARK  1 active torsions:
REMARK  status: ('A' for Active; 'I' for Inactive)
REMARK    1  A    between atoms: C4_4  and  C6_6 
ROOT
HETATM    1  C1  UNL     1     -32.390   6.417   1.712  1.00 20.00     0.062 C 
HETATM    2  C2  UNL     1     -33.365   8.299   1.523  1.00 20.00     0.062 C 
HETATM    3  C3  UNL     1     -31.898   8.009   3.037  1.00 20.00     0.062 C 
HETATM    4  C4  UNL     1     -33.264   7.269   2.723  1.00 20.00     0.067 C 
HETATM    5  C5  UNL     1     -31.880   7.863   1.495  1.00 20.00     0.106 C 
HETATM    6  F7  UNL     1     -30.937   8.268   0.658  1.00 20.00    -0.243 F 
ENDROOT
BRANCH   4   7
HETATM    7  C6  UNL     1     -34.317   6.818   3.656  1.00 20.00     0.395 C 
HETATM    8  F8  UNL     1     -34.346   7.567   4.790  1.00 20.00    -0.170 F 
HETATM    9  F9  UNL     1     -35.556   6.897   3.101  1.00 20.00    -0.170 F 
HETATM   10  F10 UNL     1     -34.138   5.527   4.040  1.00 20.00    -0.170 F 
ENDBRANCH   4   7
TORSDOF 1
ENDMDL
MODEL 7
REMARK VINA RESULT:      -1.3      1.966      3.842
REMARK  1 active torsions:
REMARK  status: ('A' for Active; 'I' for Inactive)
REMARK    1  A    between atoms: C4_4  and  C6_6 
ROOT
HETATM    1  C1  UNL     1     -32.682   7.009   2.499  1.00 20.00     0.062 C 
HETATM    2  C2  UNL     1     -32.877   4.936   2.942  1.00 20.00     0.062 C 
HETATM    3  C3  UNL     1     -33.978   5.787   1.332  1.00 20.00     0.062 C 
HETATM    4  C4  UNL     1     -33.934   6.115   2.881  1.00 20.00     0.067 C 
HETATM    5  C5  UNL     1     -32.467   5.718   1.669  1.00 20.00     0.106 C 
HETATM    6  F7  UNL     1     -31.468   5.448   0.844  1.00 20.00    -0.243 F 
ENDROOT
BRANCH   4   7
HETATM    7  C6  UNL     1     -35.049   6.415   3.804  1.00 20.00     0.395 C 
HETATM    8  F8  UNL     1     -36.167   6.807   3.139  1.00 20.00    -0.170 F 
HETATM    9  F9  UNL     1     -35.394   5.334   4.553  1.00 20.00    -0.170 F 
HETATM   10  F10 UNL     1     -34.736   7.413   4.672  1.00 20.00    -0.170 F 
ENDBRANCH   4   7
TORSDOF 1
ENDMDL
MODEL 8
REMARK VINA RESULT:      -1.0      1.241      1.940
REMARK  1 active torsions:
REMARK  status: ('A' for Active; 'I' for Inactive)
REMARK    1  A    between atoms: C4_4  and  C6_6 
ROOT
HETATM    1  C1  UNL     1     -33.714   7.244   3.981  1.00 20.00     0.062 C 
HETATM    2  C2  UNL     1     -35.272   6.571   2.696  1.00 20.00     0.062 C 
HETATM    3  C3  UNL     1     -34.041   5.159   3.704  1.00 20.00     0.062 C 
HETATM    4  C4  UNL     1     -33.707   6.327   2.688  1.00 20.00     0.067 C 
HETATM    5  C5  UNL     1     -34.942   6.322   4.189  1.00 20.00     0.106 C 
HETATM    6  F7  UNL     1     -35.783   6.319   5.211  1.00 20.00    -0.243 F 
ENDROOT
BRANCH   4   7
HETATM    7  C6  UNL     1     -32.769   6.332   1.546  1.00 20.00     0.395 C 
HETATM    8  F8  UNL     1     -33.405   6.108   0.365  1.00 20.00    -0.170 F 
HETATM    9  F9  UNL     1     -32.121   7.521   1.425  1.00 20.00    -0.170 F 
HETATM   10  F10 UNL     1     -31.815   5.372   1.667  1.00 20.00    -0.170 F 
ENDBRANCH   4   7
TORSDOF 1
ENDMDL
MODEL 9
REMARK VINA RESULT:      -0.6      2.087      2.843
REMARK  1 active torsions:
REMARK  status: ('A' for Active; 'I' for Inactive)
REMARK    1  A    between atoms: C4_4  and  C6_6 
ROOT
HETATM    1  C1  UNL     1     -33.493   6.728   0.780  1.00 20.00     0.062 C 
HETATM    2  C2  UNL     1     -31.546   6.738   1.639  1.00 20.00     0.062 C 
HETATM    3  C3  UNL     1     -33.149   7.727   2.628  1.00 20.00     0.062 C 
HETATM    4  C4  UNL     1     -32.515   7.907   1.187  1.00 20.00     0.067 C 
HETATM    5  C5  UNL     1     -32.931   6.270   2.149  1.00 20.00     0.106 C 
HETATM    6  F7  UNL     1     -33.214   5.155   2.804  1.00 20.00    -0.243 F 
ENDROOT
BRANCH   4   7
HETATM    7  C6  UNL     1     -32.197   9.151   0.456  1.00 20.00     0.395 C 
HETATM    8  F8  UNL     1     -30.914   9.165   0.009  1.00 20.00    -0.170 F 
HETATM    9  F9  UNL     1     -32.995   9.318  -0.633  1.00 20.00    -0.170 F 
HETATM   10  F10 UNL     1     -32.356  10.254   1.234  1.00 20.00    -0.170 F 
ENDBRANCH   4   7
TORSDOF 1
ENDMDL
