MODEL 1
REMARK VINA RESULT:       1.5      0.000      0.000
REMARK  1 active torsions:
REMARK  status: ('A' for Active; 'I' for Inactive)
REMARK    1  A    between atoms: C1_1  and  C5_5 
ROOT
HETATM    1  C1  UNL     1     -33.590   5.039   3.704  1.00 20.00    -0.097 C 
HETATM    2  C2  UNL     1     -33.536   3.932   4.165  1.00 20.00    -0.110 C 
HETATM    3  C7  UNL     1     -33.468   2.583   4.727  1.00 20.00     0.112 C 
ENDROOT
BRANCH   1   4
HETATM    4  C5  UNL     1     -33.656   6.386   3.142  1.00 20.00     0.027 C 
HETATM    5  C3  UNL     1     -34.880   6.588   2.195  1.00 20.00     0.024 C 
HETATM    6  C4  UNL     1     -33.974   6.243   0.997  1.00 20.00     0.012 C 
HETATM    7  C6  UNL     1     -32.737   6.634   1.860  1.00 20.00    -0.029 C 
HETATM    8  C9  UNL     1     -32.299   8.085   1.609  1.00 20.00     0.016 C 
HETATM    9  C10 UNL     1     -31.543   5.696   1.665  1.00 20.00     0.016 C 
HETATM   10  C8  UNL     1     -33.577   7.409   4.273  1.00 20.00     0.030 C 
ENDBRANCH   1   4
TORSDOF 1
ENDMDL
MODEL 2
REMARK VINA RESULT:       1.9      1.063      2.204
REMARK  1 active torsions:
REMARK  status: ('A' for Active; 'I' for Inactive)
REMARK    1  A    between atoms: C1_1  and  C5_5 
ROOT
HETATM    1  C1  UNL     1     -33.955   5.025   3.887  1.00 20.00    -0.097 C 
HETATM    2  C2  UNL     1     -33.583   4.003   4.395  1.00 20.00    -0.110 C 
HETATM    3  C7  UNL     1     -33.130   2.757   5.014  1.00 20.00     0.112 C 
ENDROOT
BRANCH   1   4
HETATM    4  C5  UNL     1     -34.408   6.269   3.268  1.00 20.00     0.027 C 
HETATM    5  C3  UNL     1     -33.737   6.535   1.884  1.00 20.00     0.024 C 
HETATM    6  C4  UNL     1     -32.674   7.395   2.596  1.00 20.00     0.012 C 
HETATM    7  C6  UNL     1     -33.671   7.590   3.778  1.00 20.00    -0.029 C 
HETATM    8  C9  UNL     1     -34.462   8.901   3.651  1.00 20.00     0.016 C 
HETATM    9  C10 UNL     1     -32.999   7.529   5.152  1.00 20.00     0.016 C 
HETATM   10  C8  UNL     1     -35.934   6.286   3.226  1.00 20.00     0.030 C 
ENDBRANCH   1   4
TORSDOF 1
ENDMDL
MODEL 3
REMARK VINA RESULT:       2.1      1.527      4.520
REMARK  1 active torsions:
REMARK  status: ('A' for Active; 'I' for Inactive)
REMARK    1  A    between atoms: C1_1  and  C5_5 
ROOT
HETATM    1  C1  UNL     1     -32.556   8.614   1.188  1.00 20.00    -0.097 C 
HETATM    2  C2  UNL     1     -32.588   9.508   0.387  1.00 20.00    -0.110 C 
HETATM    3  C7  UNL     1     -32.626  10.598  -0.588  1.00 20.00     0.112 C 
ENDROOT
BRANCH   1   4
HETATM    4  C5  UNL     1     -32.518   7.527   2.163  1.00 20.00     0.027 C 
HETATM    5  C3  UNL     1     -31.132   6.811   2.217  1.00 20.00     0.024 C 
HETATM    6  C4  UNL     1     -31.666   5.762   1.221  1.00 20.00     0.012 C 
HETATM    7  C6  UNL     1     -33.116   6.136   1.655  1.00 20.00    -0.029 C 
HETATM    8  C9  UNL     1     -33.651   5.190   2.740  1.00 20.00     0.016 C 
HETATM    9  C10 UNL     1     -34.102   6.186   0.486  1.00 20.00     0.016 C 
HETATM   10  C8  UNL     1     -32.996   8.046   3.517  1.00 20.00     0.030 C 
ENDBRANCH   1   4
TORSDOF 1
ENDMDL
MODEL 4
REMARK VINA RESULT:       2.2      1.046      2.463
REMARK  1 active torsions:
REMARK  status: ('A' for Active; 'I' for Inactive)
REMARK    1  A    between atoms: C1_1  and  C5_5 
ROOT
HETATM    1  C1  UNL     1     -33.290   5.295   2.623  1.00 20.00    -0.097 C 
HETATM    2  C2  UNL     1     -33.565   4.531   3.507  1.00 20.00    -0.110 C 
HETATM    3  C7  UNL     1     -33.899   3.600   4.585  1.00 20.00     0.112 C 
ENDROOT
BRANCH   1   4
HETATM    4  C5  UNL     1     -32.955   6.226   1.548  1.00 20.00     0.027 C 
HETATM    5  C3  UNL     1     -31.467   6.111   1.091  1.00 20.00     0.024 C 
HETATM    6  C4  UNL     1     -31.111   7.259   2.056  1.00 20.00     0.012 C 
HETATM    7  C6  UNL     1     -32.602   7.710   2.018  1.00 20.00    -0.029 C 
HETATM    8  C9  UNL     1     -32.838   8.823   0.986  1.00 20.00     0.016 C 
HETATM    9  C10 UNL     1     -33.135   8.155   3.382  1.00 20.00     0.016 C 
HETATM   10  C8  UNL     1     -33.962   6.068   0.411  1.00 20.00     0.030 C 
ENDBRANCH   1   4
TORSDOF 1
ENDMDL
MODEL 5
REMARK VINA RESULT:       2.2      2.005      4.714
REMARK  1 active torsions:
REMARK  status: ('A' for Active; 'I' for Inactive)
REMARK    1  A    between atoms: C1_1  and  C5_5 
ROOT
HETATM    1  C1  UNL     1     -32.392   8.857   1.158  1.00 20.00    -0.097 C 
HETATM    2  C2  UNL     1     -32.600   9.623   0.258  1.00 20.00    -0.110 C 
HETATM    3  C7  UNL     1     -32.853  10.557  -0.840  1.00 20.00     0.112 C 
ENDROOT
BRANCH   1   4
HETATM    4  C5  UNL     1     -32.138   7.926   2.256  1.00 20.00     0.027 C 
HETATM    5  C3  UNL     1     -31.997   6.448   1.774  1.00 20.00     0.024 C 
HETATM    6  C4  UNL     1     -33.494   6.236   2.076  1.00 20.00     0.012 C 
HETATM    7  C6  UNL     1     -33.435   7.448   3.055  1.00 20.00    -0.029 C 
HETATM    8  C9  UNL     1     -33.210   7.000   4.507  1.00 20.00     0.016 C 
HETATM    9  C10 UNL     1     -34.672   8.346   2.981  1.00 20.00     0.016 C 
HETATM   10  C8  UNL     1     -30.950   8.423   3.075  1.00 20.00     0.030 C 
ENDBRANCH   1   4
TORSDOF 1
ENDMDL
MODEL 6
REMARK VINA RESULT:       2.3      0.951      4.298
REMARK  1 active torsions:
REMARK  status: ('A' for Active; 'I' for Inactive)
REMARK    1  A    between atoms: C1_1  and  C5_5 
ROOT
HETATM    1  C1  UNL     1     -32.615   7.825   1.317  1.00 20.00    -0.097 C 
HETATM    2  C2  UNL     1     -32.401   8.943   0.937  1.00 20.00    -0.110 C 
HETATM    3  C7  UNL     1     -32.140  10.306   0.473  1.00 20.00     0.112 C 
ENDROOT
BRANCH   1   4
HETATM    4  C5  UNL     1     -32.877   6.463   1.779  1.00 20.00     0.027 C 
HETATM    5  C3  UNL     1     -34.083   5.797   1.046  1.00 20.00     0.024 C 
HETATM    6  C4  UNL     1     -35.000   6.255   2.197  1.00 20.00     0.012 C 
HETATM    7  C6  UNL     1     -33.744   6.353   3.115  1.00 20.00    -0.029 C 
HETATM    8  C9  UNL     1     -33.544   5.080   3.951  1.00 20.00     0.016 C 
HETATM    9  C10 UNL     1     -33.763   7.575   4.038  1.00 20.00     0.016 C 
HETATM   10  C8  UNL     1     -31.587   5.649   1.708  1.00 20.00     0.030 C 
ENDBRANCH   1   4
TORSDOF 1
ENDMDL
MODEL 7
REMARK VINA RESULT:       2.7      1.812      3.172
REMARK  1 active torsions:
REMARK  status: ('A' for Active; 'I' for Inactive)
REMARK    1  A    between atoms: C1_1  and  C5_5 
ROOT
HETATM    1  C1  UNL     1     -33.702   6.655   2.609  1.00 20.00    -0.097 C 
HETATM    2  C2  UNL     1     -34.452   6.383   3.506  1.00 20.00    -0.110 C 
HETATM    3  C7  UNL     1     -35.366   6.051   4.599  1.00 20.00     0.112 C 
ENDROOT
BRANCH   1   4
HETATM    4  C5  UNL     1     -32.790   6.985   1.516  1.00 20.00     0.027 C 
HETATM    5  C3  UNL     1     -31.290   6.788   1.899  1.00 20.00     0.024 C 
HETATM    6  C4  UNL     1     -31.218   8.282   2.274  1.00 20.00     0.012 C 
HETATM    7  C6  UNL     1     -32.453   8.538   1.357  1.00 20.00    -0.029 C 
HETATM    8  C9  UNL     1     -32.037   9.002  -0.047  1.00 20.00     0.016 C 
HETATM    9  C10 UNL     1     -33.452   9.534   1.952  1.00 20.00     0.016 C 
HETATM   10  C8  UNL     1     -33.210   6.225   0.260  1.00 20.00     0.030 C 
ENDBRANCH   1   4
TORSDOF 1
ENDMDL
MODEL 8
REMARK VINA RESULT:       3.0      1.897      2.394
REMARK  1 active torsions:
REMARK  status: ('A' for Active; 'I' for Inactive)
REMARK    1  A    between atoms: C1_1  and  C5_5 
ROOT
HETATM    1  C1  UNL     1     -33.759   7.281   3.420  1.00 20.00    -0.097 C 
HETATM    2  C2  UNL     1     -34.616   6.550   3.835  1.00 20.00    -0.110 C 
HETATM    3  C7  UNL     1     -35.659   5.659   4.342  1.00 20.00     0.112 C 
ENDROOT
BRANCH   1   4
HETATM    4  C5  UNL     1     -32.715   8.170   2.914  1.00 20.00     0.027 C 
HETATM    5  C3  UNL     1     -33.273   9.287   1.977  1.00 20.00     0.024 C 
HETATM    6  C4  UNL     1     -32.954   8.389   0.765  1.00 20.00     0.012 C 
HETATM    7  C6  UNL     1     -31.916   7.627   1.644  1.00 20.00    -0.029 C 
HETATM    8  C9  UNL     1     -30.493   8.173   1.453  1.00 20.00     0.016 C 
HETATM    9  C10 UNL     1     -31.921   6.114   1.410  1.00 20.00     0.016 C 
HETATM   10  C8  UNL     1     -31.895   8.704   4.086  1.00 20.00     0.030 C 
ENDBRANCH   1   4
TORSDOF 1
ENDMDL
MODEL 9
REMARK VINA RESULT:       3.0      1.968      3.488
REMARK  1 active torsions:
REMARK  status: ('A' for Active; 'I' for Inactive)
REMARK    1  A    between atoms: C1_1  and  C5_5 
ROOT
HETATM    1  C1  UNL     1     -32.215   6.610   1.664  1.00 20.00    -0.097 C 
HETATM    2  C2  UNL     1     -31.843   5.565   1.208  1.00 20.00    -0.110 C 
HETATM    3  C7  UNL     1     -31.389   4.290   0.650  1.00 20.00     0.112 C 
ENDROOT
BRANCH   1   4
HETATM    4  C5  UNL     1     -32.669   7.884   2.220  1.00 20.00     0.027 C 
HETATM    5  C3  UNL     1     -31.731   8.422   3.345  1.00 20.00     0.024 C 
HETATM    6  C4  UNL     1     -32.648   7.756   4.390  1.00 20.00     0.012 C 
HETATM    7  C6  UNL     1     -33.800   7.772   3.340  1.00 20.00    -0.029 C 
HETATM    8  C9  UNL     1     -34.712   8.997   3.509  1.00 20.00     0.016 C 
HETATM    9  C10 UNL     1     -34.647   6.497   3.353  1.00 20.00     0.016 C 
HETATM   10  C8  UNL     1     -32.900   8.877   1.083  1.00 20.00     0.030 C 
ENDBRANCH   1   4
TORSDOF 1
ENDMDL
