MODEL 1
REMARK VINA RESULT:       1.5      0.000      0.000
REMARK  1 active torsions:
REMARK  status: ('A' for Active; 'I' for Inactive)
REMARK    1  A    between atoms: C9_9  and  C10_10 
ROOT
HETATM    1  C1  UNL     1     -34.442   4.504   3.635  1.00 20.00     0.001 A 
HETATM    2  C2  UNL     1     -35.149   5.554   4.376  1.00 20.00     0.001 A 
HETATM    3  C3  UNL     1     -33.442   4.783   2.773  1.00 20.00     0.012 A 
HETATM    4  C4  UNL     1     -34.843   6.861   4.240  1.00 20.00     0.012 A 
HETATM    5  C5  UNL     1     -32.137   6.723   1.810  1.00 20.00     0.009 A 
HETATM    6  C6  UNL     1     -33.275   8.411   3.002  1.00 20.00     0.009 A 
HETATM    7  C7  UNL     1     -33.074   6.167   2.592  1.00 20.00    -0.028 A 
HETATM    8  C8  UNL     1     -33.778   7.212   3.330  1.00 20.00    -0.028 A 
HETATM    9  C10 UNL     1     -32.159   8.220   2.004  1.00 20.00     0.082 A 
HETATM   10  C11 UNL     1     -30.829   8.779   2.481  1.00 20.00     0.035 C 
ENDROOT
BRANCH   9  11
HETATM   11  C9  UNL     1     -32.574   8.863   0.698  1.00 20.00     0.189 C 
HETATM   12  O12 UNL     1     -32.911   8.059  -0.215  1.00 20.00    -0.647 OA
HETATM   13  O13 UNL     1     -32.531  10.125   0.692  1.00 20.00    -0.647 OA
ENDBRANCH   9  11
TORSDOF 1
ENDMDL
MODEL 2
REMARK VINA RESULT:       1.9      2.698      4.518
REMARK  1 active torsions:
REMARK  status: ('A' for Active; 'I' for Inactive)
REMARK    1  A    between atoms: C9_9  and  C10_10 
ROOT
HETATM    1  C1  UNL     1     -31.138   7.995   1.472  1.00 20.00     0.001 A 
HETATM    2  C2  UNL     1     -31.156   8.793   2.702  1.00 20.00     0.001 A 
HETATM    3  C3  UNL     1     -32.055   7.037   1.223  1.00 20.00     0.012 A 
HETATM    4  C4  UNL     1     -32.091   8.616   3.660  1.00 20.00     0.012 A 
HETATM    5  C5  UNL     1     -34.095   5.935   2.232  1.00 20.00     0.009 A 
HETATM    6  C6  UNL     1     -34.124   7.218   4.211  1.00 20.00     0.009 A 
HETATM    7  C7  UNL     1     -33.079   6.809   2.215  1.00 20.00    -0.028 A 
HETATM    8  C8  UNL     1     -33.097   7.604   3.441  1.00 20.00    -0.028 A 
HETATM    9  C10 UNL     1     -34.881   6.117   3.508  1.00 20.00     0.082 A 
HETATM   10  C11 UNL     1     -36.342   6.458   3.265  1.00 20.00     0.035 C 
ENDROOT
BRANCH   9  11
HETATM   11  C9  UNL     1     -34.753   4.853   4.329  1.00 20.00     0.189 C 
HETATM   12  O12 UNL     1     -33.754   4.132   4.058  1.00 20.00    -0.647 OA
HETATM   13  O13 UNL     1     -35.666   4.683   5.185  1.00 20.00    -0.647 OA
ENDBRANCH   9  11
TORSDOF 1
ENDMDL
MODEL 3
REMARK VINA RESULT:       2.5      1.383      2.452
REMARK  1 active torsions:
REMARK  status: ('A' for Active; 'I' for Inactive)
REMARK    1  A    between atoms: C9_9  and  C10_10 
ROOT
HETATM    1  C1  UNL     1     -35.182   4.940   4.832  1.00 20.00     0.001 A 
HETATM    2  C2  UNL     1     -34.230   3.892   4.448  1.00 20.00     0.001 A 
HETATM    3  C3  UNL     1     -35.176   6.161   4.258  1.00 20.00     0.012 A 
HETATM    4  C4  UNL     1     -33.292   4.086   3.498  1.00 20.00     0.012 A 
HETATM    5  C5  UNL     1     -33.959   7.525   2.511  1.00 20.00     0.009 A 
HETATM    6  C6  UNL     1     -32.429   5.839   1.893  1.00 20.00     0.009 A 
HETATM    7  C7  UNL     1     -34.192   6.420   3.233  1.00 20.00    -0.028 A 
HETATM    8  C8  UNL     1     -33.245   5.376   2.851  1.00 20.00    -0.028 A 
HETATM    9  C10 UNL     1     -32.813   7.262   1.564  1.00 20.00     0.082 A 
HETATM   10  C11 UNL     1     -33.188   7.456   0.104  1.00 20.00     0.035 C 
ENDROOT
BRANCH   9  11
HETATM   11  C9  UNL     1     -31.662   8.166   1.949  1.00 20.00     0.189 C 
HETATM   12  O12 UNL     1     -31.568   8.426   3.180  1.00 20.00    -0.647 OA
HETATM   13  O13 UNL     1     -30.940   8.544   0.984  1.00 20.00    -0.647 OA
ENDBRANCH   9  11
TORSDOF 1
ENDMDL
MODEL 4
REMARK VINA RESULT:       2.8      2.356      4.586
REMARK  1 active torsions:
REMARK  status: ('A' for Active; 'I' for Inactive)
REMARK    1  A    between atoms: C9_9  and  C10_10 
ROOT
HETATM    1  C1  UNL     1     -32.350   9.992  -0.131  1.00 20.00     0.001 A 
HETATM    2  C2  UNL     1     -31.256   9.015  -0.137  1.00 20.00     0.001 A 
HETATM    3  C3  UNL     1     -33.309   9.990   0.818  1.00 20.00     0.012 A 
HETATM    4  C4  UNL     1     -31.144   8.055   0.804  1.00 20.00     0.012 A 
HETATM    5  C5  UNL     1     -34.040   8.748   2.896  1.00 20.00     0.009 A 
HETATM    6  C6  UNL     1     -32.281   7.177   2.885  1.00 20.00     0.009 A 
HETATM    7  C7  UNL     1     -33.234   8.983   1.850  1.00 20.00    -0.028 A 
HETATM    8  C8  UNL     1     -32.145   8.011   1.843  1.00 20.00    -0.028 A 
HETATM    9  C10 UNL     1     -33.503   7.574   3.678  1.00 20.00     0.082 A 
HETATM   10  C11 UNL     1     -33.191   7.913   5.125  1.00 20.00     0.035 C 
ENDROOT
BRANCH   9  11
HETATM   11  C9  UNL     1     -34.510   6.447   3.594  1.00 20.00     0.189 C 
HETATM   12  O12 UNL     1     -35.720   6.805   3.581  1.00 20.00    -0.647 OA
HETATM   13  O13 UNL     1     -34.006   5.290   3.547  1.00 20.00    -0.647 OA
ENDBRANCH   9  11
TORSDOF 1
ENDMDL
MODEL 5
REMARK VINA RESULT:       3.5      2.497      4.595
REMARK  1 active torsions:
REMARK  status: ('A' for Active; 'I' for Inactive)
REMARK    1  A    between atoms: C9_9  and  C10_10 
ROOT
HETATM    1  C1  UNL     1     -31.576   8.993   1.661  1.00 20.00     0.001 A 
HETATM    2  C2  UNL     1     -31.892   8.197   0.470  1.00 20.00     0.001 A 
HETATM    3  C3  UNL     1     -31.972   8.625   2.897  1.00 20.00     0.012 A 
HETATM    4  C4  UNL     1     -32.600   7.050   0.540  1.00 20.00     0.012 A 
HETATM    5  C5  UNL     1     -33.248   6.811   4.113  1.00 20.00     0.009 A 
HETATM    6  C6  UNL     1     -33.757   5.532   2.197  1.00 20.00     0.009 A 
HETATM    7  C7  UNL     1     -32.731   7.403   3.027  1.00 20.00    -0.028 A 
HETATM    8  C8  UNL     1     -33.046   6.611   1.841  1.00 20.00    -0.028 A 
HETATM    9  C10 UNL     1     -33.947   5.540   3.695  1.00 20.00     0.082 A 
HETATM   10  C11 UNL     1     -33.388   4.301   4.374  1.00 20.00     0.035 C 
ENDROOT
BRANCH   9  11
HETATM   11  C9  UNL     1     -35.424   5.692   3.986  1.00 20.00     0.189 C 
HETATM   12  O12 UNL     1     -35.997   6.642   3.385  1.00 20.00    -0.647 OA
HETATM   13  O13 UNL     1     -35.895   4.845   4.796  1.00 20.00    -0.647 OA
ENDBRANCH   9  11
TORSDOF 1
ENDMDL
