MODEL 1
REMARK VINA RESULT:      -2.5      0.000      0.000
REMARK  1 active torsions:
REMARK  status: ('A' for Active; 'I' for Inactive)
REMARK    1  A    between atoms: C4_4  and  C7_7 
ROOT
HETATM    1  C1  UNL     1     -34.647   6.912   3.996  1.00 20.00     0.014 C 
HETATM    2  C2  UNL     1     -33.761   7.060   3.200  1.00 20.00    -0.091 C 
HETATM    3  C3  UNL     1     -31.492   8.042   2.665  1.00 20.00     0.046 A 
HETATM    4  C4  UNL     1     -32.472   8.625   1.685  1.00 20.00     0.024 A 
HETATM    5  C5  UNL     1     -32.703   7.237   2.249  1.00 20.00     0.103 A 
HETATM    6 CL8  UNL     1     -32.424   5.820   1.235  1.00 20.00    -0.105 Cl
ENDROOT
BRANCH   4   7
HETATM    7  C7  UNL     1     -32.058   8.868   0.274  1.00 20.00     0.003 C 
HETATM    8  C6  UNL     1     -32.641  10.134  -0.300  1.00 20.00     0.005 C 
ENDBRANCH   4   7
TORSDOF 1
ENDMDL
MODEL 2
REMARK VINA RESULT:      -2.4      1.478      3.862
REMARK  1 active torsions:
REMARK  status: ('A' for Active; 'I' for Inactive)
REMARK    1  A    between atoms: C4_4  and  C7_7 
ROOT
HETATM    1  C1  UNL     1     -32.469   9.815  -0.054  1.00 20.00     0.014 C 
HETATM    2  C2  UNL     1     -32.374   9.049   0.865  1.00 20.00    -0.091 C 
HETATM    3  C3  UNL     1     -32.279   6.652   1.667  1.00 20.00     0.046 A 
HETATM    4  C4  UNL     1     -33.470   7.295   2.323  1.00 20.00     0.024 A 
HETATM    5  C5  UNL     1     -32.261   8.135   1.963  1.00 20.00     0.103 A 
HETATM    6 CL8  UNL     1     -31.171   8.694   3.234  1.00 20.00    -0.105 Cl
ENDROOT
BRANCH   4   7
HETATM    7  C7  UNL     1     -33.826   6.945   3.727  1.00 20.00     0.003 C 
HETATM    8  C6  UNL     1     -35.216   6.376   3.858  1.00 20.00     0.005 C 
ENDBRANCH   4   7
TORSDOF 1
ENDMDL
MODEL 3
REMARK VINA RESULT:      -1.7      2.990      4.689
REMARK  1 active torsions:
REMARK  status: ('A' for Active; 'I' for Inactive)
REMARK    1  A    between atoms: C4_4  and  C7_7 
ROOT
HETATM    1  C1  UNL     1     -33.170   8.534   4.894  1.00 20.00     0.014 C 
HETATM    2  C2  UNL     1     -33.540   7.564   4.290  1.00 20.00    -0.091 C 
HETATM    3  C3  UNL     1     -35.427   5.987   3.700  1.00 20.00     0.046 A 
HETATM    4  C4  UNL     1     -34.351   5.169   4.358  1.00 20.00     0.024 A 
HETATM    5  C5  UNL     1     -33.981   6.408   3.567  1.00 20.00     0.103 A 
HETATM    6 CL8  UNL     1     -33.232   6.244   1.977  1.00 20.00    -0.105 Cl
ENDROOT
BRANCH   4   7
HETATM    7  C7  UNL     1     -34.069   3.786   3.877  1.00 20.00     0.003 C 
HETATM    8  C6  UNL     1     -33.170   3.012   4.807  1.00 20.00     0.005 C 
ENDBRANCH   4   7
TORSDOF 1
ENDMDL
MODEL 4
REMARK VINA RESULT:      -1.6      2.367      3.023
REMARK  1 active torsions:
REMARK  status: ('A' for Active; 'I' for Inactive)
REMARK    1  A    between atoms: C4_4  and  C7_7 
ROOT
HETATM    1  C1  UNL     1     -33.525   3.325   4.458  1.00 20.00     0.014 C 
HETATM    2  C2  UNL     1     -33.695   4.361   3.875  1.00 20.00    -0.091 C 
HETATM    3  C3  UNL     1     -33.659   5.629   1.687  1.00 20.00     0.046 A 
HETATM    4  C4  UNL     1     -32.684   6.306   2.610  1.00 20.00     0.024 A 
HETATM    5  C5  UNL     1     -33.897   5.598   3.180  1.00 20.00     0.103 A 
HETATM    6 CL8  UNL     1     -35.252   6.542   3.804  1.00 20.00    -0.105 Cl
ENDROOT
BRANCH   4   7
HETATM    7  C7  UNL     1     -32.547   7.790   2.589  1.00 20.00     0.003 C 
HETATM    8  C6  UNL     1     -31.937   8.307   1.311  1.00 20.00     0.005 C 
ENDBRANCH   4   7
TORSDOF 1
ENDMDL
MODEL 5
REMARK VINA RESULT:      -0.9      2.075      4.519
REMARK  1 active torsions:
REMARK  status: ('A' for Active; 'I' for Inactive)
REMARK    1  A    between atoms: C4_4  and  C7_7 
ROOT
HETATM    1  C1  UNL     1     -31.641   8.039   2.159  1.00 20.00     0.014 C 
HETATM    2  C2  UNL     1     -32.463   7.168   2.250  1.00 20.00    -0.091 C 
HETATM    3  C3  UNL     1     -34.627   6.352   3.275  1.00 20.00     0.046 A 
HETATM    4  C4  UNL     1     -33.550   5.379   3.672  1.00 20.00     0.024 A 
HETATM    5  C5  UNL     1     -33.444   6.129   2.359  1.00 20.00     0.103 A 
HETATM    6 CL8  UNL     1     -33.746   5.285   0.839  1.00 20.00    -0.105 Cl
ENDROOT
BRANCH   4   7
HETATM    7  C7  UNL     1     -33.856   3.922   3.751  1.00 20.00     0.003 C 
HETATM    8  C6  UNL     1     -33.118   3.226   4.866  1.00 20.00     0.005 C 
ENDBRANCH   4   7
TORSDOF 1
ENDMDL
MODEL 6
REMARK VINA RESULT:      -0.5      1.987      3.609
REMARK  1 active torsions:
REMARK  status: ('A' for Active; 'I' for Inactive)
REMARK    1  A    between atoms: C4_4  and  C7_7 
ROOT
HETATM    1  C1  UNL     1     -32.647  10.426   0.226  1.00 20.00     0.014 C 
HETATM    2  C2  UNL     1     -32.554   9.449   0.918  1.00 20.00    -0.091 C 
HETATM    3  C3  UNL     1     -31.068   7.706   1.991  1.00 20.00     0.046 A 
HETATM    4  C4  UNL     1     -32.031   6.979   1.092  1.00 20.00     0.024 A 
HETATM    5  C5  UNL     1     -32.444   8.283   1.744  1.00 20.00     0.103 A 
HETATM    6 CL8  UNL     1     -33.583   8.268   3.093  1.00 20.00    -0.105 Cl
ENDROOT
BRANCH   4   7
HETATM    7  C7  UNL     1     -32.580   5.656   1.504  1.00 20.00     0.003 C 
HETATM    8  C6  UNL     1     -32.033   4.512   0.689  1.00 20.00     0.005 C 
ENDBRANCH   4   7
TORSDOF 1
ENDMDL
MODEL 7
REMARK VINA RESULT:      -0.4      1.881      2.481
REMARK  1 active torsions:
REMARK  status: ('A' for Active; 'I' for Inactive)
REMARK    1  A    between atoms: C4_4  and  C7_7 
ROOT
HETATM    1  C1  UNL     1     -35.280   5.210   4.464  1.00 20.00     0.014 C 
HETATM    2  C2  UNL     1     -34.631   6.169   4.148  1.00 20.00    -0.091 C 
HETATM    3  C3  UNL     1     -34.404   8.232   2.702  1.00 20.00     0.046 A 
HETATM    4  C4  UNL     1     -33.238   7.337   2.387  1.00 20.00     0.024 A 
HETATM    5  C5  UNL     1     -33.855   7.314   3.771  1.00 20.00     0.103 A 
HETATM    6 CL8  UNL     1     -33.005   8.064   5.124  1.00 20.00    -0.105 Cl
ENDROOT
BRANCH   4   7
HETATM    7  C7  UNL     1     -31.900   7.929   2.105  1.00 20.00     0.003 C 
HETATM    8  C6  UNL     1     -31.914   8.890   0.944  1.00 20.00     0.005 C 
ENDBRANCH   4   7
TORSDOF 1
ENDMDL
MODEL 8
REMARK VINA RESULT:      -0.0      2.302      3.268
REMARK  1 active torsions:
REMARK  status: ('A' for Active; 'I' for Inactive)
REMARK    1  A    between atoms: C4_4  and  C7_7 
ROOT
HETATM    1  C1  UNL     1     -34.736   6.894   4.121  1.00 20.00     0.014 C 
HETATM    2  C2  UNL     1     -33.979   6.790   3.194  1.00 20.00    -0.091 C 
HETATM    3  C3  UNL     1     -33.592   6.051   0.807  1.00 20.00     0.046 A 
HETATM    4  C4  UNL     1     -32.640   5.275   1.674  1.00 20.00     0.024 A 
HETATM    5  C5  UNL     1     -33.076   6.666   2.088  1.00 20.00     0.103 A 
HETATM    6 CL8  UNL     1     -31.953   8.019   1.943  1.00 20.00    -0.105 Cl
ENDROOT
BRANCH   4   7
HETATM    7  C7  UNL     1     -31.266   4.970   1.182  1.00 20.00     0.003 C 
HETATM    8  C6  UNL     1     -31.257   4.009   0.021  1.00 20.00     0.005 C 
ENDBRANCH   4   7
TORSDOF 1
ENDMDL
MODEL 9
REMARK VINA RESULT:       0.1      1.779      3.691
REMARK  1 active torsions:
REMARK  status: ('A' for Active; 'I' for Inactive)
REMARK    1  A    between atoms: C4_4  and  C7_7 
ROOT
HETATM    1  C1  UNL     1     -31.131   4.396   1.081  1.00 20.00     0.014 C 
HETATM    2  C2  UNL     1     -31.919   5.281   1.279  1.00 20.00    -0.091 C 
HETATM    3  C3  UNL     1     -32.327   7.694   1.915  1.00 20.00     0.046 A 
HETATM    4  C4  UNL     1     -33.029   6.839   2.934  1.00 20.00     0.024 A 
HETATM    5  C5  UNL     1     -32.859   6.336   1.515  1.00 20.00     0.103 A 
HETATM    6 CL8  UNL     1     -34.246   6.299   0.425  1.00 20.00    -0.105 Cl
ENDROOT
BRANCH   4   7
HETATM    7  C7  UNL     1     -34.343   7.271   3.490  1.00 20.00     0.003 C 
HETATM    8  C6  UNL     1     -35.137   6.131   4.076  1.00 20.00     0.005 C 
ENDBRANCH   4   7
TORSDOF 1
ENDMDL
