MODEL 1
REMARK VINA RESULT:      -2.7      0.000      0.000
REMARK  0 active torsions:
REMARK  status: ('A' for Active; 'I' for Inactive)
ROOT
HETATM    1  C1  UNL     1     -32.780   8.259   3.324  1.00 20.00     0.022 A 
HETATM    2  C2  UNL     1     -32.761   6.511   1.513  1.00 20.00     0.022 A 
HETATM    3  C3  UNL     1     -33.733   7.575   3.972  1.00 20.00     0.054 A 
HETATM    4  C4  UNL     1     -33.714   5.830   2.164  1.00 20.00     0.054 A 
HETATM    5  C5  UNL     1     -32.192   7.820   2.005  1.00 20.00     0.135 A 
HETATM    6  C6  UNL     1     -34.318   6.294   3.456  1.00 20.00     0.280 A 
HETATM    7  C7  UNL     1     -32.409   8.907   0.953  1.00 20.00     0.061 C 
HETATM    8  F8  UNL     1     -30.841   7.677   2.156  1.00 20.00    -0.234 F 
HETATM    9  F9  UNL     1     -35.664   6.442   3.299  1.00 20.00    -0.197 F 
HETATM   10  F10 UNL     1     -34.169   5.319   4.399  1.00 20.00    -0.197 F 
ENDROOT
TORSDOF 0
ENDMDL
MODEL 2
REMARK VINA RESULT:      -2.2      0.876      3.648
REMARK  0 active torsions:
REMARK  status: ('A' for Active; 'I' for Inactive)
ROOT
HETATM    1  C1  UNL     1     -33.845   7.467   4.017  1.00 20.00     0.022 A 
HETATM    2  C2  UNL     1     -33.834   5.862   2.077  1.00 20.00     0.022 A 
HETATM    3  C3  UNL     1     -32.878   8.184   3.425  1.00 20.00     0.054 A 
HETATM    4  C4  UNL     1     -32.868   6.583   1.490  1.00 20.00     0.054 A 
HETATM    5  C5  UNL     1     -34.426   6.208   3.422  1.00 20.00     0.135 A 
HETATM    6  C6  UNL     1     -32.271   7.813   2.106  1.00 20.00     0.280 A 
HETATM    7  C7  UNL     1     -34.230   5.041   4.389  1.00 20.00     0.061 C 
HETATM    8  F8  UNL     1     -35.775   6.378   3.273  1.00 20.00    -0.234 F 
HETATM    9  F9  UNL     1     -30.928   7.636   2.260  1.00 20.00    -0.197 F 
HETATM   10  F10 UNL     1     -32.401   8.858   1.240  1.00 20.00    -0.197 F 
ENDROOT
TORSDOF 0
ENDMDL
MODEL 3
REMARK VINA RESULT:      -2.1      0.901      3.717
REMARK  0 active torsions:
REMARK  status: ('A' for Active; 'I' for Inactive)
ROOT
HETATM    1  C1  UNL     1     -33.657   5.777   2.165  1.00 20.00     0.022 A 
HETATM    2  C2  UNL     1     -33.563   7.541   3.959  1.00 20.00     0.022 A 
HETATM    3  C3  UNL     1     -32.750   6.458   1.451  1.00 20.00     0.054 A 
HETATM    4  C4  UNL     1     -32.656   8.219   3.241  1.00 20.00     0.054 A 
HETATM    5  C5  UNL     1     -34.187   6.246   3.497  1.00 20.00     0.135 A 
HETATM    6  C6  UNL     1     -32.162   7.763   1.900  1.00 20.00     0.280 A 
HETATM    7  C7  UNL     1     -35.706   6.401   3.424  1.00 20.00     0.061 C 
HETATM    8  F8  UNL     1     -33.931   5.282   4.433  1.00 20.00    -0.234 F 
HETATM    9  F9  UNL     1     -32.426   8.723   0.970  1.00 20.00    -0.197 F 
HETATM   10  F10 UNL     1     -30.803   7.656   1.934  1.00 20.00    -0.197 F 
ENDROOT
TORSDOF 0
ENDMDL
MODEL 4
REMARK VINA RESULT:      -1.9      1.826      2.806
REMARK  0 active torsions:
REMARK  status: ('A' for Active; 'I' for Inactive)
ROOT
HETATM    1  C1  UNL     1     -33.738   5.527   2.659  1.00 20.00     0.022 A 
HETATM    2  C2  UNL     1     -32.335   7.369   1.671  1.00 20.00     0.022 A 
HETATM    3  C3  UNL     1     -34.084   6.336   3.671  1.00 20.00     0.054 A 
HETATM    4  C4  UNL     1     -32.684   8.174   2.684  1.00 20.00     0.054 A 
HETATM    5  C5  UNL     1     -32.806   5.940   1.547  1.00 20.00     0.135 A 
HETATM    6  C6  UNL     1     -33.582   7.743   3.805  1.00 20.00     0.280 A 
HETATM    7  C7  UNL     1     -31.601   5.000   1.505  1.00 20.00     0.061 C 
HETATM    8  F8  UNL     1     -33.460   5.799   0.355  1.00 20.00    -0.234 F 
HETATM    9  F9  UNL     1     -32.923   7.877   4.991  1.00 20.00    -0.197 F 
HETATM   10  F10 UNL     1     -34.645   8.594   3.883  1.00 20.00    -0.197 F 
ENDROOT
TORSDOF 0
ENDMDL
MODEL 5
REMARK VINA RESULT:      -1.9      1.719      3.193
REMARK  0 active torsions:
REMARK  status: ('A' for Active; 'I' for Inactive)
ROOT
HETATM    1  C1  UNL     1     -32.804   8.113   2.612  1.00 20.00     0.022 A 
HETATM    2  C2  UNL     1     -34.134   6.229   3.621  1.00 20.00     0.022 A 
HETATM    3  C3  UNL     1     -32.341   7.278   1.671  1.00 20.00     0.054 A 
HETATM    4  C4  UNL     1     -33.668   5.398   2.678  1.00 20.00     0.054 A 
HETATM    5  C5  UNL     1     -33.742   7.684   3.713  1.00 20.00     0.135 A 
HETATM    6  C6  UNL     1     -32.707   5.825   1.609  1.00 20.00     0.280 A 
HETATM    7  C7  UNL     1     -33.105   7.963   5.074  1.00 20.00     0.061 C 
HETATM    8  F8  UNL     1     -34.876   8.445   3.641  1.00 20.00    -0.234 F 
HETATM    9  F9  UNL     1     -31.575   5.069   1.689  1.00 20.00    -0.197 F 
HETATM   10  F10 UNL     1     -33.242   5.548   0.385  1.00 20.00    -0.197 F 
ENDROOT
TORSDOF 0
ENDMDL
MODEL 6
REMARK VINA RESULT:      -1.8      1.627      2.325
REMARK  0 active torsions:
REMARK  status: ('A' for Active; 'I' for Inactive)
ROOT
HETATM    1  C1  UNL     1     -32.335   7.229   1.700  1.00 20.00     0.022 A 
HETATM    2  C2  UNL     1     -33.598   5.340   2.784  1.00 20.00     0.022 A 
HETATM    3  C3  UNL     1     -32.775   8.066   2.651  1.00 20.00     0.054 A 
HETATM    4  C4  UNL     1     -34.036   6.181   3.732  1.00 20.00     0.054 A 
HETATM    5  C5  UNL     1     -32.709   5.769   1.641  1.00 20.00     0.135 A 
HETATM    6  C6  UNL     1     -33.688   7.639   3.762  1.00 20.00     0.280 A 
HETATM    7  C7  UNL     1     -33.395   5.462   0.310  1.00 20.00     0.061 C 
HETATM    8  F8  UNL     1     -31.563   5.023   1.679  1.00 20.00    -0.234 F 
HETATM    9  F9  UNL     1     -34.832   8.378   3.717  1.00 20.00    -0.197 F 
HETATM   10  F10 UNL     1     -33.109   7.940   4.960  1.00 20.00    -0.197 F 
ENDROOT
TORSDOF 0
ENDMDL
MODEL 7
REMARK VINA RESULT:      -1.3      0.919      2.141
REMARK  0 active torsions:
REMARK  status: ('A' for Active; 'I' for Inactive)
ROOT
HETATM    1  C1  UNL     1     -32.969   6.561   1.538  1.00 20.00     0.022 A 
HETATM    2  C2  UNL     1     -33.003   8.295   3.363  1.00 20.00     0.022 A 
HETATM    3  C3  UNL     1     -33.861   5.829   2.221  1.00 20.00     0.054 A 
HETATM    4  C4  UNL     1     -33.895   7.560   4.042  1.00 20.00     0.054 A 
HETATM    5  C5  UNL     1     -32.418   7.874   2.036  1.00 20.00     0.135 A 
HETATM    6  C6  UNL     1     -34.410   6.239   3.555  1.00 20.00     0.280 A 
HETATM    7  C7  UNL     1     -30.895   7.788   2.147  1.00 20.00     0.061 C 
HETATM    8  F8  UNL     1     -32.694   8.843   1.112  1.00 20.00    -0.234 F 
HETATM    9  F9  UNL     1     -34.126   5.275   4.477  1.00 20.00    -0.197 F 
HETATM   10  F10 UNL     1     -35.772   6.283   3.487  1.00 20.00    -0.197 F 
ENDROOT
TORSDOF 0
ENDMDL
MODEL 8
REMARK VINA RESULT:      -1.1      1.876      2.952
REMARK  0 active torsions:
REMARK  status: ('A' for Active; 'I' for Inactive)
ROOT
HETATM    1  C1  UNL     1     -33.877   6.202   3.593  1.00 20.00     0.022 A 
HETATM    2  C2  UNL     1     -32.544   8.059   2.539  1.00 20.00     0.022 A 
HETATM    3  C3  UNL     1     -33.520   5.381   2.595  1.00 20.00     0.054 A 
HETATM    4  C4  UNL     1     -32.189   7.235   1.543  1.00 20.00     0.054 A 
HETATM    5  C5  UNL     1     -33.448   7.646   3.675  1.00 20.00     0.135 A 
HETATM    6  C6  UNL     1     -32.650   5.811   1.451  1.00 20.00     0.280 A 
HETATM    7  C7  UNL     1     -34.679   8.551   3.712  1.00 20.00     0.061 C 
HETATM    8  F8  UNL     1     -32.780   7.836   4.854  1.00 20.00    -0.234 F 
HETATM    9  F9  UNL     1     -33.321   5.628   0.278  1.00 20.00    -0.197 F 
HETATM   10  F10 UNL     1     -31.564   4.989   1.378  1.00 20.00    -0.197 F 
ENDROOT
TORSDOF 0
ENDMDL
MODEL 9
REMARK VINA RESULT:      -0.2      2.390      3.590
REMARK  0 active torsions:
REMARK  status: ('A' for Active; 'I' for Inactive)
ROOT
HETATM    1  C1  UNL     1     -33.496   5.944   2.852  1.00 20.00     0.022 A 
HETATM    2  C2  UNL     1     -35.269   5.590   4.603  1.00 20.00     0.022 A 
HETATM    3  C3  UNL     1     -33.025   4.710   3.083  1.00 20.00     0.054 A 
HETATM    4  C4  UNL     1     -34.795   4.357   4.831  1.00 20.00     0.054 A 
HETATM    5  C5  UNL     1     -34.664   6.540   3.598  1.00 20.00     0.135 A 
HETATM    6  C6  UNL     1     -33.610   3.787   4.110  1.00 20.00     0.280 A 
HETATM    7  C7  UNL     1     -34.228   7.827   4.299  1.00 20.00     0.061 C 
HETATM    8  F8  UNL     1     -35.628   6.888   2.693  1.00 20.00    -0.234 F 
HETATM    9  F9  UNL     1     -32.649   3.448   5.015  1.00 20.00    -0.197 F 
HETATM   10  F10 UNL     1     -33.970   2.616   3.509  1.00 20.00    -0.197 F 
ENDROOT
TORSDOF 0
ENDMDL
