MODEL 1
REMARK VINA RESULT:      -0.8      0.000      0.000
REMARK  0 active torsions:
REMARK  status: ('A' for Active; 'I' for Inactive)
ROOT
HETATM    1  C1  UNL     1     -32.623   8.592   2.209  1.00 20.00     0.001 C 
HETATM    2  C2  UNL     1     -35.389   5.138   4.420  1.00 20.00     0.001 C 
HETATM    3  C3  UNL     1     -33.331   8.168   3.502  1.00 20.00     0.005 C 
HETATM    4  C4  UNL     1     -34.949   6.575   4.652  1.00 20.00     0.005 C 
HETATM    5  C5  UNL     1     -31.574   7.597   1.708  1.00 20.00     0.005 C 
HETATM    6  C6  UNL     1     -34.208   4.478   3.712  1.00 20.00     0.005 C 
HETATM    7  C7  UNL     1     -31.698   5.041   1.200  1.00 20.00     0.010 A 
HETATM    8  C8  UNL     1     -34.183   6.901   3.374  1.00 20.00    -0.010 C 
HETATM    9  C9  UNL     1     -32.188   6.447   0.968  1.00 20.00    -0.010 A 
HETATM   10  C10 UNL     1     -33.362   5.624   3.130  1.00 20.00    -0.006 C 
HETATM   11  C11 UNL     1     -33.070   5.446   1.672  1.00 20.00    -0.006 A 
ENDROOT
TORSDOF 0
ENDMDL
MODEL 2
REMARK VINA RESULT:       0.8      0.985      4.264
REMARK  0 active torsions:
REMARK  status: ('A' for Active; 'I' for Inactive)
ROOT
HETATM    1  C1  UNL     1     -33.467   4.667   2.281  1.00 20.00     0.001 C 
HETATM    2  C2  UNL     1     -31.863   9.119   0.841  1.00 20.00     0.001 C 
HETATM    3  C3  UNL     1     -32.340   5.450   1.595  1.00 20.00     0.005 C 
HETATM    4  C4  UNL     1     -31.541   7.653   0.601  1.00 20.00     0.005 C 
HETATM    5  C5  UNL     1     -33.758   5.107   3.717  1.00 20.00     0.005 C 
HETATM    6  C6  UNL     1     -32.330   9.183   2.294  1.00 20.00     0.005 C 
HETATM    7  C7  UNL     1     -34.297   7.442   4.749  1.00 20.00     0.010 A 
HETATM    8  C8  UNL     1     -32.641   6.936   1.378  1.00 20.00    -0.010 C 
HETATM    9  C9  UNL     1     -34.612   6.338   3.772  1.00 20.00    -0.010 A 
HETATM   10  C10 UNL     1     -32.727   7.749   2.681  1.00 20.00    -0.006 C 
HETATM   11  C11 UNL     1     -34.101   7.667   3.272  1.00 20.00    -0.006 A 
ENDROOT
TORSDOF 0
ENDMDL
MODEL 3
REMARK VINA RESULT:       0.8      0.793      3.530
REMARK  0 active torsions:
REMARK  status: ('A' for Active; 'I' for Inactive)
ROOT
HETATM    1  C1  UNL     1     -35.085   6.841   4.615  1.00 20.00     0.001 C 
HETATM    2  C2  UNL     1     -31.436   7.201   1.296  1.00 20.00     0.001 C 
HETATM    3  C3  UNL     1     -34.535   7.618   3.411  1.00 20.00     0.005 C 
HETATM    4  C4  UNL     1     -32.592   8.036   1.821  1.00 20.00     0.005 C 
HETATM    5  C5  UNL     1     -35.342   5.358   4.344  1.00 20.00     0.005 C 
HETATM    6  C6  UNL     1     -31.934   5.759   1.360  1.00 20.00     0.005 C 
HETATM    7  C7  UNL     1     -33.812   3.468   3.397  1.00 20.00     0.010 A 
HETATM    8  C8  UNL     1     -33.144   7.171   2.950  1.00 20.00    -0.010 C 
HETATM    9  C9  UNL     1     -34.087   4.540   4.420  1.00 20.00    -0.010 A 
HETATM   10  C10 UNL     1     -33.116   5.757   2.345  1.00 20.00    -0.006 C 
HETATM   11  C11 UNL     1     -32.975   4.720   3.416  1.00 20.00    -0.006 A 
ENDROOT
TORSDOF 0
ENDMDL
MODEL 4
REMARK VINA RESULT:       1.1      0.661      2.608
REMARK  0 active torsions:
REMARK  status: ('A' for Active; 'I' for Inactive)
ROOT
HETATM    1  C1  UNL     1     -31.789   5.484   1.112  1.00 20.00     0.001 C 
HETATM    2  C2  UNL     1     -35.101   6.221   4.711  1.00 20.00     0.001 C 
HETATM    3  C3  UNL     1     -33.104   5.010   1.745  1.00 20.00     0.005 C 
HETATM    4  C4  UNL     1     -34.731   5.151   3.697  1.00 20.00     0.005 C 
HETATM    5  C5  UNL     1     -31.805   6.939   0.640  1.00 20.00     0.005 C 
HETATM    6  C6  UNL     1     -34.796   7.544   4.012  1.00 20.00     0.005 C 
HETATM    7  C7  UNL     1     -32.410   9.163   1.865  1.00 20.00     0.010 A 
HETATM    8  C8  UNL     1     -33.475   5.724   3.048  1.00 20.00    -0.010 C 
HETATM    9  C9  UNL     1     -31.585   7.905   1.766  1.00 20.00    -0.010 A 
HETATM   10  C10 UNL     1     -33.831   7.208   2.862  1.00 20.00    -0.006 C 
HETATM   11  C11 UNL     1     -32.599   8.059   2.872  1.00 20.00    -0.006 A 
ENDROOT
TORSDOF 0
ENDMDL
MODEL 5
REMARK VINA RESULT:       1.1      0.765      2.695
REMARK  0 active torsions:
REMARK  status: ('A' for Active; 'I' for Inactive)
ROOT
HETATM    1  C1  UNL     1     -31.674   6.652   1.457  1.00 20.00     0.001 C 
HETATM    2  C2  UNL     1     -34.671   4.263   4.583  1.00 20.00     0.001 C 
HETATM    3  C3  UNL     1     -32.508   5.388   1.701  1.00 20.00     0.005 C 
HETATM    4  C4  UNL     1     -33.855   3.975   3.334  1.00 20.00     0.005 C 
HETATM    5  C5  UNL     1     -32.476   7.954   1.500  1.00 20.00     0.005 C 
HETATM    6  C6  UNL     1     -35.144   5.706   4.416  1.00 20.00     0.005 C 
HETATM    7  C7  UNL     1     -34.084   8.953   3.296  1.00 20.00     0.010 A 
HETATM    8  C8  UNL     1     -33.123   5.293   3.100  1.00 20.00    -0.010 C 
HETATM    9  C9  UNL     1     -32.730   8.420   2.902  1.00 20.00    -0.010 A 
HETATM   10  C10 UNL     1     -34.214   6.343   3.370  1.00 20.00    -0.006 C 
HETATM   11  C11 UNL     1     -33.610   7.631   3.840  1.00 20.00    -0.006 A 
ENDROOT
TORSDOF 0
ENDMDL
MODEL 6
REMARK VINA RESULT:       1.5      0.967      3.414
REMARK  0 active torsions:
REMARK  status: ('A' for Active; 'I' for Inactive)
ROOT
HETATM    1  C1  UNL     1     -32.441   8.577   3.804  1.00 20.00     0.001 C 
HETATM    2  C2  UNL     1     -32.103   4.868   0.550  1.00 20.00     0.001 C 
HETATM    3  C3  UNL     1     -31.973   8.153   2.406  1.00 20.00     0.005 C 
HETATM    4  C4  UNL     1     -31.533   6.261   0.762  1.00 20.00     0.005 C 
HETATM    5  C5  UNL     1     -33.936   8.373   4.058  1.00 20.00     0.005 C 
HETATM    6  C6  UNL     1     -33.524   4.940   1.106  1.00 20.00     0.005 C 
HETATM    7  C7  UNL     1     -35.476   6.282   3.810  1.00 20.00     0.010 A 
HETATM    8  C8  UNL     1     -32.104   6.654   2.121  1.00 20.00    -0.010 C 
HETATM    9  C9  UNL     1     -34.264   6.952   4.405  1.00 20.00    -0.010 A 
HETATM   10  C10 UNL     1     -33.560   6.164   2.035  1.00 20.00    -0.006 C 
HETATM   11  C11 UNL     1     -34.096   5.842   3.397  1.00 20.00    -0.006 A 
ENDROOT
TORSDOF 0
ENDMDL
