MODEL 1
REMARK VINA RESULT:      -1.7      0.000      0.000
REMARK  0 active torsions:
REMARK  status: ('A' for Active; 'I' for Inactive)
ROOT
HETATM    1  C1  UNL     1     -33.300   2.017   4.519  1.00 20.00     0.012 C 
HETATM    2  C2  UNL     1     -31.672   7.987   1.311  1.00 20.00     0.012 C 
HETATM    3  C3  UNL     1     -33.464   3.204   4.430  1.00 20.00    -0.113 C 
HETATM    4  C4  UNL     1     -32.509   7.319   1.854  1.00 20.00    -0.113 C 
HETATM    5  C5  UNL     1     -35.398   6.505   4.236  1.00 20.00     0.002 C 
HETATM    6  C6  UNL     1     -35.156   4.994   4.247  1.00 20.00     0.017 C 
HETATM    7  C7  UNL     1     -34.257   7.304   3.600  1.00 20.00     0.017 C 
HETATM    8  C8  UNL     1     -32.906   5.219   3.104  1.00 20.00     0.034 C 
HETATM    9  C9  UNL     1     -33.667   4.658   4.320  1.00 20.00     0.065 C 
HETATM   10  C10 UNL     1     -33.534   6.497   2.520  1.00 20.00     0.065 C 
ENDROOT
TORSDOF 0
ENDMDL
MODEL 2
REMARK VINA RESULT:      -1.7      0.014      4.154
REMARK  0 active torsions:
REMARK  status: ('A' for Active; 'I' for Inactive)
ROOT
HETATM    1  C1  UNL     1     -31.657   7.985   1.329  1.00 20.00     0.012 C 
HETATM    2  C2  UNL     1     -33.304   2.009   4.516  1.00 20.00     0.012 C 
HETATM    3  C3  UNL     1     -32.495   7.315   1.869  1.00 20.00    -0.113 C 
HETATM    4  C4  UNL     1     -33.466   3.195   4.431  1.00 20.00    -0.113 C 
HETATM    5  C5  UNL     1     -35.390   6.504   4.243  1.00 20.00     0.002 C 
HETATM    6  C6  UNL     1     -34.247   7.301   3.610  1.00 20.00     0.017 C 
HETATM    7  C7  UNL     1     -35.154   4.991   4.248  1.00 20.00     0.017 C 
HETATM    8  C8  UNL     1     -32.899   5.213   3.114  1.00 20.00     0.034 C 
HETATM    9  C9  UNL     1     -33.523   6.495   2.531  1.00 20.00     0.065 C 
HETATM   10  C10 UNL     1     -33.664   4.651   4.325  1.00 20.00     0.065 C 
ENDROOT
TORSDOF 0
ENDMDL
MODEL 3
REMARK VINA RESULT:      -0.1      1.751      3.153
REMARK  0 active torsions:
REMARK  status: ('A' for Active; 'I' for Inactive)
ROOT
HETATM    1  C1  UNL     1     -35.415   5.676   4.719  1.00 20.00     0.012 C 
HETATM    2  C2  UNL     1     -32.280  10.249   0.496  1.00 20.00     0.012 C 
HETATM    3  C3  UNL     1     -34.736   5.866   3.747  1.00 20.00    -0.113 C 
HETATM    4  C4  UNL     1     -32.258   9.173   1.026  1.00 20.00    -0.113 C 
HETATM    5  C5  UNL     1     -31.809   5.379   1.324  1.00 20.00     0.002 C 
HETATM    6  C6  UNL     1     -32.642   5.234   2.600  1.00 20.00     0.017 C 
HETATM    7  C7  UNL     1     -31.945   6.749   0.655  1.00 20.00     0.017 C 
HETATM    8  C8  UNL     1     -33.553   7.592   2.423  1.00 20.00     0.034 C 
HETATM    9  C9  UNL     1     -33.903   6.097   2.556  1.00 20.00     0.065 C 
HETATM   10  C10 UNL     1     -32.232   7.852   1.677  1.00 20.00     0.065 C 
ENDROOT
TORSDOF 0
ENDMDL
MODEL 4
REMARK VINA RESULT:      -0.1      1.743      5.074
REMARK  0 active torsions:
REMARK  status: ('A' for Active; 'I' for Inactive)
ROOT
HETATM    1  C1  UNL     1     -32.352  10.262   0.544  1.00 20.00     0.012 C 
HETATM    2  C2  UNL     1     -35.415   5.625   4.751  1.00 20.00     0.012 C 
HETATM    3  C3  UNL     1     -32.316   9.182   1.067  1.00 20.00    -0.113 C 
HETATM    4  C4  UNL     1     -34.743   5.828   3.777  1.00 20.00    -0.113 C 
HETATM    5  C5  UNL     1     -31.825   5.392   1.332  1.00 20.00     0.002 C 
HETATM    6  C6  UNL     1     -31.978   6.767   0.677  1.00 20.00     0.017 C 
HETATM    7  C7  UNL     1     -32.648   5.228   2.613  1.00 20.00     0.017 C 
HETATM    8  C8  UNL     1     -33.588   7.576   2.458  1.00 20.00     0.034 C 
HETATM    9  C9  UNL     1     -32.273   7.857   1.707  1.00 20.00     0.065 C 
HETATM   10  C10 UNL     1     -33.920   6.078   2.582  1.00 20.00     0.065 C 
ENDROOT
TORSDOF 0
ENDMDL
MODEL 5
REMARK VINA RESULT:       0.8      1.925      3.946
REMARK  0 active torsions:
REMARK  status: ('A' for Active; 'I' for Inactive)
ROOT
HETATM    1  C1  UNL     1     -30.952   3.849  -0.048  1.00 20.00     0.012 C 
HETATM    2  C2  UNL     1     -35.789   5.997   4.488  1.00 20.00     0.012 C 
HETATM    3  C3  UNL     1     -31.562   4.764   0.435  1.00 20.00    -0.113 C 
HETATM    4  C4  UNL     1     -34.747   6.214   3.933  1.00 20.00    -0.113 C 
HETATM    5  C5  UNL     1     -32.109   8.215   2.005  1.00 20.00     0.002 C 
HETATM    6  C6  UNL     1     -31.353   6.992   1.480  1.00 20.00     0.017 C 
HETATM    7  C7  UNL     1     -33.464   7.877   2.631  1.00 20.00     0.017 C 
HETATM    8  C8  UNL     1     -33.189   5.397   2.191  1.00 20.00     0.034 C 
HETATM    9  C9  UNL     1     -32.307   5.887   1.027  1.00 20.00     0.065 C 
HETATM   10  C10 UNL     1     -33.469   6.478   3.250  1.00 20.00     0.065 C 
ENDROOT
TORSDOF 0
ENDMDL
MODEL 6
REMARK VINA RESULT:       0.9      1.887      3.350
REMARK  0 active torsions:
REMARK  status: ('A' for Active; 'I' for Inactive)
ROOT
HETATM    1  C1  UNL     1     -35.803   5.825   4.531  1.00 20.00     0.012 C 
HETATM    2  C2  UNL     1     -30.955   3.846  -0.069  1.00 20.00     0.012 C 
HETATM    3  C3  UNL     1     -34.770   6.072   3.969  1.00 20.00    -0.113 C 
HETATM    4  C4  UNL     1     -31.580   4.741   0.428  1.00 20.00    -0.113 C 
HETATM    5  C5  UNL     1     -32.199   8.160   2.044  1.00 20.00     0.002 C 
HETATM    6  C6  UNL     1     -33.540   7.781   2.678  1.00 20.00     0.017 C 
HETATM    7  C7  UNL     1     -31.417   6.962   1.500  1.00 20.00     0.017 C 
HETATM    8  C8  UNL     1     -33.209   5.314   2.203  1.00 20.00     0.034 C 
HETATM    9  C9  UNL     1     -33.506   6.375   3.279  1.00 20.00     0.065 C 
HETATM   10  C10 UNL     1     -32.349   5.839   1.039  1.00 20.00     0.065 C 
ENDROOT
TORSDOF 0
ENDMDL
