MODEL 1
REMARK VINA RESULT:      -2.0      0.000      0.000
REMARK  1 active torsions:
REMARK  status: ('A' for Active; 'I' for Inactive)
REMARK    1  A    between atoms: C8_8  and  C9_9 
ROOT
HETATM    1  C1  UNL     1     -31.990   5.334   0.923  1.00 20.00     0.014 C 
HETATM    2  C2  UNL     1     -34.998   6.631   3.875  1.00 20.00     0.014 C 
HETATM    3  C3  UNL     1     -32.378   6.215   1.640  1.00 20.00    -0.094 C 
HETATM    4  C4  UNL     1     -34.017   6.921   3.247  1.00 20.00    -0.094 C 
HETATM    5  C7  UNL     1     -31.813   8.151   3.158  1.00 20.00     0.043 A 
HETATM    6  C9  UNL     1     -32.679   8.715   2.061  1.00 20.00     0.025 A 
HETATM    7  C10 UNL     1     -32.843   7.268   2.497  1.00 20.00     0.089 A 
ENDROOT
BRANCH   6   8
HETATM    8  C8  UNL     1     -32.110   9.149   0.716  1.00 20.00    -0.008 A 
HETATM    9  C5  UNL     1     -32.981   9.473  -0.466  1.00 20.00     0.005 A 
HETATM   10  C6  UNL     1     -32.202  10.563   0.214  1.00 20.00     0.005 A 
ENDBRANCH   6   8
TORSDOF 1
ENDMDL
MODEL 2
REMARK VINA RESULT:      -1.0      2.491      4.946
REMARK  1 active torsions:
REMARK  status: ('A' for Active; 'I' for Inactive)
REMARK    1  A    between atoms: C8_8  and  C9_9 
ROOT
HETATM    1  C1  UNL     1     -32.740   6.127   1.337  1.00 20.00     0.014 C 
HETATM    2  C2  UNL     1     -33.499   8.585   4.917  1.00 20.00     0.014 C 
HETATM    3  C3  UNL     1     -33.335   6.233   2.374  1.00 20.00    -0.094 C 
HETATM    4  C4  UNL     1     -33.748   7.572   4.324  1.00 20.00    -0.094 C 
HETATM    5  C7  UNL     1     -35.456   5.827   3.681  1.00 20.00     0.043 A 
HETATM    6  C9  UNL     1     -34.358   5.116   4.429  1.00 20.00     0.025 A 
HETATM    7  C10 UNL     1     -34.046   6.361   3.614  1.00 20.00     0.089 A 
ENDROOT
BRANCH   6   8
HETATM    8  C8  UNL     1     -33.900   3.711   4.062  1.00 20.00    -0.008 A 
HETATM    9  C5  UNL     1     -32.452   3.306   4.055  1.00 20.00     0.005 A 
HETATM   10  C6  UNL     1     -33.388   2.732   5.081  1.00 20.00     0.005 A 
ENDBRANCH   6   8
TORSDOF 1
ENDMDL
MODEL 3
REMARK VINA RESULT:      -0.8      1.634      2.897
REMARK  1 active torsions:
REMARK  status: ('A' for Active; 'I' for Inactive)
REMARK    1  A    between atoms: C8_8  and  C9_9 
ROOT
HETATM    1  C1  UNL     1     -34.623   7.803   4.379  1.00 20.00     0.014 C 
HETATM    2  C2  UNL     1     -33.551   3.541   4.028  1.00 20.00     0.014 C 
HETATM    3  C3  UNL     1     -34.145   6.941   3.693  1.00 20.00    -0.094 C 
HETATM    4  C4  UNL     1     -33.561   4.619   3.503  1.00 20.00    -0.094 C 
HETATM    5  C7  UNL     1     -33.814   5.973   1.386  1.00 20.00     0.043 A 
HETATM    6  C9  UNL     1     -32.435   6.252   1.927  1.00 20.00     0.025 A 
HETATM    7  C10 UNL     1     -33.574   5.910   2.875  1.00 20.00     0.089 A 
ENDROOT
BRANCH   6   8
HETATM    8  C8  UNL     1     -31.783   7.625   1.826  1.00 20.00    -0.008 A 
HETATM    9  C5  UNL     1     -31.279   8.188   0.526  1.00 20.00     0.005 A 
HETATM   10  C6  UNL     1     -32.472   8.806   1.201  1.00 20.00     0.005 A 
ENDBRANCH   6   8
TORSDOF 1
ENDMDL
MODEL 4
REMARK VINA RESULT:      -0.8      0.767      4.164
REMARK  1 active torsions:
REMARK  status: ('A' for Active; 'I' for Inactive)
REMARK    1  A    between atoms: C8_8  and  C9_9 
ROOT
HETATM    1  C1  UNL     1     -31.199   9.095   3.986  1.00 20.00     0.014 C 
HETATM    2  C2  UNL     1     -32.575   9.724  -0.155  1.00 20.00     0.014 C 
HETATM    3  C3  UNL     1     -31.691   8.606   3.006  1.00 20.00    -0.094 C 
HETATM    4  C4  UNL     1     -32.440   8.949   0.751  1.00 20.00    -0.094 C 
HETATM    5  C7  UNL     1     -31.924   6.593   1.501  1.00 20.00     0.043 A 
HETATM    6  C9  UNL     1     -33.313   6.918   1.988  1.00 20.00     0.025 A 
HETATM    7  C10 UNL     1     -32.279   8.022   1.835  1.00 20.00     0.089 A 
ENDROOT
BRANCH   6   8
HETATM    8  C8  UNL     1     -33.845   6.417   3.324  1.00 20.00    -0.008 A 
HETATM    9  C5  UNL     1     -34.469   7.331   4.342  1.00 20.00     0.005 A 
HETATM   10  C6  UNL     1     -35.314   6.316   3.626  1.00 20.00     0.005 A 
ENDBRANCH   6   8
TORSDOF 1
ENDMDL
MODEL 5
REMARK VINA RESULT:      -0.0      0.993      3.845
REMARK  1 active torsions:
REMARK  status: ('A' for Active; 'I' for Inactive)
REMARK    1  A    between atoms: C8_8  and  C9_9 
ROOT
HETATM    1  C1  UNL     1     -34.134   7.694   3.824  1.00 20.00     0.014 C 
HETATM    2  C2  UNL     1     -32.816  10.383   0.588  1.00 20.00     0.014 C 
HETATM    3  C3  UNL     1     -33.331   7.901   2.955  1.00 20.00    -0.094 C 
HETATM    4  C4  UNL     1     -32.614   9.366   1.193  1.00 20.00    -0.094 C 
HETATM    5  C7  UNL     1     -30.941   7.741   2.161  1.00 20.00     0.043 A 
HETATM    6  C9  UNL     1     -31.769   6.979   1.160  1.00 20.00     0.025 A 
HETATM    7  C10 UNL     1     -32.373   8.150   1.917  1.00 20.00     0.089 A 
ENDROOT
BRANCH   6   8
HETATM    8  C8  UNL     1     -32.164   5.523   1.370  1.00 20.00    -0.008 A 
HETATM    9  C5  UNL     1     -33.194   4.832   0.521  1.00 20.00     0.005 A 
HETATM   10  C6  UNL     1     -31.750   4.426   0.430  1.00 20.00     0.005 A 
ENDBRANCH   6   8
TORSDOF 1
ENDMDL
MODEL 6
REMARK VINA RESULT:       0.5      1.599      2.825
REMARK  1 active torsions:
REMARK  status: ('A' for Active; 'I' for Inactive)
REMARK    1  A    between atoms: C8_8  and  C9_9 
ROOT
HETATM    1  C1  UNL     1     -33.936   4.100   4.045  1.00 20.00     0.014 C 
HETATM    2  C2  UNL     1     -37.229   6.797   2.898  1.00 20.00     0.014 C 
HETATM    3  C3  UNL     1     -34.283   5.232   3.846  1.00 20.00    -0.094 C 
HETATM    4  C4  UNL     1     -36.078   6.700   3.221  1.00 20.00    -0.094 C 
HETATM    5  C7  UNL     1     -34.112   7.670   4.477  1.00 20.00     0.043 A 
HETATM    6  C9  UNL     1     -33.711   7.580   3.027  1.00 20.00     0.025 A 
HETATM    7  C10 UNL     1     -34.700   6.584   3.609  1.00 20.00     0.089 A 
ENDROOT
BRANCH   6   8
HETATM    8  C8  UNL     1     -32.292   7.232   2.595  1.00 20.00    -0.008 A 
HETATM    9  C5  UNL     1     -31.993   6.474   1.331  1.00 20.00     0.005 A 
HETATM   10  C6  UNL     1     -31.600   7.920   1.452  1.00 20.00     0.005 A 
ENDBRANCH   6   8
TORSDOF 1
ENDMDL
