MODEL 1
REMARK VINA RESULT:      -0.7      0.000      0.000
REMARK  0 active torsions:
REMARK  status: ('A' for Active; 'I' for Inactive)
ROOT
HETATM    1  C1  UNL     1     -33.632   6.841   3.199  1.00 20.00    -0.059 A 
HETATM    2  C2  UNL     1     -33.611   5.515   2.957  1.00 20.00    -0.055 A 
HETATM    3  C3  UNL     1     -33.080   7.205   1.832  1.00 20.00     0.138 A 
HETATM    4  C4  UNL     1     -32.937   5.666   1.585  1.00 20.00     0.077 A 
HETATM    5  C5  UNL     1     -34.111   7.692   4.393  1.00 20.00     0.045 C 
HETATM    6  C6  UNL     1     -34.038   4.283   3.782  1.00 20.00     0.046 C 
HETATM    7  C7  UNL     1     -31.515   5.096   1.552  1.00 20.00     0.039 C 
HETATM    8 CL8  UNL     1     -31.623   8.283   1.757  1.00 20.00    -0.118 Cl
HETATM    9 CL9  UNL     1     -33.889   5.030   0.179  1.00 20.00    -0.113 Cl
ENDROOT
TORSDOF 0
ENDMDL
MODEL 2
REMARK VINA RESULT:      -0.5      1.740      3.016
REMARK  0 active torsions:
REMARK  status: ('A' for Active; 'I' for Inactive)
ROOT
HETATM    1  C1  UNL     1     -32.725   7.486   2.514  1.00 20.00    -0.059 A 
HETATM    2  C2  UNL     1     -33.353   7.399   3.703  1.00 20.00    -0.055 A 
HETATM    3  C3  UNL     1     -33.538   6.367   1.886  1.00 20.00     0.138 A 
HETATM    4  C4  UNL     1     -34.189   6.177   3.296  1.00 20.00     0.077 A 
HETATM    5  C5  UNL     1     -31.632   8.423   1.959  1.00 20.00     0.045 C 
HETATM    6  C6  UNL     1     -33.231   8.190   5.024  1.00 20.00     0.046 C 
HETATM    7  C7  UNL     1     -33.812   4.910   4.072  1.00 20.00     0.039 C 
HETATM    8 CL8  UNL     1     -32.644   4.999   1.098  1.00 20.00    -0.118 Cl
HETATM    9 CL9  UNL     1     -35.986   6.416   3.342  1.00 20.00    -0.113 Cl
ENDROOT
TORSDOF 0
ENDMDL
MODEL 3
REMARK VINA RESULT:      -0.3      1.736      2.802
REMARK  0 active torsions:
REMARK  status: ('A' for Active; 'I' for Inactive)
ROOT
HETATM    1  C1  UNL     1     -33.684   6.458   3.081  1.00 20.00    -0.059 A 
HETATM    2  C2  UNL     1     -32.834   6.475   2.035  1.00 20.00    -0.055 A 
HETATM    3  C3  UNL     1     -33.521   7.940   3.370  1.00 20.00     0.138 A 
HETATM    4  C4  UNL     1     -32.443   7.947   2.237  1.00 20.00     0.077 A 
HETATM    5  C5  UNL     1     -34.563   5.360   3.713  1.00 20.00     0.045 C 
HETATM    6  C6  UNL     1     -32.363   5.395   1.037  1.00 20.00     0.046 C 
HETATM    7  C7  UNL     1     -30.983   8.123   2.667  1.00 20.00     0.039 C 
HETATM    8 CL8  UNL     1     -33.080   8.438   5.057  1.00 20.00    -0.118 Cl
HETATM    9 CL9  UNL     1     -32.812   9.046   0.842  1.00 20.00    -0.113 Cl
ENDROOT
TORSDOF 0
ENDMDL
MODEL 4
REMARK VINA RESULT:      -0.1      2.171      3.120
REMARK  0 active torsions:
REMARK  status: ('A' for Active; 'I' for Inactive)
ROOT
HETATM    1  C1  UNL     1     -32.721   7.170   2.470  1.00 20.00    -0.059 A 
HETATM    2  C2  UNL     1     -33.472   6.132   2.051  1.00 20.00    -0.055 A 
HETATM    3  C3  UNL     1     -33.118   7.004   3.927  1.00 20.00     0.138 A 
HETATM    4  C4  UNL     1     -34.085   5.876   3.436  1.00 20.00     0.077 A 
HETATM    5  C5  UNL     1     -31.751   8.132   1.754  1.00 20.00     0.045 C 
HETATM    6  C6  UNL     1     -33.695   5.477   0.671  1.00 20.00     0.046 C 
HETATM    7  C7  UNL     1     -35.587   6.175   3.488  1.00 20.00     0.039 C 
HETATM    8 CL8  UNL     1     -33.770   8.450   4.805  1.00 20.00    -0.118 Cl
HETATM    9 CL9  UNL     1     -33.759   4.236   4.138  1.00 20.00    -0.113 Cl
ENDROOT
TORSDOF 0
ENDMDL
MODEL 5
REMARK VINA RESULT:       0.3      1.679      3.274
REMARK  0 active torsions:
REMARK  status: ('A' for Active; 'I' for Inactive)
ROOT
HETATM    1  C1  UNL     1     -32.807   6.323   2.155  1.00 20.00    -0.059 A 
HETATM    2  C2  UNL     1     -33.659   6.294   3.199  1.00 20.00    -0.055 A 
HETATM    3  C3  UNL     1     -32.393   7.763   2.398  1.00 20.00     0.138 A 
HETATM    4  C4  UNL     1     -33.466   7.780   3.537  1.00 20.00     0.077 A 
HETATM    5  C5  UNL     1     -32.354   5.264   1.129  1.00 20.00     0.045 C 
HETATM    6  C6  UNL     1     -34.559   5.193   3.799  1.00 20.00     0.046 C 
HETATM    7  C7  UNL     1     -34.727   8.616   3.292  1.00 20.00     0.039 C 
HETATM    8 CL8  UNL     1     -32.507   8.931   1.015  1.00 20.00    -0.118 Cl
HETATM    9 CL9  UNL     1     -32.812   8.121   5.194  1.00 20.00    -0.113 Cl
ENDROOT
TORSDOF 0
ENDMDL
MODEL 6
REMARK VINA RESULT:       0.6      2.074      3.881
REMARK  0 active torsions:
REMARK  status: ('A' for Active; 'I' for Inactive)
ROOT
HETATM    1  C1  UNL     1     -32.999   6.072   2.079  1.00 20.00    -0.059 A 
HETATM    2  C2  UNL     1     -32.732   7.358   2.381  1.00 20.00    -0.055 A 
HETATM    3  C3  UNL     1     -34.141   5.966   3.075  1.00 20.00     0.138 A 
HETATM    4  C4  UNL     1     -33.762   7.418   3.519  1.00 20.00     0.077 A 
HETATM    5  C5  UNL     1     -32.416   5.084   1.048  1.00 20.00     0.045 C 
HETATM    6  C6  UNL     1     -31.714   8.383   1.837  1.00 20.00     0.046 C 
HETATM    7  C7  UNL     1     -33.117   7.577   4.900  1.00 20.00     0.039 C 
HETATM    8 CL8  UNL     1     -34.107   4.604   4.272  1.00 20.00    -0.118 Cl
HETATM    9 CL9  UNL     1     -35.080   8.646   3.309  1.00 20.00    -0.113 Cl
ENDROOT
TORSDOF 0
ENDMDL
MODEL 7
REMARK VINA RESULT:       0.6      1.814      2.981
REMARK  0 active torsions:
REMARK  status: ('A' for Active; 'I' for Inactive)
ROOT
HETATM    1  C1  UNL     1     -33.130   7.413   3.467  1.00 20.00    -0.059 A 
HETATM    2  C2  UNL     1     -32.647   7.504   2.212  1.00 20.00    -0.055 A 
HETATM    3  C3  UNL     1     -33.472   5.939   3.339  1.00 20.00     0.138 A 
HETATM    4  C4  UNL     1     -33.026   6.062   1.844  1.00 20.00     0.077 A 
HETATM    5  C5  UNL     1     -33.233   8.413   4.637  1.00 20.00     0.045 C 
HETATM    6  C6  UNL     1     -32.008   8.655   1.405  1.00 20.00     0.046 C 
HETATM    7  C7  UNL     1     -34.127   5.987   0.781  1.00 20.00     0.039 C 
HETATM    8 CL8  UNL     1     -35.158   5.414   3.751  1.00 20.00    -0.118 Cl
HETATM    9 CL9  UNL     1     -31.641   4.990   1.373  1.00 20.00    -0.113 Cl
ENDROOT
TORSDOF 0
ENDMDL
MODEL 8
REMARK VINA RESULT:       1.1      0.832      3.076
REMARK  0 active torsions:
REMARK  status: ('A' for Active; 'I' for Inactive)
ROOT
HETATM    1  C1  UNL     1     -33.450   5.792   3.075  1.00 20.00    -0.059 A 
HETATM    2  C2  UNL     1     -33.480   7.122   3.291  1.00 20.00    -0.055 A 
HETATM    3  C3  UNL     1     -32.363   5.883   2.019  1.00 20.00     0.138 A 
HETATM    4  C4  UNL     1     -32.473   7.436   2.174  1.00 20.00     0.077 A 
HETATM    5  C5  UNL     1     -34.190   4.599   3.714  1.00 20.00     0.045 C 
HETATM    6  C6  UNL     1     -34.283   8.019   4.258  1.00 20.00     0.046 C 
HETATM    7  C7  UNL     1     -33.098   8.209   1.008  1.00 20.00     0.039 C 
HETATM    8 CL8  UNL     1     -32.665   5.100   0.411  1.00 20.00    -0.118 Cl
HETATM    9 CL9  UNL     1     -30.948   8.257   2.712  1.00 20.00    -0.113 Cl
ENDROOT
TORSDOF 0
ENDMDL
