MODEL 1
REMARK VINA RESULT:      -0.6      0.000      0.000
REMARK  0 active torsions:
REMARK  status: ('A' for Active; 'I' for Inactive)
ROOT
HETATM    1  C1  UNL     1     -35.458   5.407   4.228  1.00 20.00    -0.027 A 
HETATM    2  C2  UNL     1     -34.114   5.387   4.272  1.00 20.00    -0.010 A 
HETATM    3  C3  UNL     1     -35.518   6.704   3.454  1.00 20.00     0.051 A 
HETATM    4  C4  UNL     1     -33.962   6.696   3.514  1.00 20.00     0.035 A 
HETATM    5  C5  UNL     1     -33.327   7.838   4.294  1.00 20.00     0.032 C 
HETATM    6 BR6  UNL     1     -33.087   6.420   1.787  1.00 20.00    -0.081 Br
ENDROOT
TORSDOF 0
ENDMDL
MODEL 2
REMARK VINA RESULT:      -0.6      1.756      2.296
REMARK  0 active torsions:
REMARK  status: ('A' for Active; 'I' for Inactive)
ROOT
HETATM    1  C1  UNL     1     -34.498   7.625   4.201  1.00 20.00    -0.027 A 
HETATM    2  C2  UNL     1     -33.318   6.989   4.094  1.00 20.00    -0.010 A 
HETATM    3  C3  UNL     1     -35.246   6.599   3.381  1.00 20.00     0.051 A 
HETATM    4  C4  UNL     1     -33.881   5.864   3.240  1.00 20.00     0.035 A 
HETATM    5  C5  UNL     1     -33.326   5.772   1.825  1.00 20.00     0.032 C 
HETATM    6 BR6  UNL     1     -33.785   4.147   4.171  1.00 20.00    -0.081 Br
ENDROOT
TORSDOF 0
ENDMDL
MODEL 3
REMARK VINA RESULT:      -0.5      2.583      3.129
REMARK  0 active torsions:
REMARK  status: ('A' for Active; 'I' for Inactive)
ROOT
HETATM    1  C1  UNL     1     -33.014   6.130   1.873  1.00 20.00    -0.027 A 
HETATM    2  C2  UNL     1     -31.908   6.659   1.319  1.00 20.00    -0.010 A 
HETATM    3  C3  UNL     1     -33.430   7.425   2.534  1.00 20.00     0.051 A 
HETATM    4  C4  UNL     1     -32.144   8.041   1.908  1.00 20.00     0.035 A 
HETATM    5  C5  UNL     1     -31.094   8.520   2.900  1.00 20.00     0.032 C 
HETATM    6 BR6  UNL     1     -32.479   9.364   0.507  1.00 20.00    -0.081 Br
ENDROOT
TORSDOF 0
ENDMDL
MODEL 4
REMARK VINA RESULT:      -0.4      1.611      2.705
REMARK  0 active torsions:
REMARK  status: ('A' for Active; 'I' for Inactive)
ROOT
HETATM    1  C1  UNL     1     -32.797   7.472   2.699  1.00 20.00    -0.027 A 
HETATM    2  C2  UNL     1     -33.566   6.493   2.190  1.00 20.00    -0.010 A 
HETATM    3  C3  UNL     1     -33.367   7.340   4.093  1.00 20.00     0.051 A 
HETATM    4  C4  UNL     1     -34.272   6.216   3.508  1.00 20.00     0.035 A 
HETATM    5  C5  UNL     1     -35.767   6.500   3.525  1.00 20.00     0.032 C 
HETATM    6 BR6  UNL     1     -33.864   4.422   4.170  1.00 20.00    -0.081 Br
ENDROOT
TORSDOF 0
ENDMDL
MODEL 5
REMARK VINA RESULT:      -0.4      2.857      3.810
REMARK  0 active torsions:
REMARK  status: ('A' for Active; 'I' for Inactive)
ROOT
HETATM    1  C1  UNL     1     -31.764   8.791   1.246  1.00 20.00    -0.027 A 
HETATM    2  C2  UNL     1     -31.507   7.926   2.243  1.00 20.00    -0.010 A 
HETATM    3  C3  UNL     1     -33.073   8.134   0.871  1.00 20.00     0.051 A 
HETATM    4  C4  UNL     1     -32.776   7.120   2.014  1.00 20.00     0.035 A 
HETATM    5  C5  UNL     1     -32.568   5.677   1.576  1.00 20.00     0.032 C 
HETATM    6 BR6  UNL     1     -33.986   7.247   3.545  1.00 20.00    -0.081 Br
ENDROOT
TORSDOF 0
ENDMDL
MODEL 6
REMARK VINA RESULT:      -0.3      0.947      2.141
REMARK  0 active torsions:
REMARK  status: ('A' for Active; 'I' for Inactive)
ROOT
HETATM    1  C1  UNL     1     -34.659   7.628   4.104  1.00 20.00    -0.027 A 
HETATM    2  C2  UNL     1     -35.141   6.632   3.338  1.00 20.00    -0.010 A 
HETATM    3  C3  UNL     1     -33.273   7.030   4.193  1.00 20.00     0.051 A 
HETATM    4  C4  UNL     1     -33.827   5.867   3.320  1.00 20.00     0.035 A 
HETATM    5  C5  UNL     1     -33.855   4.499   3.987  1.00 20.00     0.032 C 
HETATM    6 BR6  UNL     1     -33.079   5.781   1.515  1.00 20.00    -0.081 Br
ENDROOT
TORSDOF 0
ENDMDL
MODEL 7
REMARK VINA RESULT:      -0.3      1.472      2.067
REMARK  0 active torsions:
REMARK  status: ('A' for Active; 'I' for Inactive)
ROOT
HETATM    1  C1  UNL     1     -35.437   5.330   4.238  1.00 20.00    -0.027 A 
HETATM    2  C2  UNL     1     -35.430   6.537   3.644  1.00 20.00    -0.010 A 
HETATM    3  C3  UNL     1     -33.933   5.183   4.198  1.00 20.00     0.051 A 
HETATM    4  C4  UNL     1     -33.916   6.572   3.495  1.00 20.00     0.035 A 
HETATM    5  C5  UNL     1     -33.397   6.580   2.065  1.00 20.00     0.032 C 
HETATM    6 BR6  UNL     1     -33.131   8.010   4.563  1.00 20.00    -0.081 Br
ENDROOT
TORSDOF 0
ENDMDL
MODEL 8
REMARK VINA RESULT:      -0.3      2.817      3.359
REMARK  0 active torsions:
REMARK  status: ('A' for Active; 'I' for Inactive)
ROOT
HETATM    1  C1  UNL     1     -32.624   5.067   0.664  1.00 20.00    -0.027 A 
HETATM    2  C2  UNL     1     -33.434   6.139   0.707  1.00 20.00    -0.010 A 
HETATM    3  C3  UNL     1     -31.850   5.470   1.899  1.00 20.00     0.051 A 
HETATM    4  C4  UNL     1     -32.775   6.722   1.947  1.00 20.00     0.035 A 
HETATM    5  C5  UNL     1     -32.080   8.061   1.753  1.00 20.00     0.032 C 
HETATM    6 BR6  UNL     1     -34.013   6.757   3.460  1.00 20.00    -0.081 Br
ENDROOT
TORSDOF 0
ENDMDL
MODEL 9
REMARK VINA RESULT:      -0.1      2.542      3.767
REMARK  0 active torsions:
REMARK  status: ('A' for Active; 'I' for Inactive)
ROOT
HETATM    1  C1  UNL     1     -31.837   9.056   1.096  1.00 20.00    -0.027 A 
HETATM    2  C2  UNL     1     -33.003   8.394   0.986  1.00 20.00    -0.010 A 
HETATM    3  C3  UNL     1     -31.319   8.173   2.208  1.00 20.00     0.051 A 
HETATM    4  C4  UNL     1     -32.672   7.411   2.097  1.00 20.00     0.035 A 
HETATM    5  C5  UNL     1     -33.569   7.481   3.325  1.00 20.00     0.032 C 
HETATM    6 BR6  UNL     1     -32.519   5.586   1.411  1.00 20.00    -0.081 Br
ENDROOT
TORSDOF 0
ENDMDL
