MODEL 1
REMARK VINA RESULT:      -2.1      0.000      0.000
REMARK  0 active torsions:
REMARK  status: ('A' for Active; 'I' for Inactive)
ROOT
HETATM    1  C1  UNL     1     -31.527   7.050   1.041  1.00 20.00     0.001 C 
HETATM    2  C2  UNL     1     -32.024   8.161   1.981  1.00 20.00     0.005 C 
HETATM    3  C3  UNL     1     -32.309   5.780   1.410  1.00 20.00     0.005 C 
HETATM    4  C4  UNL     1     -33.821   8.198   3.855  1.00 20.00     0.011 C 
HETATM    5  C5  UNL     1     -34.575   7.248   4.796  1.00 20.00     0.079 C 
HETATM    6  C6  UNL     1     -34.136   5.300   3.192  1.00 20.00     0.084 C 
HETATM    7  C7  UNL     1     -32.790   7.410   3.061  1.00 20.00    -0.010 C 
HETATM    8  C8  UNL     1     -33.459   6.295   2.261  1.00 20.00    -0.005 C 
HETATM    9  C9  UNL     1     -35.150   6.035   4.067  1.00 20.00     0.244 C 
HETATM   10  F10 UNL     1     -36.186   6.445   3.286  1.00 20.00    -0.206 F 
HETATM   11  F11 UNL     1     -35.673   5.171   4.972  1.00 20.00    -0.206 F 
ENDROOT
TORSDOF 0
ENDMDL
MODEL 2
REMARK VINA RESULT:      -1.0      2.485      4.329
REMARK  0 active torsions:
REMARK  status: ('A' for Active; 'I' for Inactive)
ROOT
HETATM    1  C1  UNL     1     -35.156   6.370   4.617  1.00 20.00     0.001 C 
HETATM    2  C2  UNL     1     -34.768   5.421   3.470  1.00 20.00     0.005 C 
HETATM    3  C3  UNL     1     -34.262   7.612   4.480  1.00 20.00     0.005 C 
HETATM    4  C4  UNL     1     -33.048   5.620   1.536  1.00 20.00     0.011 C 
HETATM    5  C5  UNL     1     -31.774   6.385   1.154  1.00 20.00     0.079 C 
HETATM    6  C6  UNL     1     -32.403   8.258   2.785  1.00 20.00     0.084 C 
HETATM    7  C7  UNL     1     -33.454   5.989   2.954  1.00 20.00    -0.010 C 
HETATM    8  C8  UNL     1     -33.685   7.493   3.077  1.00 20.00    -0.005 C 
HETATM    9  C9  UNL     1     -31.902   7.889   1.390  1.00 20.00     0.244 C 
HETATM   10  F10 UNL     1     -32.758   8.405   0.466  1.00 20.00    -0.206 F 
HETATM   11  F11 UNL     1     -30.702   8.484   1.171  1.00 20.00    -0.206 F 
ENDROOT
TORSDOF 0
ENDMDL
MODEL 3
REMARK VINA RESULT:      -0.4      2.478      3.890
REMARK  0 active torsions:
REMARK  status: ('A' for Active; 'I' for Inactive)
ROOT
HETATM    1  C1  UNL     1     -34.972   7.094   4.591  1.00 20.00     0.001 C 
HETATM    2  C2  UNL     1     -33.862   8.037   4.097  1.00 20.00     0.005 C 
HETATM    3  C3  UNL     1     -34.877   5.820   3.738  1.00 20.00     0.005 C 
HETATM    4  C4  UNL     1     -32.035   7.789   2.269  1.00 20.00     0.011 C 
HETATM    5  C5  UNL     1     -31.725   6.978   1.003  1.00 20.00     0.079 C 
HETATM    6  C6  UNL     1     -33.294   5.117   1.803  1.00 20.00     0.084 C 
HETATM    7  C7  UNL     1     -33.422   7.424   2.775  1.00 20.00    -0.010 C 
HETATM    8  C8  UNL     1     -33.515   5.928   3.071  1.00 20.00    -0.005 C 
HETATM    9  C9  UNL     1     -31.936   5.478   1.203  1.00 20.00     0.244 C 
HETATM   10  F10 UNL     1     -30.956   5.003   2.019  1.00 20.00    -0.206 F 
HETATM   11  F11 UNL     1     -31.785   4.839   0.016  1.00 20.00    -0.206 F 
ENDROOT
TORSDOF 0
ENDMDL
MODEL 4
REMARK VINA RESULT:      -0.1      2.551      3.874
REMARK  0 active torsions:
REMARK  status: ('A' for Active; 'I' for Inactive)
ROOT
HETATM    1  C1  UNL     1     -34.715   4.612   4.197  1.00 20.00     0.001 C 
HETATM    2  C2  UNL     1     -34.935   6.106   4.485  1.00 20.00     0.005 C 
HETATM    3  C3  UNL     1     -33.689   4.532   3.055  1.00 20.00     0.005 C 
HETATM    4  C4  UNL     1     -33.905   8.260   3.464  1.00 20.00     0.011 C 
HETATM    5  C5  UNL     1     -33.187   8.747   2.199  1.00 20.00     0.079 C 
HETATM    6  C6  UNL     1     -32.427   6.352   1.700  1.00 20.00     0.084 C 
HETATM    7  C7  UNL     1     -34.315   6.806   3.285  1.00 20.00    -0.010 C 
HETATM    8  C8  UNL     1     -33.096   5.931   3.000  1.00 20.00    -0.005 C 
HETATM    9  C9  UNL     1     -32.039   7.827   1.786  1.00 20.00     0.244 C 
HETATM   10  F10 UNL     1     -31.026   7.963   2.685  1.00 20.00    -0.206 F 
HETATM   11  F11 UNL     1     -31.543   8.233   0.590  1.00 20.00    -0.206 F 
ENDROOT
TORSDOF 0
ENDMDL
MODEL 5
REMARK VINA RESULT:       0.8      1.624      2.615
REMARK  0 active torsions:
REMARK  status: ('A' for Active; 'I' for Inactive)
ROOT
HETATM    1  C1  UNL     1     -31.619   5.686   0.585  1.00 20.00     0.001 C 
HETATM    2  C2  UNL     1     -32.567   4.855   1.465  1.00 20.00     0.005 C 
HETATM    3  C3  UNL     1     -31.739   7.142   1.063  1.00 20.00     0.005 C 
HETATM    4  C4  UNL     1     -34.125   5.485   3.445  1.00 20.00     0.011 C 
HETATM    5  C5  UNL     1     -34.842   6.699   4.052  1.00 20.00     0.079 C 
HETATM    6  C6  UNL     1     -33.155   8.265   2.928  1.00 20.00     0.084 C 
HETATM    7  C7  UNL     1     -33.436   5.898   2.153  1.00 20.00    -0.010 C 
HETATM    8  C8  UNL     1     -32.440   7.027   2.408  1.00 20.00    -0.005 C 
HETATM    9  C9  UNL     1     -33.921   7.908   4.201  1.00 20.00     0.244 C 
HETATM   10  F10 UNL     1     -33.027   7.657   5.195  1.00 20.00    -0.206 F 
HETATM   11  F11 UNL     1     -34.647   8.981   4.604  1.00 20.00    -0.206 F 
ENDROOT
TORSDOF 0
ENDMDL
MODEL 6
REMARK VINA RESULT:       0.9      1.895      2.959
REMARK  0 active torsions:
REMARK  status: ('A' for Active; 'I' for Inactive)
ROOT
HETATM    1  C1  UNL     1     -31.903   9.926  -0.029  1.00 20.00     0.001 C 
HETATM    2  C2  UNL     1     -31.443   8.472   0.167  1.00 20.00     0.005 C 
HETATM    3  C3  UNL     1     -32.995  10.187   1.020  1.00 20.00     0.005 C 
HETATM    4  C4  UNL     1     -32.139   6.625   1.854  1.00 20.00     0.011 C 
HETATM    5  C5  UNL     1     -33.298   6.243   2.784  1.00 20.00     0.079 C 
HETATM    6  C6  UNL     1     -34.052   8.690   2.860  1.00 20.00     0.084 C 
HETATM    7  C7  UNL     1     -32.517   7.866   1.059  1.00 20.00    -0.010 C 
HETATM    8  C8  UNL     1     -32.848   9.028   1.994  1.00 20.00    -0.005 C 
HETATM    9  C9  UNL     1     -33.766   7.413   3.648  1.00 20.00     0.244 C 
HETATM   10  F10 UNL     1     -32.809   7.677   4.580  1.00 20.00    -0.206 F 
HETATM   11  F11 UNL     1     -34.877   7.050   4.336  1.00 20.00    -0.206 F 
ENDROOT
TORSDOF 0
ENDMDL
