MODEL 1
REMARK VINA RESULT:      -3.4      0.000      0.000
REMARK  0 active torsions:
REMARK  status: ('A' for Active; 'I' for Inactive)
ROOT
HETATM    1  C1  UNL     1     -32.771   5.625   1.709  1.00 20.00     0.019 A 
HETATM    2  C2  UNL     1     -32.056   6.738   1.495  1.00 20.00     0.054 A 
HETATM    3  C3  UNL     1     -33.387   7.932   3.263  1.00 20.00     0.096 A 
HETATM    4  C4  UNL     1     -34.100   6.818   3.476  1.00 20.00     0.133 A 
HETATM    5  C5  UNL     1     -33.875   5.542   2.723  1.00 20.00     0.254 A 
HETATM    6  C6  UNL     1     -32.283   8.017   2.249  1.00 20.00     0.282 A 
HETATM    7  F7  UNL     1     -35.072   6.846   4.415  1.00 20.00    -0.207 F 
HETATM    8  F8  UNL     1     -33.603   4.538   3.606  1.00 20.00    -0.238 F 
HETATM    9  F9  UNL     1     -31.127   8.388   2.868  1.00 20.00    -0.197 F 
HETATM   10  F10 UNL     1     -32.559   9.019   1.365  1.00 20.00    -0.197 F 
ENDROOT
TORSDOF 0
ENDMDL
MODEL 2
REMARK VINA RESULT:      -2.8      1.810      2.777
REMARK  0 active torsions:
REMARK  status: ('A' for Active; 'I' for Inactive)
ROOT
HETATM    1  C1  UNL     1     -32.690   8.012   2.853  1.00 20.00     0.019 A 
HETATM    2  C2  UNL     1     -32.274   7.312   1.789  1.00 20.00     0.054 A 
HETATM    3  C3  UNL     1     -33.746   5.393   2.477  1.00 20.00     0.096 A 
HETATM    4  C4  UNL     1     -34.161   6.095   3.540  1.00 20.00     0.133 A 
HETATM    5  C5  UNL     1     -33.679   7.481   3.849  1.00 20.00     0.254 A 
HETATM    6  C6  UNL     1     -32.756   5.924   1.481  1.00 20.00     0.282 A 
HETATM    7  F7  UNL     1     -35.057   5.525   4.377  1.00 20.00    -0.207 F 
HETATM    8  F8  UNL     1     -34.749   8.325   3.920  1.00 20.00    -0.238 F 
HETATM    9  F9  UNL     1     -33.312   5.904   0.236  1.00 20.00    -0.197 F 
HETATM   10  F10 UNL     1     -31.687   5.080   1.414  1.00 20.00    -0.197 F 
ENDROOT
TORSDOF 0
ENDMDL
MODEL 3
REMARK VINA RESULT:      -2.7      1.556      3.057
REMARK  0 active torsions:
REMARK  status: ('A' for Active; 'I' for Inactive)
ROOT
HETATM    1  C1  UNL     1     -33.738   5.456   2.812  1.00 20.00     0.019 A 
HETATM    2  C2  UNL     1     -34.231   6.292   3.736  1.00 20.00     0.054 A 
HETATM    3  C3  UNL     1     -32.763   8.133   2.855  1.00 20.00     0.096 A 
HETATM    4  C4  UNL     1     -32.271   7.297   1.931  1.00 20.00     0.133 A 
HETATM    5  C5  UNL     1     -32.701   5.865   1.806  1.00 20.00     0.254 A 
HETATM    6  C6  UNL     1     -33.799   7.725   3.861  1.00 20.00     0.282 A 
HETATM    7  F7  UNL     1     -31.340   7.764   1.069  1.00 20.00    -0.207 F 
HETATM    8  F8  UNL     1     -33.179   5.645   0.548  1.00 20.00    -0.238 F 
HETATM    9  F9  UNL     1     -34.888   8.537   3.743  1.00 20.00    -0.197 F 
HETATM   10  F10 UNL     1     -33.318   7.943   5.118  1.00 20.00    -0.197 F 
ENDROOT
TORSDOF 0
ENDMDL
MODEL 4
REMARK VINA RESULT:      -2.3      1.370      3.637
REMARK  0 active torsions:
REMARK  status: ('A' for Active; 'I' for Inactive)
ROOT
HETATM    1  C1  UNL     1     -33.026   8.217   3.170  1.00 20.00     0.019 A 
HETATM    2  C2  UNL     1     -33.969   7.638   3.925  1.00 20.00     0.054 A 
HETATM    3  C3  UNL     1     -33.868   5.586   2.476  1.00 20.00     0.096 A 
HETATM    4  C4  UNL     1     -32.925   6.166   1.723  1.00 20.00     0.133 A 
HETATM    5  C5  UNL     1     -32.399   7.546   1.983  1.00 20.00     0.254 A 
HETATM    6  C6  UNL     1     -34.496   6.257   3.663  1.00 20.00     0.282 A 
HETATM    7  F7  UNL     1     -32.422   5.475   0.676  1.00 20.00    -0.207 F 
HETATM    8  F8  UNL     1     -31.047   7.490   2.157  1.00 20.00    -0.238 F 
HETATM    9  F9  UNL     1     -34.309   5.484   4.771  1.00 20.00    -0.197 F 
HETATM   10  F10 UNL     1     -35.847   6.315   3.486  1.00 20.00    -0.197 F 
ENDROOT
TORSDOF 0
ENDMDL
MODEL 5
REMARK VINA RESULT:      -2.3      1.636      3.113
REMARK  0 active torsions:
REMARK  status: ('A' for Active; 'I' for Inactive)
ROOT
HETATM    1  C1  UNL     1     -34.031   6.308   3.509  1.00 20.00     0.019 A 
HETATM    2  C2  UNL     1     -33.631   5.359   2.651  1.00 20.00     0.054 A 
HETATM    3  C3  UNL     1     -32.169   7.035   1.479  1.00 20.00     0.096 A 
HETATM    4  C4  UNL     1     -32.569   7.982   2.337  1.00 20.00     0.133 A 
HETATM    5  C5  UNL     1     -33.545   7.727   3.446  1.00 20.00     0.254 A 
HETATM    6  C6  UNL     1     -32.655   5.616   1.540  1.00 20.00     0.282 A 
HETATM    7  F7  UNL     1     -32.070   9.231   2.197  1.00 20.00    -0.207 F 
HETATM    8  F8  UNL     1     -32.973   8.062   4.639  1.00 20.00    -0.238 F 
HETATM    9  F9  UNL     1     -31.587   4.778   1.674  1.00 20.00    -0.197 F 
HETATM   10  F10 UNL     1     -33.229   5.284   0.348  1.00 20.00    -0.197 F 
ENDROOT
TORSDOF 0
ENDMDL
MODEL 6
REMARK VINA RESULT:      -2.2      0.940      3.397
REMARK  0 active torsions:
REMARK  status: ('A' for Active; 'I' for Inactive)
ROOT
HETATM    1  C1  UNL     1     -32.736   6.321   1.382  1.00 20.00     0.019 A 
HETATM    2  C2  UNL     1     -33.769   5.777   2.041  1.00 20.00     0.054 A 
HETATM    3  C3  UNL     1     -33.416   7.398   3.931  1.00 20.00     0.096 A 
HETATM    4  C4  UNL     1     -32.385   7.941   3.270  1.00 20.00     0.133 A 
HETATM    5  C5  UNL     1     -31.928   7.463   1.924  1.00 20.00     0.254 A 
HETATM    6  C6  UNL     1     -34.225   6.255   3.389  1.00 20.00     0.282 A 
HETATM    7  F7  UNL     1     -31.722   8.969   3.845  1.00 20.00    -0.207 F 
HETATM    8  F8  UNL     1     -31.962   8.501   1.040  1.00 20.00    -0.238 F 
HETATM    9  F9  UNL     1     -35.536   6.623   3.319  1.00 20.00    -0.197 F 
HETATM   10  F10 UNL     1     -34.187   5.217   4.274  1.00 20.00    -0.197 F 
ENDROOT
TORSDOF 0
ENDMDL
MODEL 7
REMARK VINA RESULT:      -2.2      0.779      2.374
REMARK  0 active torsions:
REMARK  status: ('A' for Active; 'I' for Inactive)
ROOT
HETATM    1  C1  UNL     1     -33.853   7.874   3.958  1.00 20.00     0.019 A 
HETATM    2  C2  UNL     1     -32.980   8.465   3.130  1.00 20.00     0.054 A 
HETATM    3  C3  UNL     1     -32.676   6.294   1.899  1.00 20.00     0.096 A 
HETATM    4  C4  UNL     1     -33.549   5.704   2.727  1.00 20.00     0.133 A 
HETATM    5  C5  UNL     1     -34.233   6.426   3.850  1.00 20.00     0.254 A 
HETATM    6  C6  UNL     1     -32.295   7.741   2.007  1.00 20.00     0.282 A 
HETATM    7  F7  UNL     1     -33.827   4.394   2.543  1.00 20.00    -0.207 F 
HETATM    8  F8  UNL     1     -35.585   6.324   3.695  1.00 20.00    -0.238 F 
HETATM    9  F9  UNL     1     -32.569   8.371   0.829  1.00 20.00    -0.197 F 
HETATM   10  F10 UNL     1     -30.943   7.841   2.165  1.00 20.00    -0.197 F 
ENDROOT
TORSDOF 0
ENDMDL
MODEL 8
REMARK VINA RESULT:      -2.0      1.564      2.412
REMARK  0 active torsions:
REMARK  status: ('A' for Active; 'I' for Inactive)
ROOT
HETATM    1  C1  UNL     1     -32.369   7.313   1.649  1.00 20.00     0.019 A 
HETATM    2  C2  UNL     1     -32.764   8.153   2.616  1.00 20.00     0.054 A 
HETATM    3  C3  UNL     1     -33.925   6.256   3.789  1.00 20.00     0.096 A 
HETATM    4  C4  UNL     1     -33.529   5.418   2.822  1.00 20.00     0.133 A 
HETATM    5  C5  UNL     1     -32.709   5.851   1.643  1.00 20.00     0.254 A 
HETATM    6  C6  UNL     1     -33.586   7.718   3.795  1.00 20.00     0.282 A 
HETATM    7  F7  UNL     1     -33.887   4.117   2.911  1.00 20.00    -0.207 F 
HETATM    8  F8  UNL     1     -31.559   5.119   1.599  1.00 20.00    -0.238 F 
HETATM    9  F9  UNL     1     -32.923   8.024   4.946  1.00 20.00    -0.197 F 
HETATM   10  F10 UNL     1     -34.738   8.448   3.836  1.00 20.00    -0.197 F 
ENDROOT
TORSDOF 0
ENDMDL
MODEL 9
REMARK VINA RESULT:      -1.5      1.716      4.119
REMARK  0 active torsions:
REMARK  status: ('A' for Active; 'I' for Inactive)
ROOT
HETATM    1  C1  UNL     1     -35.362   5.902   4.367  1.00 20.00     0.019 A 
HETATM    2  C2  UNL     1     -34.971   4.648   4.635  1.00 20.00     0.054 A 
HETATM    3  C3  UNL     1     -32.999   4.937   3.102  1.00 20.00     0.096 A 
HETATM    4  C4  UNL     1     -33.392   6.190   2.836  1.00 20.00     0.133 A 
HETATM    5  C5  UNL     1     -34.617   6.813   3.437  1.00 20.00     0.254 A 
HETATM    6  C6  UNL     1     -33.745   4.025   4.032  1.00 20.00     0.282 A 
HETATM    7  F7  UNL     1     -32.648   6.931   1.984  1.00 20.00    -0.207 F 
HETATM    8  F8  UNL     1     -34.266   7.951   4.102  1.00 20.00    -0.238 F 
HETATM    9  F9  UNL     1     -32.910   3.615   5.029  1.00 20.00    -0.197 F 
HETATM   10  F10 UNL     1     -34.097   2.889   3.364  1.00 20.00    -0.197 F 
ENDROOT
TORSDOF 0
ENDMDL
