MODEL 1
REMARK VINA RESULT:      -0.1      0.000      0.000
REMARK  1 active torsions:
REMARK  status: ('A' for Active; 'I' for Inactive)
REMARK    1  A    between atoms: C6_6  and  C11_11 
ROOT
HETATM    1  C1  UNL     1     -33.559   6.038   2.326  1.00 20.00     0.003 C 
HETATM    2  C2  UNL     1     -32.611   6.637   1.590  1.00 20.00    -0.016 C 
HETATM    3  C3  UNL     1     -33.681   7.858   3.916  1.00 20.00    -0.019 C 
HETATM    4  C4  UNL     1     -34.197   6.713   3.439  1.00 20.00    -0.066 C 
HETATM    5  C5  UNL     1     -32.443   8.485   3.332  1.00 20.00     0.041 C 
HETATM    6  C6  UNL     1     -32.133   8.051   1.869  1.00 20.00    -0.020 C 
HETATM    7  C7  UNL     1     -35.411   6.061   4.026  1.00 20.00     0.048 C 
HETATM    8  C8  UNL     1     -30.616   8.142   1.632  1.00 20.00     0.020 C 
ENDROOT
BRANCH   6   9
HETATM    9  C11 UNL     1     -32.844   8.994   0.879  1.00 20.00    -0.011 C 
HETATM   10  C9  UNL     1     -32.787  10.428   1.389  1.00 20.00     0.010 C 
HETATM   11  C10 UNL     1     -32.212   8.878  -0.501  1.00 20.00     0.010 C 
ENDBRANCH   6   9
TORSDOF 1
ENDMDL
MODEL 2
REMARK VINA RESULT:       1.7      0.986      4.150
REMARK  1 active torsions:
REMARK  status: ('A' for Active; 'I' for Inactive)
REMARK    1  A    between atoms: C6_6  and  C11_11 
ROOT
HETATM    1  C1  UNL     1     -31.796   8.290   2.237  1.00 20.00     0.003 C 
HETATM    2  C2  UNL     1     -32.188   7.347   3.107  1.00 20.00    -0.016 C 
HETATM    3  C3  UNL     1     -33.232   7.467   0.472  1.00 20.00    -0.019 C 
HETATM    4  C4  UNL     1     -32.420   8.432   0.937  1.00 20.00    -0.066 C 
HETATM    5  C5  UNL     1     -33.530   6.221   1.261  1.00 20.00     0.041 C 
HETATM    6  C6  UNL     1     -33.300   6.360   2.795  1.00 20.00    -0.020 C 
HETATM    7  C7  UNL     1     -32.090   9.665   0.153  1.00 20.00     0.048 C 
HETATM    8  C8  UNL     1     -32.946   4.980   3.374  1.00 20.00     0.020 C 
ENDROOT
BRANCH   6   9
HETATM    9  C11 UNL     1     -34.586   6.866   3.476  1.00 20.00    -0.011 C 
HETATM   10  C9  UNL     1     -35.325   5.705   4.127  1.00 20.00     0.010 C 
HETATM   11  C10 UNL     1     -34.249   7.943   4.497  1.00 20.00     0.010 C 
ENDBRANCH   6   9
TORSDOF 1
ENDMDL
MODEL 3
REMARK VINA RESULT:       1.9      1.898      3.867
REMARK  1 active torsions:
REMARK  status: ('A' for Active; 'I' for Inactive)
REMARK    1  A    between atoms: C6_6  and  C11_11 
ROOT
HETATM    1  C1  UNL     1     -34.689   4.470   4.797  1.00 20.00     0.003 C 
HETATM    2  C2  UNL     1     -34.995   5.738   4.480  1.00 20.00    -0.016 C 
HETATM    3  C3  UNL     1     -33.160   4.221   2.939  1.00 20.00    -0.019 C 
HETATM    4  C4  UNL     1     -33.659   3.737   4.089  1.00 20.00    -0.066 C 
HETATM    5  C5  UNL     1     -33.633   5.519   2.342  1.00 20.00     0.041 C 
HETATM    6  C6  UNL     1     -34.297   6.491   3.362  1.00 20.00    -0.020 C 
HETATM    7  C7  UNL     1     -33.219   2.434   4.682  1.00 20.00     0.048 C 
HETATM    8  C8  UNL     1     -35.314   7.375   2.620  1.00 20.00     0.020 C 
ENDROOT
BRANCH   6   9
HETATM    9  C11 UNL     1     -33.226   7.397   3.998  1.00 20.00    -0.011 C 
HETATM   10  C9  UNL     1     -32.479   8.164   2.916  1.00 20.00     0.010 C 
HETATM   11  C10 UNL     1     -33.870   8.347   4.998  1.00 20.00     0.010 C 
ENDBRANCH   6   9
TORSDOF 1
ENDMDL
MODEL 4
REMARK VINA RESULT:       2.1      0.997      4.140
REMARK  1 active torsions:
REMARK  status: ('A' for Active; 'I' for Inactive)
REMARK    1  A    between atoms: C6_6  and  C11_11 
ROOT
HETATM    1  C1  UNL     1     -33.387   9.934   1.419  1.00 20.00     0.003 C 
HETATM    2  C2  UNL     1     -33.691   9.292   2.557  1.00 20.00    -0.016 C 
HETATM    3  C3  UNL     1     -31.568   8.432   0.884  1.00 20.00    -0.019 C 
HETATM    4  C4  UNL     1     -32.389   9.424   0.500  1.00 20.00    -0.066 C 
HETATM    5  C5  UNL     1     -31.642   7.814   2.254  1.00 20.00     0.041 C 
HETATM    6  C6  UNL     1     -33.013   7.997   2.969  1.00 20.00    -0.020 C 
HETATM    7  C7  UNL     1     -32.311  10.069  -0.849  1.00 20.00     0.048 C 
HETATM    8  C8  UNL     1     -32.788   7.991   4.490  1.00 20.00     0.020 C 
ENDROOT
BRANCH   6   9
HETATM    9  C11 UNL     1     -33.956   6.834   2.605  1.00 20.00    -0.011 C 
HETATM   10  C9  UNL     1     -33.149   5.649   2.091  1.00 20.00     0.010 C 
HETATM   11  C10 UNL     1     -34.796   6.442   3.812  1.00 20.00     0.010 C 
ENDBRANCH   6   9
TORSDOF 1
ENDMDL
MODEL 5
REMARK VINA RESULT:       2.3      1.204      4.253
REMARK  1 active torsions:
REMARK  status: ('A' for Active; 'I' for Inactive)
REMARK    1  A    between atoms: C6_6  and  C11_11 
ROOT
HETATM    1  C1  UNL     1     -33.212   7.138   1.142  1.00 20.00     0.003 C 
HETATM    2  C2  UNL     1     -34.035   6.332   1.829  1.00 20.00    -0.016 C 
HETATM    3  C3  UNL     1     -32.356   8.207   3.137  1.00 20.00    -0.019 C 
HETATM    4  C4  UNL     1     -32.262   8.004   1.812  1.00 20.00    -0.066 C 
HETATM    5  C5  UNL     1     -33.424   7.557   3.974  1.00 20.00     0.041 C 
HETATM    6  C6  UNL     1     -34.040   6.272   3.347  1.00 20.00    -0.020 C 
HETATM    7  C7  UNL     1     -31.223   8.664   0.959  1.00 20.00     0.048 C 
HETATM    8  C8  UNL     1     -35.483   6.110   3.854  1.00 20.00     0.020 C 
ENDROOT
BRANCH   6   9
HETATM    9  C11 UNL     1     -33.226   5.035   3.773  1.00 20.00    -0.011 C 
HETATM   10  C9  UNL     1     -34.134   4.020   4.453  1.00 20.00     0.010 C 
HETATM   11  C10 UNL     1     -32.528   4.426   2.566  1.00 20.00     0.010 C 
ENDBRANCH   6   9
TORSDOF 1
ENDMDL
MODEL 6
REMARK VINA RESULT:       2.4      1.949      3.390
REMARK  1 active torsions:
REMARK  status: ('A' for Active; 'I' for Inactive)
REMARK    1  A    between atoms: C6_6  and  C11_11 
ROOT
HETATM    1  C1  UNL     1     -34.461   4.656   4.061  1.00 20.00     0.003 C 
HETATM    2  C2  UNL     1     -34.551   5.734   3.267  1.00 20.00    -0.016 C 
HETATM    3  C3  UNL     1     -32.333   3.971   3.136  1.00 20.00    -0.019 C 
HETATM    4  C4  UNL     1     -33.273   3.827   4.086  1.00 20.00    -0.066 C 
HETATM    5  C5  UNL     1     -32.462   4.979   2.026  1.00 20.00     0.041 C 
HETATM    6  C6  UNL     1     -33.427   6.160   2.338  1.00 20.00    -0.020 C 
HETATM    7  C7  UNL     1     -33.173   2.811   5.182  1.00 20.00     0.048 C 
HETATM    8  C8  UNL     1     -34.017   6.686   1.019  1.00 20.00     0.020 C 
ENDROOT
BRANCH   6   9
HETATM    9  C11 UNL     1     -32.654   7.303   3.024  1.00 20.00    -0.011 C 
HETATM   10  C9  UNL     1     -32.059   8.234   1.976  1.00 20.00     0.010 C 
HETATM   11  C10 UNL     1     -33.572   8.061   3.972  1.00 20.00     0.010 C 
ENDBRANCH   6   9
TORSDOF 1
ENDMDL
