MODEL 1
REMARK VINA RESULT:       2.1      0.000      0.000
REMARK  1 active torsions:
REMARK  status: ('A' for Active; 'I' for Inactive)
REMARK    1  A    between atoms: C1_1  and  C5_5 
ROOT
HETATM    1  C2  UNL     1     -32.751   4.906   2.472  1.00 20.00     0.006 C 
HETATM    2  C3  UNL     1     -31.432   5.397   1.863  1.00 20.00     0.006 C 
HETATM    3  C4  UNL     1     -33.187   6.028   0.430  1.00 20.00     0.011 C 
HETATM    4  C5  UNL     1     -33.764   7.260   2.366  1.00 20.00     0.084 C 
HETATM    5  C6  UNL     1     -33.806   5.817   1.814  1.00 20.00    -0.001 C 
HETATM    6  C7  UNL     1     -31.878   6.593   1.004  1.00 20.00    -0.006 C 
HETATM    7  C8  UNL     1     -32.375   7.787   1.889  1.00 20.00    -0.032 C 
HETATM    8  C9  UNL     1     -32.557   9.049   1.020  1.00 20.00     0.016 C 
HETATM    9  C10 UNL     1     -31.393   8.149   3.015  1.00 20.00     0.016 C 
ENDROOT
BRANCH   4  10
HETATM   10  C1  UNL     1     -34.047   7.331   3.836  1.00 20.00     0.224 C 
HETATM   11  O11 UNL     1     -33.430   8.091   4.577  1.00 20.00    -0.279 OA
HETATM   12 CL12 UNL     1     -35.310   6.236   4.312  1.00 20.00    -0.043 Cl
ENDBRANCH   4  10
TORSDOF 1
ENDMDL
MODEL 2
REMARK VINA RESULT:       2.5      1.092      2.859
REMARK  1 active torsions:
REMARK  status: ('A' for Active; 'I' for Inactive)
REMARK    1  A    between atoms: C1_1  and  C5_5 
ROOT
HETATM    1  C2  UNL     1     -33.081   9.247   2.211  1.00 20.00     0.006 C 
HETATM    2  C3  UNL     1     -32.726   8.862   0.770  1.00 20.00     0.006 C 
HETATM    3  C4  UNL     1     -30.993   8.126   2.180  1.00 20.00     0.011 C 
HETATM    4  C5  UNL     1     -32.789   6.827   3.010  1.00 20.00     0.084 C 
HETATM    5  C6  UNL     1     -32.240   8.272   3.057  1.00 20.00    -0.001 C 
HETATM    6  C7  UNL     1     -31.798   7.649   0.960  1.00 20.00    -0.006 C 
HETATM    7  C8  UNL     1     -32.576   6.410   1.522  1.00 20.00    -0.032 C 
HETATM    8  C9  UNL     1     -31.687   5.150   1.447  1.00 20.00     0.016 C 
HETATM    9  C10 UNL     1     -33.863   6.103   0.740  1.00 20.00     0.016 C 
ENDROOT
BRANCH   4  10
HETATM   10  C1  UNL     1     -34.181   6.715   3.554  1.00 20.00     0.224 C 
HETATM   11  O11 UNL     1     -34.900   7.700   3.696  1.00 20.00    -0.279 OA
HETATM   12 CL12 UNL     1     -34.604   5.073   3.934  1.00 20.00    -0.043 Cl
ENDBRANCH   4  10
TORSDOF 1
ENDMDL
MODEL 3
REMARK VINA RESULT:       2.8      2.158      3.279
REMARK  1 active torsions:
REMARK  status: ('A' for Active; 'I' for Inactive)
REMARK    1  A    between atoms: C1_1  and  C5_5 
ROOT
HETATM    1  C2  UNL     1     -33.299   7.413   4.362  1.00 20.00     0.006 C 
HETATM    2  C3  UNL     1     -33.272   5.880   4.318  1.00 20.00     0.006 C 
HETATM    3  C4  UNL     1     -35.133   6.623   3.086  1.00 20.00     0.011 C 
HETATM    4  C5  UNL     1     -33.380   7.561   1.803  1.00 20.00     0.084 C 
HETATM    5  C6  UNL     1     -34.142   7.789   3.128  1.00 20.00    -0.001 C 
HETATM    6  C7  UNL     1     -34.021   5.564   3.012  1.00 20.00    -0.006 C 
HETATM    7  C8  UNL     1     -33.202   6.011   1.753  1.00 20.00    -0.032 C 
HETATM    8  C9  UNL     1     -33.849   5.444   0.472  1.00 20.00     0.016 C 
HETATM    9  C10 UNL     1     -31.744   5.522   1.780  1.00 20.00     0.016 C 
ENDROOT
BRANCH   4  10
HETATM   10  C1  UNL     1     -32.136   8.390   1.694  1.00 20.00     0.224 C 
HETATM   11  O11 UNL     1     -31.224   8.296   2.511  1.00 20.00    -0.279 OA
HETATM   12 CL12 UNL     1     -32.175   9.449   0.318  1.00 20.00    -0.043 Cl
ENDBRANCH   4  10
TORSDOF 1
ENDMDL
MODEL 4
REMARK VINA RESULT:       3.4      1.600      2.116
REMARK  1 active torsions:
REMARK  status: ('A' for Active; 'I' for Inactive)
REMARK    1  A    between atoms: C1_1  and  C5_5 
ROOT
HETATM    1  C2  UNL     1     -31.776   5.794   1.807  1.00 20.00     0.006 C 
HETATM    2  C3  UNL     1     -31.291   7.196   2.197  1.00 20.00     0.006 C 
HETATM    3  C4  UNL     1     -33.214   7.424   0.862  1.00 20.00     0.011 C 
HETATM    4  C5  UNL     1     -34.127   6.272   2.716  1.00 20.00     0.084 C 
HETATM    5  C6  UNL     1     -33.262   6.016   1.461  1.00 20.00    -0.001 C 
HETATM    6  C7  UNL     1     -32.579   8.035   2.121  1.00 20.00    -0.006 C 
HETATM    7  C8  UNL     1     -33.594   7.639   3.247  1.00 20.00    -0.032 C 
HETATM    8  C9  UNL     1     -34.742   8.668   3.308  1.00 20.00     0.016 C 
HETATM    9  C10 UNL     1     -32.953   7.591   4.644  1.00 20.00     0.016 C 
ENDROOT
BRANCH   4  10
HETATM   10  C1  UNL     1     -34.117   5.121   3.676  1.00 20.00     0.224 C 
HETATM   11  O11 UNL     1     -33.214   4.289   3.676  1.00 20.00    -0.279 OA
HETATM   12 CL12 UNL     1     -35.499   5.137   4.729  1.00 20.00    -0.043 Cl
ENDBRANCH   4  10
TORSDOF 1
ENDMDL
MODEL 5
REMARK VINA RESULT:       3.5      2.195      3.655
REMARK  1 active torsions:
REMARK  status: ('A' for Active; 'I' for Inactive)
REMARK    1  A    between atoms: C1_1  and  C5_5 
ROOT
HETATM    1  C2  UNL     1     -31.898   8.105   3.032  1.00 20.00     0.006 C 
HETATM    2  C3  UNL     1     -32.478   7.919   4.439  1.00 20.00     0.006 C 
HETATM    3  C4  UNL     1     -34.177   8.755   3.044  1.00 20.00     0.011 C 
HETATM    4  C5  UNL     1     -33.759   6.677   1.994  1.00 20.00     0.084 C 
HETATM    5  C6  UNL     1     -33.147   8.090   2.128  1.00 20.00    -0.001 C 
HETATM    6  C7  UNL     1     -33.980   7.723   4.165  1.00 20.00    -0.006 C 
HETATM    7  C8  UNL     1     -34.262   6.364   3.437  1.00 20.00    -0.032 C 
HETATM    8  C9  UNL     1     -35.778   6.078   3.421  1.00 20.00     0.016 C 
HETATM    9  C10 UNL     1     -33.582   5.165   4.119  1.00 20.00     0.016 C 
ENDROOT
BRANCH   4  10
HETATM   10  C1  UNL     1     -32.816   5.689   1.375  1.00 20.00     0.224 C 
HETATM   11  O11 UNL     1     -31.629   5.648   1.687  1.00 20.00    -0.279 OA
HETATM   12 CL12 UNL     1     -33.609   4.669   0.213  1.00 20.00    -0.043 Cl
ENDBRANCH   4  10
TORSDOF 1
ENDMDL
MODEL 6
REMARK VINA RESULT:       4.0      1.770      3.250
REMARK  1 active torsions:
REMARK  status: ('A' for Active; 'I' for Inactive)
REMARK    1  A    between atoms: C1_1  and  C5_5 
ROOT
HETATM    1  C2  UNL     1     -34.578   7.791   3.927  1.00 20.00     0.006 C 
HETATM    2  C3  UNL     1     -34.334   8.235   2.479  1.00 20.00     0.006 C 
HETATM    3  C4  UNL     1     -32.247   7.947   3.525  1.00 20.00     0.011 C 
HETATM    4  C5  UNL     1     -33.075   5.733   3.628  1.00 20.00     0.084 C 
HETATM    5  C6  UNL     1     -33.253   7.106   4.316  1.00 20.00    -0.001 C 
HETATM    6  C7  UNL     1     -32.936   7.667   2.180  1.00 20.00    -0.006 C 
HETATM    7  C8  UNL     1     -32.949   6.101   2.118  1.00 20.00    -0.032 C 
HETATM    8  C9  UNL     1     -31.608   5.583   1.556  1.00 20.00     0.016 C 
HETATM    9  C10 UNL     1     -34.063   5.545   1.216  1.00 20.00     0.016 C 
ENDROOT
BRANCH   4  10
HETATM   10  C1  UNL     1     -34.146   4.752   4.000  1.00 20.00     0.224 C 
HETATM   11  O11 UNL     1     -35.309   5.103   4.178  1.00 20.00    -0.279 OA
HETATM   12 CL12 UNL     1     -33.531   3.133   4.137  1.00 20.00    -0.043 Cl
ENDBRANCH   4  10
TORSDOF 1
ENDMDL
MODEL 7
REMARK VINA RESULT:       4.1      2.293      3.433
REMARK  1 active torsions:
REMARK  status: ('A' for Active; 'I' for Inactive)
REMARK    1  A    between atoms: C1_1  and  C5_5 
ROOT
HETATM    1  C2  UNL     1     -35.066   6.634   3.150  1.00 20.00     0.006 C 
HETATM    2  C3  UNL     1     -34.946   8.160   3.246  1.00 20.00     0.006 C 
HETATM    3  C4  UNL     1     -33.322   7.201   4.652  1.00 20.00     0.011 C 
HETATM    4  C5  UNL     1     -32.583   6.400   2.551  1.00 20.00     0.084 C 
HETATM    5  C6  UNL     1     -33.680   6.139   3.608  1.00 20.00    -0.001 C 
HETATM    6  C7  UNL     1     -33.476   8.361   3.655  1.00 20.00    -0.006 C 
HETATM    7  C8  UNL     1     -32.495   7.957   2.501  1.00 20.00    -0.032 C 
HETATM    8  C9  UNL     1     -31.063   8.419   2.840  1.00 20.00     0.016 C 
HETATM    9  C10 UNL     1     -32.867   8.588   1.149  1.00 20.00     0.016 C 
ENDROOT
BRANCH   4  10
HETATM   10  C1  UNL     1     -32.842   5.693   1.255  1.00 20.00     0.224 C 
HETATM   11  O11 UNL     1     -33.904   5.818   0.653  1.00 20.00    -0.279 OA
HETATM   12 CL12 UNL     1     -31.489   4.722   0.759  1.00 20.00    -0.043 Cl
ENDBRANCH   4  10
TORSDOF 1
ENDMDL
MODEL 8
REMARK VINA RESULT:       4.4      1.748      3.069
REMARK  1 active torsions:
REMARK  status: ('A' for Active; 'I' for Inactive)
REMARK    1  A    between atoms: C1_1  and  C5_5 
ROOT
HETATM    1  C2  UNL     1     -32.679   7.776   1.178  1.00 20.00     0.006 C 
HETATM    2  C3  UNL     1     -33.769   6.819   0.680  1.00 20.00     0.006 C 
HETATM    3  C4  UNL     1     -31.996   5.536   1.542  1.00 20.00     0.011 C 
HETATM    4  C5  UNL     1     -32.671   6.683   3.498  1.00 20.00     0.084 C 
HETATM    5  C6  UNL     1     -31.888   6.920   2.187  1.00 20.00    -0.001 C 
HETATM    6  C7  UNL     1     -33.532   5.561   1.534  1.00 20.00    -0.006 C 
HETATM    7  C8  UNL     1     -33.882   5.811   3.041  1.00 20.00    -0.032 C 
HETATM    8  C9  UNL     1     -33.892   4.474   3.811  1.00 20.00     0.016 C 
HETATM    9  C10 UNL     1     -35.262   6.458   3.238  1.00 20.00     0.016 C 
ENDROOT
BRANCH   4  10
HETATM   10  C1  UNL     1     -32.988   7.954   4.227  1.00 20.00     0.224 C 
HETATM   11  O11 UNL     1     -34.065   8.124   4.790  1.00 20.00    -0.279 OA
HETATM   12 CL12 UNL     1     -31.675   9.091   4.158  1.00 20.00    -0.043 Cl
ENDBRANCH   4  10
TORSDOF 1
ENDMDL
