MODEL 1
REMARK VINA RESULT:      -3.2      0.000      0.000
REMARK  1 active torsions:
REMARK  status: ('A' for Active; 'I' for Inactive)
REMARK    1  A    between atoms: C4_4  and  C6_6 
ROOT
HETATM    1  C1  UNL     1     -32.558   9.788   0.084  1.00 20.00     0.012 C 
HETATM    2  C2  UNL     1     -32.263   9.030   0.965  1.00 20.00    -0.109 C 
HETATM    3  C3  UNL     1     -33.077   7.958   2.977  1.00 20.00    -0.003 C 
HETATM    4  C4  UNL     1     -33.799   6.831   3.103  1.00 20.00    -0.061 C 
HETATM    5  C7  UNL     1     -33.516   5.595   2.286  1.00 20.00     0.038 C 
HETATM    6  C8  UNL     1     -32.592   5.854   1.092  1.00 20.00     0.006 C 
HETATM    7  C9  UNL     1     -31.422   6.755   1.482  1.00 20.00     0.021 C 
HETATM    8  C10 UNL     1     -31.900   8.100   2.049  1.00 20.00     0.087 C 
ENDROOT
BRANCH   4   9
HETATM    9  C6  UNL     1     -34.897   6.743   4.035  1.00 20.00    -0.004 C 
HETATM   10  C5  UNL     1     -35.386   5.538   4.371  1.00 20.00     0.012 C 
ENDBRANCH   4   9
TORSDOF 1
ENDMDL
MODEL 2
REMARK VINA RESULT:      -0.7      1.760      3.178
REMARK  1 active torsions:
REMARK  status: ('A' for Active; 'I' for Inactive)
REMARK    1  A    between atoms: C4_4  and  C6_6 
ROOT
HETATM    1  C1  UNL     1     -31.613   8.010   2.372  1.00 20.00     0.012 C 
HETATM    2  C2  UNL     1     -32.544   7.268   2.223  1.00 20.00    -0.109 C 
HETATM    3  C3  UNL     1     -33.323   5.007   2.598  1.00 20.00    -0.003 C 
HETATM    4  C4  UNL     1     -33.884   4.476   3.698  1.00 20.00    -0.061 C 
HETATM    5  C7  UNL     1     -34.921   5.211   4.510  1.00 20.00     0.038 C 
HETATM    6  C8  UNL     1     -35.008   6.703   4.178  1.00 20.00     0.006 C 
HETATM    7  C9  UNL     1     -34.961   6.939   2.670  1.00 20.00     0.021 C 
HETATM    8  C10 UNL     1     -33.687   6.357   2.038  1.00 20.00     0.087 C 
ENDROOT
BRANCH   4   9
HETATM    9  C6  UNL     1     -33.517   3.162   4.167  1.00 20.00    -0.004 C 
HETATM   10  C5  UNL     1     -32.744   3.041   5.259  1.00 20.00     0.012 C 
ENDBRANCH   4   9
TORSDOF 1
ENDMDL
MODEL 3
REMARK VINA RESULT:      -0.6      1.132      2.688
REMARK  1 active torsions:
REMARK  status: ('A' for Active; 'I' for Inactive)
REMARK    1  A    between atoms: C4_4  and  C6_6 
ROOT
HETATM    1  C1  UNL     1     -31.094   4.553   1.167  1.00 20.00     0.012 C 
HETATM    2  C2  UNL     1     -31.905   5.436   1.206  1.00 20.00    -0.109 C 
HETATM    3  C3  UNL     1     -33.976   6.144   2.241  1.00 20.00    -0.003 C 
HETATM    4  C4  UNL     1     -34.165   6.769   3.417  1.00 20.00    -0.061 C 
HETATM    5  C7  UNL     1     -33.281   7.900   3.880  1.00 20.00     0.038 C 
HETATM    6  C8  UNL     1     -31.981   8.024   3.080  1.00 20.00     0.006 C 
HETATM    7  C9  UNL     1     -32.236   7.865   1.582  1.00 20.00     0.021 C 
HETATM    8  C10 UNL     1     -32.902   6.520   1.254  1.00 20.00     0.087 C 
ENDROOT
BRANCH   4   9
HETATM    9  C6  UNL     1     -35.233   6.386   4.307  1.00 20.00    -0.004 C 
HETATM   10  C5  UNL     1     -35.413   5.088   4.604  1.00 20.00     0.012 C 
ENDBRANCH   4   9
TORSDOF 1
ENDMDL
