MODEL 1
REMARK VINA RESULT:      -0.3      0.000      0.000
REMARK  0 active torsions:
REMARK  status: ('A' for Active; 'I' for Inactive)
ROOT
HETATM    1  C1  UNL     1     -32.223   8.382   3.138  1.00 20.00     0.001 C 
HETATM    2  C2  UNL     1     -34.818   4.919   4.582  1.00 20.00     0.001 C 
HETATM    3  C3  UNL     1     -33.140   7.498   3.987  1.00 20.00     0.005 C 
HETATM    4  C4  UNL     1     -35.350   6.306   4.241  1.00 20.00     0.005 C 
HETATM    5  C5  UNL     1     -32.306   8.222   1.626  1.00 20.00     0.005 C 
HETATM    6  C6  UNL     1     -33.991   4.481   3.375  1.00 20.00     0.005 C 
HETATM    7  C7  UNL     1     -31.427   5.739   1.873  1.00 20.00     0.010 A 
HETATM    8  C8  UNL     1     -34.335   6.891   3.246  1.00 20.00    -0.010 C 
HETATM    9  C9  UNL     1     -32.043   6.860   1.075  1.00 20.00    -0.010 A 
HETATM   10  C10 UNL     1     -34.030   5.654   2.386  1.00 20.00    -0.006 C 
HETATM   11  C11 UNL     1     -32.872   5.651   1.437  1.00 20.00    -0.006 A 
ENDROOT
TORSDOF 0
ENDMDL
MODEL 2
REMARK VINA RESULT:       0.1      0.898      3.888
REMARK  0 active torsions:
REMARK  status: ('A' for Active; 'I' for Inactive)
ROOT
HETATM    1  C1  UNL     1     -34.116   4.489   4.299  1.00 20.00     0.001 C 
HETATM    2  C2  UNL     1     -31.326   6.456   1.272  1.00 20.00     0.001 C 
HETATM    3  C3  UNL     1     -33.003   4.723   3.275  1.00 20.00     0.005 C 
HETATM    4  C4  UNL     1     -32.337   5.369   0.927  1.00 20.00     0.005 C 
HETATM    5  C5  UNL     1     -35.356   5.367   4.193  1.00 20.00     0.005 C 
HETATM    6  C6  UNL     1     -32.106   7.526   2.032  1.00 20.00     0.005 C 
HETATM    7  C7  UNL     1     -33.865   7.483   4.738  1.00 20.00     0.010 A 
HETATM    8  C8  UNL     1     -33.424   5.476   2.009  1.00 20.00    -0.010 C 
HETATM    9  C9  UNL     1     -35.148   6.842   4.273  1.00 20.00    -0.010 A 
HETATM   10  C10 UNL     1     -33.544   7.002   2.147  1.00 20.00    -0.006 C 
HETATM   11  C11 UNL     1     -34.293   7.608   3.293  1.00 20.00    -0.006 A 
ENDROOT
TORSDOF 0
ENDMDL
MODEL 3
REMARK VINA RESULT:       0.1      0.767      2.505
REMARK  0 active torsions:
REMARK  status: ('A' for Active; 'I' for Inactive)
ROOT
HETATM    1  C1  UNL     1     -32.392   5.550   0.842  1.00 20.00     0.001 C 
HETATM    2  C2  UNL     1     -35.551   6.258   4.057  1.00 20.00     0.001 C 
HETATM    3  C3  UNL     1     -33.598   5.378   1.769  1.00 20.00     0.005 C 
HETATM    4  C4  UNL     1     -34.496   5.160   4.118  1.00 20.00     0.005 C 
HETATM    5  C5  UNL     1     -31.230   6.389   1.360  1.00 20.00     0.005 C 
HETATM    6  C6  UNL     1     -34.791   7.553   3.781  1.00 20.00     0.005 C 
HETATM    7  C7  UNL     1     -32.820   8.502   1.408  1.00 20.00     0.010 A 
HETATM    8  C8  UNL     1     -33.336   5.672   3.249  1.00 20.00    -0.010 C 
HETATM    9  C9  UNL     1     -31.536   7.794   1.758  1.00 20.00    -0.010 A 
HETATM   10  C10 UNL     1     -33.314   7.157   3.642  1.00 20.00    -0.006 C 
HETATM   11  C11 UNL     1     -32.520   8.147   2.847  1.00 20.00    -0.006 A 
ENDROOT
TORSDOF 0
ENDMDL
MODEL 4
REMARK VINA RESULT:       1.7      1.066      3.538
REMARK  0 active torsions:
REMARK  status: ('A' for Active; 'I' for Inactive)
ROOT
HETATM    1  C1  UNL     1     -34.453   6.343   3.539  1.00 20.00     0.001 C 
HETATM    2  C2  UNL     1     -32.214   9.559   1.203  1.00 20.00     0.001 C 
HETATM    3  C3  UNL     1     -33.955   7.696   3.026  1.00 20.00     0.005 C 
HETATM    4  C4  UNL     1     -32.032   9.298   2.693  1.00 20.00     0.005 C 
HETATM    5  C5  UNL     1     -33.492   5.165   3.443  1.00 20.00     0.005 C 
HETATM    6  C6  UNL     1     -32.042   8.204   0.518  1.00 20.00     0.005 C 
HETATM    7  C7  UNL     1     -33.557   5.369   0.806  1.00 20.00     0.010 A 
HETATM    8  C8  UNL     1     -32.434   7.828   2.894  1.00 20.00    -0.010 C 
HETATM    9  C9  UNL     1     -32.974   4.825   2.085  1.00 20.00    -0.010 A 
HETATM   10  C10 UNL     1     -31.813   7.186   1.644  1.00 20.00    -0.006 C 
HETATM   11  C11 UNL     1     -32.172   5.789   1.244  1.00 20.00    -0.006 A 
ENDROOT
TORSDOF 0
ENDMDL
MODEL 5
REMARK VINA RESULT:       2.5      1.064      3.204
REMARK  0 active torsions:
REMARK  status: ('A' for Active; 'I' for Inactive)
ROOT
HETATM    1  C1  UNL     1     -32.389   8.704   2.817  1.00 20.00     0.001 C 
HETATM    2  C2  UNL     1     -32.823   4.956   0.250  1.00 20.00     0.001 C 
HETATM    3  C3  UNL     1     -32.229   7.674   1.696  1.00 20.00     0.005 C 
HETATM    4  C4  UNL     1     -31.548   5.348   0.988  1.00 20.00     0.005 C 
HETATM    5  C5  UNL     1     -32.762   8.178   4.197  1.00 20.00     0.005 C 
HETATM    6  C6  UNL     1     -33.939   5.006   1.291  1.00 20.00     0.005 C 
HETATM    7  C7  UNL     1     -35.070   7.336   3.217  1.00 20.00     0.010 A 
HETATM    8  C8  UNL     1     -32.017   6.229   2.157  1.00 20.00    -0.010 C 
HETATM    9  C9  UNL     1     -34.024   7.389   4.301  1.00 20.00    -0.010 A 
HETATM   10  C10 UNL     1     -33.282   5.475   2.597  1.00 20.00    -0.006 C 
HETATM   11  C11 UNL     1     -34.257   6.104   3.543  1.00 20.00    -0.006 A 
ENDROOT
TORSDOF 0
ENDMDL
