MODEL 1
REMARK VINA RESULT:       0.4      0.000      0.000
REMARK  0 active torsions:
REMARK  status: ('A' for Active; 'I' for Inactive)
ROOT
HETATM    1  C1  UNL     1     -31.205   6.970   1.885  1.00 20.00    -0.025 C 
HETATM    2  C2  UNL     1     -31.659   5.779   1.450  1.00 20.00    -0.025 C 
HETATM    3  C3  UNL     1     -34.290   7.602   4.124  1.00 20.00    -0.022 C 
HETATM    4  C4  UNL     1     -34.963   6.464   4.411  1.00 20.00     0.007 C 
HETATM    5  C5  UNL     1     -33.091   7.425   0.720  1.00 20.00     0.018 C 
HETATM    6  C6  UNL     1     -32.411   7.900   2.012  1.00 20.00     0.017 C 
HETATM    7  C7  UNL     1     -33.134   5.928   1.158  1.00 20.00     0.016 C 
HETATM    8  C8  UNL     1     -33.202   7.248   3.174  1.00 20.00     0.023 C 
HETATM    9  C9  UNL     1     -34.529   5.307   3.511  1.00 20.00     0.198 C 
HETATM   10  C10 UNL     1     -34.003   6.168   2.393  1.00 20.00     0.039 C 
HETATM   11  F11 UNL     1     -33.544   4.574   4.079  1.00 20.00    -0.245 F 
ENDROOT
TORSDOF 0
ENDMDL
MODEL 2
REMARK VINA RESULT:       0.8      1.544      2.577
REMARK  0 active torsions:
REMARK  status: ('A' for Active; 'I' for Inactive)
ROOT
HETATM    1  C1  UNL     1     -32.467   8.443   0.510  1.00 20.00    -0.025 C 
HETATM    2  C2  UNL     1     -32.498   9.345   1.510  1.00 20.00    -0.025 C 
HETATM    3  C3  UNL     1     -33.822   5.580   2.722  1.00 20.00    -0.022 C 
HETATM    4  C4  UNL     1     -34.456   6.036   3.827  1.00 20.00     0.007 C 
HETATM    5  C5  UNL     1     -30.978   7.704   2.046  1.00 20.00     0.018 C 
HETATM    6  C6  UNL     1     -32.042   7.105   1.114  1.00 20.00     0.017 C 
HETATM    7  C7  UNL     1     -31.978   8.668   2.756  1.00 20.00     0.016 C 
HETATM    8  C8  UNL     1     -33.252   6.760   2.018  1.00 20.00     0.023 C 
HETATM    9  C9  UNL     1     -34.172   7.518   4.072  1.00 20.00     0.198 C 
HETATM   10  C10 UNL     1     -32.881   7.559   3.298  1.00 20.00     0.039 C 
HETATM   11  F11 UNL     1     -35.115   8.308   3.509  1.00 20.00    -0.245 F 
ENDROOT
TORSDOF 0
ENDMDL
MODEL 3
REMARK VINA RESULT:       1.0      1.415      3.400
REMARK  0 active torsions:
REMARK  status: ('A' for Active; 'I' for Inactive)
ROOT
HETATM    1  C1  UNL     1     -35.369   7.560   3.669  1.00 20.00    -0.025 C 
HETATM    2  C2  UNL     1     -35.405   6.222   3.518  1.00 20.00    -0.025 C 
HETATM    3  C3  UNL     1     -31.997   7.923   1.817  1.00 20.00    -0.022 C 
HETATM    4  C4  UNL     1     -31.721   6.856   1.032  1.00 20.00     0.007 C 
HETATM    5  C5  UNL     1     -33.603   6.766   4.840  1.00 20.00     0.018 C 
HETATM    6  C6  UNL     1     -33.913   7.953   3.917  1.00 20.00     0.017 C 
HETATM    7  C7  UNL     1     -34.016   5.692   3.787  1.00 20.00     0.016 C 
HETATM    8  C8  UNL     1     -33.251   7.618   2.557  1.00 20.00     0.023 C 
HETATM    9  C9  UNL     1     -32.632   5.670   1.348  1.00 20.00     0.198 C 
HETATM   10  C10 UNL     1     -32.970   6.102   2.750  1.00 20.00     0.039 C 
HETATM   11  F11 UNL     1     -33.727   5.655   0.554  1.00 20.00    -0.245 F 
ENDROOT
TORSDOF 0
ENDMDL
MODEL 4
REMARK VINA RESULT:       1.2      1.354      2.343
REMARK  0 active torsions:
REMARK  status: ('A' for Active; 'I' for Inactive)
ROOT
HETATM    1  C1  UNL     1     -33.198   5.750   0.462  1.00 20.00    -0.025 C 
HETATM    2  C2  UNL     1     -33.593   6.997   0.780  1.00 20.00    -0.025 C 
HETATM    3  C3  UNL     1     -34.036   4.330   3.956  1.00 20.00    -0.022 C 
HETATM    4  C4  UNL     1     -34.905   5.112   4.637  1.00 20.00     0.007 C 
HETATM    5  C5  UNL     1     -31.781   6.443   2.084  1.00 20.00     0.018 C 
HETATM    6  C6  UNL     1     -32.522   5.155   1.697  1.00 20.00     0.017 C 
HETATM    7  C7  UNL     1     -33.081   7.301   2.168  1.00 20.00     0.016 C 
HETATM    8  C8  UNL     1     -33.707   5.032   2.687  1.00 20.00     0.023 C 
HETATM    9  C9  UNL     1     -35.051   6.491   3.993  1.00 20.00     0.198 C 
HETATM   10  C10 UNL     1     -33.726   6.470   3.278  1.00 20.00     0.039 C 
HETATM   11  F11 UNL     1     -36.086   6.529   3.122  1.00 20.00    -0.245 F 
ENDROOT
TORSDOF 0
ENDMDL
MODEL 5
REMARK VINA RESULT:       1.3      1.592      3.664
REMARK  0 active torsions:
REMARK  status: ('A' for Active; 'I' for Inactive)
ROOT
HETATM    1  C1  UNL     1     -34.141   6.357   4.922  1.00 20.00    -0.025 C 
HETATM    2  C2  UNL     1     -34.037   7.694   4.798  1.00 20.00    -0.025 C 
HETATM    3  C3  UNL     1     -32.572   5.668   1.460  1.00 20.00    -0.022 C 
HETATM    4  C4  UNL     1     -31.853   6.718   0.999  1.00 20.00     0.007 C 
HETATM    5  C5  UNL     1     -35.488   6.915   3.191  1.00 20.00     0.018 C 
HETATM    6  C6  UNL     1     -34.498   5.796   3.546  1.00 20.00     0.017 C 
HETATM    7  C7  UNL     1     -34.444   8.057   3.389  1.00 20.00     0.016 C 
HETATM    8  C8  UNL     1     -33.212   6.092   2.733  1.00 20.00     0.023 C 
HETATM    9  C9  UNL     1     -32.134   7.990   1.799  1.00 20.00     0.198 C 
HETATM   10  C10 UNL     1     -33.486   7.561   2.306  1.00 20.00     0.039 C 
HETATM   11  F11 UNL     1     -31.251   8.150   2.811  1.00 20.00    -0.245 F 
ENDROOT
TORSDOF 0
ENDMDL
MODEL 6
REMARK VINA RESULT:       1.9      2.697      4.133
REMARK  0 active torsions:
REMARK  status: ('A' for Active; 'I' for Inactive)
ROOT
HETATM    1  C1  UNL     1     -33.449   7.106   2.576  1.00 20.00    -0.025 C 
HETATM    2  C2  UNL     1     -32.711   6.544   1.598  1.00 20.00    -0.025 C 
HETATM    3  C3  UNL     1     -32.913  10.696   1.251  1.00 20.00    -0.022 C 
HETATM    4  C4  UNL     1     -32.536  10.717  -0.048  1.00 20.00     0.007 C 
HETATM    5  C5  UNL     1     -31.343   7.877   2.879  1.00 20.00     0.018 C 
HETATM    6  C6  UNL     1     -32.776   8.425   2.955  1.00 20.00     0.017 C 
HETATM    7  C7  UNL     1     -31.482   7.399   1.401  1.00 20.00     0.016 C 
HETATM    8  C8  UNL     1     -32.977   9.271   1.673  1.00 20.00     0.023 C 
HETATM    9  C9  UNL     1     -32.100   9.335  -0.533  1.00 20.00     0.198 C 
HETATM   10  C10 UNL     1     -31.763   8.790   0.830  1.00 20.00     0.039 C 
HETATM   11  F11 UNL     1     -33.124   8.657  -1.100  1.00 20.00    -0.245 F 
ENDROOT
TORSDOF 0
ENDMDL
MODEL 7
REMARK VINA RESULT:       2.6      1.610      3.279
REMARK  0 active torsions:
REMARK  status: ('A' for Active; 'I' for Inactive)
ROOT
HETATM    1  C1  UNL     1     -34.009   4.601   3.583  1.00 20.00    -0.025 C 
HETATM    2  C2  UNL     1     -34.664   5.236   4.573  1.00 20.00    -0.025 C 
HETATM    3  C3  UNL     1     -32.168   7.794   2.425  1.00 20.00    -0.022 C 
HETATM    4  C4  UNL     1     -32.138   8.750   3.382  1.00 20.00     0.007 C 
HETATM    5  C5  UNL     1     -35.357   6.102   2.559  1.00 20.00     0.018 C 
HETATM    6  C6  UNL     1     -33.928   5.563   2.398  1.00 20.00     0.017 C 
HETATM    7  C7  UNL     1     -35.140   6.563   4.033  1.00 20.00     0.016 C 
HETATM    8  C8  UNL     1     -32.992   6.671   2.944  1.00 20.00     0.023 C 
HETATM    9  C9  UNL     1     -33.118   8.447   4.515  1.00 20.00     0.198 C 
HETATM   10  C10 UNL     1     -34.020   7.552   3.707  1.00 20.00     0.039 C 
HETATM   11  F11 UNL     1     -32.522   7.770   5.524  1.00 20.00    -0.245 F 
ENDROOT
TORSDOF 0
ENDMDL
MODEL 8
REMARK VINA RESULT:       3.0      1.864      3.479
REMARK  0 active torsions:
REMARK  status: ('A' for Active; 'I' for Inactive)
ROOT
HETATM    1  C1  UNL     1     -35.509   6.963   3.420  1.00 20.00    -0.025 C 
HETATM    2  C2  UNL     1     -35.183   6.384   2.248  1.00 20.00    -0.025 C 
HETATM    3  C3  UNL     1     -32.026   8.574   3.870  1.00 20.00    -0.022 C 
HETATM    4  C4  UNL     1     -31.343   8.662   2.706  1.00 20.00     0.007 C 
HETATM    5  C5  UNL     1     -33.878   5.472   3.908  1.00 20.00     0.018 C 
HETATM    6  C6  UNL     1     -34.276   6.897   4.321  1.00 20.00     0.017 C 
HETATM    7  C7  UNL     1     -33.792   5.813   2.388  1.00 20.00     0.016 C 
HETATM    8  C8  UNL     1     -33.290   7.842   3.590  1.00 20.00     0.023 C 
HETATM    9  C9  UNL     1     -31.978   7.807   1.610  1.00 20.00     0.198 C 
HETATM   10  C10 UNL     1     -32.690   6.862   2.543  1.00 20.00     0.039 C 
HETATM   11  F11 UNL     1     -32.852   8.520   0.863  1.00 20.00    -0.245 F 
ENDROOT
TORSDOF 0
ENDMDL
MODEL 9
REMARK VINA RESULT:       3.0      1.368      1.973
REMARK  0 active torsions:
REMARK  status: ('A' for Active; 'I' for Inactive)
ROOT
HETATM    1  C1  UNL     1     -31.097   8.745   2.907  1.00 20.00    -0.025 C 
HETATM    2  C2  UNL     1     -30.759   8.151   1.746  1.00 20.00    -0.025 C 
HETATM    3  C3  UNL     1     -34.138   6.434   3.487  1.00 20.00    -0.022 C 
HETATM    4  C4  UNL     1     -34.059   5.287   2.774  1.00 20.00     0.007 C 
HETATM    5  C5  UNL     1     -32.819   9.144   1.494  1.00 20.00     0.018 C 
HETATM    6  C6  UNL     1     -32.623   8.783   2.974  1.00 20.00     0.017 C 
HETATM    7  C7  UNL     1     -32.031   7.904   0.970  1.00 20.00     0.016 C 
HETATM    8  C8  UNL     1     -32.979   7.281   3.097  1.00 20.00     0.023 C 
HETATM    9  C9  UNL     1     -32.982   5.365   1.692  1.00 20.00     0.198 C 
HETATM   10  C10 UNL     1     -32.965   6.868   1.598  1.00 20.00     0.039 C 
HETATM   11  F11 UNL     1     -31.797   4.881   2.131  1.00 20.00    -0.245 F 
ENDROOT
TORSDOF 0
ENDMDL
