MODEL 1
REMARK VINA RESULT:      -0.9      0.000      0.000
REMARK  0 active torsions:
REMARK  status: ('A' for Active; 'I' for Inactive)
ROOT
HETATM    1  C1  UNL     1     -32.305   7.840   2.973  1.00 20.00     0.129 C 
HETATM    2  C2  UNL     1     -33.296   7.335   3.720  1.00 20.00     0.136 C 
HETATM    3  C3  UNL     1     -31.931   7.309   1.625  1.00 20.00     0.073 C 
HETATM    4  C4  UNL     1     -32.546   5.941   1.327  1.00 20.00     0.008 C 
HETATM    5  C5  UNL     1     -34.007   5.885   1.772  1.00 20.00     0.016 C 
HETATM    6  C6  UNL     1     -34.176   6.181   3.285  1.00 20.00     0.009 C 
HETATM    7  C7  UNL     1     -33.801   4.943   4.119  1.00 20.00     0.022 C 
HETATM    8  C8  UNL     1     -35.650   6.529   3.555  1.00 20.00     0.022 C 
HETATM    9  F9  UNL     1     -31.593   8.877   3.471  1.00 20.00    -0.208 F 
HETATM   10  F10 UNL     1     -33.520   7.892   4.935  1.00 20.00    -0.207 F 
ENDROOT
TORSDOF 0
ENDMDL
MODEL 2
REMARK VINA RESULT:      -0.6      1.251      3.119
REMARK  0 active torsions:
REMARK  status: ('A' for Active; 'I' for Inactive)
ROOT
HETATM    1  C1  UNL     1     -34.074   6.314   3.229  1.00 20.00     0.129 C 
HETATM    2  C2  UNL     1     -33.517   7.533   3.217  1.00 20.00     0.136 C 
HETATM    3  C3  UNL     1     -33.615   5.186   2.359  1.00 20.00     0.073 C 
HETATM    4  C4  UNL     1     -32.693   5.638   1.226  1.00 20.00     0.008 C 
HETATM    5  C5  UNL     1     -31.671   6.660   1.723  1.00 20.00     0.016 C 
HETATM    6  C6  UNL     1     -32.342   7.915   2.342  1.00 20.00     0.009 C 
HETATM    7  C7  UNL     1     -32.847   8.854   1.233  1.00 20.00     0.022 C 
HETATM    8  C8  UNL     1     -31.296   8.665   3.184  1.00 20.00     0.022 C 
HETATM    9  F9  UNL     1     -35.117   6.094   4.061  1.00 20.00    -0.208 F 
HETATM   10  F10 UNL     1     -34.041   8.474   4.039  1.00 20.00    -0.207 F 
ENDROOT
TORSDOF 0
ENDMDL
MODEL 3
REMARK VINA RESULT:      -0.5      1.168      2.941
REMARK  0 active torsions:
REMARK  status: ('A' for Active; 'I' for Inactive)
ROOT
HETATM    1  C1  UNL     1     -32.540   8.012   2.932  1.00 20.00     0.129 C 
HETATM    2  C2  UNL     1     -32.225   7.234   1.887  1.00 20.00     0.136 C 
HETATM    3  C3  UNL     1     -33.571   7.648   3.954  1.00 20.00     0.073 C 
HETATM    4  C4  UNL     1     -34.464   6.485   3.518  1.00 20.00     0.008 C 
HETATM    5  C5  UNL     1     -33.642   5.378   2.859  1.00 20.00     0.016 C 
HETATM    6  C6  UNL     1     -32.853   5.882   1.623  1.00 20.00     0.009 C 
HETATM    7  C7  UNL     1     -33.787   6.010   0.406  1.00 20.00     0.022 C 
HETATM    8  C8  UNL     1     -31.752   4.859   1.293  1.00 20.00     0.022 C 
HETATM    9  F9  UNL     1     -31.904   9.198   3.063  1.00 20.00    -0.208 F 
HETATM   10  F10 UNL     1     -31.288   7.690   1.021  1.00 20.00    -0.207 F 
ENDROOT
TORSDOF 0
ENDMDL
MODEL 4
REMARK VINA RESULT:      -0.3      2.074      3.742
REMARK  0 active torsions:
REMARK  status: ('A' for Active; 'I' for Inactive)
ROOT
HETATM    1  C1  UNL     1     -33.346   5.784   2.638  1.00 20.00     0.129 C 
HETATM    2  C2  UNL     1     -32.474   6.570   1.992  1.00 20.00     0.136 C 
HETATM    3  C3  UNL     1     -34.347   6.294   3.627  1.00 20.00     0.073 C 
HETATM    4  C4  UNL     1     -34.062   7.725   4.085  1.00 20.00     0.008 C 
HETATM    5  C5  UNL     1     -33.659   8.610   2.906  1.00 20.00     0.016 C 
HETATM    6  C6  UNL     1     -32.408   8.074   2.163  1.00 20.00     0.009 C 
HETATM    7  C7  UNL     1     -31.130   8.417   2.949  1.00 20.00     0.022 C 
HETATM    8  C8  UNL     1     -32.332   8.745   0.781  1.00 20.00     0.022 C 
HETATM    9  F9  UNL     1     -33.310   4.454   2.396  1.00 20.00    -0.208 F 
HETATM   10  F10 UNL     1     -31.604   5.981   1.138  1.00 20.00    -0.207 F 
ENDROOT
TORSDOF 0
ENDMDL
MODEL 5
REMARK VINA RESULT:      -0.1      1.530      2.695
REMARK  0 active torsions:
REMARK  status: ('A' for Active; 'I' for Inactive)
ROOT
HETATM    1  C1  UNL     1     -33.527   7.316   3.491  1.00 20.00     0.129 C 
HETATM    2  C2  UNL     1     -33.528   6.160   2.812  1.00 20.00     0.136 C 
HETATM    3  C3  UNL     1     -32.715   8.509   3.094  1.00 20.00     0.073 C 
HETATM    4  C4  UNL     1     -31.639   8.185   2.057  1.00 20.00     0.008 C 
HETATM    5  C5  UNL     1     -32.184   7.257   0.971  1.00 20.00     0.016 C 
HETATM    6  C6  UNL     1     -32.728   5.924   1.548  1.00 20.00     0.009 C 
HETATM    7  C7  UNL     1     -31.566   4.971   1.879  1.00 20.00     0.022 C 
HETATM    8  C8  UNL     1     -33.624   5.260   0.489  1.00 20.00     0.022 C 
HETATM    9  F9  UNL     1     -34.290   7.405   4.604  1.00 20.00    -0.208 F 
HETATM   10  F10 UNL     1     -34.291   5.148   3.289  1.00 20.00    -0.207 F 
ENDROOT
TORSDOF 0
ENDMDL
MODEL 6
REMARK VINA RESULT:      -0.1      1.728      2.779
REMARK  0 active torsions:
REMARK  status: ('A' for Active; 'I' for Inactive)
ROOT
HETATM    1  C1  UNL     1     -32.863   5.901   2.244  1.00 20.00     0.129 C 
HETATM    2  C2  UNL     1     -33.012   7.153   2.695  1.00 20.00     0.136 C 
HETATM    3  C3  UNL     1     -33.656   4.738   2.752  1.00 20.00     0.073 C 
HETATM    4  C4  UNL     1     -34.400   5.040   4.053  1.00 20.00     0.008 C 
HETATM    5  C5  UNL     1     -35.048   6.423   4.007  1.00 20.00     0.016 C 
HETATM    6  C6  UNL     1     -34.016   7.554   3.756  1.00 20.00     0.009 C 
HETATM    7  C7  UNL     1     -33.251   7.878   5.051  1.00 20.00     0.022 C 
HETATM    8  C8  UNL     1     -34.770   8.815   3.300  1.00 20.00     0.022 C 
HETATM    9  F9  UNL     1     -31.934   5.670   1.289  1.00 20.00    -0.208 F 
HETATM   10  F10 UNL     1     -32.215   8.114   2.168  1.00 20.00    -0.207 F 
ENDROOT
TORSDOF 0
ENDMDL
MODEL 7
REMARK VINA RESULT:       0.0      1.761      2.695
REMARK  0 active torsions:
REMARK  status: ('A' for Active; 'I' for Inactive)
ROOT
HETATM    1  C1  UNL     1     -32.399   7.452   2.369  1.00 20.00     0.129 C 
HETATM    2  C2  UNL     1     -33.315   6.474   2.392  1.00 20.00     0.136 C 
HETATM    3  C3  UNL     1     -32.229   8.453   3.468  1.00 20.00     0.073 C 
HETATM    4  C4  UNL     1     -33.402   8.472   4.450  1.00 20.00     0.008 C 
HETATM    5  C5  UNL     1     -33.853   7.054   4.796  1.00 20.00     0.016 C 
HETATM    6  C6  UNL     1     -34.274   6.244   3.542  1.00 20.00     0.009 C 
HETATM    7  C7  UNL     1     -35.685   6.657   3.086  1.00 20.00     0.022 C 
HETATM    8  C8  UNL     1     -34.292   4.749   3.906  1.00 20.00     0.022 C 
HETATM    9  F9  UNL     1     -31.595   7.550   1.287  1.00 20.00    -0.208 F 
HETATM   10  F10 UNL     1     -33.381   5.645   1.323  1.00 20.00    -0.207 F 
ENDROOT
TORSDOF 0
ENDMDL
MODEL 8
REMARK VINA RESULT:       0.3      2.274      3.121
REMARK  0 active torsions:
REMARK  status: ('A' for Active; 'I' for Inactive)
ROOT
HETATM    1  C1  UNL     1     -33.720   4.357   3.493  1.00 20.00     0.129 C 
HETATM    2  C2  UNL     1     -34.454   5.324   4.060  1.00 20.00     0.136 C 
HETATM    3  C3  UNL     1     -32.782   4.592   2.350  1.00 20.00     0.073 C 
HETATM    4  C4  UNL     1     -32.988   5.947   1.673  1.00 20.00     0.008 C 
HETATM    5  C5  UNL     1     -33.196   7.053   2.707  1.00 20.00     0.016 C 
HETATM    6  C6  UNL     1     -34.409   6.777   3.634  1.00 20.00     0.009 C 
HETATM    7  C7  UNL     1     -35.724   7.110   2.908  1.00 20.00     0.022 C 
HETATM    8  C8  UNL     1     -34.291   7.674   4.878  1.00 20.00     0.022 C 
HETATM    9  F9  UNL     1     -33.844   3.097   3.967  1.00 20.00    -0.208 F 
HETATM   10  F10 UNL     1     -35.282   4.976   5.073  1.00 20.00    -0.207 F 
ENDROOT
TORSDOF 0
ENDMDL
MODEL 9
REMARK VINA RESULT:       0.5      1.918      2.886
REMARK  0 active torsions:
REMARK  status: ('A' for Active; 'I' for Inactive)
ROOT
HETATM    1  C1  UNL     1     -33.095   5.765   2.281  1.00 20.00     0.129 C 
HETATM    2  C2  UNL     1     -33.737   6.373   3.287  1.00 20.00     0.136 C 
HETATM    3  C3  UNL     1     -32.086   6.447   1.410  1.00 20.00     0.073 C 
HETATM    4  C4  UNL     1     -32.104   7.969   1.549  1.00 20.00     0.008 C 
HETATM    5  C5  UNL     1     -32.230   8.387   3.014  1.00 20.00     0.016 C 
HETATM    6  C6  UNL     1     -33.506   7.816   3.685  1.00 20.00     0.009 C 
HETATM    7  C7  UNL     1     -34.741   8.637   3.272  1.00 20.00     0.022 C 
HETATM    8  C8  UNL     1     -33.341   7.909   5.212  1.00 20.00     0.022 C 
HETATM    9  F9  UNL     1     -33.384   4.469   2.027  1.00 20.00    -0.208 F 
HETATM   10  F10 UNL     1     -34.644   5.650   3.987  1.00 20.00    -0.207 F 
ENDROOT
TORSDOF 0
ENDMDL
