MODEL 1
REMARK VINA RESULT:       0.0      0.000      0.000
REMARK  1 active torsions:
REMARK  status: ('A' for Active; 'I' for Inactive)
REMARK    1  A    between atoms: C8_8  and  N9_9 
ROOT
HETATM    1  C1  UNL     1     -33.248   5.179   3.077  1.00 20.00     0.050 C 
HETATM    2  C2  UNL     1     -33.773   4.108   3.681  1.00 20.00     0.136 C 
HETATM    3  C3  UNL     1     -34.000   6.450   3.171  1.00 20.00     0.033 C 
HETATM    4  C4  UNL     1     -35.361   6.390   3.817  1.00 20.00     0.085 C 
HETATM    5  C7  UNL     1     -35.319   5.356   4.929  1.00 20.00     0.180 C 
HETATM    6  N9  UNL     1     -33.568   7.569   2.693  1.00 20.00    -0.289 NA
HETATM    7  O10 UNL     1     -34.902   4.068   4.458  1.00 20.00    -0.363 OA
ENDROOT
BRANCH   6   8
HETATM    8  C8  UNL     1     -32.269   7.484   2.044  1.00 20.00     0.108 A 
HETATM    9  C5  UNL     1     -31.937   8.514   1.001  1.00 20.00     0.029 A 
HETATM   10  C6  UNL     1     -31.267   8.563   2.343  1.00 20.00     0.029 A 
ENDBRANCH   6   8
TORSDOF 1
ENDMDL
MODEL 2
REMARK VINA RESULT:       0.1      1.692      2.780
REMARK  1 active torsions:
REMARK  status: ('A' for Active; 'I' for Inactive)
REMARK    1  A    between atoms: C8_8  and  N9_9 
ROOT
HETATM    1  C1  UNL     1     -33.440   8.033   2.831  1.00 20.00     0.050 C 
HETATM    2  C2  UNL     1     -34.037   7.236   3.722  1.00 20.00     0.136 C 
HETATM    3  C3  UNL     1     -32.606   7.388   1.792  1.00 20.00     0.033 C 
HETATM    4  C4  UNL     1     -32.388   5.902   1.919  1.00 20.00     0.085 C 
HETATM    5  C7  UNL     1     -33.652   5.278   2.487  1.00 20.00     0.180 C 
HETATM    6  N9  UNL     1     -32.034   8.038   0.833  1.00 20.00    -0.289 NA
HETATM    7  O10 UNL     1     -34.032   5.865   3.738  1.00 20.00    -0.363 OA
ENDROOT
BRANCH   6   8
HETATM    8  C8  UNL     1     -32.274   9.472   0.853  1.00 20.00     0.108 A 
HETATM    9  C5  UNL     1     -31.621  10.308  -0.211  1.00 20.00     0.029 A 
HETATM   10  C6  UNL     1     -33.100  10.058  -0.257  1.00 20.00     0.029 A 
ENDBRANCH   6   8
TORSDOF 1
ENDMDL
MODEL 3
REMARK VINA RESULT:       0.3      2.200      4.456
REMARK  1 active torsions:
REMARK  status: ('A' for Active; 'I' for Inactive)
REMARK    1  A    between atoms: C8_8  and  N9_9 
ROOT
HETATM    1  C1  UNL     1     -34.104   6.267   3.958  1.00 20.00     0.050 C 
HETATM    2  C2  UNL     1     -34.174   7.591   3.787  1.00 20.00     0.136 C 
HETATM    3  C3  UNL     1     -33.356   5.489   2.946  1.00 20.00     0.033 C 
HETATM    4  C4  UNL     1     -32.861   6.241   1.737  1.00 20.00     0.085 C 
HETATM    5  C7  UNL     1     -32.474   7.644   2.170  1.00 20.00     0.180 C 
HETATM    6  N9  UNL     1     -33.156   4.215   3.033  1.00 20.00    -0.289 NA
HETATM    7  O10 UNL     1     -33.554   8.331   2.813  1.00 20.00    -0.363 OA
ENDROOT
BRANCH   6   8
HETATM    8  C8  UNL     1     -33.732   3.596   4.216  1.00 20.00     0.108 A 
HETATM    9  C5  UNL     1     -33.397   2.157   4.488  1.00 20.00     0.029 A 
HETATM   10  C6  UNL     1     -32.801   3.238   5.341  1.00 20.00     0.029 A 
ENDBRANCH   6   8
TORSDOF 1
ENDMDL
MODEL 4
REMARK VINA RESULT:       0.4      2.198      4.320
REMARK  1 active torsions:
REMARK  status: ('A' for Active; 'I' for Inactive)
REMARK    1  A    between atoms: C8_8  and  N9_9 
ROOT
HETATM    1  C1  UNL     1     -32.964   6.078   1.948  1.00 20.00     0.050 C 
HETATM    2  C2  UNL     1     -31.993   6.394   1.085  1.00 20.00     0.136 C 
HETATM    3  C3  UNL     1     -33.325   7.090   2.967  1.00 20.00     0.033 C 
HETATM    4  C4  UNL     1     -32.468   8.329   3.029  1.00 20.00     0.085 C 
HETATM    5  C7  UNL     1     -32.027   8.679   1.619  1.00 20.00     0.180 C 
HETATM    6  N9  UNL     1     -34.289   6.936   3.812  1.00 20.00    -0.289 NA
HETATM    7  O10 UNL     1     -31.341   7.596   0.980  1.00 20.00    -0.363 OA
ENDROOT
BRANCH   6   8
HETATM    8  C8  UNL     1     -35.003   5.674   3.686  1.00 20.00     0.108 A 
HETATM    9  C5  UNL     1     -34.340   4.437   4.222  1.00 20.00     0.029 A 
HETATM   10  C6  UNL     1     -35.513   5.032   4.945  1.00 20.00     0.029 A 
ENDBRANCH   6   8
TORSDOF 1
ENDMDL
MODEL 5
REMARK VINA RESULT:       0.7      1.561      2.174
REMARK  1 active torsions:
REMARK  status: ('A' for Active; 'I' for Inactive)
REMARK    1  A    between atoms: C8_8  and  N9_9 
ROOT
HETATM    1  C1  UNL     1     -32.527   6.593   1.343  1.00 20.00     0.050 C 
HETATM    2  C2  UNL     1     -32.748   5.317   1.672  1.00 20.00     0.136 C 
HETATM    3  C3  UNL     1     -33.145   7.633   2.196  1.00 20.00     0.033 C 
HETATM    4  C4  UNL     1     -34.086   7.158   3.274  1.00 20.00     0.085 C 
HETATM    5  C7  UNL     1     -33.574   5.831   3.807  1.00 20.00     0.180 C 
HETATM    6  N9  UNL     1     -32.953   8.899   2.028  1.00 20.00    -0.289 NA
HETATM    7  O10 UNL     1     -33.423   4.852   2.771  1.00 20.00    -0.363 OA
ENDROOT
BRANCH   6   8
HETATM    8  C8  UNL     1     -32.071   9.230   0.919  1.00 20.00     0.108 A 
HETATM    9  C5  UNL     1     -32.693   9.458  -0.429  1.00 20.00     0.029 A 
HETATM   10  C6  UNL     1     -32.153  10.620   0.353  1.00 20.00     0.029 A 
ENDBRANCH   6   8
TORSDOF 1
ENDMDL
MODEL 6
REMARK VINA RESULT:       1.2      0.921      1.891
REMARK  1 active torsions:
REMARK  status: ('A' for Active; 'I' for Inactive)
REMARK    1  A    between atoms: C8_8  and  N9_9 
ROOT
HETATM    1  C1  UNL     1     -34.270   6.850   3.499  1.00 20.00     0.050 C 
HETATM    2  C2  UNL     1     -34.958   6.084   4.352  1.00 20.00     0.136 C 
HETATM    3  C3  UNL     1     -33.192   6.202   2.720  1.00 20.00     0.033 C 
HETATM    4  C4  UNL     1     -32.870   4.769   3.063  1.00 20.00     0.085 C 
HETATM    5  C7  UNL     1     -34.160   4.068   3.453  1.00 20.00     0.180 C 
HETATM    6  N9  UNL     1     -32.502   6.813   1.815  1.00 20.00    -0.289 NA
HETATM    7  O10 UNL     1     -34.833   4.730   4.531  1.00 20.00    -0.363 OA
ENDROOT
BRANCH   6   8
HETATM    8  C8  UNL     1     -32.869   8.206   1.618  1.00 20.00     0.108 A 
HETATM    9  C5  UNL     1     -31.767   9.227   1.600  1.00 20.00     0.029 A 
HETATM   10  C6  UNL     1     -32.468   8.859   0.325  1.00 20.00     0.029 A 
ENDBRANCH   6   8
TORSDOF 1
ENDMDL
MODEL 7
REMARK VINA RESULT:       1.8      2.405      4.207
REMARK  1 active torsions:
REMARK  status: ('A' for Active; 'I' for Inactive)
REMARK    1  A    between atoms: C8_8  and  N9_9 
ROOT
HETATM    1  C1  UNL     1     -32.605   5.787   2.240  1.00 20.00     0.050 C 
HETATM    2  C2  UNL     1     -32.106   6.795   1.516  1.00 20.00     0.136 C 
HETATM    3  C3  UNL     1     -33.509   6.136   3.358  1.00 20.00     0.033 C 
HETATM    4  C4  UNL     1     -33.673   7.602   3.671  1.00 20.00     0.085 C 
HETATM    5  C7  UNL     1     -33.613   8.380   2.367  1.00 20.00     0.180 C 
HETATM    6  N9  UNL     1     -34.111   5.256   4.088  1.00 20.00    -0.289 NA
HETATM    7  O10 UNL     1     -32.404   8.127   1.640  1.00 20.00    -0.363 OA
ENDROOT
BRANCH   6   8
HETATM    8  C8  UNL     1     -33.827   3.877   3.723  1.00 20.00     0.108 A 
HETATM    9  C5  UNL     1     -32.473   3.324   4.069  1.00 20.00     0.029 A 
HETATM   10  C6  UNL     1     -33.684   2.875   4.834  1.00 20.00     0.029 A 
ENDBRANCH   6   8
TORSDOF 1
ENDMDL
MODEL 8
REMARK VINA RESULT:       1.9      2.325      3.163
REMARK  1 active torsions:
REMARK  status: ('A' for Active; 'I' for Inactive)
REMARK    1  A    between atoms: C8_8  and  N9_9 
ROOT
HETATM    1  C1  UNL     1     -34.023   5.831   3.060  1.00 20.00     0.050 C 
HETATM    2  C2  UNL     1     -34.793   6.412   3.985  1.00 20.00     0.136 C 
HETATM    3  C3  UNL     1     -32.940   6.647   2.467  1.00 20.00     0.033 C 
HETATM    4  C4  UNL     1     -32.894   8.103   2.853  1.00 20.00     0.085 C 
HETATM    5  C7  UNL     1     -33.343   8.230   4.299  1.00 20.00     0.180 C 
HETATM    6  N9  UNL     1     -32.084   6.184   1.617  1.00 20.00    -0.289 NA
HETATM    7  O10 UNL     1     -34.643   7.668   4.514  1.00 20.00    -0.363 OA
ENDROOT
BRANCH   6   8
HETATM    8  C8  UNL     1     -32.270   4.781   1.281  1.00 20.00     0.108 A 
HETATM    9  C5  UNL     1     -32.913   4.454  -0.036  1.00 20.00     0.029 A 
HETATM   10  C6  UNL     1     -31.444   4.215   0.160  1.00 20.00     0.029 A 
ENDBRANCH   6   8
TORSDOF 1
ENDMDL
MODEL 9
REMARK VINA RESULT:       2.0      3.145      5.265
REMARK  1 active torsions:
REMARK  status: ('A' for Active; 'I' for Inactive)
REMARK    1  A    between atoms: C8_8  and  N9_9 
ROOT
HETATM    1  C1  UNL     1     -33.126   9.585   1.340  1.00 20.00     0.050 C 
HETATM    2  C2  UNL     1     -32.739  10.299   0.279  1.00 20.00     0.136 C 
HETATM    3  C3  UNL     1     -32.439   8.296   1.580  1.00 20.00     0.033 C 
HETATM    4  C4  UNL     1     -31.464   7.837   0.526  1.00 20.00     0.085 C 
HETATM    5  C7  UNL     1     -30.775   9.059  -0.054  1.00 20.00     0.180 C 
HETATM    6  N9  UNL     1     -32.671   7.546   2.607  1.00 20.00    -0.289 NA
HETATM    7  O10 UNL     1     -31.708  10.012  -0.578  1.00 20.00    -0.363 OA
ENDROOT
BRANCH   6   8
HETATM    8  C8  UNL     1     -33.673   8.072   3.521  1.00 20.00     0.108 A 
HETATM    9  C5  UNL     1     -34.586   7.091   4.199  1.00 20.00     0.029 A 
HETATM   10  C6  UNL     1     -33.507   7.777   4.985  1.00 20.00     0.029 A 
ENDBRANCH   6   8
TORSDOF 1
ENDMDL
