MODEL 1
REMARK VINA RESULT:      -1.5      0.000      0.000
REMARK  1 active torsions:
REMARK  status: ('A' for Active; 'I' for Inactive)
REMARK    1  A    between atoms: C3_3  and  C6_6 
ROOT
HETATM    1  C1  UNL     1     -32.785  10.176   0.074  1.00 20.00     0.013 C 
HETATM    2  C2  UNL     1     -32.463   9.273   0.798  1.00 20.00    -0.107 C 
HETATM    3  C5  UNL     1     -31.935   8.499   3.140  1.00 20.00     0.033 A 
HETATM    4  C6  UNL     1     -33.125   7.712   2.661  1.00 20.00     0.030 A 
HETATM    5  C7  UNL     1     -32.075   8.190   1.667  1.00 20.00     0.027 A 
HETATM    6  C10 UNL     1     -31.095   7.221   1.058  1.00 20.00     0.030 C 
ENDROOT
BRANCH   4   7
HETATM    7  C3  UNL     1     -33.231   6.305   3.018  1.00 20.00    -0.018 C 
HETATM    8  C4  UNL     1     -34.247   5.690   3.653  1.00 20.00    -0.091 C 
HETATM    9  C8  UNL     1     -34.202   4.217   3.950  1.00 20.00     0.042 C 
HETATM   10  C9  UNL     1     -35.493   6.393   4.113  1.00 20.00     0.042 C 
ENDBRANCH   4   7
TORSDOF 1
ENDMDL
MODEL 2
REMARK VINA RESULT:      -0.9      0.957      4.806
REMARK  1 active torsions:
REMARK  status: ('A' for Active; 'I' for Inactive)
REMARK    1  A    between atoms: C3_3  and  C6_6 
ROOT
HETATM    1  C1  UNL     1     -34.191   4.013   4.396  1.00 20.00     0.013 C 
HETATM    2  C2  UNL     1     -34.327   5.174   4.119  1.00 20.00    -0.107 C 
HETATM    3  C5  UNL     1     -33.968   7.582   4.778  1.00 20.00     0.033 A 
HETATM    4  C6  UNL     1     -33.215   7.347   3.497  1.00 20.00     0.030 A 
HETATM    5  C7  UNL     1     -34.491   6.567   3.787  1.00 20.00     0.027 A 
HETATM    6  C10 UNL     1     -35.772   6.891   3.063  1.00 20.00     0.030 C 
ENDROOT
BRANCH   4   7
HETATM    7  C3  UNL     1     -33.194   8.396   2.488  1.00 20.00    -0.018 C 
HETATM    8  C4  UNL     1     -32.377   8.499   1.422  1.00 20.00    -0.091 C 
HETATM    9  C8  UNL     1     -32.484   9.655   0.467  1.00 20.00     0.042 C 
HETATM   10  C9  UNL     1     -31.309   7.496   1.089  1.00 20.00     0.042 C 
ENDBRANCH   4   7
TORSDOF 1
ENDMDL
MODEL 3
REMARK VINA RESULT:       0.0      1.016      1.087
REMARK  1 active torsions:
REMARK  status: ('A' for Active; 'I' for Inactive)
REMARK    1  A    between atoms: C3_3  and  C6_6 
ROOT
HETATM    1  C1  UNL     1     -32.017  10.062  -0.371  1.00 20.00     0.013 C 
HETATM    2  C2  UNL     1     -32.084   9.141   0.397  1.00 20.00    -0.107 C 
HETATM    3  C5  UNL     1     -31.773   8.301   2.755  1.00 20.00     0.033 A 
HETATM    4  C6  UNL     1     -33.227   8.138   2.405  1.00 20.00     0.030 A 
HETATM    5  C7  UNL     1     -32.166   8.035   1.319  1.00 20.00     0.027 A 
HETATM    6  C10 UNL     1     -31.796   6.700   0.727  1.00 20.00     0.030 C 
ENDROOT
BRANCH   4   7
HETATM    7  C3  UNL     1     -33.938   6.956   2.870  1.00 20.00    -0.018 C 
HETATM    8  C4  UNL     1     -34.423   6.717   4.104  1.00 20.00    -0.091 C 
HETATM    9  C8  UNL     1     -35.138   5.434   4.425  1.00 20.00     0.042 C 
HETATM   10  C9  UNL     1     -34.302   7.681   5.250  1.00 20.00     0.042 C 
ENDBRANCH   4   7
TORSDOF 1
ENDMDL
MODEL 4
REMARK VINA RESULT:       0.3      0.910      4.696
REMARK  1 active torsions:
REMARK  status: ('A' for Active; 'I' for Inactive)
REMARK    1  A    between atoms: C3_3  and  C6_6 
ROOT
HETATM    1  C1  UNL     1     -33.449   3.441   4.610  1.00 20.00     0.013 C 
HETATM    2  C2  UNL     1     -33.752   4.406   3.964  1.00 20.00    -0.107 C 
HETATM    3  C5  UNL     1     -35.131   6.511   3.788  1.00 20.00     0.033 A 
HETATM    4  C6  UNL     1     -33.682   6.914   3.741  1.00 20.00     0.030 A 
HETATM    5  C7  UNL     1     -34.117   5.565   3.186  1.00 20.00     0.027 A 
HETATM    6  C10 UNL     1     -34.177   5.327   1.700  1.00 20.00     0.030 C 
ENDROOT
BRANCH   4   7
HETATM    7  C3  UNL     1     -33.278   7.993   2.852  1.00 20.00    -0.018 C 
HETATM    8  C4  UNL     1     -32.308   7.972   1.917  1.00 20.00    -0.091 C 
HETATM    9  C8  UNL     1     -32.013   9.182   1.074  1.00 20.00     0.042 C 
HETATM   10  C9  UNL     1     -31.451   6.772   1.630  1.00 20.00     0.042 C 
ENDBRANCH   4   7
TORSDOF 1
ENDMDL
MODEL 5
REMARK VINA RESULT:       0.4      1.268      4.841
REMARK  1 active torsions:
REMARK  status: ('A' for Active; 'I' for Inactive)
REMARK    1  A    between atoms: C3_3  and  C6_6 
ROOT
HETATM    1  C1  UNL     1     -35.390   5.933   3.981  1.00 20.00     0.013 C 
HETATM    2  C2  UNL     1     -34.453   6.631   3.705  1.00 20.00    -0.107 C 
HETATM    3  C5  UNL     1     -32.325   6.924   2.383  1.00 20.00     0.033 A 
HETATM    4  C6  UNL     1     -33.279   8.003   1.948  1.00 20.00     0.030 A 
HETATM    5  C7  UNL     1     -33.328   7.470   3.374  1.00 20.00     0.027 A 
HETATM    6  C10 UNL     1     -32.801   8.292   4.521  1.00 20.00     0.030 C 
ENDROOT
BRANCH   4   7
HETATM    7  C3  UNL     1     -32.759   9.333   1.665  1.00 20.00    -0.018 C 
HETATM    8  C4  UNL     1     -32.458   9.862   0.463  1.00 20.00    -0.091 C 
HETATM    9  C8  UNL     1     -31.925  11.262   0.340  1.00 20.00     0.042 C 
HETATM   10  C9  UNL     1     -32.622   9.128  -0.837  1.00 20.00     0.042 C 
ENDBRANCH   4   7
TORSDOF 1
ENDMDL
MODEL 6
REMARK VINA RESULT:       0.9      2.604      3.885
REMARK  1 active torsions:
REMARK  status: ('A' for Active; 'I' for Inactive)
REMARK    1  A    between atoms: C3_3  and  C6_6 
ROOT
HETATM    1  C1  UNL     1     -33.488   8.505   4.842  1.00 20.00     0.013 C 
HETATM    2  C2  UNL     1     -33.832   7.477   4.326  1.00 20.00    -0.107 C 
HETATM    3  C5  UNL     1     -33.735   5.963   2.310  1.00 20.00     0.033 A 
HETATM    4  C6  UNL     1     -33.155   5.205   3.473  1.00 20.00     0.030 A 
HETATM    5  C7  UNL     1     -34.245   6.242   3.706  1.00 20.00     0.027 A 
HETATM    6  C10 UNL     1     -35.653   5.819   4.034  1.00 20.00     0.030 C 
ENDROOT
BRANCH   4   7
HETATM    7  C3  UNL     1     -33.437   3.783   3.600  1.00 20.00    -0.018 C 
HETATM    8  C4  UNL     1     -33.139   2.972   4.634  1.00 20.00    -0.091 C 
HETATM    9  C8  UNL     1     -33.502   1.513   4.608  1.00 20.00     0.042 C 
HETATM   10  C9  UNL     1     -32.435   3.431   5.879  1.00 20.00     0.042 C 
ENDBRANCH   4   7
TORSDOF 1
ENDMDL
MODEL 7
REMARK VINA RESULT:       1.0      1.119      1.877
REMARK  1 active torsions:
REMARK  status: ('A' for Active; 'I' for Inactive)
REMARK    1  A    between atoms: C3_3  and  C6_6 
ROOT
HETATM    1  C1  UNL     1     -32.237   9.217   0.768  1.00 20.00     0.013 C 
HETATM    2  C2  UNL     1     -32.585   8.458   1.632  1.00 20.00    -0.107 C 
HETATM    3  C5  UNL     1     -34.449   7.105   2.662  1.00 20.00     0.033 A 
HETATM    4  C6  UNL     1     -33.381   6.142   2.222  1.00 20.00     0.030 A 
HETATM    5  C7  UNL     1     -33.003   7.547   2.669  1.00 20.00     0.027 A 
HETATM    6  C10 UNL     1     -32.349   7.780   4.006  1.00 20.00     0.030 C 
ENDROOT
BRANCH   4   7
HETATM    7  C3  UNL     1     -33.084   4.987   3.057  1.00 20.00    -0.018 C 
HETATM    8  C4  UNL     1     -33.854   4.448   4.022  1.00 20.00    -0.091 C 
HETATM    9  C8  UNL     1     -33.399   3.245   4.800  1.00 20.00     0.042 C 
HETATM   10  C9  UNL     1     -35.206   4.980   4.407  1.00 20.00     0.042 C 
ENDBRANCH   4   7
TORSDOF 1
ENDMDL
MODEL 8
REMARK VINA RESULT:       1.3      1.572      4.707
REMARK  1 active torsions:
REMARK  status: ('A' for Active; 'I' for Inactive)
REMARK    1  A    between atoms: C3_3  and  C6_6 
ROOT
HETATM    1  C1  UNL     1     -33.393   4.469   0.299  1.00 20.00     0.013 C 
HETATM    2  C2  UNL     1     -33.090   5.419   0.967  1.00 20.00    -0.107 C 
HETATM    3  C5  UNL     1     -31.254   6.774   2.043  1.00 20.00     0.033 A 
HETATM    4  C6  UNL     1     -31.959   7.669   1.061  1.00 20.00     0.030 A 
HETATM    5  C7  UNL     1     -32.725   6.561   1.770  1.00 20.00     0.027 A 
HETATM    6  C10 UNL     1     -33.697   6.883   2.876  1.00 20.00     0.030 C 
ENDROOT
BRANCH   4   7
HETATM    7  C3  UNL     1     -32.174   9.066   1.407  1.00 20.00    -0.018 C 
HETATM    8  C4  UNL     1     -32.502  10.079   0.582  1.00 20.00    -0.091 C 
HETATM    9  C8  UNL     1     -32.689  11.478   1.102  1.00 20.00     0.042 C 
HETATM   10  C9  UNL     1     -32.709   9.918  -0.898  1.00 20.00     0.042 C 
ENDBRANCH   4   7
TORSDOF 1
ENDMDL
MODEL 9
REMARK VINA RESULT:       1.3      1.787      4.712
REMARK  1 active torsions:
REMARK  status: ('A' for Active; 'I' for Inactive)
REMARK    1  A    between atoms: C3_3  and  C6_6 
ROOT
HETATM    1  C1  UNL     1     -31.060   4.087   0.925  1.00 20.00     0.013 C 
HETATM    2  C2  UNL     1     -31.830   4.992   1.094  1.00 20.00    -0.107 C 
HETATM    3  C5  UNL     1     -33.102   6.437   2.725  1.00 20.00     0.033 A 
HETATM    4  C6  UNL     1     -32.187   7.338   1.942  1.00 20.00     0.030 A 
HETATM    5  C7  UNL     1     -32.754   6.081   1.297  1.00 20.00     0.027 A 
HETATM    6  C10 UNL     1     -33.849   6.171   0.266  1.00 20.00     0.030 C 
ENDROOT
BRANCH   4   7
HETATM    7  C3  UNL     1     -32.661   8.658   1.550  1.00 20.00    -0.018 C 
HETATM    8  C4  UNL     1     -32.221   9.424   0.534  1.00 20.00    -0.091 C 
HETATM    9  C8  UNL     1     -32.821  10.775   0.261  1.00 20.00     0.042 C 
HETATM   10  C9  UNL     1     -31.118   9.017  -0.403  1.00 20.00     0.042 C 
ENDBRANCH   4   7
TORSDOF 1
ENDMDL
