MODEL 1
REMARK VINA RESULT:       0.2      0.000      0.000
REMARK  0 active torsions:
REMARK  status: ('A' for Active; 'I' for Inactive)
ROOT
HETATM    1  C1  UNL     1     -32.178   5.511   1.748  1.00 20.00     0.009 A 
HETATM    2  C2  UNL     1     -31.863   6.780   1.260  1.00 20.00     0.019 A 
HETATM    3  C3  UNL     1     -33.665   7.748   2.553  1.00 20.00     0.032 A 
HETATM    4  C4  UNL     1     -33.962   6.479   3.043  1.00 20.00    -0.011 A 
HETATM    5  C5  UNL     1     -33.230   5.354   2.653  1.00 20.00    -0.045 A 
HETATM    6  C6  UNL     1     -32.604   7.895   1.661  1.00 20.00     0.011 A 
HETATM    7  C7  UNL     1     -35.085   6.272   3.962  1.00 20.00     0.122 C 
HETATM    8  C8  UNL     1     -33.659   4.012   3.164  1.00 20.00     0.061 C 
HETATM    9  C9  UNL     1     -34.249   4.152   4.563  1.00 20.00     0.153 C 
HETATM   10  N10 UNL     1     -35.281   5.196   4.646  1.00 20.00    -0.300 NA
HETATM   11 BR11 UNL     1     -32.170   9.607   0.984  1.00 20.00    -0.051 Br
ENDROOT
TORSDOF 0
ENDMDL
MODEL 2
REMARK VINA RESULT:       1.9      3.001      4.398
REMARK  0 active torsions:
REMARK  status: ('A' for Active; 'I' for Inactive)
ROOT
HETATM    1  C1  UNL     1     -32.185   6.030   1.439  1.00 20.00     0.009 A 
HETATM    2  C2  UNL     1     -33.006   5.389   2.368  1.00 20.00     0.019 A 
HETATM    3  C3  UNL     1     -33.896   7.522   3.085  1.00 20.00     0.032 A 
HETATM    4  C4  UNL     1     -33.082   8.149   2.145  1.00 20.00    -0.011 A 
HETATM    5  C5  UNL     1     -32.226   7.420   1.316  1.00 20.00    -0.045 A 
HETATM    6  C6  UNL     1     -33.859   6.132   3.189  1.00 20.00     0.011 A 
HETATM    7  C7  UNL     1     -33.069   9.610   2.018  1.00 20.00     0.122 C 
HETATM    8  C8  UNL     1     -31.324   8.172   0.384  1.00 20.00     0.061 C 
HETATM    9  C9  UNL     1     -32.010   9.453  -0.082  1.00 20.00     0.153 C 
HETATM   10  N10 UNL     1     -32.543  10.253   1.031  1.00 20.00    -0.300 NA
HETATM   11 BR11 UNL     1     -34.958   5.250   4.449  1.00 20.00    -0.051 Br
ENDROOT
TORSDOF 0
ENDMDL
MODEL 3
REMARK VINA RESULT:       2.1      3.028      4.550
REMARK  0 active torsions:
REMARK  status: ('A' for Active; 'I' for Inactive)
ROOT
HETATM    1  C1  UNL     1     -34.831   6.208   4.137  1.00 20.00     0.009 A 
HETATM    2  C2  UNL     1     -34.682   4.874   4.519  1.00 20.00     0.019 A 
HETATM    3  C3  UNL     1     -32.793   4.636   3.024  1.00 20.00     0.032 A 
HETATM    4  C4  UNL     1     -32.945   5.971   2.661  1.00 20.00    -0.011 A 
HETATM    5  C5  UNL     1     -33.953   6.769   3.207  1.00 20.00    -0.045 A 
HETATM    6  C6  UNL     1     -33.666   4.090   3.964  1.00 20.00     0.011 A 
HETATM    7  C7  UNL     1     -32.068   6.581   1.656  1.00 20.00     0.122 C 
HETATM    8  C8  UNL     1     -34.100   8.175   2.708  1.00 20.00     0.061 C 
HETATM    9  C9  UNL     1     -32.734   8.738   2.332  1.00 20.00     0.153 C 
HETATM   10  N10 UNL     1     -31.975   7.849   1.439  1.00 20.00    -0.300 NA
HETATM   11 BR11 UNL     1     -33.482   2.282   4.485  1.00 20.00    -0.051 Br
ENDROOT
TORSDOF 0
ENDMDL
MODEL 4
REMARK VINA RESULT:       2.3      1.082      2.180
REMARK  0 active torsions:
REMARK  status: ('A' for Active; 'I' for Inactive)
ROOT
HETATM    1  C1  UNL     1     -33.890   8.354   3.348  1.00 20.00     0.009 A 
HETATM    2  C2  UNL     1     -33.048   8.781   2.320  1.00 20.00     0.019 A 
HETATM    3  C3  UNL     1     -32.437   6.488   1.840  1.00 20.00     0.032 A 
HETATM    4  C4  UNL     1     -33.290   6.074   2.860  1.00 20.00    -0.011 A 
HETATM    5  C5  UNL     1     -34.023   6.990   3.619  1.00 20.00    -0.045 A 
HETATM    6  C6  UNL     1     -32.323   7.851   1.569  1.00 20.00     0.011 A 
HETATM    7  C7  UNL     1     -33.422   4.654   3.199  1.00 20.00     0.122 C 
HETATM    8  C8  UNL     1     -34.860   6.473   4.749  1.00 20.00     0.061 C 
HETATM    9  C9  UNL     1     -35.400   5.088   4.405  1.00 20.00     0.153 C 
HETATM   10  N10 UNL     1     -34.352   4.164   3.947  1.00 20.00    -0.300 NA
HETATM   11 BR11 UNL     1     -31.180   8.445   0.185  1.00 20.00    -0.051 Br
ENDROOT
TORSDOF 0
ENDMDL
MODEL 5
REMARK VINA RESULT:       2.6      1.893      2.769
REMARK  0 active torsions:
REMARK  status: ('A' for Active; 'I' for Inactive)
ROOT
HETATM    1  C1  UNL     1     -32.668   7.174   2.044  1.00 20.00     0.009 A 
HETATM    2  C2  UNL     1     -31.872   6.437   1.166  1.00 20.00     0.019 A 
HETATM    3  C3  UNL     1     -32.713   4.370   2.103  1.00 20.00     0.032 A 
HETATM    4  C4  UNL     1     -33.512   5.117   2.965  1.00 20.00    -0.011 A 
HETATM    5  C5  UNL     1     -33.504   6.513   2.947  1.00 20.00    -0.045 A 
HETATM    6  C6  UNL     1     -31.894   5.040   1.195  1.00 20.00     0.011 A 
HETATM    7  C7  UNL     1     -34.370   4.456   3.955  1.00 20.00     0.122 C 
HETATM    8  C8  UNL     1     -34.333   7.245   3.959  1.00 20.00     0.061 C 
HETATM    9  C9  UNL     1     -35.593   6.445   4.274  1.00 20.00     0.153 C 
HETATM   10  N10 UNL     1     -35.309   5.043   4.616  1.00 20.00    -0.300 NA
HETATM   11 BR11 UNL     1     -30.803   4.056   0.005  1.00 20.00    -0.051 Br
ENDROOT
TORSDOF 0
ENDMDL
