MODEL 1
REMARK VINA RESULT:      -1.0      0.000      0.000
REMARK  2 active torsions:
REMARK  status: ('A' for Active; 'I' for Inactive)
REMARK    1  A    between atoms: C1_1  and  C6_6 
REMARK    2  A    between atoms: C2_2  and  C8_8 
ROOT
HETATM    1  C1  UNL     1     -32.759   7.759   1.666  1.00 20.00    -0.100 C 
HETATM    2  C2  UNL     1     -33.360   7.444   2.657  1.00 20.00    -0.088 C 
ENDROOT
BRANCH   1   3
HETATM    3  C6  UNL     1     -32.042   8.135   0.484  1.00 20.00     0.069 A 
HETATM    4  C5  UNL     1     -30.867   9.072   0.617  1.00 20.00     0.023 A 
HETATM    5  C7  UNL     1     -32.126   9.543  -0.056  1.00 20.00    -0.002 A 
HETATM    6  C9  UNL     1     -32.961  10.602   0.579  1.00 20.00     0.011 C 
ENDBRANCH   1   3
BRANCH   2   7
HETATM    7  C8  UNL     1     -34.094   7.062   3.863  1.00 20.00     0.055 A 
HETATM    8  C3  UNL     1     -34.460   5.680   4.131  1.00 20.00    -0.003 A 
HETATM    9  C4  UNL     1     -35.441   6.518   3.801  1.00 20.00    -0.003 A 
HETATM   10  C10 UNL     1     -33.754   7.928   5.046  1.00 20.00     0.038 C 
ENDBRANCH   2   7
TORSDOF 2
ENDMDL
MODEL 2
REMARK VINA RESULT:      -0.7      0.739      4.885
REMARK  2 active torsions:
REMARK  status: ('A' for Active; 'I' for Inactive)
REMARK    1  A    between atoms: C1_1  and  C6_6 
REMARK    2  A    between atoms: C2_2  and  C8_8 
ROOT
HETATM    1  C1  UNL     1     -33.048   7.466   2.128  1.00 20.00    -0.100 C 
HETATM    2  C2  UNL     1     -32.620   8.271   1.348  1.00 20.00    -0.088 C 
ENDROOT
BRANCH   1   3
HETATM    3  C6  UNL     1     -33.560   6.505   3.060  1.00 20.00     0.069 A 
HETATM    4  C5  UNL     1     -35.004   6.606   3.486  1.00 20.00     0.023 A 
HETATM    5  C7  UNL     1     -33.911   6.908   4.473  1.00 20.00    -0.002 A 
HETATM    6  C9  UNL     1     -33.729   8.297   4.984  1.00 20.00     0.011 C 
ENDBRANCH   1   3
BRANCH   2   7
HETATM    7  C8  UNL     1     -32.098   9.253   0.398  1.00 20.00     0.055 A 
HETATM    8  C3  UNL     1     -32.424  10.667   0.500  1.00 20.00    -0.003 A 
HETATM    9  C4  UNL     1     -32.972   9.987  -0.504  1.00 20.00    -0.003 A 
HETATM   10  C10 UNL     1     -30.727   8.896  -0.111  1.00 20.00     0.038 C 
ENDBRANCH   2   7
TORSDOF 2
ENDMDL
MODEL 3
REMARK VINA RESULT:      -0.1      0.662      1.316
REMARK  2 active torsions:
REMARK  status: ('A' for Active; 'I' for Inactive)
REMARK    1  A    between atoms: C1_1  and  C6_6 
REMARK    2  A    between atoms: C2_2  and  C8_8 
ROOT
HETATM    1  C1  UNL     1     -32.650   7.364   1.512  1.00 20.00    -0.100 C 
HETATM    2  C2  UNL     1     -33.298   6.850   2.381  1.00 20.00    -0.088 C 
ENDROOT
BRANCH   1   3
HETATM    3  C6  UNL     1     -31.875   7.978   0.474  1.00 20.00     0.069 A 
HETATM    4  C5  UNL     1     -30.829   8.995   0.856  1.00 20.00     0.023 A 
HETATM    5  C7  UNL     1     -32.067   9.435   0.125  1.00 20.00    -0.002 A 
HETATM    6  C9  UNL     1     -33.069  10.303   0.809  1.00 20.00     0.011 C 
ENDBRANCH   1   3
BRANCH   2   7
HETATM    7  C8  UNL     1     -34.089   6.225   3.441  1.00 20.00     0.055 A 
HETATM    8  C3  UNL     1     -35.468   6.608   3.697  1.00 20.00    -0.003 A 
HETATM    9  C4  UNL     1     -34.556   6.977   4.594  1.00 20.00    -0.003 A 
HETATM   10  C10 UNL     1     -33.722   4.781   3.662  1.00 20.00     0.038 C 
ENDBRANCH   2   7
TORSDOF 2
ENDMDL
MODEL 4
REMARK VINA RESULT:      -0.1      1.228      4.796
REMARK  2 active torsions:
REMARK  status: ('A' for Active; 'I' for Inactive)
REMARK    1  A    between atoms: C1_1  and  C6_6 
REMARK    2  A    between atoms: C2_2  and  C8_8 
ROOT
HETATM    1  C1  UNL     1     -32.416   7.632   1.662  1.00 20.00    -0.100 C 
HETATM    2  C2  UNL     1     -32.426   8.700   1.114  1.00 20.00    -0.088 C 
ENDROOT
BRANCH   1   3
HETATM    3  C6  UNL     1     -32.404   6.357   2.317  1.00 20.00     0.069 A 
HETATM    4  C5  UNL     1     -33.430   5.327   1.916  1.00 20.00     0.023 A 
HETATM    5  C7  UNL     1     -33.507   5.969   3.273  1.00 20.00    -0.002 A 
HETATM    6  C9  UNL     1     -34.642   6.876   3.606  1.00 20.00     0.011 C 
ENDBRANCH   1   3
BRANCH   2   7
HETATM    7  C8  UNL     1     -32.439  10.000   0.444  1.00 20.00     0.055 A 
HETATM    8  C3  UNL     1     -32.988  10.169  -0.892  1.00 20.00    -0.003 A 
HETATM    9  C4  UNL     1     -31.666  10.249  -0.762  1.00 20.00    -0.003 A 
HETATM   10  C10 UNL     1     -32.602  11.146   1.407  1.00 20.00     0.038 C 
ENDBRANCH   2   7
TORSDOF 2
ENDMDL
MODEL 5
REMARK VINA RESULT:       0.4      1.230      5.099
REMARK  2 active torsions:
REMARK  status: ('A' for Active; 'I' for Inactive)
REMARK    1  A    between atoms: C1_1  and  C6_6 
REMARK    2  A    between atoms: C2_2  and  C8_8 
ROOT
HETATM    1  C1  UNL     1     -34.194   6.853   3.186  1.00 20.00    -0.100 C 
HETATM    2  C2  UNL     1     -33.271   7.460   2.716  1.00 20.00    -0.088 C 
ENDROOT
BRANCH   1   3
HETATM    3  C6  UNL     1     -35.297   6.130   3.747  1.00 20.00     0.069 A 
HETATM    4  C5  UNL     1     -35.308   5.862   5.231  1.00 20.00     0.023 A 
HETATM    5  C7  UNL     1     -35.113   4.723   4.268  1.00 20.00    -0.002 A 
HETATM    6  C9  UNL     1     -33.807   4.007   4.213  1.00 20.00     0.011 C 
ENDBRANCH   1   3
BRANCH   2   7
HETATM    7  C8  UNL     1     -32.145   8.197   2.144  1.00 20.00     0.055 A 
HETATM    8  C3  UNL     1     -32.282   8.983   0.929  1.00 20.00    -0.003 A 
HETATM    9  C4  UNL     1     -31.582   7.853   0.849  1.00 20.00    -0.003 A 
HETATM   10  C10 UNL     1     -31.195   8.710   3.194  1.00 20.00     0.038 C 
ENDBRANCH   2   7
TORSDOF 2
ENDMDL
MODEL 6
REMARK VINA RESULT:       0.4      2.001      2.885
REMARK  2 active torsions:
REMARK  status: ('A' for Active; 'I' for Inactive)
REMARK    1  A    between atoms: C1_1  and  C6_6 
REMARK    2  A    between atoms: C2_2  and  C8_8 
ROOT
HETATM    1  C1  UNL     1     -33.154   5.925   2.419  1.00 20.00    -0.100 C 
HETATM    2  C2  UNL     1     -33.489   5.124   3.248  1.00 20.00    -0.088 C 
ENDROOT
BRANCH   1   3
HETATM    3  C6  UNL     1     -32.754   6.881   1.430  1.00 20.00     0.069 A 
HETATM    4  C5  UNL     1     -31.284   7.170   1.254  1.00 20.00     0.023 A 
HETATM    5  C7  UNL     1     -32.187   8.222   1.835  1.00 20.00    -0.002 A 
HETATM    6  C9  UNL     1     -32.032   8.635   3.260  1.00 20.00     0.011 C 
ENDBRANCH   1   3
BRANCH   2   7
HETATM    7  C8  UNL     1     -33.898   4.147   4.257  1.00 20.00     0.055 A 
HETATM    8  C3  UNL     1     -32.927   3.450   5.085  1.00 20.00    -0.003 A 
HETATM    9  C4  UNL     1     -33.549   2.740   4.147  1.00 20.00    -0.003 A 
HETATM   10  C10 UNL     1     -35.226   4.481   4.882  1.00 20.00     0.038 C 
ENDBRANCH   2   7
TORSDOF 2
ENDMDL
MODEL 7
REMARK VINA RESULT:       0.5      1.006      1.765
REMARK  2 active torsions:
REMARK  status: ('A' for Active; 'I' for Inactive)
REMARK    1  A    between atoms: C1_1  and  C6_6 
REMARK    2  A    between atoms: C2_2  and  C8_8 
ROOT
HETATM    1  C1  UNL     1     -32.621   8.439   2.100  1.00 20.00    -0.100 C 
HETATM    2  C2  UNL     1     -33.233   7.555   2.635  1.00 20.00    -0.088 C 
ENDROOT
BRANCH   1   3
HETATM    3  C6  UNL     1     -31.890   9.493   1.462  1.00 20.00     0.069 A 
HETATM    4  C5  UNL     1     -32.654  10.657   0.882  1.00 20.00     0.023 A 
HETATM    5  C7  UNL     1     -31.961   9.687  -0.035  1.00 20.00    -0.002 A 
HETATM    6  C9  UNL     1     -32.761   8.799  -0.926  1.00 20.00     0.011 C 
ENDBRANCH   1   3
BRANCH   2   7
HETATM    7  C8  UNL     1     -33.981   6.480   3.286  1.00 20.00     0.055 A 
HETATM    8  C3  UNL     1     -35.417   6.564   3.499  1.00 20.00    -0.003 A 
HETATM    9  C4  UNL     1     -34.634   6.670   4.571  1.00 20.00    -0.003 A 
HETATM   10  C10 UNL     1     -33.404   5.119   3.001  1.00 20.00     0.038 C 
ENDBRANCH   2   7
TORSDOF 2
ENDMDL
MODEL 8
REMARK VINA RESULT:       0.6      1.769      2.646
REMARK  2 active torsions:
REMARK  status: ('A' for Active; 'I' for Inactive)
REMARK    1  A    between atoms: C1_1  and  C6_6 
REMARK    2  A    between atoms: C2_2  and  C8_8 
ROOT
HETATM    1  C1  UNL     1     -32.211   8.360   1.477  1.00 20.00    -0.100 C 
HETATM    2  C2  UNL     1     -32.476   7.197   1.610  1.00 20.00    -0.088 C 
ENDROOT
BRANCH   1   3
HETATM    3  C6  UNL     1     -31.896   9.749   1.317  1.00 20.00     0.069 A 
HETATM    4  C5  UNL     1     -33.026  10.744   1.236  1.00 20.00     0.023 A 
HETATM    5  C7  UNL     1     -32.190  10.464   0.019  1.00 20.00    -0.002 A 
HETATM    6  C9  UNL     1     -32.793   9.780  -1.160  1.00 20.00     0.011 C 
ENDBRANCH   1   3
BRANCH   2   7
HETATM    7  C8  UNL     1     -32.798   5.779   1.772  1.00 20.00     0.055 A 
HETATM    8  C3  UNL     1     -31.892   4.732   1.327  1.00 20.00    -0.003 A 
HETATM    9  C4  UNL     1     -33.012   4.906   0.629  1.00 20.00    -0.003 A 
HETATM   10  C10 UNL     1     -33.611   5.508   3.009  1.00 20.00     0.038 C 
ENDBRANCH   2   7
TORSDOF 2
ENDMDL
MODEL 9
REMARK VINA RESULT:       0.9      1.295      5.247
REMARK  2 active torsions:
REMARK  status: ('A' for Active; 'I' for Inactive)
REMARK    1  A    between atoms: C1_1  and  C6_6 
REMARK    2  A    between atoms: C2_2  and  C8_8 
ROOT
HETATM    1  C1  UNL     1     -34.202   6.619   3.015  1.00 20.00    -0.100 C 
HETATM    2  C2  UNL     1     -33.259   7.025   2.392  1.00 20.00    -0.088 C 
ENDROOT
BRANCH   1   3
HETATM    3  C6  UNL     1     -35.327   6.135   3.759  1.00 20.00     0.069 A 
HETATM    4  C5  UNL     1     -35.240   6.101   5.265  1.00 20.00     0.023 A 
HETATM    5  C7  UNL     1     -35.260   4.813   4.488  1.00 20.00    -0.002 A 
HETATM    6  C9  UNL     1     -34.054   3.938   4.462  1.00 20.00     0.011 C 
ENDBRANCH   1   3
BRANCH   2   7
HETATM    7  C8  UNL     1     -32.111   7.518   1.633  1.00 20.00     0.055 A 
HETATM    8  C3  UNL     1     -31.320   8.651   2.088  1.00 20.00    -0.003 A 
HETATM    9  C4  UNL     1     -32.102   8.839   1.027  1.00 20.00    -0.003 A 
HETATM   10  C10 UNL     1     -31.385   6.419   0.902  1.00 20.00     0.038 C 
ENDBRANCH   2   7
TORSDOF 2
ENDMDL
