MODEL 1
REMARK VINA RESULT:       0.3      0.000      0.000
REMARK  1 active torsions:
REMARK  status: ('A' for Active; 'I' for Inactive)
REMARK    1  A    between atoms: C7_7  and  C11_11 
ROOT
HETATM    1  C1  UNL     1     -33.653   6.979   2.759  1.00 20.00    -0.084 C 
HETATM    2  C2  UNL     1     -34.523   6.503   3.657  1.00 20.00     0.014 C 
HETATM    3  C3  UNL     1     -33.424   8.448   2.477  1.00 20.00     0.044 C 
HETATM    4  C4  UNL     1     -30.859   8.025   2.238  1.00 20.00     0.016 A 
HETATM    5  C5  UNL     1     -32.674   6.148   1.947  1.00 20.00     0.014 C 
HETATM    6  C6  UNL     1     -31.694   7.137   1.350  1.00 20.00     0.003 A 
HETATM    7  C7  UNL     1     -32.155   8.534   1.650  1.00 20.00    -0.029 A 
HETATM    8  C8  UNL     1     -33.386   5.357   0.852  1.00 20.00     0.015 C 
ENDROOT
BRANCH   7   9
HETATM    9  C11 UNL     1     -32.104   9.585   0.588  1.00 20.00    -0.014 C 
HETATM   10  C9  UNL     1     -32.601   9.050  -0.766  1.00 20.00     0.010 C 
HETATM   11  C10 UNL     1     -32.923  10.828   0.978  1.00 20.00     0.010 C 
ENDBRANCH   7   9
TORSDOF 1
ENDMDL
MODEL 2
REMARK VINA RESULT:       0.9      1.290      2.082
REMARK  1 active torsions:
REMARK  status: ('A' for Active; 'I' for Inactive)
REMARK    1  A    between atoms: C7_7  and  C11_11 
ROOT
HETATM    1  C1  UNL     1     -33.129   7.830   4.051  1.00 20.00    -0.084 C 
HETATM    2  C2  UNL     1     -33.147   8.021   5.375  1.00 20.00     0.014 C 
HETATM    3  C3  UNL     1     -32.316   8.651   3.073  1.00 20.00     0.044 C 
HETATM    4  C4  UNL     1     -31.762   6.503   1.696  1.00 20.00     0.016 A 
HETATM    5  C5  UNL     1     -33.827   6.703   3.309  1.00 20.00     0.014 C 
HETATM    6  C6  UNL     1     -33.240   6.708   1.912  1.00 20.00     0.003 A 
HETATM    7  C7  UNL     1     -32.339   7.899   1.757  1.00 20.00    -0.029 A 
HETATM    8  C8  UNL     1     -35.338   6.914   3.265  1.00 20.00     0.015 C 
ENDROOT
BRANCH   7   9
HETATM    9  C11 UNL     1     -32.386   8.717   0.506  1.00 20.00    -0.014 C 
HETATM   10  C9  UNL     1     -32.836  10.161   0.787  1.00 20.00     0.010 C 
HETATM   11  C10 UNL     1     -31.025   8.737  -0.211  1.00 20.00     0.010 C 
ENDBRANCH   7   9
TORSDOF 1
ENDMDL
MODEL 3
REMARK VINA RESULT:       1.8      1.292      4.032
REMARK  1 active torsions:
REMARK  status: ('A' for Active; 'I' for Inactive)
REMARK    1  A    between atoms: C7_7  and  C11_11 
ROOT
HETATM    1  C1  UNL     1     -32.269   6.430   1.766  1.00 20.00    -0.084 C 
HETATM    2  C2  UNL     1     -31.404   5.805   0.960  1.00 20.00     0.014 C 
HETATM    3  C3  UNL     1     -33.266   5.732   2.666  1.00 20.00     0.044 C 
HETATM    4  C4  UNL     1     -32.836   7.492   4.546  1.00 20.00     0.016 A 
HETATM    5  C5  UNL     1     -32.335   7.929   2.004  1.00 20.00     0.014 C 
HETATM    6  C6  UNL     1     -33.214   8.113   3.224  1.00 20.00     0.003 A 
HETATM    7  C7  UNL     1     -33.798   6.787   3.617  1.00 20.00    -0.029 A 
HETATM    8  C8  UNL     1     -32.917   8.661   0.797  1.00 20.00     0.015 C 
ENDROOT
BRANCH   7   9
HETATM    9  C11 UNL     1     -35.239   6.688   4.007  1.00 20.00    -0.014 C 
HETATM   10  C9  UNL     1     -36.171   6.986   2.820  1.00 20.00     0.010 C 
HETATM   11  C10 UNL     1     -35.577   5.304   4.587  1.00 20.00     0.010 C 
ENDBRANCH   7   9
TORSDOF 1
ENDMDL
MODEL 4
REMARK VINA RESULT:       2.1      0.865      3.902
REMARK  1 active torsions:
REMARK  status: ('A' for Active; 'I' for Inactive)
REMARK    1  A    between atoms: C7_7  and  C11_11 
ROOT
HETATM    1  C1  UNL     1     -32.522   8.757   1.142  1.00 20.00    -0.084 C 
HETATM    2  C2  UNL     1     -32.462   9.800   0.307  1.00 20.00     0.014 C 
HETATM    3  C3  UNL     1     -33.747   8.359   1.937  1.00 20.00     0.044 C 
HETATM    4  C4  UNL     1     -33.235   5.835   1.507  1.00 20.00     0.016 A 
HETATM    5  C5  UNL     1     -31.422   7.732   1.359  1.00 20.00     0.014 C 
HETATM    6  C6  UNL     1     -32.072   6.585   2.107  1.00 20.00     0.003 A 
HETATM    7  C7  UNL     1     -33.475   6.969   2.478  1.00 20.00    -0.029 A 
HETATM    8  C8  UNL     1     -30.263   8.318   2.162  1.00 20.00     0.015 C 
ENDROOT
BRANCH   7   9
HETATM    9  C11 UNL     1     -34.004   6.653   3.841  1.00 20.00    -0.014 C 
HETATM   10  C9  UNL     1     -33.804   7.828   4.814  1.00 20.00     0.010 C 
HETATM   11  C10 UNL     1     -35.494   6.273   3.799  1.00 20.00     0.010 C 
ENDBRANCH   7   9
TORSDOF 1
ENDMDL
MODEL 5
REMARK VINA RESULT:       2.5      2.176      3.758
REMARK  1 active torsions:
REMARK  status: ('A' for Active; 'I' for Inactive)
REMARK    1  A    between atoms: C7_7  and  C11_11 
ROOT
HETATM    1  C1  UNL     1     -33.201   5.391   1.988  1.00 20.00    -0.084 C 
HETATM    2  C2  UNL     1     -32.810   4.695   0.915  1.00 20.00     0.014 C 
HETATM    3  C3  UNL     1     -33.004   6.881   2.166  1.00 20.00     0.044 C 
HETATM    4  C4  UNL     1     -35.363   7.084   3.266  1.00 20.00     0.016 A 
HETATM    5  C5  UNL     1     -33.998   4.841   3.159  1.00 20.00     0.014 C 
HETATM    6  C6  UNL     1     -34.484   6.053   3.928  1.00 20.00     0.003 A 
HETATM    7  C7  UNL     1     -33.867   7.290   3.344  1.00 20.00    -0.029 A 
HETATM    8  C8  UNL     1     -33.141   3.941   4.045  1.00 20.00     0.015 C 
ENDROOT
BRANCH   7   9
HETATM    9  C11 UNL     1     -33.331   8.358   4.243  1.00 20.00    -0.014 C 
HETATM   10  C9  UNL     1     -33.290   7.897   5.711  1.00 20.00     0.010 C 
HETATM   11  C10 UNL     1     -31.926   8.812   3.812  1.00 20.00     0.010 C 
ENDBRANCH   7   9
TORSDOF 1
ENDMDL
MODEL 6
REMARK VINA RESULT:       3.0      2.540      3.761
REMARK  1 active torsions:
REMARK  status: ('A' for Active; 'I' for Inactive)
REMARK    1  A    between atoms: C7_7  and  C11_11 
ROOT
HETATM    1  C1  UNL     1     -33.986   7.328   3.986  1.00 20.00    -0.084 C 
HETATM    2  C2  UNL     1     -33.960   8.447   4.718  1.00 20.00     0.014 C 
HETATM    3  C3  UNL     1     -32.859   6.857   3.092  1.00 20.00     0.044 C 
HETATM    4  C4  UNL     1     -33.281   4.386   3.822  1.00 20.00     0.016 A 
HETATM    5  C5  UNL     1     -35.090   6.284   4.003  1.00 20.00     0.014 C 
HETATM    6  C6  UNL     1     -34.517   5.071   3.297  1.00 20.00     0.003 A 
HETATM    7  C7  UNL     1     -33.174   5.420   2.724  1.00 20.00    -0.029 A 
HETATM    8  C8  UNL     1     -36.344   6.786   3.292  1.00 20.00     0.015 C 
ENDROOT
BRANCH   7   9
HETATM    9  C11 UNL     1     -32.807   4.974   1.345  1.00 20.00    -0.014 C 
HETATM   10  C9  UNL     1     -33.827   5.461   0.300  1.00 20.00     0.010 C 
HETATM   11  C10 UNL     1     -31.401   5.453   0.947  1.00 20.00     0.010 C 
ENDBRANCH   7   9
TORSDOF 1
ENDMDL
MODEL 7
REMARK VINA RESULT:       3.0      1.223      3.956
REMARK  1 active torsions:
REMARK  status: ('A' for Active; 'I' for Inactive)
REMARK    1  A    between atoms: C7_7  and  C11_11 
ROOT
HETATM    1  C1  UNL     1     -31.498   8.433   0.373  1.00 20.00    -0.084 C 
HETATM    2  C2  UNL     1     -30.626   8.452  -0.640  1.00 20.00     0.014 C 
HETATM    3  C3  UNL     1     -31.935   7.186   1.111  1.00 20.00     0.044 C 
HETATM    4  C4  UNL     1     -31.904   8.485   3.375  1.00 20.00     0.016 A 
HETATM    5  C5  UNL     1     -32.119   9.654   1.031  1.00 20.00     0.014 C 
HETATM    6  C6  UNL     1     -32.745   9.153   2.317  1.00 20.00     0.003 A 
HETATM    7  C7  UNL     1     -32.656   7.655   2.360  1.00 20.00    -0.029 A 
HETATM    8  C8  UNL     1     -33.167  10.302   0.131  1.00 20.00     0.015 C 
ENDROOT
BRANCH   7   9
HETATM    9  C11 UNL     1     -33.829   6.846   2.814  1.00 20.00    -0.014 C 
HETATM   10  C9  UNL     1     -33.477   5.353   2.936  1.00 20.00     0.010 C 
HETATM   11  C10 UNL     1     -34.381   7.351   4.158  1.00 20.00     0.010 C 
ENDBRANCH   7   9
TORSDOF 1
ENDMDL
MODEL 8
REMARK VINA RESULT:       3.1      1.305      2.880
REMARK  1 active torsions:
REMARK  status: ('A' for Active; 'I' for Inactive)
REMARK    1  A    between atoms: C7_7  and  C11_11 
ROOT
HETATM    1  C1  UNL     1     -33.554   4.918   3.414  1.00 20.00    -0.084 C 
HETATM    2  C2  UNL     1     -33.692   3.762   4.075  1.00 20.00     0.014 C 
HETATM    3  C3  UNL     1     -32.313   5.331   2.653  1.00 20.00     0.044 C 
HETATM    4  C4  UNL     1     -33.789   6.371   0.767  1.00 20.00     0.016 A 
HETATM    5  C5  UNL     1     -34.640   5.962   3.219  1.00 20.00     0.014 C 
HETATM    6  C6  UNL     1     -34.123   6.894   2.141  1.00 20.00     0.003 A 
HETATM    7  C7  UNL     1     -32.705   6.529   1.810  1.00 20.00    -0.029 A 
HETATM    8  C8  UNL     1     -34.920   6.725   4.511  1.00 20.00     0.015 C 
ENDROOT
BRANCH   7   9
HETATM    9  C11 UNL     1     -31.678   7.600   1.628  1.00 20.00    -0.014 C 
HETATM   10  C9  UNL     1     -32.093   8.607   0.541  1.00 20.00     0.010 C 
HETATM   11  C10 UNL     1     -31.402   8.352   2.941  1.00 20.00     0.010 C 
ENDBRANCH   7   9
TORSDOF 1
ENDMDL
MODEL 9
REMARK VINA RESULT:       3.2      1.615      3.445
REMARK  1 active torsions:
REMARK  status: ('A' for Active; 'I' for Inactive)
REMARK    1  A    between atoms: C7_7  and  C11_11 
ROOT
HETATM    1  C1  UNL     1     -32.295   5.259   1.375  1.00 20.00    -0.084 C 
HETATM    2  C2  UNL     1     -31.558   4.200   1.023  1.00 20.00     0.014 C 
HETATM    3  C3  UNL     1     -32.518   5.718   2.800  1.00 20.00     0.044 C 
HETATM    4  C4  UNL     1     -32.334   8.212   2.051  1.00 20.00     0.016 A 
HETATM    5  C5  UNL     1     -32.943   6.246   0.418  1.00 20.00     0.014 C 
HETATM    6  C6  UNL     1     -33.358   7.429   1.268  1.00 20.00     0.003 A 
HETATM    7  C7  UNL     1     -33.122   7.106   2.715  1.00 20.00    -0.029 A 
HETATM    8  C8  UNL     1     -34.151   5.630  -0.285  1.00 20.00     0.015 C 
ENDROOT
BRANCH   7   9
HETATM    9  C11 UNL     1     -34.148   7.466   3.742  1.00 20.00    -0.014 C 
HETATM   10  C9  UNL     1     -35.103   6.294   4.026  1.00 20.00     0.010 C 
HETATM   11  C10 UNL     1     -33.499   7.926   5.058  1.00 20.00     0.010 C 
ENDBRANCH   7   9
TORSDOF 1
ENDMDL
