MODEL 1
REMARK VINA RESULT:      -0.8      0.000      0.000
REMARK  2 active torsions:
REMARK  status: ('A' for Active; 'I' for Inactive)
REMARK    1  A    between atoms: C7_7  and  C9_9 
REMARK    2  A    between atoms: C8_8  and  C10_10 
ROOT
HETATM    1  C1  UNL     1     -32.681  10.156  -0.312  1.00 20.00     0.012 C 
HETATM    2  C2  UNL     1     -32.347   9.385   0.545  1.00 20.00    -0.112 C 
HETATM    3  C6  UNL     1     -31.947   8.464   1.569  1.00 20.00     0.074 A 
HETATM    4  C9  UNL     1     -32.992   7.523   2.129  1.00 20.00     0.011 A 
HETATM    5  C10 UNL     1     -31.919   6.989   1.230  1.00 20.00     0.011 A 
ENDROOT
BRANCH   4   6
HETATM    6  C7  UNL     1     -32.830   6.712   3.413  1.00 20.00    -0.008 C 
HETATM    7  C3  UNL     1     -33.269   7.623   4.584  1.00 20.00     0.005 C 
HETATM    8  C4  UNL     1     -34.804   7.709   4.391  1.00 20.00     0.005 C 
HETATM    9  C8  UNL     1     -35.039   6.836   3.136  1.00 20.00    -0.008 C 
HETATM   10  C5  UNL     1     -34.006   5.725   3.380  1.00 20.00     0.010 C 
ENDBRANCH   4   6
TORSDOF 2
ENDMDL
MODEL 2
REMARK VINA RESULT:       0.8      1.751      4.439
REMARK  2 active torsions:
REMARK  status: ('A' for Active; 'I' for Inactive)
REMARK    1  A    between atoms: C7_7  and  C9_9 
REMARK    2  A    between atoms: C8_8  and  C10_10 
ROOT
HETATM    1  C1  UNL     1     -32.898   2.648   5.126  1.00 20.00     0.012 C 
HETATM    2  C2  UNL     1     -33.425   3.462   4.419  1.00 20.00    -0.112 C 
HETATM    3  C6  UNL     1     -34.054   4.435   3.573  1.00 20.00     0.074 A 
HETATM    4  C9  UNL     1     -33.351   5.758   3.363  1.00 20.00     0.011 A 
HETATM    5  C10 UNL     1     -33.399   4.759   2.248  1.00 20.00     0.011 A 
ENDROOT
BRANCH   4   6
HETATM    6  C7  UNL     1     -34.005   7.003   2.767  1.00 20.00    -0.008 C 
HETATM    7  C3  UNL     1     -34.847   7.656   3.889  1.00 20.00     0.005 C 
HETATM    8  C4  UNL     1     -33.764   8.226   4.839  1.00 20.00     0.005 C 
HETATM    9  C8  UNL     1     -32.446   7.823   4.135  1.00 20.00    -0.008 C 
HETATM   10  C5  UNL     1     -32.854   8.015   2.666  1.00 20.00     0.010 C 
ENDBRANCH   4   6
TORSDOF 2
ENDMDL
MODEL 3
REMARK VINA RESULT:       1.0      1.710      4.526
REMARK  2 active torsions:
REMARK  status: ('A' for Active; 'I' for Inactive)
REMARK    1  A    between atoms: C7_7  and  C9_9 
REMARK    2  A    between atoms: C8_8  and  C10_10 
ROOT
HETATM    1  C1  UNL     1     -33.407   2.737   4.260  1.00 20.00     0.012 C 
HETATM    2  C2  UNL     1     -33.867   3.828   4.457  1.00 20.00    -0.112 C 
HETATM    3  C6  UNL     1     -34.417   5.132   4.691  1.00 20.00     0.074 A 
HETATM    4  C9  UNL     1     -34.059   6.242   3.727  1.00 20.00     0.011 A 
HETATM    5  C10 UNL     1     -35.441   5.662   3.711  1.00 20.00     0.011 A 
ENDROOT
BRANCH   4   6
HETATM    6  C7  UNL     1     -34.289   7.729   3.991  1.00 20.00    -0.008 C 
HETATM    7  C3  UNL     1     -33.043   8.256   4.741  1.00 20.00     0.005 C 
HETATM    8  C4  UNL     1     -31.952   8.239   3.641  1.00 20.00     0.005 C 
HETATM    9  C8  UNL     1     -32.718   7.705   2.408  1.00 20.00    -0.008 C 
HETATM   10  C5  UNL     1     -34.079   8.386   2.618  1.00 20.00     0.010 C 
ENDBRANCH   4   6
TORSDOF 2
ENDMDL
MODEL 4
REMARK VINA RESULT:       1.1      1.470      2.871
REMARK  2 active torsions:
REMARK  status: ('A' for Active; 'I' for Inactive)
REMARK    1  A    between atoms: C7_7  and  C9_9 
REMARK    2  A    between atoms: C8_8  and  C10_10 
ROOT
HETATM    1  C1  UNL     1     -31.294   4.421   0.750  1.00 20.00     0.012 C 
HETATM    2  C2  UNL     1     -31.995   5.362   1.003  1.00 20.00    -0.112 C 
HETATM    3  C6  UNL     1     -32.832   6.487   1.306  1.00 20.00     0.074 A 
HETATM    4  C9  UNL     1     -32.983   6.894   2.756  1.00 20.00     0.011 A 
HETATM    5  C10 UNL     1     -32.175   7.747   1.826  1.00 20.00     0.011 A 
ENDROOT
BRANCH   4   6
HETATM    6  C7  UNL     1     -34.057   7.844   3.283  1.00 20.00    -0.008 C 
HETATM    7  C3  UNL     1     -35.427   7.182   3.002  1.00 20.00     0.005 C 
HETATM    8  C4  UNL     1     -35.449   6.004   4.008  1.00 20.00     0.005 C 
HETATM    9  C8  UNL     1     -34.088   6.148   4.730  1.00 20.00    -0.008 C 
HETATM   10  C5  UNL     1     -33.982   7.679   4.808  1.00 20.00     0.010 C 
ENDBRANCH   4   6
TORSDOF 2
ENDMDL
MODEL 5
REMARK VINA RESULT:       1.2      1.101      4.418
REMARK  2 active torsions:
REMARK  status: ('A' for Active; 'I' for Inactive)
REMARK    1  A    between atoms: C7_7  and  C9_9 
REMARK    2  A    between atoms: C8_8  and  C10_10 
ROOT
HETATM    1  C1  UNL     1     -34.854   6.507   3.754  1.00 20.00     0.012 C 
HETATM    2  C2  UNL     1     -33.896   6.739   3.068  1.00 20.00    -0.112 C 
HETATM    3  C6  UNL     1     -32.752   7.017   2.249  1.00 20.00     0.074 A 
HETATM    4  C9  UNL     1     -32.647   8.385   1.610  1.00 20.00     0.011 A 
HETATM    5  C10 UNL     1     -31.743   8.028   2.751  1.00 20.00     0.011 A 
ENDROOT
BRANCH   4   6
HETATM    6  C7  UNL     1     -31.685   8.743   0.480  1.00 20.00    -0.008 C 
HETATM    7  C3  UNL     1     -32.529   8.882  -0.809  1.00 20.00     0.005 C 
HETATM    8  C4  UNL     1     -33.315  10.194  -0.562  1.00 20.00     0.005 C 
HETATM    9  C8  UNL     1     -32.816  10.631   0.836  1.00 20.00    -0.008 C 
HETATM   10  C5  UNL     1     -31.340  10.217   0.739  1.00 20.00     0.010 C 
ENDBRANCH   4   6
TORSDOF 2
ENDMDL
MODEL 6
REMARK VINA RESULT:       1.4      1.628      2.551
REMARK  2 active torsions:
REMARK  status: ('A' for Active; 'I' for Inactive)
REMARK    1  A    between atoms: C7_7  and  C9_9 
REMARK    2  A    between atoms: C8_8  and  C10_10 
ROOT
HETATM    1  C1  UNL     1     -32.409  10.422  -0.515  1.00 20.00     0.012 C 
HETATM    2  C2  UNL     1     -32.507   9.685   0.427  1.00 20.00    -0.112 C 
HETATM    3  C6  UNL     1     -32.622   8.804   1.554  1.00 20.00     0.074 A 
HETATM    4  C9  UNL     1     -32.008   7.426   1.447  1.00 20.00     0.011 A 
HETATM    5  C10 UNL     1     -31.365   8.459   2.322  1.00 20.00     0.011 A 
ENDROOT
BRANCH   4   6
HETATM    6  C7  UNL     1     -32.300   6.270   2.402  1.00 20.00    -0.008 C 
HETATM    7  C3  UNL     1     -33.760   5.827   2.145  1.00 20.00     0.005 C 
HETATM    8  C4  UNL     1     -33.671   5.147   0.756  1.00 20.00     0.005 C 
HETATM    9  C8  UNL     1     -32.172   5.291   0.402  1.00 20.00    -0.008 C 
HETATM   10  C5  UNL     1     -31.544   5.082   1.788  1.00 20.00     0.010 C 
ENDBRANCH   4   6
TORSDOF 2
ENDMDL
MODEL 7
REMARK VINA RESULT:       1.4      1.413      4.413
REMARK  2 active torsions:
REMARK  status: ('A' for Active; 'I' for Inactive)
REMARK    1  A    between atoms: C7_7  and  C9_9 
REMARK    2  A    between atoms: C8_8  and  C10_10 
ROOT
HETATM    1  C1  UNL     1     -33.681   3.236   4.427  1.00 20.00     0.012 C 
HETATM    2  C2  UNL     1     -33.816   4.428   4.386  1.00 20.00    -0.112 C 
HETATM    3  C6  UNL     1     -33.977   5.852   4.336  1.00 20.00     0.074 A 
HETATM    4  C9  UNL     1     -33.738   6.551   3.015  1.00 20.00     0.011 A 
HETATM    5  C10 UNL     1     -35.135   6.412   3.537  1.00 20.00     0.011 A 
ENDROOT
BRANCH   4   6
HETATM    6  C7  UNL     1     -33.558   8.059   2.852  1.00 20.00    -0.008 C 
HETATM    7  C3  UNL     1     -32.216   8.433   3.526  1.00 20.00     0.005 C 
HETATM    8  C4  UNL     1     -31.169   7.828   2.559  1.00 20.00     0.005 C 
HETATM    9  C8  UNL     1     -32.050   7.189   1.459  1.00 20.00    -0.008 C 
HETATM   10  C5  UNL     1     -33.176   8.230   1.374  1.00 20.00     0.010 C 
ENDBRANCH   4   6
TORSDOF 2
ENDMDL
MODEL 8
REMARK VINA RESULT:       2.2      1.308      3.948
REMARK  2 active torsions:
REMARK  status: ('A' for Active; 'I' for Inactive)
REMARK    1  A    between atoms: C7_7  and  C9_9 
REMARK    2  A    between atoms: C8_8  and  C10_10 
ROOT
HETATM    1  C1  UNL     1     -33.512   8.523   5.930  1.00 20.00     0.012 C 
HETATM    2  C2  UNL     1     -33.807   8.002   4.889  1.00 20.00    -0.112 C 
HETATM    3  C6  UNL     1     -34.159   7.380   3.646  1.00 20.00     0.074 A 
HETATM    4  C9  UNL     1     -33.218   6.341   3.077  1.00 20.00     0.011 A 
HETATM    5  C10 UNL     1     -34.529   5.912   3.662  1.00 20.00     0.011 A 
ENDROOT
BRANCH   4   6
HETATM    6  C7  UNL     1     -33.269   5.817   1.643  1.00 20.00    -0.008 C 
HETATM    7  C3  UNL     1     -33.557   7.029   0.726  1.00 20.00     0.005 C 
HETATM    8  C4  UNL     1     -32.227   7.822   0.783  1.00 20.00     0.005 C 
HETATM    9  C8  UNL     1     -31.355   6.958   1.725  1.00 20.00    -0.008 C 
HETATM   10  C5  UNL     1     -31.798   5.552   1.291  1.00 20.00     0.010 C 
ENDBRANCH   4   6
TORSDOF 2
ENDMDL
