MODEL 1
REMARK VINA RESULT:      -0.9      0.000      0.000
REMARK  0 active torsions:
REMARK  status: ('A' for Active; 'I' for Inactive)
ROOT
HETATM    1  C1  UNL     1     -32.449   9.903   0.065  1.00 20.00     0.014 C 
HETATM    2  C2  UNL     1     -32.451   9.038   0.897  1.00 20.00    -0.091 C 
HETATM    3  C3  UNL     1     -33.796   6.556   3.336  1.00 20.00     0.003 C 
HETATM    4  C4  UNL     1     -32.954   5.668   2.419  1.00 20.00     0.003 C 
HETATM    5  C5  UNL     1     -33.741   7.960   2.737  1.00 20.00     0.039 C 
HETATM    6  C6  UNL     1     -32.434   6.581   1.308  1.00 20.00     0.039 C 
HETATM    7  C7  UNL     1     -32.455   7.984   1.912  1.00 20.00     0.099 C 
HETATM    8 CL8  UNL     1     -31.033   8.237   2.969  1.00 20.00    -0.105 Cl
ENDROOT
TORSDOF 0
ENDMDL
MODEL 2
REMARK VINA RESULT:      -0.9      1.565      2.213
REMARK  0 active torsions:
REMARK  status: ('A' for Active; 'I' for Inactive)
ROOT
HETATM    1  C1  UNL     1     -31.987   8.204   1.464  1.00 20.00     0.014 C 
HETATM    2  C2  UNL     1     -32.653   7.705   2.328  1.00 20.00    -0.091 C 
HETATM    3  C3  UNL     1     -35.625   6.184   3.993  1.00 20.00     0.003 C 
HETATM    4  C4  UNL     1     -34.568   5.093   4.181  1.00 20.00     0.003 C 
HETATM    5  C5  UNL     1     -34.966   7.272   3.147  1.00 20.00     0.039 C 
HETATM    6  C6  UNL     1     -33.324   5.577   3.436  1.00 20.00     0.039 C 
HETATM    7  C7  UNL     1     -33.467   7.097   3.381  1.00 20.00     0.099 C 
HETATM    8 CL8  UNL     1     -32.982   7.832   4.939  1.00 20.00    -0.105 Cl
ENDROOT
TORSDOF 0
ENDMDL
MODEL 3
REMARK VINA RESULT:      -0.3      2.188      4.032
REMARK  0 active torsions:
REMARK  status: ('A' for Active; 'I' for Inactive)
ROOT
HETATM    1  C1  UNL     1     -33.923   3.759   4.404  1.00 20.00     0.014 C 
HETATM    2  C2  UNL     1     -33.898   4.848   3.901  1.00 20.00    -0.091 C 
HETATM    3  C3  UNL     1     -32.711   8.299   3.125  1.00 20.00     0.003 C 
HETATM    4  C4  UNL     1     -32.746   7.660   1.735  1.00 20.00     0.003 C 
HETATM    5  C5  UNL     1     -33.072   7.190   4.111  1.00 20.00     0.039 C 
HETATM    6  C6  UNL     1     -33.126   6.196   1.953  1.00 20.00     0.039 C 
HETATM    7  C7  UNL     1     -33.866   6.177   3.288  1.00 20.00     0.099 C 
HETATM    8 CL8  UNL     1     -35.558   6.722   3.079  1.00 20.00    -0.105 Cl
ENDROOT
TORSDOF 0
ENDMDL
MODEL 4
REMARK VINA RESULT:      -0.1      2.104      2.854
REMARK  0 active torsions:
REMARK  status: ('A' for Active; 'I' for Inactive)
ROOT
HETATM    1  C1  UNL     1     -31.499   8.075   1.849  1.00 20.00     0.014 C 
HETATM    2  C2  UNL     1     -32.399   7.331   2.127  1.00 20.00    -0.091 C 
HETATM    3  C3  UNL     1     -34.284   4.673   3.943  1.00 20.00     0.003 C 
HETATM    4  C4  UNL     1     -35.238   5.864   4.052  1.00 20.00     0.003 C 
HETATM    5  C5  UNL     1     -33.028   5.198   3.251  1.00 20.00     0.039 C 
HETATM    6  C6  UNL     1     -34.508   7.050   3.422  1.00 20.00     0.039 C 
HETATM    7  C7  UNL     1     -33.495   6.423   2.467  1.00 20.00     0.099 C 
HETATM    8 CL8  UNL     1     -34.288   5.930   0.941  1.00 20.00    -0.105 Cl
ENDROOT
TORSDOF 0
ENDMDL
MODEL 5
REMARK VINA RESULT:       0.1      1.229      3.404
REMARK  0 active torsions:
REMARK  status: ('A' for Active; 'I' for Inactive)
ROOT
HETATM    1  C1  UNL     1     -35.455   6.179   4.000  1.00 20.00     0.014 C 
HETATM    2  C2  UNL     1     -34.486   6.756   3.589  1.00 20.00    -0.091 C 
HETATM    3  C3  UNL     1     -31.534   7.509   1.436  1.00 20.00     0.003 C 
HETATM    4  C4  UNL     1     -32.351   8.795   1.307  1.00 20.00     0.003 C 
HETATM    5  C5  UNL     1     -32.376   6.553   2.280  1.00 20.00     0.039 C 
HETATM    6  C6  UNL     1     -33.648   8.551   2.078  1.00 20.00     0.039 C 
HETATM    7  C7  UNL     1     -33.304   7.458   3.088  1.00 20.00     0.099 C 
HETATM    8 CL8  UNL     1     -32.442   8.149   4.496  1.00 20.00    -0.105 Cl
ENDROOT
TORSDOF 0
ENDMDL
MODEL 6
REMARK VINA RESULT:       0.2      1.024      3.327
REMARK  0 active torsions:
REMARK  status: ('A' for Active; 'I' for Inactive)
ROOT
HETATM    1  C1  UNL     1     -34.540   6.732   3.831  1.00 20.00     0.014 C 
HETATM    2  C2  UNL     1     -33.698   7.344   3.234  1.00 20.00    -0.091 C 
HETATM    3  C3  UNL     1     -31.316   8.230   0.502  1.00 20.00     0.003 C 
HETATM    4  C4  UNL     1     -32.167   9.498   0.600  1.00 20.00     0.003 C 
HETATM    5  C5  UNL     1     -31.930   7.231   1.482  1.00 20.00     0.039 C 
HETATM    6  C6  UNL     1     -33.254   9.200   1.632  1.00 20.00     0.039 C 
HETATM    7  C7  UNL     1     -32.671   8.090   2.504  1.00 20.00     0.099 C 
HETATM    8 CL8  UNL     1     -31.530   8.765   3.706  1.00 20.00    -0.105 Cl
ENDROOT
TORSDOF 0
ENDMDL
MODEL 7
REMARK VINA RESULT:       0.3      2.939      4.437
REMARK  0 active torsions:
REMARK  status: ('A' for Active; 'I' for Inactive)
ROOT
HETATM    1  C1  UNL     1     -33.457   3.071   4.546  1.00 20.00     0.014 C 
HETATM    2  C2  UNL     1     -33.658   4.168   4.102  1.00 20.00    -0.091 C 
HETATM    3  C3  UNL     1     -35.338   7.458   3.578  1.00 20.00     0.003 C 
HETATM    4  C4  UNL     1     -33.931   7.888   3.997  1.00 20.00     0.003 C 
HETATM    5  C5  UNL     1     -35.366   5.934   3.686  1.00 20.00     0.039 C 
HETATM    6  C6  UNL     1     -33.180   6.601   4.340  1.00 20.00     0.039 C 
HETATM    7  C7  UNL     1     -33.906   5.505   3.562  1.00 20.00     0.099 C 
HETATM    8 CL8  UNL     1     -33.393   5.505   1.847  1.00 20.00    -0.105 Cl
ENDROOT
TORSDOF 0
ENDMDL
MODEL 8
REMARK VINA RESULT:       0.5      1.552      3.394
REMARK  0 active torsions:
REMARK  status: ('A' for Active; 'I' for Inactive)
ROOT
HETATM    1  C1  UNL     1     -34.987   6.527   4.000  1.00 20.00     0.014 C 
HETATM    2  C2  UNL     1     -34.083   6.809   3.262  1.00 20.00    -0.091 C 
HETATM    3  C3  UNL     1     -32.071   8.779   0.815  1.00 20.00     0.003 C 
HETATM    4  C4  UNL     1     -31.076   8.593   1.960  1.00 20.00     0.003 C 
HETATM    5  C5  UNL     1     -33.387   8.165   1.291  1.00 20.00     0.039 C 
HETATM    6  C6  UNL     1     -31.841   7.877   3.074  1.00 20.00     0.039 C 
HETATM    7  C7  UNL     1     -32.982   7.154   2.362  1.00 20.00     0.099 C 
HETATM    8 CL8  UNL     1     -32.397   5.640   1.610  1.00 20.00    -0.105 Cl
ENDROOT
TORSDOF 0
ENDMDL
MODEL 9
REMARK VINA RESULT:       0.7      2.194      3.319
REMARK  0 active torsions:
REMARK  status: ('A' for Active; 'I' for Inactive)
ROOT
HETATM    1  C1  UNL     1     -31.134   4.291   0.669  1.00 20.00     0.014 C 
HETATM    2  C2  UNL     1     -31.956   5.049   1.105  1.00 20.00    -0.091 C 
HETATM    3  C3  UNL     1     -34.197   6.706   3.585  1.00 20.00     0.003 C 
HETATM    4  C4  UNL     1     -33.390   7.891   3.051  1.00 20.00     0.003 C 
HETATM    5  C5  UNL     1     -33.614   5.461   2.920  1.00 20.00     0.039 C 
HETATM    6  C6  UNL     1     -32.358   7.301   2.090  1.00 20.00     0.039 C 
HETATM    7  C7  UNL     1     -32.959   5.972   1.638  1.00 20.00     0.099 C 
HETATM    8 CL8  UNL     1     -34.188   6.237   0.364  1.00 20.00    -0.105 Cl
ENDROOT
TORSDOF 0
ENDMDL
