MODEL 1
REMARK VINA RESULT:      -0.4      0.000      0.000
REMARK  2 active torsions:
REMARK  status: ('A' for Active; 'I' for Inactive)
REMARK    1  A    between atoms: C4_4  and  C12_12 
REMARK    2  A    between atoms: C5_5  and  C11_11 
ROOT
HETATM    1  C1  UNL     1     -32.899   5.910   1.832  1.00 20.00     0.004 A 
HETATM    2  C2  UNL     1     -31.977   6.482   1.045  1.00 20.00    -0.017 A 
HETATM    3  C3  UNL     1     -32.821   8.071   2.539  1.00 20.00    -0.010 A 
HETATM    4  C4  UNL     1     -33.422   6.890   2.755  1.00 20.00    -0.054 A 
HETATM    5  C5  UNL     1     -31.825   7.935   1.415  1.00 20.00     0.034 A 
ENDROOT
BRANCH   4   6
HETATM    6  C12 UNL     1     -34.461   6.561   3.760  1.00 20.00    -0.024 C 
HETATM    7  C8  UNL     1     -34.277   7.445   5.011  1.00 20.00     0.019 C 
HETATM    8  C9  UNL     1     -34.356   5.079   4.176  1.00 20.00     0.019 C 
HETATM    9  C10 UNL     1     -35.869   6.808   3.180  1.00 20.00     0.019 C 
ENDBRANCH   4   6
BRANCH   5  10
HETATM   10  C11 UNL     1     -32.140   8.862   0.249  1.00 20.00    -0.012 C 
HETATM   11  C6  UNL     1     -32.612  10.226   0.756  1.00 20.00     0.010 C 
HETATM   12  C7  UNL     1     -30.922   9.023  -0.660  1.00 20.00     0.010 C 
ENDBRANCH   5  10
TORSDOF 2
ENDMDL
MODEL 2
REMARK VINA RESULT:       1.6      1.296      4.653
REMARK  2 active torsions:
REMARK  status: ('A' for Active; 'I' for Inactive)
REMARK    1  A    between atoms: C4_4  and  C12_12 
REMARK    2  A    between atoms: C5_5  and  C11_11 
ROOT
HETATM    1  C1  UNL     1     -32.029   5.932   1.383  1.00 20.00     0.004 A 
HETATM    2  C2  UNL     1     -32.832   4.947   1.813  1.00 20.00    -0.017 A 
HETATM    3  C3  UNL     1     -33.684   7.010   2.512  1.00 20.00    -0.010 A 
HETATM    4  C4  UNL     1     -32.553   7.206   1.814  1.00 20.00    -0.054 A 
HETATM    5  C5  UNL     1     -33.985   5.535   2.585  1.00 20.00     0.034 A 
ENDROOT
BRANCH   4   6
HETATM    6  C12 UNL     1     -31.887   8.491   1.491  1.00 20.00    -0.024 C 
HETATM    7  C8  UNL     1     -30.978   8.918   2.662  1.00 20.00     0.019 C 
HETATM    8  C9  UNL     1     -32.939   9.594   1.248  1.00 20.00     0.019 C 
HETATM    9  C10 UNL     1     -31.026   8.346   0.220  1.00 20.00     0.019 C 
ENDBRANCH   4   6
BRANCH   5  10
HETATM   10  C11 UNL     1     -34.036   5.027   4.020  1.00 20.00    -0.012 C 
HETATM   11  C6  UNL     1     -35.424   5.248   4.623  1.00 20.00     0.010 C 
HETATM   12  C7  UNL     1     -33.655   3.548   4.084  1.00 20.00     0.010 C 
ENDBRANCH   5  10
TORSDOF 2
ENDMDL
MODEL 3
REMARK VINA RESULT:       1.7      0.932      4.830
REMARK  2 active torsions:
REMARK  status: ('A' for Active; 'I' for Inactive)
REMARK    1  A    between atoms: C4_4  and  C12_12 
REMARK    2  A    between atoms: C5_5  and  C11_11 
ROOT
HETATM    1  C1  UNL     1     -32.677   8.713   3.016  1.00 20.00     0.004 A 
HETATM    2  C2  UNL     1     -32.933   7.697   3.853  1.00 20.00    -0.017 A 
HETATM    3  C3  UNL     1     -32.618   6.865   1.690  1.00 20.00    -0.010 A 
HETATM    4  C4  UNL     1     -32.483   8.201   1.680  1.00 20.00    -0.054 A 
HETATM    5  C5  UNL     1     -32.922   6.397   3.091  1.00 20.00     0.034 A 
ENDROOT
BRANCH   4   6
HETATM    6  C12 UNL     1     -32.180   9.083   0.527  1.00 20.00    -0.024 C 
HETATM    7  C8  UNL     1     -30.670   9.038   0.217  1.00 20.00     0.019 C 
HETATM    8  C9  UNL     1     -32.581  10.538   0.844  1.00 20.00     0.019 C 
HETATM    9  C10 UNL     1     -32.958   8.621  -0.723  1.00 20.00     0.019 C 
ENDBRANCH   4   6
BRANCH   5  10
HETATM   10  C11 UNL     1     -34.255   5.666   3.178  1.00 20.00    -0.012 C 
HETATM   11  C6  UNL     1     -34.083   4.309   3.862  1.00 20.00     0.010 C 
HETATM   12  C7  UNL     1     -35.289   6.512   3.921  1.00 20.00     0.010 C 
ENDBRANCH   5  10
TORSDOF 2
ENDMDL
MODEL 4
REMARK VINA RESULT:       1.7      0.933      4.821
REMARK  2 active torsions:
REMARK  status: ('A' for Active; 'I' for Inactive)
REMARK    1  A    between atoms: C4_4  and  C12_12 
REMARK    2  A    between atoms: C5_5  and  C11_11 
ROOT
HETATM    1  C1  UNL     1     -32.669   8.693   3.025  1.00 20.00     0.004 A 
HETATM    2  C2  UNL     1     -32.924   7.671   3.854  1.00 20.00    -0.017 A 
HETATM    3  C3  UNL     1     -32.628   6.858   1.681  1.00 20.00    -0.010 A 
HETATM    4  C4  UNL     1     -32.486   8.193   1.683  1.00 20.00    -0.054 A 
HETATM    5  C5  UNL     1     -32.923   6.378   3.079  1.00 20.00     0.034 A 
ENDROOT
BRANCH   4   6
HETATM    6  C12 UNL     1     -32.187   9.084   0.536  1.00 20.00    -0.024 C 
HETATM    7  C8  UNL     1     -32.602  10.530   0.873  1.00 20.00     0.019 C 
HETATM    8  C9  UNL     1     -32.959   8.623  -0.718  1.00 20.00     0.019 C 
HETATM    9  C10 UNL     1     -30.677   9.062   0.217  1.00 20.00     0.019 C 
ENDBRANCH   4   6
BRANCH   5  10
HETATM   10  C11 UNL     1     -34.259   5.652   3.169  1.00 20.00    -0.012 C 
HETATM   11  C6  UNL     1     -34.094   4.301   3.867  1.00 20.00     0.010 C 
HETATM   12  C7  UNL     1     -35.292   6.509   3.901  1.00 20.00     0.010 C 
ENDBRANCH   5  10
TORSDOF 2
ENDMDL
MODEL 5
REMARK VINA RESULT:       1.7      0.934      4.843
REMARK  2 active torsions:
REMARK  status: ('A' for Active; 'I' for Inactive)
REMARK    1  A    between atoms: C4_4  and  C12_12 
REMARK    2  A    between atoms: C5_5  and  C11_11 
ROOT
HETATM    1  C1  UNL     1     -32.697   8.705   3.029  1.00 20.00     0.004 A 
HETATM    2  C2  UNL     1     -32.955   7.692   3.869  1.00 20.00    -0.017 A 
HETATM    3  C3  UNL     1     -32.624   6.851   1.712  1.00 20.00    -0.010 A 
HETATM    4  C4  UNL     1     -32.493   8.188   1.697  1.00 20.00    -0.054 A 
HETATM    5  C5  UNL     1     -32.934   6.388   3.112  1.00 20.00     0.034 A 
ENDROOT
BRANCH   4   6
HETATM    6  C12 UNL     1     -32.186   9.065   0.541  1.00 20.00    -0.024 C 
HETATM    7  C8  UNL     1     -32.963   8.586  -0.701  1.00 20.00     0.019 C 
HETATM    8  C9  UNL     1     -30.675   9.031   0.229  1.00 20.00     0.019 C 
HETATM    9  C10 UNL     1     -32.589  10.522   0.850  1.00 20.00     0.019 C 
ENDBRANCH   4   6
BRANCH   5  10
HETATM   10  C11 UNL     1     -34.265   5.653   3.195  1.00 20.00    -0.012 C 
HETATM   11  C6  UNL     1     -34.095   4.305   3.896  1.00 20.00     0.010 C 
HETATM   12  C7  UNL     1     -35.310   6.503   3.918  1.00 20.00     0.010 C 
ENDBRANCH   5  10
TORSDOF 2
ENDMDL
MODEL 6
REMARK VINA RESULT:       2.1      0.947      4.580
REMARK  2 active torsions:
REMARK  status: ('A' for Active; 'I' for Inactive)
REMARK    1  A    between atoms: C4_4  and  C12_12 
REMARK    2  A    between atoms: C5_5  and  C11_11 
ROOT
HETATM    1  C1  UNL     1     -31.598   7.206   1.347  1.00 20.00     0.004 A 
HETATM    2  C2  UNL     1     -32.197   6.206   2.011  1.00 20.00    -0.017 A 
HETATM    3  C3  UNL     1     -33.716   7.958   1.702  1.00 20.00    -0.010 A 
HETATM    4  C4  UNL     1     -32.534   8.288   1.156  1.00 20.00    -0.054 A 
HETATM    5  C5  UNL     1     -33.626   6.581   2.310  1.00 20.00     0.034 A 
ENDROOT
BRANCH   4   6
HETATM    6  C12 UNL     1     -32.169   9.540   0.450  1.00 20.00    -0.024 C 
HETATM    7  C8  UNL     1     -30.682   9.499   0.046  1.00 20.00     0.019 C 
HETATM    8  C9  UNL     1     -32.405  10.760   1.365  1.00 20.00     0.019 C 
HETATM    9  C10 UNL     1     -33.026   9.710  -0.822  1.00 20.00     0.019 C 
ENDBRANCH   4   6
BRANCH   5  10
HETATM   10  C11 UNL     1     -33.919   6.591   3.804  1.00 20.00    -0.012 C 
HETATM   11  C6  UNL     1     -33.745   7.997   4.379  1.00 20.00     0.010 C 
HETATM   12  C7  UNL     1     -35.328   6.069   4.083  1.00 20.00     0.010 C 
ENDBRANCH   5  10
TORSDOF 2
ENDMDL
