MODEL 1
REMARK VINA RESULT:      -1.8      0.000      0.000
REMARK  0 active torsions:
REMARK  status: ('A' for Active; 'I' for Inactive)
ROOT
HETATM    1  C1  UNL     1     -32.442   5.270   1.016  1.00 20.00     0.014 C 
HETATM    2  C2  UNL     1     -32.475   6.363   1.511  1.00 20.00    -0.090 C 
HETATM    3  C3  UNL     1     -32.843  10.099   0.929  1.00 20.00     0.013 A 
HETATM    4  C4  UNL     1     -32.200   9.195  -0.127  1.00 20.00     0.013 A 
HETATM    5  C5  UNL     1     -31.183   8.429   2.259  1.00 20.00     0.052 A 
HETATM    6  C6  UNL     1     -32.514   7.666   2.102  1.00 20.00     0.107 A 
HETATM    7  C7  UNL     1     -32.196   8.840   1.290  1.00 20.00    -0.005 A 
HETATM    8 CL8  UNL     1     -33.690   7.839   3.405  1.00 20.00    -0.104 Cl
ENDROOT
TORSDOF 0
ENDMDL
MODEL 2
REMARK VINA RESULT:      -1.2      3.004      3.894
REMARK  0 active torsions:
REMARK  status: ('A' for Active; 'I' for Inactive)
ROOT
HETATM    1  C1  UNL     1     -33.704   3.572   4.601  1.00 20.00     0.014 C 
HETATM    2  C2  UNL     1     -33.826   4.566   3.939  1.00 20.00    -0.090 C 
HETATM    3  C3  UNL     1     -33.367   8.332   3.755  1.00 20.00     0.013 A 
HETATM    4  C4  UNL     1     -33.677   7.639   5.085  1.00 20.00     0.013 A 
HETATM    5  C5  UNL     1     -35.306   6.520   3.239  1.00 20.00     0.052 A 
HETATM    6  C6  UNL     1     -33.973   5.750   3.148  1.00 20.00     0.107 A 
HETATM    7  C7  UNL     1     -34.070   7.053   3.805  1.00 20.00    -0.005 A 
HETATM    8 CL8  UNL     1     -33.208   5.665   1.561  1.00 20.00    -0.104 Cl
ENDROOT
TORSDOF 0
ENDMDL
MODEL 3
REMARK VINA RESULT:      -1.2      2.510      4.176
REMARK  0 active torsions:
REMARK  status: ('A' for Active; 'I' for Inactive)
ROOT
HETATM    1  C1  UNL     1     -32.113   7.868   1.787  1.00 20.00     0.014 C 
HETATM    2  C2  UNL     1     -32.894   7.547   2.639  1.00 20.00    -0.090 C 
HETATM    3  C3  UNL     1     -34.397   4.697   4.653  1.00 20.00     0.013 A 
HETATM    4  C4  UNL     1     -33.917   4.480   3.215  1.00 20.00     0.013 A 
HETATM    5  C5  UNL     1     -35.267   6.823   3.226  1.00 20.00     0.052 A 
HETATM    6  C6  UNL     1     -33.826   7.164   3.656  1.00 20.00     0.107 A 
HETATM    7  C7  UNL     1     -34.340   5.795   3.690  1.00 20.00    -0.005 A 
HETATM    8 CL8  UNL     1     -33.633   8.027   5.182  1.00 20.00    -0.104 Cl
ENDROOT
TORSDOF 0
ENDMDL
MODEL 4
REMARK VINA RESULT:      -1.1      2.352      3.682
REMARK  0 active torsions:
REMARK  status: ('A' for Active; 'I' for Inactive)
ROOT
HETATM    1  C1  UNL     1     -31.516   8.296   1.505  1.00 20.00     0.014 C 
HETATM    2  C2  UNL     1     -32.300   7.414   1.725  1.00 20.00    -0.090 C 
HETATM    3  C3  UNL     1     -35.382   6.320   3.659  1.00 20.00     0.013 A 
HETATM    4  C4  UNL     1     -34.392   7.325   4.255  1.00 20.00     0.013 A 
HETATM    5  C5  UNL     1     -32.908   5.369   3.120  1.00 20.00     0.052 A 
HETATM    6  C6  UNL     1     -33.236   6.363   1.987  1.00 20.00     0.107 A 
HETATM    7  C7  UNL     1     -33.981   6.352   3.245  1.00 20.00    -0.005 A 
HETATM    8 CL8  UNL     1     -34.009   5.702   0.546  1.00 20.00    -0.104 Cl
ENDROOT
TORSDOF 0
ENDMDL
MODEL 5
REMARK VINA RESULT:      -0.8      1.289      3.283
REMARK  0 active torsions:
REMARK  status: ('A' for Active; 'I' for Inactive)
ROOT
HETATM    1  C1  UNL     1     -32.575   9.836   0.007  1.00 20.00     0.014 C 
HETATM    2  C2  UNL     1     -32.399   9.039   0.887  1.00 20.00    -0.090 C 
HETATM    3  C3  UNL     1     -32.011   5.377   1.817  1.00 20.00     0.013 A 
HETATM    4  C4  UNL     1     -32.892   5.803   0.640  1.00 20.00     0.013 A 
HETATM    5  C5  UNL     1     -33.428   7.521   2.658  1.00 20.00     0.052 A 
HETATM    6  C6  UNL     1     -32.188   8.089   1.936  1.00 20.00     0.107 A 
HETATM    7  C7  UNL     1     -32.620   6.704   1.757  1.00 20.00    -0.005 A 
HETATM    8 CL8  UNL     1     -30.764   8.404   2.928  1.00 20.00    -0.104 Cl
ENDROOT
TORSDOF 0
ENDMDL
MODEL 6
REMARK VINA RESULT:      -0.7      2.359      2.895
REMARK  0 active torsions:
REMARK  status: ('A' for Active; 'I' for Inactive)
ROOT
HETATM    1  C1  UNL     1     -33.858   3.931   4.152  1.00 20.00     0.014 C 
HETATM    2  C2  UNL     1     -34.051   5.082   3.871  1.00 20.00    -0.090 C 
HETATM    3  C3  UNL     1     -33.107   8.001   1.631  1.00 20.00     0.013 A 
HETATM    4  C4  UNL     1     -32.075   6.939   2.020  1.00 20.00     0.013 A 
HETATM    5  C5  UNL     1     -33.455   7.527   4.271  1.00 20.00     0.052 A 
HETATM    6  C6  UNL     1     -34.283   6.453   3.535  1.00 20.00     0.107 A 
HETATM    7  C7  UNL     1     -33.237   7.221   2.859  1.00 20.00    -0.005 A 
HETATM    8 CL8  UNL     1     -35.967   6.844   3.191  1.00 20.00    -0.104 Cl
ENDROOT
TORSDOF 0
ENDMDL
MODEL 7
REMARK VINA RESULT:      -0.1      2.217      3.587
REMARK  0 active torsions:
REMARK  status: ('A' for Active; 'I' for Inactive)
ROOT
HETATM    1  C1  UNL     1     -34.109   8.057   4.647  1.00 20.00     0.014 C 
HETATM    2  C2  UNL     1     -33.955   7.128   3.902  1.00 20.00    -0.090 C 
HETATM    3  C3  UNL     1     -31.718   5.477   1.314  1.00 20.00     0.013 A 
HETATM    4  C4  UNL     1     -31.764   7.001   1.460  1.00 20.00     0.013 A 
HETATM    5  C5  UNL     1     -34.325   6.142   1.581  1.00 20.00     0.052 A 
HETATM    6  C6  UNL     1     -33.770   6.021   3.016  1.00 20.00     0.107 A 
HETATM    7  C7  UNL     1     -32.891   6.159   1.855  1.00 20.00    -0.005 A 
HETATM    8 CL8  UNL     1     -33.899   4.441   3.788  1.00 20.00    -0.104 Cl
ENDROOT
TORSDOF 0
ENDMDL
MODEL 8
REMARK VINA RESULT:       0.1      2.224      3.093
REMARK  0 active torsions:
REMARK  status: ('A' for Active; 'I' for Inactive)
ROOT
HETATM    1  C1  UNL     1     -35.300   6.504   4.084  1.00 20.00     0.014 C 
HETATM    2  C2  UNL     1     -34.391   6.199   3.361  1.00 20.00    -0.090 C 
HETATM    3  C3  UNL     1     -31.215   7.330   1.611  1.00 20.00     0.013 A 
HETATM    4  C4  UNL     1     -32.362   8.310   1.876  1.00 20.00     0.013 A 
HETATM    5  C5  UNL     1     -33.497   6.024   0.980  1.00 20.00     0.052 A 
HETATM    6  C6  UNL     1     -33.308   5.836   2.500  1.00 20.00     0.107 A 
HETATM    7  C7  UNL     1     -32.595   6.873   1.754  1.00 20.00    -0.005 A 
HETATM    8 CL8  UNL     1     -32.412   4.409   3.019  1.00 20.00    -0.104 Cl
ENDROOT
TORSDOF 0
ENDMDL
MODEL 9
REMARK VINA RESULT:       0.1      1.549      1.904
REMARK  0 active torsions:
REMARK  status: ('A' for Active; 'I' for Inactive)
ROOT
HETATM    1  C1  UNL     1     -34.586   6.900   3.483  1.00 20.00     0.014 C 
HETATM    2  C2  UNL     1     -33.575   7.426   3.106  1.00 20.00    -0.090 C 
HETATM    3  C3  UNL     1     -31.965   9.752   0.571  1.00 20.00     0.013 A 
HETATM    4  C4  UNL     1     -33.170   8.886   0.193  1.00 20.00     0.013 A 
HETATM    5  C5  UNL     1     -31.506   7.303   1.622  1.00 20.00     0.052 A 
HETATM    6  C6  UNL     1     -32.370   8.053   2.657  1.00 20.00     0.107 A 
HETATM    7  C7  UNL     1     -32.259   8.504   1.270  1.00 20.00    -0.005 A 
HETATM    8 CL8  UNL     1     -31.511   8.957   3.905  1.00 20.00    -0.104 Cl
ENDROOT
TORSDOF 0
ENDMDL
