MODEL 1
REMARK VINA RESULT:      -3.0      0.000      0.000
REMARK  1 active torsions:
REMARK  status: ('A' for Active; 'I' for Inactive)
REMARK    1  A    between atoms: C1_1  and  C6_6 
ROOT
HETATM    1  C1  UNL     1     -33.349   7.260   2.992  1.00 20.00    -0.029 A 
HETATM    2  C2  UNL     1     -34.102   7.392   4.098  1.00 20.00     0.168 A 
HETATM    3  C3  UNL     1     -34.090   6.042   2.503  1.00 20.00     0.124 A 
HETATM    4  C7  UNL     1     -34.959   6.174   3.778  1.00 20.00     0.300 A 
HETATM    5  F8  UNL     1     -34.101   8.264   5.115  1.00 20.00    -0.204 F 
HETATM    6  F9  UNL     1     -34.889   5.114   4.621  1.00 20.00    -0.198 F 
HETATM    7  F10 UNL     1     -36.278   6.374   3.544  1.00 20.00    -0.198 F 
ENDROOT
BRANCH   1   8
HETATM    8  C6  UNL     1     -32.173   8.084   2.456  1.00 20.00     0.018 A 
HETATM    9  C4  UNL     1     -31.327   7.679   1.248  1.00 20.00     0.010 A 
HETATM   10  C5  UNL     1     -32.212   8.885   1.154  1.00 20.00     0.010 A 
ENDBRANCH   1   8
TORSDOF 1
ENDMDL
MODEL 2
REMARK VINA RESULT:      -2.7      1.382      2.138
REMARK  1 active torsions:
REMARK  status: ('A' for Active; 'I' for Inactive)
REMARK    1  A    between atoms: C1_1  and  C6_6 
ROOT
HETATM    1  C1  UNL     1     -32.994   7.579   2.611  1.00 20.00    -0.029 A 
HETATM    2  C2  UNL     1     -33.548   6.409   2.246  1.00 20.00     0.168 A 
HETATM    3  C3  UNL     1     -33.727   7.638   3.927  1.00 20.00     0.124 A 
HETATM    4  C7  UNL     1     -34.382   6.297   3.516  1.00 20.00     0.300 A 
HETATM    5  F8  UNL     1     -33.425   5.629   1.165  1.00 20.00    -0.204 F 
HETATM    6  F9  UNL     1     -35.731   6.342   3.392  1.00 20.00    -0.198 F 
HETATM    7  F10 UNL     1     -34.122   5.263   4.352  1.00 20.00    -0.198 F 
ENDROOT
BRANCH   1   8
HETATM    8  C6  UNL     1     -31.977   8.487   1.910  1.00 20.00     0.018 A 
HETATM    9  C4  UNL     1     -31.590   8.356   0.436  1.00 20.00     0.010 A 
HETATM   10  C5  UNL     1     -32.351   9.564   0.892  1.00 20.00     0.010 A 
ENDBRANCH   1   8
TORSDOF 1
ENDMDL
MODEL 3
REMARK VINA RESULT:      -2.7      2.615      4.308
REMARK  1 active torsions:
REMARK  status: ('A' for Active; 'I' for Inactive)
REMARK    1  A    between atoms: C1_1  and  C6_6 
ROOT
HETATM    1  C1  UNL     1     -33.329   7.239   3.103  1.00 20.00    -0.029 A 
HETATM    2  C2  UNL     1     -32.882   6.755   1.931  1.00 20.00     0.168 A 
HETATM    3  C3  UNL     1     -32.495   8.491   3.027  1.00 20.00     0.124 A 
HETATM    4  C7  UNL     1     -31.962   7.943   1.680  1.00 20.00     0.300 A 
HETATM    5  F8  UNL     1     -33.140   5.639   1.236  1.00 20.00    -0.204 F 
HETATM    6  F9  UNL     1     -30.626   7.712   1.654  1.00 20.00    -0.198 F 
HETATM    7  F10 UNL     1     -32.223   8.729   0.608  1.00 20.00    -0.198 F 
ENDROOT
BRANCH   1   8
HETATM    8  C6  UNL     1     -34.336   6.683   4.117  1.00 20.00     0.018 A 
HETATM    9  C4  UNL     1     -35.763   6.262   3.760  1.00 20.00     0.010 A 
HETATM   10  C5  UNL     1     -34.771   5.218   4.176  1.00 20.00     0.010 A 
ENDBRANCH   1   8
TORSDOF 1
ENDMDL
MODEL 4
REMARK VINA RESULT:      -2.7      2.174      3.988
REMARK  1 active torsions:
REMARK  status: ('A' for Active; 'I' for Inactive)
REMARK    1  A    between atoms: C1_1  and  C6_6 
ROOT
HETATM    1  C1  UNL     1     -33.414   6.132   2.777  1.00 20.00    -0.029 A 
HETATM    2  C2  UNL     1     -33.363   7.389   3.255  1.00 20.00     0.168 A 
HETATM    3  C3  UNL     1     -32.389   6.384   1.702  1.00 20.00     0.124 A 
HETATM    4  C7  UNL     1     -32.326   7.838   2.232  1.00 20.00     0.300 A 
HETATM    5  F8  UNL     1     -33.991   8.022   4.253  1.00 20.00    -0.204 F 
HETATM    6  F9  UNL     1     -32.694   8.783   1.334  1.00 20.00    -0.198 F 
HETATM    7  F10 UNL     1     -31.110   8.218   2.693  1.00 20.00    -0.198 F 
ENDROOT
BRANCH   1   8
HETATM    8  C6  UNL     1     -34.233   4.911   3.211  1.00 20.00     0.018 A 
HETATM    9  C4  UNL     1     -33.754   3.883   4.237  1.00 20.00     0.010 A 
HETATM   10  C5  UNL     1     -34.909   4.776   4.576  1.00 20.00     0.010 A 
ENDBRANCH   1   8
TORSDOF 1
ENDMDL
MODEL 5
REMARK VINA RESULT:      -2.0      2.497      4.136
REMARK  1 active torsions:
REMARK  status: ('A' for Active; 'I' for Inactive)
REMARK    1  A    between atoms: C1_1  and  C6_6 
ROOT
HETATM    1  C1  UNL     1     -33.312   7.179   3.028  1.00 20.00    -0.029 A 
HETATM    2  C2  UNL     1     -32.318   8.083   3.074  1.00 20.00     0.168 A 
HETATM    3  C3  UNL     1     -33.148   6.914   1.553  1.00 20.00     0.124 A 
HETATM    4  C7  UNL     1     -32.007   7.961   1.587  1.00 20.00     0.300 A 
HETATM    5  F8  UNL     1     -31.792   8.826   4.057  1.00 20.00    -0.204 F 
HETATM    6  F9  UNL     1     -32.216   9.049   0.808  1.00 20.00    -0.198 F 
HETATM    7  F10 UNL     1     -30.790   7.481   1.235  1.00 20.00    -0.198 F 
ENDROOT
BRANCH   1   8
HETATM    8  C6  UNL     1     -34.246   6.637   4.115  1.00 20.00     0.018 A 
HETATM    9  C4  UNL     1     -35.709   6.258   3.874  1.00 20.00     0.010 A 
HETATM   10  C5  UNL     1     -34.715   5.183   4.195  1.00 20.00     0.010 A 
ENDBRANCH   1   8
TORSDOF 1
ENDMDL
MODEL 6
REMARK VINA RESULT:      -1.8      2.482      3.975
REMARK  1 active torsions:
REMARK  status: ('A' for Active; 'I' for Inactive)
REMARK    1  A    between atoms: C1_1  and  C6_6 
ROOT
HETATM    1  C1  UNL     1     -34.233   4.672   3.962  1.00 20.00    -0.029 A 
HETATM    2  C2  UNL     1     -34.029   5.714   3.136  1.00 20.00     0.168 A 
HETATM    3  C3  UNL     1     -35.340   5.353   4.724  1.00 20.00     0.124 A 
HETATM    4  C7  UNL     1     -35.110   6.567   3.789  1.00 20.00     0.300 A 
HETATM    5  F8  UNL     1     -33.186   5.933   2.119  1.00 20.00    -0.204 F 
HETATM    6  F9  UNL     1     -34.723   7.701   4.421  1.00 20.00    -0.198 F 
HETATM    7  F10 UNL     1     -36.183   6.909   3.036  1.00 20.00    -0.198 F 
ENDROOT
BRANCH   1   8
HETATM    8  C6  UNL     1     -33.560   3.297   4.051  1.00 20.00     0.018 A 
HETATM    9  C4  UNL     1     -32.079   3.091   4.371  1.00 20.00     0.010 A 
HETATM   10  C5  UNL     1     -33.114   2.647   5.361  1.00 20.00     0.010 A 
ENDBRANCH   1   8
TORSDOF 1
ENDMDL
MODEL 7
REMARK VINA RESULT:      -1.5      3.937      5.039
REMARK  1 active torsions:
REMARK  status: ('A' for Active; 'I' for Inactive)
REMARK    1  A    between atoms: C1_1  and  C6_6 
ROOT
HETATM    1  C1  UNL     1     -32.254   8.463   1.251  1.00 20.00    -0.029 A 
HETATM    2  C2  UNL     1     -31.621   9.013   0.200  1.00 20.00     0.168 A 
HETATM    3  C3  UNL     1     -33.224   9.606   1.402  1.00 20.00     0.124 A 
HETATM    4  C7  UNL     1     -32.499  10.258   0.199  1.00 20.00     0.300 A 
HETATM    5  F8  UNL     1     -30.593   8.622  -0.565  1.00 20.00    -0.204 F 
HETATM    6  F9  UNL     1     -31.909  11.447   0.473  1.00 20.00    -0.198 F 
HETATM    7  F10 UNL     1     -33.285  10.475  -0.883  1.00 20.00    -0.198 F 
ENDROOT
BRANCH   1   8
HETATM    8  C6  UNL     1     -32.036   7.139   1.992  1.00 20.00     0.018 A 
HETATM    9  C4  UNL     1     -33.165   6.187   2.389  1.00 20.00     0.010 A 
HETATM   10  C5  UNL     1     -32.179   5.762   1.343  1.00 20.00     0.010 A 
ENDBRANCH   1   8
TORSDOF 1
ENDMDL
MODEL 8
REMARK VINA RESULT:      -1.4      1.853      2.725
REMARK  1 active torsions:
REMARK  status: ('A' for Active; 'I' for Inactive)
REMARK    1  A    between atoms: C1_1  and  C6_6 
ROOT
HETATM    1  C1  UNL     1     -33.457   6.309   2.824  1.00 20.00    -0.029 A 
HETATM    2  C2  UNL     1     -32.964   7.545   3.018  1.00 20.00     0.168 A 
HETATM    3  C3  UNL     1     -34.567   6.477   3.829  1.00 20.00     0.124 A 
HETATM    4  C7  UNL     1     -34.005   7.899   4.073  1.00 20.00     0.300 A 
HETATM    5  F8  UNL     1     -31.935   8.221   2.490  1.00 20.00    -0.204 F 
HETATM    6  F9  UNL     1     -33.571   8.126   5.337  1.00 20.00    -0.198 F 
HETATM    7  F10 UNL     1     -34.870   8.903   3.793  1.00 20.00    -0.198 F 
ENDROOT
BRANCH   1   8
HETATM    8  C6  UNL     1     -33.018   5.173   1.893  1.00 20.00     0.018 A 
HETATM    9  C4  UNL     1     -33.199   5.194   0.375  1.00 20.00     0.010 A 
HETATM   10  C5  UNL     1     -31.817   5.255   0.950  1.00 20.00     0.010 A 
ENDBRANCH   1   8
TORSDOF 1
ENDMDL
MODEL 9
REMARK VINA RESULT:      -1.3      1.418      2.874
REMARK  1 active torsions:
REMARK  status: ('A' for Active; 'I' for Inactive)
REMARK    1  A    between atoms: C1_1  and  C6_6 
ROOT
HETATM    1  C1  UNL     1     -33.454   6.371   2.836  1.00 20.00    -0.029 A 
HETATM    2  C2  UNL     1     -34.430   6.521   3.749  1.00 20.00     0.168 A 
HETATM    3  C3  UNL     1     -32.877   7.744   3.070  1.00 20.00     0.124 A 
HETATM    4  C7  UNL     1     -34.002   7.936   4.118  1.00 20.00     0.300 A 
HETATM    5  F8  UNL     1     -35.421   5.728   4.178  1.00 20.00    -0.204 F 
HETATM    6  F9  UNL     1     -34.861   8.947   3.844  1.00 20.00    -0.198 F 
HETATM    7  F10 UNL     1     -33.564   8.153   5.382  1.00 20.00    -0.198 F 
ENDROOT
BRANCH   1   8
HETATM    8  C6  UNL     1     -33.092   5.201   1.915  1.00 20.00     0.018 A 
HETATM    9  C4  UNL     1     -33.256   5.228   0.395  1.00 20.00     0.010 A 
HETATM   10  C5  UNL     1     -31.879   5.188   0.985  1.00 20.00     0.010 A 
ENDBRANCH   1   8
TORSDOF 1
ENDMDL
