MODEL 1
REMARK VINA RESULT:       1.2      0.000      0.000
REMARK  0 active torsions:
REMARK  status: ('A' for Active; 'I' for Inactive)
ROOT
HETATM    1  C1  UNL     1     -31.774   9.164   0.819  1.00 20.00     0.003 A 
HETATM    2  C2  UNL     1     -31.305   7.938   0.545  1.00 20.00     0.034 A 
HETATM    3  C3  UNL     1     -32.816   9.148   1.818  1.00 20.00     0.018 A 
HETATM    4  C4  UNL     1     -34.581   4.595   4.149  1.00 20.00     0.014 A 
HETATM    5  C5  UNL     1     -33.610   4.547   3.226  1.00 20.00     0.118 A 
HETATM    6  C6  UNL     1     -33.032   7.900   2.201  1.00 20.00     0.042 A 
HETATM    7  C7  UNL     1     -32.093   7.077   1.418  1.00 20.00     0.091 A 
HETATM    8  C8  UNL     1     -33.740   6.920   3.017  1.00 20.00     0.158 A 
HETATM    9  C9  UNL     1     -35.199   5.918   4.554  1.00 20.00     0.180 A 
HETATM   10  N10 UNL     1     -32.166   5.804   1.668  1.00 20.00    -0.166 NA
HETATM   11  N11 UNL     1     -34.671   7.136   3.876  1.00 20.00    -0.267 NA
HETATM   12  N12 UNL     1     -33.170   5.702   2.643  1.00 20.00    -0.226 N 
ENDROOT
TORSDOF 0
ENDMDL
MODEL 2
REMARK VINA RESULT:       1.5      0.926      2.086
REMARK  0 active torsions:
REMARK  status: ('A' for Active; 'I' for Inactive)
ROOT
HETATM    1  C1  UNL     1     -31.550   8.490   0.851  1.00 20.00     0.003 A 
HETATM    2  C2  UNL     1     -32.502   9.169   1.507  1.00 20.00     0.034 A 
HETATM    3  C3  UNL     1     -31.559   7.081   1.163  1.00 20.00     0.018 A 
HETATM    4  C4  UNL     1     -35.084   4.860   4.615  1.00 20.00     0.014 A 
HETATM    5  C5  UNL     1     -35.124   6.176   4.365  1.00 20.00     0.118 A 
HETATM    6  C6  UNL     1     -32.527   6.834   2.032  1.00 20.00     0.042 A 
HETATM    7  C7  UNL     1     -33.167   8.136   2.292  1.00 20.00     0.091 A 
HETATM    8  C8  UNL     1     -33.284   5.912   2.869  1.00 20.00     0.158 A 
HETATM    9  C9  UNL     1     -34.058   3.975   3.939  1.00 20.00     0.180 A 
HETATM   10  N10 UNL     1     -34.153   8.084   3.135  1.00 20.00    -0.166 NA
HETATM   11  N11 UNL     1     -33.114   4.645   2.999  1.00 20.00    -0.267 NA
HETATM   12  N12 UNL     1     -34.230   6.729   3.491  1.00 20.00    -0.226 N 
ENDROOT
TORSDOF 0
ENDMDL
MODEL 3
REMARK VINA RESULT:       1.6      1.021      4.059
REMARK  0 active torsions:
REMARK  status: ('A' for Active; 'I' for Inactive)
ROOT
HETATM    1  C1  UNL     1     -35.100   5.073   4.484  1.00 20.00     0.003 A 
HETATM    2  C2  UNL     1     -34.192   4.368   3.794  1.00 20.00     0.034 A 
HETATM    3  C3  UNL     1     -35.047   6.485   4.188  1.00 20.00     0.018 A 
HETATM    4  C4  UNL     1     -31.538   8.617   0.664  1.00 20.00     0.014 A 
HETATM    5  C5  UNL     1     -31.539   7.298   0.899  1.00 20.00     0.118 A 
HETATM    6  C6  UNL     1     -34.096   6.707   3.295  1.00 20.00     0.042 A 
HETATM    7  C7  UNL     1     -33.510   5.386   3.004  1.00 20.00     0.091 A 
HETATM    8  C8  UNL     1     -33.328   7.611   2.447  1.00 20.00     0.158 A 
HETATM    9  C9  UNL     1     -32.514   9.531   1.377  1.00 20.00     0.180 A 
HETATM   10  N10 UNL     1     -32.546   5.413   2.134  1.00 20.00    -0.166 NA
HETATM   11  N11 UNL     1     -33.455   8.885   2.335  1.00 20.00    -0.267 NA
HETATM   12  N12 UNL     1     -32.430   6.768   1.790  1.00 20.00    -0.226 N 
ENDROOT
TORSDOF 0
ENDMDL
MODEL 4
REMARK VINA RESULT:       1.9      0.925      4.560
REMARK  0 active torsions:
REMARK  status: ('A' for Active; 'I' for Inactive)
ROOT
HETATM    1  C1  UNL     1     -35.010   4.519   4.502  1.00 20.00     0.003 A 
HETATM    2  C2  UNL     1     -35.368   5.787   4.753  1.00 20.00     0.034 A 
HETATM    3  C3  UNL     1     -33.963   4.425   3.512  1.00 20.00     0.018 A 
HETATM    4  C4  UNL     1     -31.779   8.761   1.125  1.00 20.00     0.014 A 
HETATM    5  C5  UNL     1     -32.750   8.912   2.037  1.00 20.00     0.118 A 
HETATM    6  C6  UNL     1     -33.633   5.642   3.112  1.00 20.00     0.042 A 
HETATM    7  C7  UNL     1     -34.501   6.559   3.871  1.00 20.00     0.091 A 
HETATM    8  C8  UNL     1     -32.833   6.540   2.287  1.00 20.00     0.158 A 
HETATM    9  C9  UNL     1     -31.279   7.382   0.748  1.00 20.00     0.180 A 
HETATM   10  N10 UNL     1     -34.313   7.815   3.602  1.00 20.00    -0.166 NA
HETATM   11  N11 UNL     1     -31.919   6.228   1.440  1.00 20.00    -0.267 NA
HETATM   12  N12 UNL     1     -33.295   7.811   2.635  1.00 20.00    -0.226 N 
ENDROOT
TORSDOF 0
ENDMDL
MODEL 5
REMARK VINA RESULT:       3.8      1.216      4.048
REMARK  0 active torsions:
REMARK  status: ('A' for Active; 'I' for Inactive)
ROOT
HETATM    1  C1  UNL     1     -35.346   6.226   5.113  1.00 20.00     0.003 A 
HETATM    2  C2  UNL     1     -35.138   5.184   4.295  1.00 20.00     0.034 A 
HETATM    3  C3  UNL     1     -34.601   7.398   4.719  1.00 20.00     0.018 A 
HETATM    4  C4  UNL     1     -31.348   7.491   0.396  1.00 20.00     0.014 A 
HETATM    5  C5  UNL     1     -32.014   6.373   0.713  1.00 20.00     0.118 A 
HETATM    6  C6  UNL     1     -33.899   7.121   3.631  1.00 20.00     0.042 A 
HETATM    7  C7  UNL     1     -34.201   5.714   3.312  1.00 20.00     0.091 A 
HETATM    8  C8  UNL     1     -32.966   7.512   2.581  1.00 20.00     0.158 A 
HETATM    9  C9  UNL     1     -31.492   8.743   1.237  1.00 20.00     0.180 A 
HETATM   10  N10 UNL     1     -33.589   5.265   2.258  1.00 20.00    -0.166 NA
HETATM   11  N11 UNL     1     -32.402   8.655   2.414  1.00 20.00    -0.267 NA
HETATM   12  N12 UNL     1     -32.834   6.358   1.807  1.00 20.00    -0.226 N 
ENDROOT
TORSDOF 0
ENDMDL
