MODEL 1
REMARK VINA RESULT:      -1.9      0.000      0.000
REMARK  0 active torsions:
REMARK  status: ('A' for Active; 'I' for Inactive)
ROOT
HETATM    1  C1  UNL     1     -33.185   5.607   1.960  1.00 20.00    -0.011 A 
HETATM    2  C2  UNL     1     -33.482   6.633   2.773  1.00 20.00    -0.011 A 
HETATM    3  C3  UNL     1     -31.961   5.957   1.147  1.00 20.00     0.033 A 
HETATM    4  C4  UNL     1     -32.447   8.545   1.381  1.00 20.00     0.016 A 
HETATM    5  C5  UNL     1     -32.563   7.775   2.667  1.00 20.00     0.030 A 
HETATM    6  C6  UNL     1     -31.564   7.346   1.606  1.00 20.00    -0.002 A 
HETATM    7 BR7  UNL     1     -34.892   6.731   3.952  1.00 20.00    -0.056 Br
ENDROOT
TORSDOF 0
ENDMDL
MODEL 2
REMARK VINA RESULT:      -1.9      0.717      1.985
REMARK  0 active torsions:
REMARK  status: ('A' for Active; 'I' for Inactive)
ROOT
HETATM    1  C1  UNL     1     -32.963   7.897   3.242  1.00 20.00    -0.011 A 
HETATM    2  C2  UNL     1     -33.701   6.805   2.988  1.00 20.00    -0.011 A 
HETATM    3  C3  UNL     1     -31.927   8.059   2.156  1.00 20.00     0.033 A 
HETATM    4  C4  UNL     1     -31.962   5.470   1.625  1.00 20.00     0.016 A 
HETATM    5  C5  UNL     1     -33.324   6.092   1.759  1.00 20.00     0.030 A 
HETATM    6  C6  UNL     1     -32.164   6.901   1.205  1.00 20.00    -0.002 A 
HETATM    7 BR7  UNL     1     -35.079   6.144   4.014  1.00 20.00    -0.056 Br
ENDROOT
TORSDOF 0
ENDMDL
MODEL 3
REMARK VINA RESULT:      -1.8      2.413      3.289
REMARK  0 active torsions:
REMARK  status: ('A' for Active; 'I' for Inactive)
ROOT
HETATM    1  C1  UNL     1     -33.897   4.628   3.460  1.00 20.00    -0.011 A 
HETATM    2  C2  UNL     1     -33.502   5.661   2.700  1.00 20.00    -0.011 A 
HETATM    3  C3  UNL     1     -34.976   5.094   4.408  1.00 20.00     0.033 A 
HETATM    4  C4  UNL     1     -34.090   7.582   4.321  1.00 20.00     0.016 A 
HETATM    5  C5  UNL     1     -34.208   6.920   2.977  1.00 20.00     0.030 A 
HETATM    6  C6  UNL     1     -35.175   6.563   4.093  1.00 20.00    -0.002 A 
HETATM    7 BR7  UNL     1     -32.195   5.639   1.405  1.00 20.00    -0.056 Br
ENDROOT
TORSDOF 0
ENDMDL
MODEL 4
REMARK VINA RESULT:      -1.7      2.106      2.999
REMARK  0 active torsions:
REMARK  status: ('A' for Active; 'I' for Inactive)
ROOT
HETATM    1  C1  UNL     1     -33.146   5.732   2.500  1.00 20.00    -0.011 A 
HETATM    2  C2  UNL     1     -33.052   7.070   2.453  1.00 20.00    -0.011 A 
HETATM    3  C3  UNL     1     -34.254   5.346   3.450  1.00 20.00     0.033 A 
HETATM    4  C4  UNL     1     -34.001   7.608   4.793  1.00 20.00     0.016 A 
HETATM    5  C5  UNL     1     -34.025   7.775   3.300  1.00 20.00     0.030 A 
HETATM    6  C6  UNL     1     -34.818   6.659   3.958  1.00 20.00    -0.002 A 
HETATM    7 BR7  UNL     1     -31.848   8.056   1.471  1.00 20.00    -0.056 Br
ENDROOT
TORSDOF 0
ENDMDL
MODEL 5
REMARK VINA RESULT:      -1.5      2.023      3.342
REMARK  0 active torsions:
REMARK  status: ('A' for Active; 'I' for Inactive)
ROOT
HETATM    1  C1  UNL     1     -32.886   7.720   2.713  1.00 20.00    -0.011 A 
HETATM    2  C2  UNL     1     -33.188   6.434   2.477  1.00 20.00    -0.011 A 
HETATM    3  C3  UNL     1     -33.614   8.180   3.953  1.00 20.00     0.033 A 
HETATM    4  C4  UNL     1     -35.503   6.363   3.615  1.00 20.00     0.016 A 
HETATM    5  C5  UNL     1     -34.104   5.837   3.458  1.00 20.00     0.030 A 
HETATM    6  C6  UNL     1     -34.392   6.969   4.430  1.00 20.00    -0.002 A 
HETATM    7 BR7  UNL     1     -32.587   5.402   1.076  1.00 20.00    -0.056 Br
ENDROOT
TORSDOF 0
ENDMDL
MODEL 6
REMARK VINA RESULT:      -0.9      1.854      2.825
REMARK  0 active torsions:
REMARK  status: ('A' for Active; 'I' for Inactive)
ROOT
HETATM    1  C1  UNL     1     -32.228   7.439   1.607  1.00 20.00    -0.011 A 
HETATM    2  C2  UNL     1     -32.844   6.263   1.807  1.00 20.00    -0.011 A 
HETATM    3  C3  UNL     1     -32.472   8.334   2.798  1.00 20.00     0.033 A 
HETATM    4  C4  UNL     1     -34.714   7.069   3.394  1.00 20.00     0.016 A 
HETATM    5  C5  UNL     1     -33.555   6.162   3.090  1.00 20.00     0.030 A 
HETATM    6  C6  UNL     1     -33.320   7.511   3.748  1.00 20.00    -0.002 A 
HETATM    7 BR7  UNL     1     -32.884   4.830   0.652  1.00 20.00    -0.056 Br
ENDROOT
TORSDOF 0
ENDMDL
MODEL 7
REMARK VINA RESULT:      -0.8      2.020      2.959
REMARK  0 active torsions:
REMARK  status: ('A' for Active; 'I' for Inactive)
ROOT
HETATM    1  C1  UNL     1     -32.999   5.363   2.458  1.00 20.00    -0.011 A 
HETATM    2  C2  UNL     1     -33.575   4.914   3.584  1.00 20.00    -0.011 A 
HETATM    3  C3  UNL     1     -33.353   6.818   2.265  1.00 20.00     0.033 A 
HETATM    4  C4  UNL     1     -35.573   6.547   3.674  1.00 20.00     0.016 A 
HETATM    5  C5  UNL     1     -34.360   5.926   4.307  1.00 20.00     0.030 A 
HETATM    6  C6  UNL     1     -34.223   7.176   3.454  1.00 20.00    -0.002 A 
HETATM    7 BR7  UNL     1     -33.483   3.206   4.263  1.00 20.00    -0.056 Br
ENDROOT
TORSDOF 0
ENDMDL
MODEL 8
REMARK VINA RESULT:      -0.8      1.996      2.959
REMARK  0 active torsions:
REMARK  status: ('A' for Active; 'I' for Inactive)
ROOT
HETATM    1  C1  UNL     1     -33.504   7.812   2.917  1.00 20.00    -0.011 A 
HETATM    2  C2  UNL     1     -32.610   7.742   1.918  1.00 20.00    -0.011 A 
HETATM    3  C3  UNL     1     -33.838   6.415   3.382  1.00 20.00     0.033 A 
HETATM    4  C4  UNL     1     -33.207   5.393   1.028  1.00 20.00     0.016 A 
HETATM    5  C5  UNL     1     -32.203   6.374   1.566  1.00 20.00     0.030 A 
HETATM    6  C6  UNL     1     -33.000   5.496   2.515  1.00 20.00    -0.002 A 
HETATM    7 BR7  UNL     1     -31.891   9.154   0.981  1.00 20.00    -0.056 Br
ENDROOT
TORSDOF 0
ENDMDL
MODEL 9
REMARK VINA RESULT:       0.0      2.315      3.724
REMARK  0 active torsions:
REMARK  status: ('A' for Active; 'I' for Inactive)
ROOT
HETATM    1  C1  UNL     1     -34.809   6.918   3.392  1.00 20.00    -0.011 A 
HETATM    2  C2  UNL     1     -33.578   6.497   3.062  1.00 20.00    -0.011 A 
HETATM    3  C3  UNL     1     -35.462   5.889   4.283  1.00 20.00     0.033 A 
HETATM    4  C4  UNL     1     -33.963   3.954   3.284  1.00 20.00     0.016 A 
HETATM    5  C5  UNL     1     -33.205   5.201   3.645  1.00 20.00     0.030 A 
HETATM    6  C6  UNL     1     -34.428   4.791   4.446  1.00 20.00    -0.002 A 
HETATM    7 BR7  UNL     1     -32.373   7.365   1.974  1.00 20.00    -0.056 Br
ENDROOT
TORSDOF 0
ENDMDL
