MODEL 1
REMARK VINA RESULT:      -1.9      0.000      0.000
REMARK  1 active torsions:
REMARK  status: ('A' for Active; 'I' for Inactive)
REMARK    1  A    between atoms: C6_6  and  C10_10 
ROOT
HETATM    1  C1  UNL     1     -35.531   5.904   4.452  1.00 20.00     0.017 C 
HETATM    2  C2  UNL     1     -34.636   6.215   3.716  1.00 20.00    -0.083 C 
HETATM    3  C3  UNL     1     -33.255   7.882   2.707  1.00 20.00    -0.002 C 
HETATM    4  C4  UNL     1     -33.572   6.582   2.840  1.00 20.00    -0.009 C 
HETATM    5  C7  UNL     1     -32.846   5.498   2.083  1.00 20.00     0.048 C 
HETATM    6  C8  UNL     1     -31.978   6.025   0.938  1.00 20.00     0.006 C 
HETATM    7  C9  UNL     1     -31.202   7.268   1.366  1.00 20.00     0.012 C 
HETATM    8  C10 UNL     1     -32.144   8.397   1.824  1.00 20.00     0.031 C 
ENDROOT
BRANCH   8   9
HETATM    9  C6  UNL     1     -32.707   9.152   0.654  1.00 20.00    -0.028 C 
HETATM   10  C5  UNL     1     -32.366  10.406   0.339  1.00 20.00     0.007 C 
ENDBRANCH   8   9
TORSDOF 1
ENDMDL
MODEL 2
REMARK VINA RESULT:      -1.1      1.913      3.222
REMARK  1 active torsions:
REMARK  status: ('A' for Active; 'I' for Inactive)
REMARK    1  A    between atoms: C6_6  and  C10_10 
ROOT
HETATM    1  C1  UNL     1     -33.231   2.247   4.751  1.00 20.00     0.017 C 
HETATM    2  C2  UNL     1     -33.521   3.329   4.321  1.00 20.00    -0.083 C 
HETATM    3  C3  UNL     1     -33.178   5.111   2.767  1.00 20.00    -0.002 C 
HETATM    4  C4  UNL     1     -33.866   4.616   3.811  1.00 20.00    -0.009 C 
HETATM    5  C7  UNL     1     -34.986   5.382   4.470  1.00 20.00     0.048 C 
HETATM    6  C8  UNL     1     -35.035   6.859   4.072  1.00 20.00     0.006 C 
HETATM    7  C9  UNL     1     -34.811   7.030   2.572  1.00 20.00     0.012 C 
HETATM    8  C10 UNL     1     -33.454   6.450   2.130  1.00 20.00     0.031 C 
ENDROOT
BRANCH   8   9
HETATM    9  C6  UNL     1     -32.330   7.407   2.406  1.00 20.00    -0.028 C 
HETATM   10  C5  UNL     1     -31.899   8.326   1.535  1.00 20.00     0.007 C 
ENDBRANCH   8   9
TORSDOF 1
ENDMDL
MODEL 3
REMARK VINA RESULT:      -0.5      2.148      3.942
REMARK  1 active torsions:
REMARK  status: ('A' for Active; 'I' for Inactive)
REMARK    1  A    between atoms: C6_6  and  C10_10 
ROOT
HETATM    1  C1  UNL     1     -31.468   4.951   0.597  1.00 20.00     0.017 C 
HETATM    2  C2  UNL     1     -32.285   5.187   1.444  1.00 20.00    -0.083 C 
HETATM    3  C3  UNL     1     -33.621   6.741   2.670  1.00 20.00    -0.002 C 
HETATM    4  C4  UNL     1     -33.254   5.466   2.452  1.00 20.00    -0.009 C 
HETATM    5  C7  UNL     1     -33.827   4.319   3.247  1.00 20.00     0.048 C 
HETATM    6  C8  UNL     1     -34.579   4.760   4.505  1.00 20.00     0.006 C 
HETATM    7  C9  UNL     1     -35.465   5.969   4.218  1.00 20.00     0.012 C 
HETATM    8  C10 UNL     1     -34.644   7.164   3.696  1.00 20.00     0.031 C 
ENDROOT
BRANCH   8   9
HETATM    9  C6  UNL     1     -33.987   7.913   4.819  1.00 20.00    -0.028 C 
HETATM   10  C5  UNL     1     -32.739   8.391   4.770  1.00 20.00     0.007 C 
ENDBRANCH   8   9
TORSDOF 1
ENDMDL
MODEL 4
REMARK VINA RESULT:       0.1      1.450      3.939
REMARK  1 active torsions:
REMARK  status: ('A' for Active; 'I' for Inactive)
REMARK    1  A    between atoms: C6_6  and  C10_10 
ROOT
HETATM    1  C1  UNL     1     -31.235   8.773   0.191  1.00 20.00     0.017 C 
HETATM    2  C2  UNL     1     -31.921   8.168   0.968  1.00 20.00    -0.083 C 
HETATM    3  C3  UNL     1     -33.490   8.133   2.769  1.00 20.00    -0.002 C 
HETATM    4  C4  UNL     1     -32.735   7.448   1.892  1.00 20.00    -0.009 C 
HETATM    5  C7  UNL     1     -32.712   5.941   1.859  1.00 20.00     0.048 C 
HETATM    6  C8  UNL     1     -33.341   5.291   3.094  1.00 20.00     0.006 C 
HETATM    7  C9  UNL     1     -34.636   5.998   3.485  1.00 20.00     0.012 C 
HETATM    8  C10 UNL     1     -34.401   7.490   3.785  1.00 20.00     0.031 C 
ENDROOT
BRANCH   8   9
HETATM    9  C6  UNL     1     -33.870   7.695   5.175  1.00 20.00    -0.028 C 
HETATM   10  C5  UNL     1     -32.822   8.472   5.469  1.00 20.00     0.007 C 
ENDBRANCH   8   9
TORSDOF 1
ENDMDL
MODEL 5
REMARK VINA RESULT:       0.2      1.262      2.858
REMARK  1 active torsions:
REMARK  status: ('A' for Active; 'I' for Inactive)
REMARK    1  A    between atoms: C6_6  and  C10_10 
ROOT
HETATM    1  C1  UNL     1     -35.790   5.383   4.859  1.00 20.00     0.017 C 
HETATM    2  C2  UNL     1     -34.962   5.874   4.141  1.00 20.00    -0.083 C 
HETATM    3  C3  UNL     1     -33.646   5.830   2.148  1.00 20.00    -0.002 C 
HETATM    4  C4  UNL     1     -33.977   6.457   3.291  1.00 20.00    -0.009 C 
HETATM    5  C7  UNL     1     -33.331   7.754   3.710  1.00 20.00     0.048 C 
HETATM    6  C8  UNL     1     -32.071   8.097   2.912  1.00 20.00     0.006 C 
HETATM    7  C9  UNL     1     -32.273   7.824   1.424  1.00 20.00     0.012 C 
HETATM    8  C10 UNL     1     -32.632   6.350   1.160  1.00 20.00     0.031 C 
ENDROOT
BRANCH   8   9
HETATM    9  C6  UNL     1     -31.408   5.479   1.152  1.00 20.00    -0.028 C 
HETATM   10  C5  UNL     1     -31.295   4.354   0.437  1.00 20.00     0.007 C 
ENDBRANCH   8   9
TORSDOF 1
ENDMDL
MODEL 6
REMARK VINA RESULT:       0.2      1.143      3.931
REMARK  1 active torsions:
REMARK  status: ('A' for Active; 'I' for Inactive)
REMARK    1  A    between atoms: C6_6  and  C10_10 
ROOT
HETATM    1  C1  UNL     1     -31.570   4.103   0.013  1.00 20.00     0.017 C 
HETATM    2  C2  UNL     1     -31.871   5.012   0.737  1.00 20.00    -0.083 C 
HETATM    3  C3  UNL     1     -32.915   5.832   2.723  1.00 20.00    -0.002 C 
HETATM    4  C4  UNL     1     -32.230   6.093   1.596  1.00 20.00    -0.009 C 
HETATM    5  C7  UNL     1     -31.836   7.494   1.202  1.00 20.00     0.048 C 
HETATM    6  C8  UNL     1     -32.558   8.581   2.002  1.00 20.00     0.006 C 
HETATM    7  C9  UNL     1     -32.617   8.223   3.484  1.00 20.00     0.012 C 
HETATM    8  C10 UNL     1     -33.340   6.884   3.718  1.00 20.00     0.031 C 
ENDROOT
BRANCH   8   9
HETATM    9  C6  UNL     1     -34.832   7.053   3.701  1.00 20.00    -0.028 C 
HETATM   10  C5  UNL     1     -35.699   6.088   4.025  1.00 20.00     0.007 C 
ENDBRANCH   8   9
TORSDOF 1
ENDMDL
MODEL 7
REMARK VINA RESULT:       0.6      1.045      3.899
REMARK  1 active torsions:
REMARK  status: ('A' for Active; 'I' for Inactive)
REMARK    1  A    between atoms: C6_6  and  C10_10 
ROOT
HETATM    1  C1  UNL     1     -32.243  10.711   0.202  1.00 20.00     0.017 C 
HETATM    2  C2  UNL     1     -32.426   9.643   0.719  1.00 20.00    -0.083 C 
HETATM    3  C3  UNL     1     -33.648   8.237   2.213  1.00 20.00    -0.002 C 
HETATM    4  C4  UNL     1     -32.641   8.374   1.334  1.00 20.00    -0.009 C 
HETATM    5  C7  UNL     1     -31.722   7.231   0.982  1.00 20.00     0.048 C 
HETATM    6  C8  UNL     1     -31.828   6.042   1.940  1.00 20.00     0.006 C 
HETATM    7  C9  UNL     1     -33.286   5.737   2.274  1.00 20.00     0.012 C 
HETATM    8  C10 UNL     1     -33.987   6.947   2.919  1.00 20.00     0.031 C 
ENDROOT
BRANCH   8   9
HETATM    9  C6  UNL     1     -33.673   7.049   4.384  1.00 20.00    -0.028 C 
HETATM   10  C5  UNL     1     -33.319   8.183   4.997  1.00 20.00     0.007 C 
ENDBRANCH   8   9
TORSDOF 1
ENDMDL
MODEL 8
REMARK VINA RESULT:       0.9      1.136      4.002
REMARK  1 active torsions:
REMARK  status: ('A' for Active; 'I' for Inactive)
REMARK    1  A    between atoms: C6_6  and  C10_10 
ROOT
HETATM    1  C1  UNL     1     -32.270  10.276   0.587  1.00 20.00     0.017 C 
HETATM    2  C2  UNL     1     -32.476   9.199   1.076  1.00 20.00    -0.083 C 
HETATM    3  C3  UNL     1     -32.190   6.828   1.081  1.00 20.00    -0.002 C 
HETATM    4  C4  UNL     1     -32.722   7.921   1.657  1.00 20.00    -0.009 C 
HETATM    5  C7  UNL     1     -33.582   7.837   2.894  1.00 20.00     0.048 C 
HETATM    6  C8  UNL     1     -34.053   6.418   3.218  1.00 20.00     0.006 C 
HETATM    7  C9  UNL     1     -32.920   5.411   3.042  1.00 20.00     0.012 C 
HETATM    8  C10 UNL     1     -32.365   5.424   1.605  1.00 20.00     0.031 C 
ENDROOT
BRANCH   8   9
HETATM    9  C6  UNL     1     -33.226   4.617   0.676  1.00 20.00    -0.028 C 
HETATM   10  C5  UNL     1     -34.053   5.150  -0.230  1.00 20.00     0.007 C 
ENDBRANCH   8   9
TORSDOF 1
ENDMDL
