MODEL 1
REMARK VINA RESULT:       0.3      0.000      0.000
REMARK  0 active torsions:
REMARK  status: ('A' for Active; 'I' for Inactive)
ROOT
HETATM    1  C1  UNL     1     -34.252   4.242   4.677  1.00 20.00     0.013 C 
HETATM    2  C2  UNL     1     -34.105   5.165   3.924  1.00 20.00    -0.103 C 
HETATM    3  C3  UNL     1     -31.954   8.035   1.756  1.00 20.00    -0.004 C 
HETATM    4  C4  UNL     1     -32.375   8.270   3.114  1.00 20.00     0.004 C 
HETATM    5  C5  UNL     1     -32.250   6.891   1.129  1.00 20.00    -0.025 C 
HETATM    6  C6  UNL     1     -33.290   7.495   3.728  1.00 20.00    -0.063 C 
HETATM    7  C7  UNL     1     -33.043   5.809   1.803  1.00 20.00     0.054 C 
HETATM    8  C8  UNL     1     -33.924   6.304   2.995  1.00 20.00     0.045 C 
HETATM    9  C9  UNL     1     -33.740   7.824   5.129  1.00 20.00     0.045 C 
HETATM   10  C10 UNL     1     -35.307   6.732   2.464  1.00 20.00     0.034 C 
ENDROOT
TORSDOF 0
ENDMDL
MODEL 2
REMARK VINA RESULT:       0.7      1.344      3.629
REMARK  0 active torsions:
REMARK  status: ('A' for Active; 'I' for Inactive)
ROOT
HETATM    1  C1  UNL     1     -32.713  10.052   0.475  1.00 20.00     0.013 C 
HETATM    2  C2  UNL     1     -32.517   9.074   1.142  1.00 20.00    -0.103 C 
HETATM    3  C3  UNL     1     -33.226   5.188   2.543  1.00 20.00    -0.004 C 
HETATM    4  C4  UNL     1     -33.890   6.333   3.115  1.00 20.00     0.004 C 
HETATM    5  C5  UNL     1     -32.343   5.327   1.547  1.00 20.00    -0.025 C 
HETATM    6  C6  UNL     1     -33.479   7.595   2.878  1.00 20.00    -0.063 C 
HETATM    7  C7  UNL     1     -31.992   6.677   0.992  1.00 20.00     0.054 C 
HETATM    8  C8  UNL     1     -32.276   7.867   1.965  1.00 20.00     0.045 C 
HETATM    9  C9  UNL     1     -34.170   8.752   3.553  1.00 20.00     0.045 C 
HETATM   10  C10 UNL     1     -31.034   8.111   2.847  1.00 20.00     0.034 C 
ENDROOT
TORSDOF 0
ENDMDL
MODEL 3
REMARK VINA RESULT:       1.0      1.469      3.169
REMARK  0 active torsions:
REMARK  status: ('A' for Active; 'I' for Inactive)
ROOT
HETATM    1  C1  UNL     1     -34.642   6.720   3.784  1.00 20.00     0.013 C 
HETATM    2  C2  UNL     1     -33.803   7.388   3.247  1.00 20.00    -0.103 C 
HETATM    3  C3  UNL     1     -32.014   9.477   0.084  1.00 20.00    -0.004 C 
HETATM    4  C4  UNL     1     -31.800   8.065   0.277  1.00 20.00     0.004 C 
HETATM    5  C5  UNL     1     -32.785  10.180   0.922  1.00 20.00    -0.025 C 
HETATM    6  C6  UNL     1     -32.130   7.436   1.423  1.00 20.00    -0.063 C 
HETATM    7  C7  UNL     1     -33.447   9.536   2.106  1.00 20.00     0.054 C 
HETATM    8  C8  UNL     1     -32.767   8.213   2.584  1.00 20.00     0.045 C 
HETATM    9  C9  UNL     1     -31.825   5.970   1.594  1.00 20.00     0.045 C 
HETATM   10  C10 UNL     1     -31.669   8.548   3.614  1.00 20.00     0.034 C 
ENDROOT
TORSDOF 0
ENDMDL
MODEL 4
REMARK VINA RESULT:       1.4      1.177      3.808
REMARK  0 active torsions:
REMARK  status: ('A' for Active; 'I' for Inactive)
ROOT
HETATM    1  C1  UNL     1     -31.421   8.353   1.707  1.00 20.00     0.013 C 
HETATM    2  C2  UNL     1     -32.309   7.571   1.906  1.00 20.00    -0.103 C 
HETATM    3  C3  UNL     1     -34.621   4.890   4.149  1.00 20.00    -0.004 C 
HETATM    4  C4  UNL     1     -33.428   4.468   3.460  1.00 20.00     0.004 C 
HETATM    5  C5  UNL     1     -35.045   6.158   4.086  1.00 20.00    -0.025 C 
HETATM    6  C6  UNL     1     -32.832   5.230   2.521  1.00 20.00    -0.063 C 
HETATM    7  C7  UNL     1     -34.309   7.192   3.284  1.00 20.00     0.054 C 
HETATM    8  C8  UNL     1     -33.405   6.605   2.152  1.00 20.00     0.045 C 
HETATM    9  C9  UNL     1     -31.622   4.713   1.787  1.00 20.00     0.045 C 
HETATM   10  C10 UNL     1     -34.235   6.462   0.860  1.00 20.00     0.034 C 
ENDROOT
TORSDOF 0
ENDMDL
MODEL 5
REMARK VINA RESULT:       1.5      1.219      2.852
REMARK  0 active torsions:
REMARK  status: ('A' for Active; 'I' for Inactive)
ROOT
HETATM    1  C1  UNL     1     -31.095   4.247   1.112  1.00 20.00     0.013 C 
HETATM    2  C2  UNL     1     -31.902   5.093   1.382  1.00 20.00    -0.103 C 
HETATM    3  C3  UNL     1     -33.612   8.173   3.653  1.00 20.00    -0.004 C 
HETATM    4  C4  UNL     1     -33.902   6.786   3.916  1.00 20.00     0.004 C 
HETATM    5  C5  UNL     1     -32.791   8.530   2.657  1.00 20.00    -0.025 C 
HETATM    6  C6  UNL     1     -33.594   5.808   3.042  1.00 20.00    -0.063 C 
HETATM    7  C7  UNL     1     -32.151   7.508   1.763  1.00 20.00     0.054 C 
HETATM    8  C8  UNL     1     -32.899   6.137   1.714  1.00 20.00     0.045 C 
HETATM    9  C9  UNL     1     -33.978   4.381   3.341  1.00 20.00     0.045 C 
HETATM   10  C10 UNL     1     -33.963   6.176   0.597  1.00 20.00     0.034 C 
ENDROOT
TORSDOF 0
ENDMDL
MODEL 6
REMARK VINA RESULT:       1.8      0.891      2.951
REMARK  0 active torsions:
REMARK  status: ('A' for Active; 'I' for Inactive)
ROOT
HETATM    1  C1  UNL     1     -33.206   8.541   5.476  1.00 20.00     0.013 C 
HETATM    2  C2  UNL     1     -33.551   7.774   4.620  1.00 20.00    -0.103 C 
HETATM    3  C3  UNL     1     -33.204   4.456   2.083  1.00 20.00    -0.004 C 
HETATM    4  C4  UNL     1     -32.663   5.743   1.726  1.00 20.00     0.004 C 
HETATM    5  C5  UNL     1     -33.854   4.276   3.239  1.00 20.00    -0.025 C 
HETATM    6  C6  UNL     1     -32.998   6.872   2.382  1.00 20.00    -0.063 C 
HETATM    7  C7  UNL     1     -34.062   5.406   4.206  1.00 20.00     0.054 C 
HETATM    8  C8  UNL     1     -33.977   6.828   3.563  1.00 20.00     0.045 C 
HETATM    9  C9  UNL     1     -32.451   8.200   1.926  1.00 20.00     0.045 C 
HETATM   10  C10 UNL     1     -35.374   7.245   3.061  1.00 20.00     0.034 C 
ENDROOT
TORSDOF 0
ENDMDL
MODEL 7
REMARK VINA RESULT:       2.0      1.196      3.236
REMARK  0 active torsions:
REMARK  status: ('A' for Active; 'I' for Inactive)
ROOT
HETATM    1  C1  UNL     1     -34.084   5.381  -0.415  1.00 20.00     0.013 C 
HETATM    2  C2  UNL     1     -33.681   5.684   0.674  1.00 20.00    -0.103 C 
HETATM    3  C3  UNL     1     -33.526   7.920   4.215  1.00 20.00    -0.004 C 
HETATM    4  C4  UNL     1     -32.794   8.313   3.038  1.00 20.00     0.004 C 
HETATM    5  C5  UNL     1     -34.276   6.811   4.225  1.00 20.00    -0.025 C 
HETATM    6  C6  UNL     1     -32.606   7.480   1.996  1.00 20.00    -0.063 C 
HETATM    7  C7  UNL     1     -34.376   5.921   3.020  1.00 20.00     0.054 C 
HETATM    8  C8  UNL     1     -33.184   6.058   2.018  1.00 20.00     0.045 C 
HETATM    9  C9  UNL     1     -31.777   7.922   0.817  1.00 20.00     0.045 C 
HETATM   10  C10 UNL     1     -32.064   5.076   2.420  1.00 20.00     0.034 C 
ENDROOT
TORSDOF 0
ENDMDL
MODEL 8
REMARK VINA RESULT:       2.0      1.286      3.626
REMARK  0 active torsions:
REMARK  status: ('A' for Active; 'I' for Inactive)
ROOT
HETATM    1  C1  UNL     1     -32.259   9.481   0.239  1.00 20.00     0.013 C 
HETATM    2  C2  UNL     1     -32.465   8.625   1.055  1.00 20.00    -0.103 C 
HETATM    3  C3  UNL     1     -34.443   6.782   4.258  1.00 20.00    -0.004 C 
HETATM    4  C4  UNL     1     -33.391   7.744   4.469  1.00 20.00     0.004 C 
HETATM    5  C5  UNL     1     -34.819   6.429   3.023  1.00 20.00    -0.025 C 
HETATM    6  C6  UNL     1     -32.563   8.135   3.480  1.00 20.00    -0.063 C 
HETATM    7  C7  UNL     1     -34.154   7.005   1.806  1.00 20.00     0.054 C 
HETATM    8  C8  UNL     1     -32.719   7.569   2.062  1.00 20.00     0.045 C 
HETATM    9  C9  UNL     1     -31.440   9.096   3.772  1.00 20.00     0.045 C 
HETATM   10  C10 UNL     1     -31.685   6.441   1.865  1.00 20.00     0.034 C 
ENDROOT
TORSDOF 0
ENDMDL
MODEL 9
REMARK VINA RESULT:       2.9      1.249      3.819
REMARK  0 active torsions:
REMARK  status: ('A' for Active; 'I' for Inactive)
ROOT
HETATM    1  C1  UNL     1     -30.235   8.284   2.423  1.00 20.00     0.013 C 
HETATM    2  C2  UNL     1     -31.395   7.980   2.414  1.00 20.00    -0.103 C 
HETATM    3  C3  UNL     1     -34.853   6.021   3.746  1.00 20.00    -0.004 C 
HETATM    4  C4  UNL     1     -33.934   5.396   2.829  1.00 20.00     0.004 C 
HETATM    5  C5  UNL     1     -34.642   7.263   4.198  1.00 20.00    -0.025 C 
HETATM    6  C6  UNL     1     -32.981   6.093   2.178  1.00 20.00    -0.063 C 
HETATM    7  C7  UNL     1     -33.451   8.065   3.759  1.00 20.00     0.054 C 
HETATM    8  C8  UNL     1     -32.828   7.604   2.402  1.00 20.00     0.045 C 
HETATM    9  C9  UNL     1     -32.088   5.400   1.181  1.00 20.00     0.045 C 
HETATM   10  C10 UNL     1     -33.524   8.347   1.243  1.00 20.00     0.034 C 
ENDROOT
TORSDOF 0
ENDMDL
