MODEL 1
REMARK VINA RESULT:      -1.7      0.000      0.000
REMARK  0 active torsions:
REMARK  status: ('A' for Active; 'I' for Inactive)
ROOT
HETATM    1  C1  UNL     1     -33.738   3.890   4.076  1.00 20.00     0.179 C 
HETATM    2  C2  UNL     1     -34.759   7.463   4.029  1.00 20.00    -0.010 C 
HETATM    3  C3  UNL     1     -33.652   7.974   3.471  1.00 20.00    -0.023 C 
HETATM    4  C4  UNL     1     -35.070   5.998   4.058  1.00 20.00     0.161 C 
HETATM    5  C5  UNL     1     -33.183   5.715   2.472  1.00 20.00     0.143 C 
HETATM    6  C6  UNL     1     -32.629   7.114   2.777  1.00 20.00     0.022 C 
HETATM    7  C7  UNL     1     -32.144   7.778   1.488  1.00 20.00     0.016 C 
HETATM    8  N8  UNL     1     -33.621   2.786   4.412  1.00 20.00    -0.172 NA
HETATM    9  N9  UNL     1     -33.873   5.174   3.685  1.00 20.00    -0.316 N 
ENDROOT
TORSDOF 0
ENDMDL
MODEL 2
REMARK VINA RESULT:      -0.7      1.703      3.632
REMARK  0 active torsions:
REMARK  status: ('A' for Active; 'I' for Inactive)
ROOT
HETATM    1  C1  UNL     1     -32.530   7.406   1.933  1.00 20.00     0.179 C 
HETATM    2  C2  UNL     1     -35.248   6.533   4.311  1.00 20.00    -0.010 C 
HETATM    3  C3  UNL     1     -35.187   5.198   4.194  1.00 20.00    -0.023 C 
HETATM    4  C4  UNL     1     -34.190   7.457   3.791  1.00 20.00     0.161 C 
HETATM    5  C5  UNL     1     -32.804   5.432   3.428  1.00 20.00     0.143 C 
HETATM    6  C6  UNL     1     -34.016   4.498   3.559  1.00 20.00     0.022 C 
HETATM    7  C7  UNL     1     -33.631   3.249   4.353  1.00 20.00     0.016 C 
HETATM    8  N8  UNL     1     -31.915   7.971   1.127  1.00 20.00    -0.172 NA
HETATM    9  N9  UNL     1     -33.244   6.748   2.868  1.00 20.00    -0.316 N 
ENDROOT
TORSDOF 0
ENDMDL
MODEL 3
REMARK VINA RESULT:      -0.5      2.836      4.417
REMARK  0 active torsions:
REMARK  status: ('A' for Active; 'I' for Inactive)
ROOT
HETATM    1  C1  UNL     1     -32.427   9.511   0.820  1.00 20.00     0.179 C 
HETATM    2  C2  UNL     1     -33.554   7.155   3.464  1.00 20.00    -0.010 C 
HETATM    3  C3  UNL     1     -33.498   6.021   2.750  1.00 20.00    -0.023 C 
HETATM    4  C4  UNL     1     -32.941   8.446   3.015  1.00 20.00     0.161 C 
HETATM    5  C5  UNL     1     -31.828   7.127   1.232  1.00 20.00     0.143 C 
HETATM    6  C6  UNL     1     -32.768   5.931   1.437  1.00 20.00     0.022 C 
HETATM    7  C7  UNL     1     -31.980   4.624   1.340  1.00 20.00     0.016 C 
HETATM    8  N8  UNL     1     -32.323  10.470   0.176  1.00 20.00    -0.172 NA
HETATM    9  N9  UNL     1     -32.549   8.395   1.568  1.00 20.00    -0.316 N 
ENDROOT
TORSDOF 0
ENDMDL
MODEL 4
REMARK VINA RESULT:      -0.2      2.069      3.787
REMARK  0 active torsions:
REMARK  status: ('A' for Active; 'I' for Inactive)
ROOT
HETATM    1  C1  UNL     1     -32.139   8.115   1.404  1.00 20.00     0.179 C 
HETATM    2  C2  UNL     1     -34.344   7.681   4.363  1.00 20.00    -0.010 C 
HETATM    3  C3  UNL     1     -34.776   6.438   4.103  1.00 20.00    -0.023 C 
HETATM    4  C4  UNL     1     -33.188   8.319   3.656  1.00 20.00     0.161 C 
HETATM    5  C5  UNL     1     -32.713   6.074   2.714  1.00 20.00     0.143 C 
HETATM    6  C6  UNL     1     -34.104   5.547   3.093  1.00 20.00     0.022 C 
HETATM    7  C7  UNL     1     -33.996   4.115   3.617  1.00 20.00     0.016 C 
HETATM    8  N8  UNL     1     -31.578   8.607   0.516  1.00 20.00    -0.172 NA
HETATM    9  N9  UNL     1     -32.792   7.542   2.435  1.00 20.00    -0.316 N 
ENDROOT
TORSDOF 0
ENDMDL
MODEL 5
REMARK VINA RESULT:       0.6      1.790      2.812
REMARK  0 active torsions:
REMARK  status: ('A' for Active; 'I' for Inactive)
ROOT
HETATM    1  C1  UNL     1     -34.713   6.299   3.786  1.00 20.00     0.179 C 
HETATM    2  C2  UNL     1     -32.007   8.039   1.927  1.00 20.00    -0.010 C 
HETATM    3  C3  UNL     1     -31.309   6.960   1.545  1.00 20.00    -0.023 C 
HETATM    4  C4  UNL     1     -33.393   7.970   2.490  1.00 20.00     0.161 C 
HETATM    5  C5  UNL     1     -33.403   5.591   1.788  1.00 20.00     0.143 C 
HETATM    6  C6  UNL     1     -31.878   5.568   1.609  1.00 20.00     0.022 C 
HETATM    7  C7  UNL     1     -31.510   4.770   0.358  1.00 20.00     0.016 C 
HETATM    8  N8  UNL     1     -35.527   6.068   4.580  1.00 20.00    -0.172 NA
HETATM    9  N9  UNL     1     -33.767   6.566   2.863  1.00 20.00    -0.316 N 
ENDROOT
TORSDOF 0
ENDMDL
MODEL 6
REMARK VINA RESULT:       0.6      1.638      2.756
REMARK  0 active torsions:
REMARK  status: ('A' for Active; 'I' for Inactive)
ROOT
HETATM    1  C1  UNL     1     -34.824   6.170   3.818  1.00 20.00     0.179 C 
HETATM    2  C2  UNL     1     -32.151   5.421   1.349  1.00 20.00    -0.010 C 
HETATM    3  C3  UNL     1     -32.003   6.653   0.842  1.00 20.00    -0.023 C 
HETATM    4  C4  UNL     1     -32.911   5.129   2.606  1.00 20.00     0.161 C 
HETATM    5  C5  UNL     1     -32.951   7.582   2.977  1.00 20.00     0.143 C 
HETATM    6  C6  UNL     1     -32.559   7.876   1.522  1.00 20.00     0.022 C 
HETATM    7  C7  UNL     1     -31.558   9.030   1.472  1.00 20.00     0.016 C 
HETATM    8  N8  UNL     1     -35.764   6.053   4.488  1.00 20.00    -0.172 NA
HETATM    9  N9  UNL     1     -33.733   6.307   3.038  1.00 20.00    -0.316 N 
ENDROOT
TORSDOF 0
ENDMDL
MODEL 7
REMARK VINA RESULT:       0.7      2.226      4.219
REMARK  0 active torsions:
REMARK  status: ('A' for Active; 'I' for Inactive)
ROOT
HETATM    1  C1  UNL     1     -32.102   8.196   1.385  1.00 20.00     0.179 C 
HETATM    2  C2  UNL     1     -32.831   4.670   2.304  1.00 20.00    -0.010 C 
HETATM    3  C3  UNL     1     -33.543   4.903   3.417  1.00 20.00    -0.023 C 
HETATM    4  C4  UNL     1     -32.483   5.733   1.308  1.00 20.00     0.161 C 
HETATM    5  C5  UNL     1     -34.076   7.192   2.528  1.00 20.00     0.143 C 
HETATM    6  C6  UNL     1     -34.098   6.262   3.748  1.00 20.00     0.022 C 
HETATM    7  C7  UNL     1     -35.521   6.150   4.296  1.00 20.00     0.016 C 
HETATM    8  N8  UNL     1     -31.551   9.134   0.981  1.00 20.00    -0.172 NA
HETATM    9  N9  UNL     1     -32.742   7.106   1.855  1.00 20.00    -0.316 N 
ENDROOT
TORSDOF 0
ENDMDL
MODEL 8
REMARK VINA RESULT:       0.7      1.674      3.227
REMARK  0 active torsions:
REMARK  status: ('A' for Active; 'I' for Inactive)
ROOT
HETATM    1  C1  UNL     1     -32.356   5.353   1.183  1.00 20.00     0.179 C 
HETATM    2  C2  UNL     1     -33.705   7.922   3.504  1.00 20.00    -0.010 C 
HETATM    3  C3  UNL     1     -34.786   7.251   3.929  1.00 20.00    -0.023 C 
HETATM    4  C4  UNL     1     -32.584   7.285   2.741  1.00 20.00     0.161 C 
HETATM    5  C5  UNL     1     -33.627   5.108   3.313  1.00 20.00     0.143 C 
HETATM    6  C6  UNL     1     -34.952   5.771   3.712  1.00 20.00     0.022 C 
HETATM    7  C7  UNL     1     -35.520   5.098   4.962  1.00 20.00     0.016 C 
HETATM    8  N8  UNL     1     -31.836   4.864   0.268  1.00 20.00    -0.172 NA
HETATM    9  N9  UNL     1     -32.960   5.920   2.247  1.00 20.00    -0.316 N 
ENDROOT
TORSDOF 0
ENDMDL
MODEL 9
REMARK VINA RESULT:       1.0      2.060      3.252
REMARK  0 active torsions:
REMARK  status: ('A' for Active; 'I' for Inactive)
ROOT
HETATM    1  C1  UNL     1     -33.233   4.947   0.503  1.00 20.00     0.179 C 
HETATM    2  C2  UNL     1     -31.790   8.019   2.015  1.00 20.00    -0.010 C 
HETATM    3  C3  UNL     1     -32.808   8.331   2.831  1.00 20.00    -0.023 C 
HETATM    4  C4  UNL     1     -31.659   6.696   1.325  1.00 20.00     0.161 C 
HETATM    5  C5  UNL     1     -33.510   5.918   2.781  1.00 20.00     0.143 C 
HETATM    6  C6  UNL     1     -33.902   7.352   3.164  1.00 20.00     0.022 C 
HETATM    7  C7  UNL     1     -34.260   7.419   4.649  1.00 20.00     0.016 C 
HETATM    8  N8  UNL     1     -33.493   4.121  -0.270  1.00 20.00    -0.172 NA
HETATM    9  N9  UNL     1     -32.932   5.907   1.401  1.00 20.00    -0.316 N 
ENDROOT
TORSDOF 0
ENDMDL
