MODEL 1
REMARK VINA RESULT:       1.0      0.000      0.000
REMARK  1 active torsions:
REMARK  status: ('A' for Active; 'I' for Inactive)
REMARK    1  A    between atoms: C3_3  and  C8_8 
ROOT
HETATM    1  C1  UNL     1     -31.593   6.212   1.652  1.00 20.00    -0.025 C 
HETATM    2  C2  UNL     1     -32.238   7.386   1.627  1.00 20.00    -0.024 C 
HETATM    3  C4  UNL     1     -33.788   5.763   1.125  1.00 20.00     0.018 C 
HETATM    4  C5  UNL     1     -32.626   5.140   1.904  1.00 20.00     0.013 C 
HETATM    5  C6  UNL     1     -33.705   7.099   1.874  1.00 20.00     0.024 C 
HETATM    6  C7  UNL     1     -33.102   5.277   3.381  1.00 20.00     0.004 C 
HETATM    7  C8  UNL     1     -33.906   6.638   3.353  1.00 20.00     0.020 C 
HETATM    8  C9  UNL     1     -33.887   4.048   3.833  1.00 20.00     0.012 C 
HETATM    9  C10 UNL     1     -35.394   6.543   3.709  1.00 20.00     0.024 C 
ENDROOT
BRANCH   7  10
HETATM   10  C3  UNL     1     -33.309   7.628   4.323  1.00 20.00     0.241 C 
HETATM   11  O11 UNL     1     -33.948   8.163   5.222  1.00 20.00    -0.306 OA
ENDBRANCH   7  10
TORSDOF 1
ENDMDL
MODEL 2
REMARK VINA RESULT:       1.9      1.860      3.336
REMARK  1 active torsions:
REMARK  status: ('A' for Active; 'I' for Inactive)
REMARK    1  A    between atoms: C3_3  and  C8_8 
ROOT
HETATM    1  C1  UNL     1     -35.078   6.850   3.315  1.00 20.00    -0.025 C 
HETATM    2  C2  UNL     1     -34.523   8.006   3.705  1.00 20.00    -0.024 C 
HETATM    3  C4  UNL     1     -32.973   6.354   4.103  1.00 20.00     0.018 C 
HETATM    4  C5  UNL     1     -33.950   5.890   3.018  1.00 20.00     0.013 C 
HETATM    5  C6  UNL     1     -33.020   7.822   3.658  1.00 20.00     0.024 C 
HETATM    6  C7  UNL     1     -33.250   6.369   1.711  1.00 20.00     0.004 C 
HETATM    7  C8  UNL     1     -32.552   7.711   2.172  1.00 20.00     0.020 C 
HETATM    8  C9  UNL     1     -32.325   5.295   1.146  1.00 20.00     0.012 C 
HETATM    9  C10 UNL     1     -31.023   7.739   2.066  1.00 20.00     0.024 C 
ENDROOT
BRANCH   7  10
HETATM   10  C3  UNL     1     -33.047   8.877   1.352  1.00 20.00     0.241 C 
HETATM   11  O11 UNL     1     -32.357   9.464   0.526  1.00 20.00    -0.306 OA
ENDBRANCH   7  10
TORSDOF 1
ENDMDL
MODEL 3
REMARK VINA RESULT:       2.4      2.196      3.421
REMARK  1 active torsions:
REMARK  status: ('A' for Active; 'I' for Inactive)
REMARK    1  A    between atoms: C3_3  and  C8_8 
ROOT
HETATM    1  C1  UNL     1     -32.554   9.133   1.139  1.00 20.00    -0.025 C 
HETATM    2  C2  UNL     1     -31.799   8.211   0.528  1.00 20.00    -0.024 C 
HETATM    3  C4  UNL     1     -31.408   8.002   2.784  1.00 20.00     0.018 C 
HETATM    4  C5  UNL     1     -32.771   8.663   2.559  1.00 20.00     0.013 C 
HETATM    5  C6  UNL     1     -31.519   7.116   1.537  1.00 20.00     0.024 C 
HETATM    6  C7  UNL     1     -33.732   7.438   2.512  1.00 20.00     0.004 C 
HETATM    7  C8  UNL     1     -32.835   6.328   1.833  1.00 20.00     0.020 C 
HETATM    8  C9  UNL     1     -34.277   7.101   3.898  1.00 20.00     0.012 C 
HETATM    9  C10 UNL     1     -32.558   5.081   2.681  1.00 20.00     0.024 C 
ENDROOT
BRANCH   7  10
HETATM   10  C3  UNL     1     -33.476   5.832   0.560  1.00 20.00     0.241 C 
HETATM   11  O11 UNL     1     -33.353   4.685   0.144  1.00 20.00    -0.306 OA
ENDBRANCH   7  10
TORSDOF 1
ENDMDL
MODEL 4
REMARK VINA RESULT:       2.7      1.657      3.394
REMARK  1 active torsions:
REMARK  status: ('A' for Active; 'I' for Inactive)
REMARK    1  A    between atoms: C3_3  and  C8_8 
ROOT
HETATM    1  C1  UNL     1     -33.903   7.727   4.904  1.00 20.00    -0.025 C 
HETATM    2  C2  UNL     1     -34.720   6.681   4.725  1.00 20.00    -0.024 C 
HETATM    3  C4  UNL     1     -34.800   7.926   2.794  1.00 20.00     0.018 C 
HETATM    4  C5  UNL     1     -33.490   8.211   3.534  1.00 20.00     0.013 C 
HETATM    5  C6  UNL     1     -34.844   6.456   3.232  1.00 20.00     0.024 C 
HETATM    6  C7  UNL     1     -32.525   7.150   2.926  1.00 20.00     0.004 C 
HETATM    7  C8  UNL     1     -33.489   5.924   2.667  1.00 20.00     0.020 C 
HETATM    8  C9  UNL     1     -31.794   7.695   1.702  1.00 20.00     0.012 C 
HETATM    9  C10 UNL     1     -33.629   5.481   1.207  1.00 20.00     0.024 C 
ENDROOT
BRANCH   7  10
HETATM   10  C3  UNL     1     -33.017   4.708   3.427  1.00 20.00     0.241 C 
HETATM   11  O11 UNL     1     -33.778   3.883   3.921  1.00 20.00    -0.306 OA
ENDBRANCH   7  10
TORSDOF 1
ENDMDL
MODEL 5
REMARK VINA RESULT:       3.4      1.227      2.796
REMARK  1 active torsions:
REMARK  status: ('A' for Active; 'I' for Inactive)
REMARK    1  A    between atoms: C3_3  and  C8_8 
ROOT
HETATM    1  C1  UNL     1     -33.368   5.381   0.702  1.00 20.00    -0.025 C 
HETATM    2  C2  UNL     1     -33.667   4.853   1.896  1.00 20.00    -0.024 C 
HETATM    3  C4  UNL     1     -31.594   5.827   2.099  1.00 20.00     0.018 C 
HETATM    4  C5  UNL     1     -32.355   6.476   0.938  1.00 20.00     0.013 C 
HETATM    5  C6  UNL     1     -32.861   5.605   2.935  1.00 20.00     0.024 C 
HETATM    6  C7  UNL     1     -33.088   7.659   1.638  1.00 20.00     0.004 C 
HETATM    7  C8  UNL     1     -33.405   7.063   3.068  1.00 20.00     0.020 C 
HETATM    8  C9  UNL     1     -32.244   8.931   1.617  1.00 20.00     0.012 C 
HETATM    9  C10 UNL     1     -32.763   7.792   4.253  1.00 20.00     0.024 C 
ENDROOT
BRANCH   7  10
HETATM   10  C3  UNL     1     -34.891   7.072   3.329  1.00 20.00     0.241 C 
HETATM   11  O11 UNL     1     -35.442   6.319   4.124  1.00 20.00    -0.306 OA
ENDBRANCH   7  10
TORSDOF 1
ENDMDL
MODEL 6
REMARK VINA RESULT:       3.4      1.672      3.254
REMARK  1 active torsions:
REMARK  status: ('A' for Active; 'I' for Inactive)
REMARK    1  A    between atoms: C3_3  and  C8_8 
ROOT
HETATM    1  C1  UNL     1     -34.928   7.518   3.553  1.00 20.00    -0.025 C 
HETATM    2  C2  UNL     1     -33.717   7.625   4.118  1.00 20.00    -0.024 C 
HETATM    3  C4  UNL     1     -33.982   5.420   3.523  1.00 20.00     0.018 C 
HETATM    4  C5  UNL     1     -34.900   6.296   2.665  1.00 20.00     0.013 C 
HETATM    5  C6  UNL     1     -32.875   6.479   3.598  1.00 20.00     0.024 C 
HETATM    6  C7  UNL     1     -33.999   6.622   1.437  1.00 20.00     0.004 C 
HETATM    7  C8  UNL     1     -32.559   6.705   2.085  1.00 20.00     0.020 C 
HETATM    8  C9  UNL     1     -34.172   5.589   0.326  1.00 20.00     0.012 C 
HETATM    9  C10 UNL     1     -31.535   5.685   1.571  1.00 20.00     0.024 C 
ENDROOT
BRANCH   7  10
HETATM   10  C3  UNL     1     -31.948   8.064   1.849  1.00 20.00     0.241 C 
HETATM   11  O11 UNL     1     -32.284   8.806   0.933  1.00 20.00    -0.306 OA
ENDBRANCH   7  10
TORSDOF 1
ENDMDL
MODEL 7
REMARK VINA RESULT:       3.5      2.016      3.679
REMARK  1 active torsions:
REMARK  status: ('A' for Active; 'I' for Inactive)
REMARK    1  A    between atoms: C3_3  and  C8_8 
ROOT
HETATM    1  C1  UNL     1     -34.465   6.319   4.552  1.00 20.00    -0.025 C 
HETATM    2  C2  UNL     1     -34.761   5.974   3.292  1.00 20.00    -0.024 C 
HETATM    3  C4  UNL     1     -34.780   8.271   3.375  1.00 20.00     0.018 C 
HETATM    4  C5  UNL     1     -33.913   7.724   4.513  1.00 20.00     0.013 C 
HETATM    5  C6  UNL     1     -34.394   7.147   2.406  1.00 20.00     0.024 C 
HETATM    6  C7  UNL     1     -32.501   7.662   3.857  1.00 20.00     0.004 C 
HETATM    7  C8  UNL     1     -32.840   7.300   2.355  1.00 20.00     0.020 C 
HETATM    8  C9  UNL     1     -31.726   8.959   4.072  1.00 20.00     0.012 C 
HETATM    9  C10 UNL     1     -32.416   8.334   1.307  1.00 20.00     0.024 C 
ENDROOT
BRANCH   7  10
HETATM   10  C3  UNL     1     -32.174   6.006   1.957  1.00 20.00     0.241 C 
HETATM   11  O11 UNL     1     -32.544   5.318   1.012  1.00 20.00    -0.306 OA
ENDBRANCH   7  10
TORSDOF 1
ENDMDL
MODEL 8
REMARK VINA RESULT:       3.5      2.089      3.693
REMARK  1 active torsions:
REMARK  status: ('A' for Active; 'I' for Inactive)
REMARK    1  A    between atoms: C3_3  and  C8_8 
ROOT
HETATM    1  C1  UNL     1     -33.170   7.303   4.563  1.00 20.00    -0.025 C 
HETATM    2  C2  UNL     1     -33.740   6.137   4.233  1.00 20.00    -0.024 C 
HETATM    3  C4  UNL     1     -34.710   7.750   2.913  1.00 20.00     0.018 C 
HETATM    4  C5  UNL     1     -33.334   8.231   3.383  1.00 20.00     0.013 C 
HETATM    5  C6  UNL     1     -34.277   6.281   2.823  1.00 20.00     0.024 C 
HETATM    6  C7  UNL     1     -32.397   7.726   2.246  1.00 20.00     0.004 C 
HETATM    7  C8  UNL     1     -33.087   6.370   1.815  1.00 20.00     0.020 C 
HETATM    8  C9  UNL     1     -32.236   8.772   1.146  1.00 20.00     0.012 C 
HETATM    9  C10 UNL     1     -33.579   6.302   0.365  1.00 20.00     0.024 C 
ENDROOT
BRANCH   7  10
HETATM   10  C3  UNL     1     -32.136   5.211   1.987  1.00 20.00     0.241 C 
HETATM   11  O11 UNL     1     -31.389   4.813   1.100  1.00 20.00    -0.306 OA
ENDBRANCH   7  10
TORSDOF 1
ENDMDL
MODEL 9
REMARK VINA RESULT:       3.7      1.406      2.509
REMARK  1 active torsions:
REMARK  status: ('A' for Active; 'I' for Inactive)
REMARK    1  A    between atoms: C3_3  and  C8_8 
ROOT
HETATM    1  C1  UNL     1     -31.212   8.228   2.886  1.00 20.00    -0.025 C 
HETATM    2  C2  UNL     1     -32.489   8.603   3.043  1.00 20.00    -0.024 C 
HETATM    3  C4  UNL     1     -32.178   8.221   0.797  1.00 20.00     0.018 C 
HETATM    4  C5  UNL     1     -31.133   7.441   1.599  1.00 20.00     0.013 C 
HETATM    5  C6  UNL     1     -33.267   8.055   1.864  1.00 20.00     0.024 C 
HETATM    6  C7  UNL     1     -31.843   6.074   1.833  1.00 20.00     0.004 C 
HETATM    7  C8  UNL     1     -33.359   6.499   1.974  1.00 20.00     0.020 C 
HETATM    8  C9  UNL     1     -31.529   5.081   0.717  1.00 20.00     0.012 C 
HETATM    9  C10 UNL     1     -34.315   5.923   0.924  1.00 20.00     0.024 C 
ENDROOT
BRANCH   7  10
HETATM   10  C3  UNL     1     -33.907   6.075   3.315  1.00 20.00     0.241 C 
HETATM   11  O11 UNL     1     -34.996   6.440   3.746  1.00 20.00    -0.306 OA
ENDBRANCH   7  10
TORSDOF 1
ENDMDL
