MODEL 1
REMARK VINA RESULT:       2.5      0.000      0.000
REMARK  1 active torsions:
REMARK  status: ('A' for Active; 'I' for Inactive)
REMARK    1  A    between atoms: C2_2  and  C12_12 
ROOT
HETATM    1  C1  UNL     1     -33.015   6.068   2.269  1.00 20.00    -0.023 C 
HETATM    2  C2  UNL     1     -33.375   7.235   2.840  1.00 20.00    -0.075 C 
HETATM    3  C3  UNL     1     -31.866   6.011   1.283  1.00 20.00     0.033 C 
HETATM    4  C4  UNL     1     -31.016   8.065   2.518  1.00 20.00     0.015 C 
HETATM    5  C5  UNL     1     -32.544   8.432   2.458  1.00 20.00     0.023 C 
HETATM    6  C6  UNL     1     -31.269   7.424   1.112  1.00 20.00    -0.002 C 
HETATM    7  C7  UNL     1     -32.325   8.592   0.886  1.00 20.00    -0.036 C 
HETATM    8  C8  UNL     1     -33.512   8.300  -0.042  1.00 20.00     0.016 C 
HETATM    9  C9  UNL     1     -31.724   9.944   0.452  1.00 20.00     0.016 C 
ENDROOT
BRANCH   2  10
HETATM   10  C12 UNL     1     -34.499   7.406   3.804  1.00 20.00     0.006 C 
HETATM   11  C10 UNL     1     -35.204   6.073   4.050  1.00 20.00     0.014 C 
HETATM   12  C11 UNL     1     -34.005   8.004   5.122  1.00 20.00     0.014 C 
ENDBRANCH   2  10
TORSDOF 1
ENDMDL
MODEL 2
REMARK VINA RESULT:       2.6      1.067      3.846
REMARK  1 active torsions:
REMARK  status: ('A' for Active; 'I' for Inactive)
REMARK    1  A    between atoms: C2_2  and  C12_12 
ROOT
HETATM    1  C1  UNL     1     -31.274   7.344   1.346  1.00 20.00    -0.023 C 
HETATM    2  C2  UNL     1     -32.281   8.230   1.206  1.00 20.00    -0.075 C 
HETATM    3  C3  UNL     1     -31.518   5.988   1.975  1.00 20.00     0.033 C 
HETATM    4  C4  UNL     1     -33.906   6.303   1.158  1.00 20.00     0.015 C 
HETATM    5  C5  UNL     1     -33.633   7.761   1.678  1.00 20.00     0.023 C 
HETATM    6  C6  UNL     1     -33.008   5.866   2.363  1.00 20.00    -0.002 C 
HETATM    7  C7  UNL     1     -33.620   7.115   3.136  1.00 20.00    -0.036 C 
HETATM    8  C8  UNL     1     -32.747   7.776   4.212  1.00 20.00     0.016 C 
HETATM    9  C9  UNL     1     -35.014   6.884   3.753  1.00 20.00     0.016 C 
ENDROOT
BRANCH   2  10
HETATM   10  C12 UNL     1     -32.147   9.595   0.621  1.00 20.00     0.006 C 
HETATM   11  C10 UNL     1     -32.617   9.604  -0.833  1.00 20.00     0.014 C 
HETATM   12  C11 UNL     1     -32.923  10.623   1.443  1.00 20.00     0.014 C 
ENDBRANCH   2  10
TORSDOF 1
ENDMDL
MODEL 3
REMARK VINA RESULT:       3.1      2.227      3.986
REMARK  1 active torsions:
REMARK  status: ('A' for Active; 'I' for Inactive)
REMARK    1  A    between atoms: C2_2  and  C12_12 
ROOT
HETATM    1  C1  UNL     1     -34.868   4.909   4.461  1.00 20.00    -0.023 C 
HETATM    2  C2  UNL     1     -33.600   4.629   4.097  1.00 20.00    -0.075 C 
HETATM    3  C3  UNL     1     -35.597   6.102   3.876  1.00 20.00     0.033 C 
HETATM    4  C4  UNL     1     -34.027   5.790   1.900  1.00 20.00     0.015 C 
HETATM    5  C5  UNL     1     -33.000   5.550   3.066  1.00 20.00     0.023 C 
HETATM    6  C6  UNL     1     -34.668   6.829   2.880  1.00 20.00    -0.002 C 
HETATM    7  C7  UNL     1     -33.187   7.099   3.394  1.00 20.00    -0.036 C 
HETATM    8  C8  UNL     1     -33.018   7.554   4.850  1.00 20.00     0.016 C 
HETATM    9  C9  UNL     1     -32.352   8.051   2.516  1.00 20.00     0.016 C 
ENDROOT
BRANCH   2  10
HETATM   10  C12 UNL     1     -32.787   3.497   4.624  1.00 20.00     0.006 C 
HETATM   11  C10 UNL     1     -32.563   3.650   6.128  1.00 20.00     0.014 C 
HETATM   12  C11 UNL     1     -33.450   2.154   4.314  1.00 20.00     0.014 C 
ENDBRANCH   2  10
TORSDOF 1
ENDMDL
MODEL 4
REMARK VINA RESULT:       3.4      1.434      3.076
REMARK  1 active torsions:
REMARK  status: ('A' for Active; 'I' for Inactive)
REMARK    1  A    between atoms: C2_2  and  C12_12 
ROOT
HETATM    1  C1  UNL     1     -32.737   7.490   3.017  1.00 20.00    -0.023 C 
HETATM    2  C2  UNL     1     -33.529   6.400   2.974  1.00 20.00    -0.075 C 
HETATM    3  C3  UNL     1     -31.861   7.858   1.837  1.00 20.00     0.033 C 
HETATM    4  C4  UNL     1     -33.600   6.610   0.462  1.00 20.00     0.015 C 
HETATM    5  C5  UNL     1     -33.501   5.624   1.683  1.00 20.00     0.023 C 
HETATM    6  C6  UNL     1     -32.069   6.827   0.706  1.00 20.00    -0.002 C 
HETATM    7  C7  UNL     1     -32.032   5.301   1.154  1.00 20.00    -0.036 C 
HETATM    8  C8  UNL     1     -30.967   4.894   2.182  1.00 20.00     0.016 C 
HETATM    9  C9  UNL     1     -31.969   4.281  -0.000  1.00 20.00     0.016 C 
ENDROOT
BRANCH   2  10
HETATM   10  C12 UNL     1     -34.411   5.937   4.083  1.00 20.00     0.006 C 
HETATM   11  C10 UNL     1     -35.854   6.376   3.839  1.00 20.00     0.014 C 
HETATM   12  C11 UNL     1     -34.332   4.420   4.251  1.00 20.00     0.014 C 
ENDBRANCH   2  10
TORSDOF 1
ENDMDL
MODEL 5
REMARK VINA RESULT:       3.8      1.372      3.778
REMARK  1 active torsions:
REMARK  status: ('A' for Active; 'I' for Inactive)
REMARK    1  A    between atoms: C2_2  and  C12_12 
ROOT
HETATM    1  C1  UNL     1     -33.271   7.849   2.622  1.00 20.00    -0.023 C 
HETATM    2  C2  UNL     1     -32.371   7.865   1.618  1.00 20.00    -0.075 C 
HETATM    3  C3  UNL     1     -33.815   6.539   3.155  1.00 20.00     0.033 C 
HETATM    4  C4  UNL     1     -31.618   5.563   2.323  1.00 20.00     0.015 C 
HETATM    5  C5  UNL     1     -31.936   6.514   1.111  1.00 20.00     0.023 C 
HETATM    6  C6  UNL     1     -33.170   5.367   2.383  1.00 20.00    -0.002 C 
HETATM    7  C7  UNL     1     -33.144   5.521   0.799  1.00 20.00    -0.036 C 
HETATM    8  C8  UNL     1     -34.398   6.097   0.126  1.00 20.00     0.016 C 
HETATM    9  C9  UNL     1     -32.751   4.247   0.025  1.00 20.00     0.016 C 
ENDROOT
BRANCH   2  10
HETATM   10  C12 UNL     1     -31.789   9.093   1.008  1.00 20.00     0.006 C 
HETATM   11  C10 UNL     1     -31.078   8.758  -0.302  1.00 20.00     0.014 C 
HETATM   12  C11 UNL     1     -32.865  10.155   0.779  1.00 20.00     0.014 C 
ENDBRANCH   2  10
TORSDOF 1
ENDMDL
MODEL 6
REMARK VINA RESULT:       4.1      1.584      4.124
REMARK  1 active torsions:
REMARK  status: ('A' for Active; 'I' for Inactive)
REMARK    1  A    between atoms: C2_2  and  C12_12 
ROOT
HETATM    1  C1  UNL     1     -33.563   4.743   3.478  1.00 20.00    -0.023 C 
HETATM    2  C2  UNL     1     -33.211   5.701   2.598  1.00 20.00    -0.075 C 
HETATM    3  C3  UNL     1     -34.692   4.972   4.463  1.00 20.00     0.033 C 
HETATM    4  C4  UNL     1     -35.560   6.609   2.720  1.00 20.00     0.015 C 
HETATM    5  C5  UNL     1     -34.030   6.965   2.646  1.00 20.00     0.023 C 
HETATM    6  C6  UNL     1     -35.281   6.383   4.243  1.00 20.00    -0.002 C 
HETATM    7  C7  UNL     1     -34.216   7.558   4.114  1.00 20.00    -0.036 C 
HETATM    8  C8  UNL     1     -33.011   7.526   5.065  1.00 20.00     0.016 C 
HETATM    9  C9  UNL     1     -34.804   8.983   4.166  1.00 20.00     0.016 C 
ENDROOT
BRANCH   2  10
HETATM   10  C12 UNL     1     -32.106   5.586   1.603  1.00 20.00     0.006 C 
HETATM   11  C10 UNL     1     -32.540   4.729   0.415  1.00 20.00     0.014 C 
HETATM   12  C11 UNL     1     -31.648   6.967   1.131  1.00 20.00     0.014 C 
ENDBRANCH   2  10
TORSDOF 1
ENDMDL
MODEL 7
REMARK VINA RESULT:       4.6      1.008      1.513
REMARK  1 active torsions:
REMARK  status: ('A' for Active; 'I' for Inactive)
REMARK    1  A    between atoms: C2_2  and  C12_12 
ROOT
HETATM    1  C1  UNL     1     -34.380   6.018   1.435  1.00 20.00    -0.023 C 
HETATM    2  C2  UNL     1     -33.991   6.534   2.618  1.00 20.00    -0.075 C 
HETATM    3  C3  UNL     1     -33.386   5.833   0.307  1.00 20.00     0.033 C 
HETATM    4  C4  UNL     1     -31.661   5.680   2.170  1.00 20.00     0.015 C 
HETATM    5  C5  UNL     1     -32.526   6.866   2.736  1.00 20.00     0.023 C 
HETATM    6  C6  UNL     1     -31.991   6.304   0.773  1.00 20.00    -0.002 C 
HETATM    7  C7  UNL     1     -31.955   7.713   1.512  1.00 20.00    -0.036 C 
HETATM    8  C8  UNL     1     -32.833   8.834   0.937  1.00 20.00     0.016 C 
HETATM    9  C9  UNL     1     -30.547   8.301   1.733  1.00 20.00     0.016 C 
ENDROOT
BRANCH   2  10
HETATM   10  C12 UNL     1     -34.888   6.776   3.784  1.00 20.00     0.006 C 
HETATM   11  C10 UNL     1     -35.310   5.453   4.421  1.00 20.00     0.014 C 
HETATM   12  C11 UNL     1     -34.215   7.680   4.817  1.00 20.00     0.014 C 
ENDBRANCH   2  10
TORSDOF 1
ENDMDL
MODEL 8
REMARK VINA RESULT:       4.9      1.596      4.314
REMARK  1 active torsions:
REMARK  status: ('A' for Active; 'I' for Inactive)
REMARK    1  A    between atoms: C2_2  and  C12_12 
ROOT
HETATM    1  C1  UNL     1     -32.948   7.773   2.227  1.00 20.00    -0.023 C 
HETATM    2  C2  UNL     1     -33.069   6.447   2.016  1.00 20.00    -0.075 C 
HETATM    3  C3  UNL     1     -33.418   8.397   3.525  1.00 20.00     0.033 C 
HETATM    4  C4  UNL     1     -32.989   6.092   4.511  1.00 20.00     0.015 C 
HETATM    5  C5  UNL     1     -33.657   5.656   3.156  1.00 20.00     0.023 C 
HETATM    6  C6  UNL     1     -33.988   7.295   4.444  1.00 20.00    -0.002 C 
HETATM    7  C7  UNL     1     -34.999   6.279   3.751  1.00 20.00    -0.036 C 
HETATM    8  C8  UNL     1     -36.022   6.863   2.768  1.00 20.00     0.016 C 
HETATM    9  C9  UNL     1     -35.766   5.357   4.720  1.00 20.00     0.016 C 
ENDROOT
BRANCH   2  10
HETATM   10  C12 UNL     1     -32.660   5.736   0.772  1.00 20.00     0.006 C 
HETATM   11  C10 UNL     1     -31.492   4.791   1.052  1.00 20.00     0.014 C 
HETATM   12  C11 UNL     1     -33.836   4.971   0.164  1.00 20.00     0.014 C 
ENDBRANCH   2  10
TORSDOF 1
ENDMDL
MODEL 9
REMARK VINA RESULT:       5.5      1.041      1.635
REMARK  1 active torsions:
REMARK  status: ('A' for Active; 'I' for Inactive)
REMARK    1  A    between atoms: C2_2  and  C12_12 
ROOT
HETATM    1  C1  UNL     1     -34.114   5.907   1.753  1.00 20.00    -0.023 C 
HETATM    2  C2  UNL     1     -33.519   6.533   2.789  1.00 20.00    -0.075 C 
HETATM    3  C3  UNL     1     -33.421   5.802   0.410  1.00 20.00     0.033 C 
HETATM    4  C4  UNL     1     -31.279   5.987   1.768  1.00 20.00     0.015 C 
HETATM    5  C5  UNL     1     -32.137   7.070   2.520  1.00 20.00     0.023 C 
HETATM    6  C6  UNL     1     -32.039   6.486   0.494  1.00 20.00    -0.002 C 
HETATM    7  C7  UNL     1     -32.025   7.923   1.177  1.00 20.00    -0.036 C 
HETATM    8  C8  UNL     1     -33.174   8.880   0.831  1.00 20.00     0.016 C 
HETATM    9  C9  UNL     1     -30.709   8.710   1.019  1.00 20.00     0.016 C 
ENDROOT
BRANCH   2  10
HETATM   10  C12 UNL     1     -34.118   6.709   4.142  1.00 20.00     0.006 C 
HETATM   11  C10 UNL     1     -33.991   8.161   4.601  1.00 20.00     0.014 C 
HETATM   12  C11 UNL     1     -35.582   6.268   4.156  1.00 20.00     0.014 C 
ENDBRANCH   2  10
TORSDOF 1
ENDMDL
