MODEL 1
REMARK VINA RESULT:      -2.7      0.000      0.000
REMARK  0 active torsions:
REMARK  status: ('A' for Active; 'I' for Inactive)
ROOT
HETATM    1  C1  UNL     1     -32.710   6.581   1.861  1.00 20.00    -0.064 A 
HETATM    2  C2  UNL     1     -32.447   5.448   1.241  1.00 20.00     0.016 C 
HETATM    3  C3  UNL     1     -34.261   6.332   3.643  1.00 20.00     0.017 A 
HETATM    4  C4  UNL     1     -33.907   7.694   4.055  1.00 20.00     0.017 A 
HETATM    5  C5  UNL     1     -32.199   7.828   2.169  1.00 20.00     0.099 A 
HETATM    6  C6  UNL     1     -33.695   7.298   2.596  1.00 20.00     0.000 A 
HETATM    7 BR7  UNL     1     -32.175   9.153   0.802  1.00 20.00    -0.085 Br
ENDROOT
TORSDOF 0
ENDMDL
MODEL 2
REMARK VINA RESULT:      -1.9      1.787      2.352
REMARK  0 active torsions:
REMARK  status: ('A' for Active; 'I' for Inactive)
ROOT
HETATM    1  C1  UNL     1     -32.673   7.414   2.126  1.00 20.00    -0.064 A 
HETATM    2  C2  UNL     1     -31.978   8.495   1.830  1.00 20.00     0.016 C 
HETATM    3  C3  UNL     1     -34.048   7.684   4.044  1.00 20.00     0.017 A 
HETATM    4  C4  UNL     1     -34.698   6.423   3.675  1.00 20.00     0.017 A 
HETATM    5  C5  UNL     1     -33.239   6.271   1.591  1.00 20.00     0.099 A 
HETATM    6  C6  UNL     1     -33.276   6.677   3.184  1.00 20.00     0.000 A 
HETATM    7 BR7  UNL     1     -32.091   4.816   1.157  1.00 20.00    -0.085 Br
ENDROOT
TORSDOF 0
ENDMDL
MODEL 3
REMARK VINA RESULT:      -1.2      1.896      2.924
REMARK  0 active torsions:
REMARK  status: ('A' for Active; 'I' for Inactive)
ROOT
HETATM    1  C1  UNL     1     -32.479   6.676   1.716  1.00 20.00    -0.064 A 
HETATM    2  C2  UNL     1     -32.044   5.467   1.422  1.00 20.00     0.016 C 
HETATM    3  C3  UNL     1     -31.371   8.389   0.500  1.00 20.00     0.017 A 
HETATM    4  C4  UNL     1     -32.404   9.311   0.981  1.00 20.00     0.017 A 
HETATM    5  C5  UNL     1     -33.572   7.386   2.176  1.00 20.00     0.099 A 
HETATM    6  C6  UNL     1     -32.118   8.051   1.794  1.00 20.00     0.000 A 
HETATM    7 BR7  UNL     1     -33.967   7.326   4.038  1.00 20.00    -0.085 Br
ENDROOT
TORSDOF 0
ENDMDL
MODEL 4
REMARK VINA RESULT:      -1.2      2.940      3.358
REMARK  0 active torsions:
REMARK  status: ('A' for Active; 'I' for Inactive)
ROOT
HETATM    1  C1  UNL     1     -33.327   5.342   2.748  1.00 20.00    -0.064 A 
HETATM    2  C2  UNL     1     -32.520   5.526   1.722  1.00 20.00     0.016 C 
HETATM    3  C3  UNL     1     -34.499   7.309   3.379  1.00 20.00     0.017 A 
HETATM    4  C4  UNL     1     -35.339   6.458   4.228  1.00 20.00     0.017 A 
HETATM    5  C5  UNL     1     -34.080   4.396   3.418  1.00 20.00     0.099 A 
HETATM    6  C6  UNL     1     -33.938   5.970   3.870  1.00 20.00     0.000 A 
HETATM    7 BR7  UNL     1     -33.173   3.152   4.538  1.00 20.00    -0.085 Br
ENDROOT
TORSDOF 0
ENDMDL
MODEL 5
REMARK VINA RESULT:      -1.0      1.928      3.007
REMARK  0 active torsions:
REMARK  status: ('A' for Active; 'I' for Inactive)
ROOT
HETATM    1  C1  UNL     1     -34.351   6.530   3.617  1.00 20.00    -0.064 A 
HETATM    2  C2  UNL     1     -35.379   5.778   3.960  1.00 20.00     0.016 C 
HETATM    3  C3  UNL     1     -33.218   5.736   1.686  1.00 20.00     0.017 A 
HETATM    4  C4  UNL     1     -32.503   7.015   1.659  1.00 20.00     0.017 A 
HETATM    5  C5  UNL     1     -33.838   7.812   3.678  1.00 20.00     0.099 A 
HETATM    6  C6  UNL     1     -33.074   6.530   2.989  1.00 20.00     0.000 A 
HETATM    7 BR7  UNL     1     -33.091   8.404   5.326  1.00 20.00    -0.085 Br
ENDROOT
TORSDOF 0
ENDMDL
MODEL 6
REMARK VINA RESULT:      -0.9      2.215      3.507
REMARK  0 active torsions:
REMARK  status: ('A' for Active; 'I' for Inactive)
ROOT
HETATM    1  C1  UNL     1     -33.271   7.551   3.866  1.00 20.00    -0.064 A 
HETATM    2  C2  UNL     1     -32.978   8.436   4.799  1.00 20.00     0.016 C 
HETATM    3  C3  UNL     1     -32.002   7.837   1.878  1.00 20.00     0.017 A 
HETATM    4  C4  UNL     1     -32.503   6.528   1.448  1.00 20.00     0.017 A 
HETATM    5  C5  UNL     1     -33.754   6.274   3.653  1.00 20.00     0.099 A 
HETATM    6  C6  UNL     1     -33.322   7.321   2.462  1.00 20.00     0.000 A 
HETATM    7 BR7  UNL     1     -35.627   5.979   3.827  1.00 20.00    -0.085 Br
ENDROOT
TORSDOF 0
ENDMDL
MODEL 7
REMARK VINA RESULT:      -0.9      2.040      2.533
REMARK  0 active torsions:
REMARK  status: ('A' for Active; 'I' for Inactive)
ROOT
HETATM    1  C1  UNL     1     -33.697   4.817   3.570  1.00 20.00    -0.064 A 
HETATM    2  C2  UNL     1     -33.751   3.612   4.103  1.00 20.00     0.016 C 
HETATM    3  C3  UNL     1     -35.274   6.325   4.510  1.00 20.00     0.017 A 
HETATM    4  C4  UNL     1     -34.561   7.402   3.815  1.00 20.00     0.017 A 
HETATM    5  C5  UNL     1     -32.864   5.718   2.932  1.00 20.00     0.099 A 
HETATM    6  C6  UNL     1     -34.453   5.983   3.261  1.00 20.00     0.000 A 
HETATM    7 BR7  UNL     1     -32.461   5.425   1.095  1.00 20.00    -0.085 Br
ENDROOT
TORSDOF 0
ENDMDL
MODEL 8
REMARK VINA RESULT:      -0.7      2.314      3.557
REMARK  0 active torsions:
REMARK  status: ('A' for Active; 'I' for Inactive)
ROOT
HETATM    1  C1  UNL     1     -32.123   8.355   2.264  1.00 20.00    -0.064 A 
HETATM    2  C2  UNL     1     -32.046   8.655   3.546  1.00 20.00     0.016 C 
HETATM    3  C3  UNL     1     -32.510  10.250   0.884  1.00 20.00     0.017 A 
HETATM    4  C4  UNL     1     -32.199   9.395  -0.266  1.00 20.00     0.017 A 
HETATM    5  C5  UNL     1     -31.714   7.448   1.305  1.00 20.00     0.099 A 
HETATM    6  C6  UNL     1     -32.696   8.734   1.017  1.00 20.00     0.000 A 
HETATM    7 BR7  UNL     1     -32.574   5.750   1.247  1.00 20.00    -0.085 Br
ENDROOT
TORSDOF 0
ENDMDL
MODEL 9
REMARK VINA RESULT:      -0.5      1.879      2.966
REMARK  0 active torsions:
REMARK  status: ('A' for Active; 'I' for Inactive)
ROOT
HETATM    1  C1  UNL     1     -32.485   7.671   1.866  1.00 20.00    -0.064 A 
HETATM    2  C2  UNL     1     -32.075   8.742   1.215  1.00 20.00     0.016 C 
HETATM    3  C3  UNL     1     -32.019   5.645   0.717  1.00 20.00     0.017 A 
HETATM    4  C4  UNL     1     -32.376   4.938   1.952  1.00 20.00     0.017 A 
HETATM    5  C5  UNL     1     -32.760   7.168   3.124  1.00 20.00     0.099 A 
HETATM    6  C6  UNL     1     -32.950   6.334   1.721  1.00 20.00     0.000 A 
HETATM    7 BR7  UNL     1     -34.381   7.700   3.971  1.00 20.00    -0.085 Br
ENDROOT
TORSDOF 0
ENDMDL
