MODEL 1
REMARK VINA RESULT:       1.4      0.000      0.000
REMARK  1 active torsions:
REMARK  status: ('A' for Active; 'I' for Inactive)
REMARK    1  A    between atoms: C2_2  and  C6_6 
ROOT
HETATM    1  C3  UNL     1     -32.700   5.671   1.402  1.00 20.00     0.006 C 
HETATM    2  C4  UNL     1     -33.762   6.632   0.838  1.00 20.00     0.006 C 
HETATM    3  C5  UNL     1     -31.346   7.597   2.171  1.00 20.00     0.014 C 
HETATM    4  C6  UNL     1     -32.399   8.601   1.645  1.00 20.00     0.012 C 
HETATM    5  C7  UNL     1     -32.211   6.410   2.667  1.00 20.00    -0.006 C 
HETATM    6  C8  UNL     1     -33.726   7.810   1.843  1.00 20.00     0.001 C 
HETATM    7  C9  UNL     1     -33.494   7.092   3.202  1.00 20.00    -0.040 C 
HETATM    8  C10 UNL     1     -33.269   8.024   4.408  1.00 20.00     0.015 C 
HETATM    9  C11 UNL     1     -34.618   6.121   3.616  1.00 20.00     0.015 C 
ENDROOT
BRANCH   4  10
HETATM   10  C2  UNL     1     -32.134   9.091   0.258  1.00 20.00    -0.032 C 
HETATM   11  C1  UNL     1     -32.663  10.207  -0.255  1.00 20.00     0.007 C 
ENDBRANCH   4  10
TORSDOF 1
ENDMDL
MODEL 2
REMARK VINA RESULT:       1.5      1.488      4.164
REMARK  1 active torsions:
REMARK  status: ('A' for Active; 'I' for Inactive)
REMARK    1  A    between atoms: C2_2  and  C6_6 
ROOT
HETATM    1  C3  UNL     1     -34.213   6.308   1.363  1.00 20.00     0.006 C 
HETATM    2  C4  UNL     1     -32.973   5.485   1.756  1.00 20.00     0.006 C 
HETATM    3  C5  UNL     1     -35.083   6.127   3.675  1.00 20.00     0.014 C 
HETATM    4  C6  UNL     1     -33.841   5.321   4.124  1.00 20.00     0.012 C 
HETATM    5  C7  UNL     1     -34.498   7.125   2.642  1.00 20.00    -0.006 C 
HETATM    6  C8  UNL     1     -32.723   5.922   3.221  1.00 20.00     0.001 C 
HETATM    7  C9  UNL     1     -33.084   7.433   3.193  1.00 20.00    -0.040 C 
HETATM    8  C10 UNL     1     -33.070   8.138   4.563  1.00 20.00     0.015 C 
HETATM    9  C11 UNL     1     -32.200   8.288   2.264  1.00 20.00     0.015 C 
ENDROOT
BRANCH   4  10
HETATM   10  C2  UNL     1     -34.016   3.839   4.044  1.00 20.00    -0.032 C 
HETATM   11  C1  UNL     1     -33.254   2.959   4.702  1.00 20.00     0.007 C 
ENDBRANCH   4  10
TORSDOF 1
ENDMDL
MODEL 3
REMARK VINA RESULT:       2.8      1.019      3.784
REMARK  1 active torsions:
REMARK  status: ('A' for Active; 'I' for Inactive)
REMARK    1  A    between atoms: C2_2  and  C6_6 
ROOT
HETATM    1  C3  UNL     1     -31.115   8.336   2.957  1.00 20.00     0.006 C 
HETATM    2  C4  UNL     1     -32.556   8.645   3.399  1.00 20.00     0.006 C 
HETATM    3  C5  UNL     1     -31.921   6.419   1.613  1.00 20.00     0.014 C 
HETATM    4  C6  UNL     1     -33.390   6.708   2.006  1.00 20.00     0.012 C 
HETATM    5  C7  UNL     1     -31.302   7.837   1.508  1.00 20.00    -0.006 C 
HETATM    6  C8  UNL     1     -33.387   8.259   2.149  1.00 20.00     0.001 C 
HETATM    7  C9  UNL     1     -32.468   8.707   0.977  1.00 20.00    -0.040 C 
HETATM    8  C10 UNL     1     -32.964   8.324  -0.431  1.00 20.00     0.015 C 
HETATM    9  C11 UNL     1     -32.176  10.219   0.931  1.00 20.00     0.015 C 
ENDROOT
BRANCH   4  10
HETATM   10  C2  UNL     1     -33.862   5.945   3.201  1.00 20.00    -0.032 C 
HETATM   11  C1  UNL     1     -34.991   6.217   3.864  1.00 20.00     0.007 C 
ENDBRANCH   4  10
TORSDOF 1
ENDMDL
MODEL 4
REMARK VINA RESULT:       3.2      1.264      2.754
REMARK  1 active torsions:
REMARK  status: ('A' for Active; 'I' for Inactive)
REMARK    1  A    between atoms: C2_2  and  C6_6 
ROOT
HETATM    1  C3  UNL     1     -35.436   7.278   3.001  1.00 20.00     0.006 C 
HETATM    2  C4  UNL     1     -34.369   7.737   4.011  1.00 20.00     0.006 C 
HETATM    3  C5  UNL     1     -33.676   6.274   1.577  1.00 20.00     0.014 C 
HETATM    4  C6  UNL     1     -32.570   6.690   2.577  1.00 20.00     0.012 C 
HETATM    5  C7  UNL     1     -34.873   5.930   2.501  1.00 20.00    -0.006 C 
HETATM    6  C8  UNL     1     -33.319   6.600   3.940  1.00 20.00     0.001 C 
HETATM    7  C9  UNL     1     -34.200   5.332   3.762  1.00 20.00    -0.040 C 
HETATM    8  C10 UNL     1     -33.426   4.023   3.515  1.00 20.00     0.015 C 
HETATM    9  C11 UNL     1     -35.162   5.047   4.932  1.00 20.00     0.015 C 
ENDROOT
BRANCH   4  10
HETATM   10  C2  UNL     1     -31.934   8.007   2.269  1.00 20.00    -0.032 C 
HETATM   11  C1  UNL     1     -32.133   8.687   1.136  1.00 20.00     0.007 C 
ENDBRANCH   4  10
TORSDOF 1
ENDMDL
MODEL 5
REMARK VINA RESULT:       3.4      1.040      2.413
REMARK  1 active torsions:
REMARK  status: ('A' for Active; 'I' for Inactive)
REMARK    1  A    between atoms: C2_2  and  C6_6 
ROOT
HETATM    1  C3  UNL     1     -34.591   7.068   2.835  1.00 20.00     0.006 C 
HETATM    2  C4  UNL     1     -33.317   7.609   3.507  1.00 20.00     0.006 C 
HETATM    3  C5  UNL     1     -33.501   7.217   0.616  1.00 20.00     0.014 C 
HETATM    4  C6  UNL     1     -32.188   7.737   1.249  1.00 20.00     0.012 C 
HETATM    5  C7  UNL     1     -34.029   6.216   1.676  1.00 20.00    -0.006 C 
HETATM    6  C8  UNL     1     -32.188   7.013   2.629  1.00 20.00     0.001 C 
HETATM    7  C9  UNL     1     -32.739   5.604   2.274  1.00 20.00    -0.040 C 
HETATM    8  C10 UNL     1     -31.889   4.798   1.273  1.00 20.00     0.015 C 
HETATM    9  C11 UNL     1     -32.965   4.678   3.486  1.00 20.00     0.015 C 
ENDROOT
BRANCH   4  10
HETATM   10  C2  UNL     1     -32.081   9.226   1.295  1.00 20.00    -0.032 C 
HETATM   11  C1  UNL     1     -32.475  10.035   0.307  1.00 20.00     0.007 C 
ENDBRANCH   4  10
TORSDOF 1
ENDMDL
MODEL 6
REMARK VINA RESULT:       3.8      1.003      3.230
REMARK  1 active torsions:
REMARK  status: ('A' for Active; 'I' for Inactive)
REMARK    1  A    between atoms: C2_2  and  C6_6 
ROOT
HETATM    1  C3  UNL     1     -32.754   8.313   1.345  1.00 20.00     0.006 C 
HETATM    2  C4  UNL     1     -31.590   7.688   2.135  1.00 20.00     0.006 C 
HETATM    3  C5  UNL     1     -33.651   6.058   0.853  1.00 20.00     0.014 C 
HETATM    4  C6  UNL     1     -32.516   5.384   1.661  1.00 20.00     0.012 C 
HETATM    5  C7  UNL     1     -33.927   7.357   1.653  1.00 20.00    -0.006 C 
HETATM    6  C8  UNL     1     -32.245   6.438   2.776  1.00 20.00     0.001 C 
HETATM    7  C9  UNL     1     -33.674   6.941   3.123  1.00 20.00    -0.040 C 
HETATM    8  C10 UNL     1     -34.639   5.866   3.659  1.00 20.00     0.015 C 
HETATM    9  C11 UNL     1     -33.719   8.100   4.138  1.00 20.00     0.015 C 
ENDROOT
BRANCH   4  10
HETATM   10  C2  UNL     1     -31.334   4.988   0.838  1.00 20.00    -0.032 C 
HETATM   11  C1  UNL     1     -31.334   3.974  -0.033  1.00 20.00     0.007 C 
ENDBRANCH   4  10
TORSDOF 1
ENDMDL
