MODEL 1
REMARK VINA RESULT:      -1.6      0.000      0.000
REMARK  0 active torsions:
REMARK  status: ('A' for Active; 'I' for Inactive)
ROOT
HETATM    1  C1  UNL     1     -32.606   6.171   1.452  1.00 20.00     0.013 C 
HETATM    2  C2  UNL     1     -33.279   6.381   2.425  1.00 20.00    -0.106 C 
HETATM    3  C3  UNL     1     -35.491   6.068   3.583  1.00 20.00     0.041 A 
HETATM    4  C4  UNL     1     -34.462   5.489   4.513  1.00 20.00     0.079 A 
HETATM    5  C5  UNL     1     -34.088   6.633   3.591  1.00 20.00     0.033 A 
HETATM    6  C6  UNL     1     -33.880   7.987   4.212  1.00 20.00     0.030 C 
HETATM    7 BR7  UNL     1     -33.861   3.704   4.183  1.00 20.00    -0.089 Br
ENDROOT
TORSDOF 0
ENDMDL
MODEL 2
REMARK VINA RESULT:      -1.5      1.754      2.813
REMARK  0 active torsions:
REMARK  status: ('A' for Active; 'I' for Inactive)
ROOT
HETATM    1  C1  UNL     1     -33.689   3.627   4.317  1.00 20.00     0.013 C 
HETATM    2  C2  UNL     1     -33.975   4.738   3.963  1.00 20.00    -0.106 C 
HETATM    3  C3  UNL     1     -33.267   7.144   3.744  1.00 20.00     0.041 A 
HETATM    4  C4  UNL     1     -33.610   6.694   2.351  1.00 20.00     0.079 A 
HETATM    5  C5  UNL     1     -34.316   6.073   3.540  1.00 20.00     0.033 A 
HETATM    6  C6  UNL     1     -35.755   6.450   3.768  1.00 20.00     0.030 C 
HETATM    7 BR7  UNL     1     -32.281   5.734   1.368  1.00 20.00    -0.089 Br
ENDROOT
TORSDOF 0
ENDMDL
MODEL 3
REMARK VINA RESULT:      -0.8      3.080      3.769
REMARK  0 active torsions:
REMARK  status: ('A' for Active; 'I' for Inactive)
ROOT
HETATM    1  C1  UNL     1     -32.545   5.333   0.966  1.00 20.00     0.013 C 
HETATM    2  C2  UNL     1     -32.665   6.323   1.635  1.00 20.00    -0.106 C 
HETATM    3  C3  UNL     1     -31.553   8.314   2.700  1.00 20.00     0.041 A 
HETATM    4  C4  UNL     1     -32.622   8.878   1.807  1.00 20.00     0.079 A 
HETATM    5  C5  UNL     1     -32.808   7.511   2.438  1.00 20.00     0.033 A 
HETATM    6  C6  UNL     1     -33.810   7.392   3.555  1.00 20.00     0.030 C 
HETATM    7 BR7  UNL     1     -32.225   9.071  -0.053  1.00 20.00    -0.089 Br
ENDROOT
TORSDOF 0
ENDMDL
MODEL 4
REMARK VINA RESULT:      -0.7      2.272      3.444
REMARK  0 active torsions:
REMARK  status: ('A' for Active; 'I' for Inactive)
ROOT
HETATM    1  C1  UNL     1     -34.846   7.301   4.053  1.00 20.00     0.013 C 
HETATM    2  C2  UNL     1     -34.174   6.515   3.443  1.00 20.00    -0.106 C 
HETATM    3  C3  UNL     1     -33.505   5.582   1.202  1.00 20.00     0.041 A 
HETATM    4  C4  UNL     1     -32.230   6.064   1.837  1.00 20.00     0.079 A 
HETATM    5  C5  UNL     1     -33.369   5.571   2.709  1.00 20.00     0.033 A 
HETATM    6  C6  UNL     1     -33.197   4.239   3.388  1.00 20.00     0.030 C 
HETATM    7 BR7  UNL     1     -31.812   7.925   1.703  1.00 20.00    -0.089 Br
ENDROOT
TORSDOF 0
ENDMDL
MODEL 5
REMARK VINA RESULT:      -0.5      1.946      2.859
REMARK  0 active torsions:
REMARK  status: ('A' for Active; 'I' for Inactive)
ROOT
HETATM    1  C1  UNL     1     -31.561   8.217   1.706  1.00 20.00     0.013 C 
HETATM    2  C2  UNL     1     -32.238   7.228   1.775  1.00 20.00    -0.106 C 
HETATM    3  C3  UNL     1     -32.837   5.149   3.062  1.00 20.00     0.041 A 
HETATM    4  C4  UNL     1     -34.118   5.926   2.928  1.00 20.00     0.079 A 
HETATM    5  C5  UNL     1     -33.050   6.039   1.858  1.00 20.00     0.033 A 
HETATM    6  C6  UNL     1     -33.319   5.376   0.534  1.00 20.00     0.030 C 
HETATM    7 BR7  UNL     1     -34.439   7.343   4.170  1.00 20.00    -0.089 Br
ENDROOT
TORSDOF 0
ENDMDL
MODEL 6
REMARK VINA RESULT:      -0.2      2.434      3.753
REMARK  0 active torsions:
REMARK  status: ('A' for Active; 'I' for Inactive)
ROOT
HETATM    1  C1  UNL     1     -34.766   6.526   3.808  1.00 20.00     0.013 C 
HETATM    2  C2  UNL     1     -33.899   6.633   2.984  1.00 20.00    -0.106 C 
HETATM    3  C3  UNL     1     -32.852   8.035   1.174  1.00 20.00     0.041 A 
HETATM    4  C4  UNL     1     -31.761   7.791   2.180  1.00 20.00     0.079 A 
HETATM    5  C5  UNL     1     -32.860   6.763   1.993  1.00 20.00     0.033 A 
HETATM    6  C6  UNL     1     -32.500   5.479   1.296  1.00 20.00     0.030 C 
HETATM    7 BR7  UNL     1     -31.700   8.915   3.724  1.00 20.00    -0.089 Br
ENDROOT
TORSDOF 0
ENDMDL
MODEL 7
REMARK VINA RESULT:      -0.1      1.021      1.053
REMARK  0 active torsions:
REMARK  status: ('A' for Active; 'I' for Inactive)
ROOT
HETATM    1  C1  UNL     1     -32.517   5.743   1.185  1.00 20.00     0.013 C 
HETATM    2  C2  UNL     1     -32.968   6.397   2.086  1.00 20.00    -0.106 C 
HETATM    3  C3  UNL     1     -35.016   7.322   3.220  1.00 20.00     0.041 A 
HETATM    4  C4  UNL     1     -34.308   6.507   4.266  1.00 20.00     0.079 A 
HETATM    5  C5  UNL     1     -33.511   7.181   3.166  1.00 20.00     0.033 A 
HETATM    6  C6  UNL     1     -32.681   8.379   3.545  1.00 20.00     0.030 C 
HETATM    7 BR7  UNL     1     -34.595   4.617   4.272  1.00 20.00    -0.089 Br
ENDROOT
TORSDOF 0
ENDMDL
MODEL 8
REMARK VINA RESULT:      -0.1      1.230      1.232
REMARK  0 active torsions:
REMARK  status: ('A' for Active; 'I' for Inactive)
ROOT
HETATM    1  C1  UNL     1     -32.512   8.072   1.797  1.00 20.00     0.013 C 
HETATM    2  C2  UNL     1     -33.145   7.724   2.757  1.00 20.00    -0.106 C 
HETATM    3  C3  UNL     1     -35.315   6.817   3.654  1.00 20.00     0.041 A 
HETATM    4  C4  UNL     1     -34.256   5.845   4.095  1.00 20.00     0.079 A 
HETATM    5  C5  UNL     1     -33.907   7.308   3.908  1.00 20.00     0.033 A 
HETATM    6  C6  UNL     1     -33.663   8.128   5.146  1.00 20.00     0.030 C 
HETATM    7 BR7  UNL     1     -33.685   4.516   2.845  1.00 20.00    -0.089 Br
ENDROOT
TORSDOF 0
ENDMDL
MODEL 9
REMARK VINA RESULT:      -0.0      2.265      3.610
REMARK  0 active torsions:
REMARK  status: ('A' for Active; 'I' for Inactive)
ROOT
HETATM    1  C1  UNL     1     -34.009   7.638   4.016  1.00 20.00     0.013 C 
HETATM    2  C2  UNL     1     -33.315   7.886   3.068  1.00 20.00    -0.106 C 
HETATM    3  C3  UNL     1     -31.039   7.729   2.004  1.00 20.00     0.041 A 
HETATM    4  C4  UNL     1     -31.983   7.062   1.042  1.00 20.00     0.079 A 
HETATM    5  C5  UNL     1     -32.480   8.185   1.932  1.00 20.00     0.033 A 
HETATM    6  C6  UNL     1     -32.764   9.512   1.282  1.00 20.00     0.030 C 
HETATM    7 BR7  UNL     1     -32.460   5.241   1.375  1.00 20.00    -0.089 Br
ENDROOT
TORSDOF 0
ENDMDL
