MODEL 1
REMARK VINA RESULT:      -1.4      0.000      0.000
REMARK  1 active torsions:
REMARK  status: ('A' for Active; 'I' for Inactive)
REMARK    1  A    between atoms: C3_3  and  C6_6 
ROOT
HETATM    1  C1  UNL     1     -32.663  10.030   0.308  1.00 20.00     0.013 C 
HETATM    2  C2  UNL     1     -32.432   9.080   1.004  1.00 20.00    -0.107 C 
HETATM    3  C5  UNL     1     -31.458   6.760   1.195  1.00 20.00     0.033 A 
HETATM    4  C6  UNL     1     -32.924   6.663   1.519  1.00 20.00     0.030 A 
HETATM    5  C7  UNL     1     -32.155   7.937   1.839  1.00 20.00     0.027 A 
HETATM    6  C10 UNL     1     -31.787   8.277   3.260  1.00 20.00     0.030 C 
ENDROOT
BRANCH   4   7
HETATM    7  C3  UNL     1     -33.355   5.762   2.579  1.00 20.00    -0.018 C 
HETATM    8  C4  UNL     1     -34.376   5.932   3.441  1.00 20.00    -0.091 C 
HETATM    9  C8  UNL     1     -34.693   4.899   4.486  1.00 20.00     0.042 C 
HETATM   10  C9  UNL     1     -35.275   7.136   3.444  1.00 20.00     0.042 C 
ENDBRANCH   4   7
TORSDOF 1
ENDMDL
MODEL 2
REMARK VINA RESULT:      -0.6      1.035      4.530
REMARK  1 active torsions:
REMARK  status: ('A' for Active; 'I' for Inactive)
REMARK    1  A    between atoms: C3_3  and  C6_6 
ROOT
HETATM    1  C1  UNL     1     -35.273   6.285   4.052  1.00 20.00     0.013 C 
HETATM    2  C2  UNL     1     -34.294   6.527   3.401  1.00 20.00    -0.107 C 
HETATM    3  C5  UNL     1     -32.057   7.686   3.258  1.00 20.00     0.033 A 
HETATM    4  C6  UNL     1     -32.936   8.265   2.183  1.00 20.00     0.030 A 
HETATM    5  C7  UNL     1     -33.117   6.818   2.619  1.00 20.00     0.027 A 
HETATM    6  C10 UNL     1     -32.658   5.686   1.737  1.00 20.00     0.030 C 
ENDROOT
BRANCH   4   7
HETATM    7  C3  UNL     1     -32.350   8.591   0.891  1.00 20.00    -0.018 C 
HETATM    8  C4  UNL     1     -32.353   9.780   0.260  1.00 20.00    -0.091 C 
HETATM    9  C8  UNL     1     -31.698   9.952  -1.082  1.00 20.00     0.042 C 
HETATM   10  C9  UNL     1     -32.992  11.021   0.819  1.00 20.00     0.042 C 
ENDBRANCH   4   7
TORSDOF 1
ENDMDL
MODEL 3
REMARK VINA RESULT:      -0.0      2.227      3.884
REMARK  1 active torsions:
REMARK  status: ('A' for Active; 'I' for Inactive)
REMARK    1  A    between atoms: C3_3  and  C6_6 
ROOT
HETATM    1  C1  UNL     1     -33.338   8.612   4.799  1.00 20.00     0.013 C 
HETATM    2  C2  UNL     1     -33.671   7.597   4.252  1.00 20.00    -0.107 C 
HETATM    3  C5  UNL     1     -35.525   5.977   3.699  1.00 20.00     0.033 A 
HETATM    4  C6  UNL     1     -34.496   5.228   4.500  1.00 20.00     0.030 A 
HETATM    5  C7  UNL     1     -34.071   6.376   3.595  1.00 20.00     0.027 A 
HETATM    6  C10 UNL     1     -33.363   6.106   2.293  1.00 20.00     0.030 C 
ENDROOT
BRANCH   4   7
HETATM    7  C3  UNL     1     -34.196   3.848   4.150  1.00 20.00    -0.018 C 
HETATM    8  C4  UNL     1     -33.376   2.994   4.793  1.00 20.00    -0.091 C 
HETATM    9  C8  UNL     1     -33.172   1.589   4.298  1.00 20.00     0.042 C 
HETATM   10  C9  UNL     1     -32.606   3.349   6.034  1.00 20.00     0.042 C 
ENDBRANCH   4   7
TORSDOF 1
ENDMDL
MODEL 4
REMARK VINA RESULT:      -0.0      1.103      4.650
REMARK  1 active torsions:
REMARK  status: ('A' for Active; 'I' for Inactive)
REMARK    1  A    between atoms: C3_3  and  C6_6 
ROOT
HETATM    1  C1  UNL     1     -33.413   3.402   4.706  1.00 20.00     0.013 C 
HETATM    2  C2  UNL     1     -33.697   4.362   4.045  1.00 20.00    -0.107 C 
HETATM    3  C5  UNL     1     -33.812   5.422   1.758  1.00 20.00     0.033 A 
HETATM    4  C6  UNL     1     -32.876   6.252   2.593  1.00 20.00     0.030 A 
HETATM    5  C7  UNL     1     -34.037   5.517   3.249  1.00 20.00     0.027 A 
HETATM    6  C10 UNL     1     -35.251   6.269   3.728  1.00 20.00     0.030 C 
ENDROOT
BRANCH   4   7
HETATM    7  C3  UNL     1     -32.894   7.701   2.447  1.00 20.00    -0.018 C 
HETATM    8  C4  UNL     1     -32.266   8.443   1.515  1.00 20.00    -0.091 C 
HETATM    9  C8  UNL     1     -32.387   9.941   1.501  1.00 20.00     0.042 C 
HETATM   10  C9  UNL     1     -31.407   7.864   0.426  1.00 20.00     0.042 C 
ENDBRANCH   4   7
TORSDOF 1
ENDMDL
MODEL 5
REMARK VINA RESULT:       0.3      1.304      2.141
REMARK  1 active torsions:
REMARK  status: ('A' for Active; 'I' for Inactive)
REMARK    1  A    between atoms: C3_3  and  C6_6 
ROOT
HETATM    1  C1  UNL     1     -31.927   8.996   1.217  1.00 20.00     0.013 C 
HETATM    2  C2  UNL     1     -32.134   7.816   1.297  1.00 20.00    -0.107 C 
HETATM    3  C5  UNL     1     -33.777   5.916   1.056  1.00 20.00     0.033 A 
HETATM    4  C6  UNL     1     -33.335   5.952   2.494  1.00 20.00     0.030 A 
HETATM    5  C7  UNL     1     -32.384   6.399   1.392  1.00 20.00     0.027 A 
HETATM    6  C10 UNL     1     -31.224   5.531   0.980  1.00 20.00     0.030 C 
ENDROOT
BRANCH   4   7
HETATM    7  C3  UNL     1     -33.126   4.697   3.201  1.00 20.00    -0.018 C 
HETATM    8  C4  UNL     1     -33.898   4.153   4.161  1.00 20.00    -0.091 C 
HETATM    9  C8  UNL     1     -33.540   2.838   4.796  1.00 20.00     0.042 C 
HETATM   10  C9  UNL     1     -35.159   4.787   4.678  1.00 20.00     0.042 C 
ENDBRANCH   4   7
TORSDOF 1
ENDMDL
MODEL 6
REMARK VINA RESULT:       1.1      1.285      1.937
REMARK  1 active torsions:
REMARK  status: ('A' for Active; 'I' for Inactive)
REMARK    1  A    between atoms: C3_3  and  C6_6 
ROOT
HETATM    1  C1  UNL     1     -30.893   8.725  -1.023  1.00 20.00     0.013 C 
HETATM    2  C2  UNL     1     -31.448   8.801   0.038  1.00 20.00    -0.107 C 
HETATM    3  C5  UNL     1     -31.339   8.446   2.534  1.00 20.00     0.033 A 
HETATM    4  C6  UNL     1     -32.442   7.573   2.002  1.00 20.00     0.030 A 
HETATM    5  C7  UNL     1     -32.114   8.891   1.315  1.00 20.00     0.027 A 
HETATM    6  C10 UNL     1     -33.025  10.082   1.461  1.00 20.00     0.030 C 
ENDROOT
BRANCH   4   7
HETATM    7  C3  UNL     1     -33.661   7.418   2.783  1.00 20.00    -0.018 C 
HETATM    8  C4  UNL     1     -34.138   6.295   3.353  1.00 20.00    -0.091 C 
HETATM    9  C8  UNL     1     -35.422   6.304   4.134  1.00 20.00     0.042 C 
HETATM   10  C9  UNL     1     -33.452   4.960   3.270  1.00 20.00     0.042 C 
ENDBRANCH   4   7
TORSDOF 1
ENDMDL
MODEL 7
REMARK VINA RESULT:       1.4      1.702      3.297
REMARK  1 active torsions:
REMARK  status: ('A' for Active; 'I' for Inactive)
REMARK    1  A    between atoms: C3_3  and  C6_6 
ROOT
HETATM    1  C1  UNL     1     -30.847   3.796  -0.015  1.00 20.00     0.013 C 
HETATM    2  C2  UNL     1     -31.649   4.606   0.362  1.00 20.00    -0.107 C 
HETATM    3  C5  UNL     1     -32.086   6.935   1.229  1.00 20.00     0.033 A 
HETATM    4  C6  UNL     1     -32.542   5.966   2.287  1.00 20.00     0.030 A 
HETATM    5  C7  UNL     1     -32.612   5.580   0.816  1.00 20.00     0.027 A 
HETATM    6  C10 UNL     1     -33.935   5.532   0.096  1.00 20.00     0.030 C 
ENDROOT
BRANCH   4   7
HETATM    7  C3  UNL     1     -33.751   6.262   3.042  1.00 20.00    -0.018 C 
HETATM    8  C4  UNL     1     -34.429   5.442   3.867  1.00 20.00    -0.091 C 
HETATM    9  C8  UNL     1     -35.670   5.905   4.578  1.00 20.00     0.042 C 
HETATM   10  C9  UNL     1     -34.023   4.024   4.154  1.00 20.00     0.042 C 
ENDBRANCH   4   7
TORSDOF 1
ENDMDL
