MODEL 1
REMARK VINA RESULT:       1.7      0.000      0.000
REMARK  1 active torsions:
REMARK  status: ('A' for Active; 'I' for Inactive)
REMARK    1  A    between atoms: C8_8  and  C11_11 
ROOT
HETATM    1  C1  UNL     1     -33.543   6.118   1.063  1.00 20.00    -0.081 C 
HETATM    2  C2  UNL     1     -34.297   5.762   0.025  1.00 20.00     0.015 C 
HETATM    3  C3  UNL     1     -31.896   7.640   1.636  1.00 20.00     0.010 C 
HETATM    4  C4  UNL     1     -31.324   6.208   1.692  1.00 20.00     0.010 C 
HETATM    5  C5  UNL     1     -33.747   6.985   3.200  1.00 20.00     0.014 C 
HETATM    6  C6  UNL     1     -33.411   7.431   1.767  1.00 20.00     0.014 C 
HETATM    7  C7  UNL     1     -32.568   5.326   1.881  1.00 20.00     0.018 C 
HETATM    8  C8  UNL     1     -33.139   5.560   3.297  1.00 20.00    -0.002 C 
ENDROOT
BRANCH   8   9
HETATM    9  C11 UNL     1     -34.186   4.521   3.690  1.00 20.00    -0.018 C 
HETATM   10  C9  UNL     1     -33.544   3.384   4.481  1.00 20.00     0.010 C 
HETATM   11  C10 UNL     1     -35.309   5.170   4.499  1.00 20.00     0.010 C 
ENDBRANCH   8   9
TORSDOF 1
ENDMDL
MODEL 2
REMARK VINA RESULT:       2.1      1.256      3.783
REMARK  1 active torsions:
REMARK  status: ('A' for Active; 'I' for Inactive)
REMARK    1  A    between atoms: C8_8  and  C11_11 
ROOT
HETATM    1  C1  UNL     1     -33.772   7.146   4.219  1.00 20.00    -0.081 C 
HETATM    2  C2  UNL     1     -33.149   8.013   5.015  1.00 20.00     0.015 C 
HETATM    3  C3  UNL     1     -35.845   6.158   3.930  1.00 20.00     0.010 C 
HETATM    4  C4  UNL     1     -34.805   5.085   4.311  1.00 20.00     0.010 C 
HETATM    5  C5  UNL     1     -34.411   6.898   2.008  1.00 20.00     0.014 C 
HETATM    6  C6  UNL     1     -34.994   7.307   3.370  1.00 20.00     0.014 C 
HETATM    7  C7  UNL     1     -33.464   5.715   3.901  1.00 20.00     0.018 C 
HETATM    8  C8  UNL     1     -33.391   5.783   2.360  1.00 20.00    -0.002 C 
ENDROOT
BRANCH   8   9
HETATM    9  C11 UNL     1     -31.991   6.111   1.849  1.00 20.00    -0.018 C 
HETATM   10  C9  UNL     1     -31.594   5.161   0.721  1.00 20.00     0.010 C 
HETATM   11  C10 UNL     1     -31.917   7.563   1.378  1.00 20.00     0.010 C 
ENDBRANCH   8   9
TORSDOF 1
ENDMDL
MODEL 3
REMARK VINA RESULT:       2.1      1.193      2.527
REMARK  1 active torsions:
REMARK  status: ('A' for Active; 'I' for Inactive)
REMARK    1  A    between atoms: C8_8  and  C11_11 
ROOT
HETATM    1  C1  UNL     1     -32.361   6.959   1.499  1.00 20.00    -0.081 C 
HETATM    2  C2  UNL     1     -31.874   8.195   1.407  1.00 20.00     0.015 C 
HETATM    3  C3  UNL     1     -31.988   4.827   0.679  1.00 20.00     0.010 C 
HETATM    4  C4  UNL     1     -33.354   5.344   0.182  1.00 20.00     0.010 C 
HETATM    5  C5  UNL     1     -32.659   5.272   3.056  1.00 20.00     0.014 C 
HETATM    6  C6  UNL     1     -31.706   5.682   1.922  1.00 20.00     0.014 C 
HETATM    7  C7  UNL     1     -33.730   6.423   1.210  1.00 20.00     0.018 C 
HETATM    8  C8  UNL     1     -34.052   5.742   2.558  1.00 20.00    -0.002 C 
ENDROOT
BRANCH   8   9
HETATM    9  C11 UNL     1     -34.722   6.687   3.552  1.00 20.00    -0.018 C 
HETATM   10  C9  UNL     1     -35.575   5.904   4.547  1.00 20.00     0.010 C 
HETATM   11  C10 UNL     1     -33.675   7.525   4.286  1.00 20.00     0.010 C 
ENDBRANCH   8   9
TORSDOF 1
ENDMDL
MODEL 4
REMARK VINA RESULT:       2.2      1.334      2.997
REMARK  1 active torsions:
REMARK  status: ('A' for Active; 'I' for Inactive)
REMARK    1  A    between atoms: C8_8  and  C11_11 
ROOT
HETATM    1  C1  UNL     1     -31.889   8.334   2.801  1.00 20.00    -0.081 C 
HETATM    2  C2  UNL     1     -31.346   8.919   3.867  1.00 20.00     0.015 C 
HETATM    3  C3  UNL     1     -31.745   8.344   0.491  1.00 20.00     0.010 C 
HETATM    4  C4  UNL     1     -33.129   8.867   0.929  1.00 20.00     0.010 C 
HETATM    5  C5  UNL     1     -32.092   6.245   1.824  1.00 20.00     0.014 C 
HETATM    6  C6  UNL     1     -31.263   7.534   1.703  1.00 20.00     0.014 C 
HETATM    7  C7  UNL     1     -33.313   8.277   2.337  1.00 20.00     0.018 C 
HETATM    8  C8  UNL     1     -33.505   6.749   2.220  1.00 20.00    -0.002 C 
ENDROOT
BRANCH   8   9
HETATM    9  C11 UNL     1     -33.992   6.115   3.520  1.00 20.00    -0.018 C 
HETATM   10  C9  UNL     1     -35.434   6.522   3.810  1.00 20.00     0.010 C 
HETATM   11  C10 UNL     1     -33.867   4.593   3.455  1.00 20.00     0.010 C 
ENDBRANCH   8   9
TORSDOF 1
ENDMDL
MODEL 5
REMARK VINA RESULT:       2.7      1.246      3.791
REMARK  1 active torsions:
REMARK  status: ('A' for Active; 'I' for Inactive)
REMARK    1  A    between atoms: C8_8  and  C11_11 
ROOT
HETATM    1  C1  UNL     1     -33.948   5.381   3.683  1.00 20.00    -0.081 C 
HETATM    2  C2  UNL     1     -33.484   4.151   3.898  1.00 20.00     0.015 C 
HETATM    3  C3  UNL     1     -35.731   6.742   4.253  1.00 20.00     0.010 C 
HETATM    4  C4  UNL     1     -35.762   6.450   2.739  1.00 20.00     0.010 C 
HETATM    5  C5  UNL     1     -33.377   7.592   4.063  1.00 20.00     0.014 C 
HETATM    6  C6  UNL     1     -34.269   6.483   4.643  1.00 20.00     0.014 C 
HETATM    7  C7  UNL     1     -34.307   6.082   2.409  1.00 20.00     0.018 C 
HETATM    8  C8  UNL     1     -33.429   7.347   2.531  1.00 20.00    -0.002 C 
ENDROOT
BRANCH   8   9
HETATM    9  C11 UNL     1     -32.035   7.158   1.938  1.00 20.00    -0.018 C 
HETATM   10  C9  UNL     1     -31.979   5.888   1.093  1.00 20.00     0.010 C 
HETATM   11  C10 UNL     1     -31.637   8.375   1.103  1.00 20.00     0.010 C 
ENDBRANCH   8   9
TORSDOF 1
ENDMDL
MODEL 6
REMARK VINA RESULT:       2.8      1.313      2.068
REMARK  1 active torsions:
REMARK  status: ('A' for Active; 'I' for Inactive)
REMARK    1  A    between atoms: C8_8  and  C11_11 
ROOT
HETATM    1  C1  UNL     1     -33.450   5.980   0.910  1.00 20.00    -0.081 C 
HETATM    2  C2  UNL     1     -34.450   5.899   0.034  1.00 20.00     0.015 C 
HETATM    3  C3  UNL     1     -31.185   5.535   1.079  1.00 20.00     0.010 C 
HETATM    4  C4  UNL     1     -31.970   4.616   2.038  1.00 20.00     0.010 C 
HETATM    5  C5  UNL     1     -32.255   7.559   2.109  1.00 20.00     0.014 C 
HETATM    6  C6  UNL     1     -32.145   6.708   0.834  1.00 20.00     0.014 C 
HETATM    7  C7  UNL     1     -33.289   5.370   2.269  1.00 20.00     0.018 C 
HETATM    8  C8  UNL     1     -33.003   6.636   3.108  1.00 20.00    -0.002 C 
ENDROOT
BRANCH   8   9
HETATM    9  C11 UNL     1     -34.275   7.288   3.643  1.00 20.00    -0.018 C 
HETATM   10  C9  UNL     1     -35.317   6.229   3.992  1.00 20.00     0.010 C 
HETATM   11  C10 UNL     1     -33.961   8.155   4.862  1.00 20.00     0.010 C 
ENDBRANCH   8   9
TORSDOF 1
ENDMDL
MODEL 7
REMARK VINA RESULT:       2.9      1.141      2.535
REMARK  1 active torsions:
REMARK  status: ('A' for Active; 'I' for Inactive)
REMARK    1  A    between atoms: C8_8  and  C11_11 
ROOT
HETATM    1  C1  UNL     1     -32.310   6.755   1.813  1.00 20.00    -0.081 C 
HETATM    2  C2  UNL     1     -31.835   7.988   1.978  1.00 20.00     0.015 C 
HETATM    3  C3  UNL     1     -32.009   4.890   0.475  1.00 20.00     0.010 C 
HETATM    4  C4  UNL     1     -33.414   5.480   0.238  1.00 20.00     0.010 C 
HETATM    5  C5  UNL     1     -32.466   4.738   2.939  1.00 20.00     0.014 C 
HETATM    6  C6  UNL     1     -31.618   5.429   1.859  1.00 20.00     0.014 C 
HETATM    7  C7  UNL     1     -33.699   6.273   1.523  1.00 20.00     0.018 C 
HETATM    8  C8  UNL     1     -33.898   5.282   2.691  1.00 20.00    -0.002 C 
ENDROOT
BRANCH   8   9
HETATM    9  C11 UNL     1     -34.478   5.947   3.936  1.00 20.00    -0.018 C 
HETATM   10  C9  UNL     1     -35.579   6.933   3.556  1.00 20.00     0.010 C 
HETATM   11  C10 UNL     1     -35.012   4.895   4.907  1.00 20.00     0.010 C 
ENDBRANCH   8   9
TORSDOF 1
ENDMDL
MODEL 8
REMARK VINA RESULT:       3.0      1.297      4.155
REMARK  1 active torsions:
REMARK  status: ('A' for Active; 'I' for Inactive)
REMARK    1  A    between atoms: C8_8  and  C11_11 
ROOT
HETATM    1  C1  UNL     1     -33.515   6.020   1.011  1.00 20.00    -0.081 C 
HETATM    2  C2  UNL     1     -34.117   5.516  -0.065  1.00 20.00     0.015 C 
HETATM    3  C3  UNL     1     -32.897   5.417   3.159  1.00 20.00     0.010 C 
HETATM    4  C4  UNL     1     -33.965   6.529   3.216  1.00 20.00     0.010 C 
HETATM    5  C5  UNL     1     -31.458   6.845   1.680  1.00 20.00     0.014 C 
HETATM    6  C6  UNL     1     -32.299   5.560   1.753  1.00 20.00     0.014 C 
HETATM    7  C7  UNL     1     -33.849   7.217   1.847  1.00 20.00     0.018 C 
HETATM    8  C8  UNL     1     -32.509   7.983   1.782  1.00 20.00    -0.002 C 
ENDROOT
BRANCH   8   9
HETATM    9  C11 UNL     1     -32.431   8.937   0.594  1.00 20.00    -0.018 C 
HETATM   10  C9  UNL     1     -32.761  10.364   1.028  1.00 20.00     0.010 C 
HETATM   11  C10 UNL     1     -31.048   8.880  -0.052  1.00 20.00     0.010 C 
ENDBRANCH   8   9
TORSDOF 1
ENDMDL
MODEL 9
REMARK VINA RESULT:       3.1      1.564      4.203
REMARK  1 active torsions:
REMARK  status: ('A' for Active; 'I' for Inactive)
REMARK    1  A    between atoms: C8_8  and  C11_11 
ROOT
HETATM    1  C1  UNL     1     -33.563   7.533   4.502  1.00 20.00    -0.081 C 
HETATM    2  C2  UNL     1     -32.997   8.101   5.565  1.00 20.00     0.015 C 
HETATM    3  C3  UNL     1     -35.369   6.200   3.938  1.00 20.00     0.010 C 
HETATM    4  C4  UNL     1     -34.055   5.440   3.664  1.00 20.00     0.010 C 
HETATM    5  C5  UNL     1     -34.589   8.109   2.508  1.00 20.00     0.014 C 
HETATM    6  C6  UNL     1     -34.943   7.674   3.939  1.00 20.00     0.014 C 
HETATM    7  C7  UNL     1     -33.013   6.558   3.505  1.00 20.00     0.018 C 
HETATM    8  C8  UNL     1     -33.291   7.320   2.190  1.00 20.00    -0.002 C 
ENDROOT
BRANCH   8   9
HETATM    9  C11 UNL     1     -32.145   8.247   1.792  1.00 20.00    -0.018 C 
HETATM   10  C9  UNL     1     -30.939   7.438   1.320  1.00 20.00     0.010 C 
HETATM   11  C10 UNL     1     -32.595   9.222   0.705  1.00 20.00     0.010 C 
ENDBRANCH   8   9
TORSDOF 1
ENDMDL
