MODEL 1
REMARK VINA RESULT:      -2.2      0.000      0.000
REMARK  0 active torsions:
REMARK  status: ('A' for Active; 'I' for Inactive)
ROOT
HETATM    1  C1  UNL     1     -33.299   5.310   3.137  1.00 20.00    -0.007 A 
HETATM    2  C2  UNL     1     -33.875   4.461   4.002  1.00 20.00    -0.014 A 
HETATM    3  C3  UNL     1     -35.142   5.058   4.557  1.00 20.00     0.051 A 
HETATM    4  C4  UNL     1     -34.249   7.506   4.116  1.00 20.00     0.014 A 
HETATM    5  C5  UNL     1     -34.053   6.562   2.964  1.00 20.00     0.014 A 
HETATM    6  C6  UNL     1     -35.256   6.412   3.881  1.00 20.00    -0.002 A 
HETATM    7 BR7  UNL     1     -33.305   2.801   4.529  1.00 20.00    -0.056 Br
ENDROOT
TORSDOF 0
ENDMDL
MODEL 2
REMARK VINA RESULT:      -2.2      2.484      3.340
REMARK  0 active torsions:
REMARK  status: ('A' for Active; 'I' for Inactive)
ROOT
HETATM    1  C1  UNL     1     -33.099   7.947   3.470  1.00 20.00    -0.007 A 
HETATM    2  C2  UNL     1     -33.763   6.824   3.158  1.00 20.00    -0.014 A 
HETATM    3  C3  UNL     1     -33.153   6.175   1.941  1.00 20.00     0.051 A 
HETATM    4  C4  UNL     1     -32.210   8.499   1.105  1.00 20.00     0.014 A 
HETATM    5  C5  UNL     1     -31.973   8.226   2.564  1.00 20.00     0.014 A 
HETATM    6  C6  UNL     1     -31.994   7.081   1.565  1.00 20.00    -0.002 A 
HETATM    7 BR7  UNL     1     -35.218   6.085   3.991  1.00 20.00    -0.056 Br
ENDROOT
TORSDOF 0
ENDMDL
MODEL 3
REMARK VINA RESULT:      -1.9      2.649      3.229
REMARK  0 active torsions:
REMARK  status: ('A' for Active; 'I' for Inactive)
ROOT
HETATM    1  C1  UNL     1     -33.337   6.107   2.450  1.00 20.00    -0.007 A 
HETATM    2  C2  UNL     1     -32.936   7.385   2.526  1.00 20.00    -0.014 A 
HETATM    3  C3  UNL     1     -33.533   8.051   3.738  1.00 20.00     0.051 A 
HETATM    4  C4  UNL     1     -35.567   6.362   3.734  1.00 20.00     0.014 A 
HETATM    5  C5  UNL     1     -34.224   5.711   3.556  1.00 20.00     0.014 A 
HETATM    6  C6  UNL     1     -34.360   6.965   4.403  1.00 20.00    -0.002 A 
HETATM    7 BR7  UNL     1     -31.840   8.310   1.386  1.00 20.00    -0.056 Br
ENDROOT
TORSDOF 0
ENDMDL
MODEL 4
REMARK VINA RESULT:      -1.3      1.801      2.393
REMARK  0 active torsions:
REMARK  status: ('A' for Active; 'I' for Inactive)
ROOT
HETATM    1  C1  UNL     1     -32.929   5.742   1.910  1.00 20.00    -0.007 A 
HETATM    2  C2  UNL     1     -33.579   5.765   3.084  1.00 20.00    -0.014 A 
HETATM    3  C3  UNL     1     -33.759   7.186   3.554  1.00 20.00     0.051 A 
HETATM    4  C4  UNL     1     -31.648   7.972   2.172  1.00 20.00     0.014 A 
HETATM    5  C5  UNL     1     -32.588   7.082   1.408  1.00 20.00     0.014 A 
HETATM    6  C6  UNL     1     -33.123   8.033   2.466  1.00 20.00    -0.002 A 
HETATM    7 BR7  UNL     1     -34.195   4.357   4.081  1.00 20.00    -0.056 Br
ENDROOT
TORSDOF 0
ENDMDL
MODEL 5
REMARK VINA RESULT:      -1.1      1.986      2.422
REMARK  0 active torsions:
REMARK  status: ('A' for Active; 'I' for Inactive)
ROOT
HETATM    1  C1  UNL     1     -32.876   7.649   2.388  1.00 20.00    -0.007 A 
HETATM    2  C2  UNL     1     -33.041   6.326   2.239  1.00 20.00    -0.014 A 
HETATM    3  C3  UNL     1     -34.067   5.813   3.216  1.00 20.00     0.051 A 
HETATM    4  C4  UNL     1     -33.575   7.813   4.871  1.00 20.00     0.014 A 
HETATM    5  C5  UNL     1     -33.733   8.227   3.435  1.00 20.00     0.014 A 
HETATM    6  C6  UNL     1     -34.515   7.044   3.982  1.00 20.00    -0.002 A 
HETATM    7 BR7  UNL     1     -32.198   5.191   1.073  1.00 20.00    -0.056 Br
ENDROOT
TORSDOF 0
ENDMDL
MODEL 6
REMARK VINA RESULT:      -1.0      2.693      3.743
REMARK  0 active torsions:
REMARK  status: ('A' for Active; 'I' for Inactive)
ROOT
HETATM    1  C1  UNL     1     -33.758   6.144   2.847  1.00 20.00    -0.007 A 
HETATM    2  C2  UNL     1     -33.266   7.301   3.315  1.00 20.00    -0.014 A 
HETATM    3  C3  UNL     1     -32.245   7.861   2.358  1.00 20.00     0.051 A 
HETATM    4  C4  UNL     1     -31.720   5.448   1.415  1.00 20.00     0.014 A 
HETATM    5  C5  UNL     1     -33.186   5.753   1.548  1.00 20.00     0.014 A 
HETATM    6  C6  UNL     1     -32.201   6.861   1.216  1.00 20.00    -0.002 A 
HETATM    7 BR7  UNL     1     -33.674   8.172   4.874  1.00 20.00    -0.056 Br
ENDROOT
TORSDOF 0
ENDMDL
MODEL 7
REMARK VINA RESULT:      -1.0      1.920      2.566
REMARK  0 active torsions:
REMARK  status: ('A' for Active; 'I' for Inactive)
ROOT
HETATM    1  C1  UNL     1     -33.755   5.021   3.121  1.00 20.00    -0.007 A 
HETATM    2  C2  UNL     1     -33.074   5.872   2.338  1.00 20.00    -0.014 A 
HETATM    3  C3  UNL     1     -33.334   7.295   2.759  1.00 20.00     0.051 A 
HETATM    4  C4  UNL     1     -35.670   6.621   3.797  1.00 20.00     0.014 A 
HETATM    5  C5  UNL     1     -34.543   5.697   4.164  1.00 20.00     0.014 A 
HETATM    6  C6  UNL     1     -34.279   7.177   3.942  1.00 20.00    -0.002 A 
HETATM    7 BR7  UNL     1     -31.973   5.493   0.923  1.00 20.00    -0.056 Br
ENDROOT
TORSDOF 0
ENDMDL
MODEL 8
REMARK VINA RESULT:      -0.9      2.538      3.319
REMARK  0 active torsions:
REMARK  status: ('A' for Active; 'I' for Inactive)
ROOT
HETATM    1  C1  UNL     1     -33.954   7.416   3.540  1.00 20.00    -0.007 A 
HETATM    2  C2  UNL     1     -33.042   7.194   2.582  1.00 20.00    -0.014 A 
HETATM    3  C3  UNL     1     -33.145   5.777   2.079  1.00 20.00     0.051 A 
HETATM    4  C4  UNL     1     -34.193   4.980   4.371  1.00 20.00     0.014 A 
HETATM    5  C5  UNL     1     -34.796   6.243   3.824  1.00 20.00     0.014 A 
HETATM    6  C6  UNL     1     -34.282   5.168   2.880  1.00 20.00    -0.002 A 
HETATM    7 BR7  UNL     1     -31.789   8.346   1.904  1.00 20.00    -0.056 Br
ENDROOT
TORSDOF 0
ENDMDL
MODEL 9
REMARK VINA RESULT:      -0.2      3.898      4.700
REMARK  0 active torsions:
REMARK  status: ('A' for Active; 'I' for Inactive)
ROOT
HETATM    1  C1  UNL     1     -31.606   7.559   0.901  1.00 20.00    -0.007 A 
HETATM    2  C2  UNL     1     -32.401   8.591   1.219  1.00 20.00    -0.014 A 
HETATM    3  C3  UNL     1     -33.319   8.215   2.354  1.00 20.00     0.051 A 
HETATM    4  C4  UNL     1     -33.157   5.656   1.712  1.00 20.00     0.014 A 
HETATM    5  C5  UNL     1     -31.835   6.370   1.738  1.00 20.00     0.014 A 
HETATM    6  C6  UNL     1     -32.946   6.782   2.689  1.00 20.00    -0.002 A 
HETATM    7 BR7  UNL     1     -32.475  10.256   0.458  1.00 20.00    -0.056 Br
ENDROOT
TORSDOF 0
ENDMDL
