MODEL 1
REMARK VINA RESULT:       2.4      0.000      0.000
REMARK  0 active torsions:
REMARK  status: ('A' for Active; 'I' for Inactive)
ROOT
HETATM    1  C1  UNL     1     -31.117   6.855   1.998  1.00 20.00     0.005 C 
HETATM    2  C2  UNL     1     -32.917   8.284   1.013  1.00 20.00     0.005 C 
HETATM    3  C3  UNL     1     -31.891   5.596   1.582  1.00 20.00     0.011 C 
HETATM    4  C4  UNL     1     -33.690   7.023   0.599  1.00 20.00     0.011 C 
HETATM    5  C5  UNL     1     -33.047   7.588   3.414  1.00 20.00     0.084 C 
HETATM    6  C6  UNL     1     -32.090   8.013   2.284  1.00 20.00    -0.009 C 
HETATM    7  C7  UNL     1     -33.403   5.878   1.586  1.00 20.00     0.058 C 
HETATM    8  C8  UNL     1     -33.811   6.333   2.991  1.00 20.00     0.247 C 
HETATM    9  F9  UNL     1     -33.581   5.335   3.882  1.00 20.00    -0.206 F 
HETATM   10  F10 UNL     1     -35.145   6.575   3.028  1.00 20.00    -0.206 F 
ENDROOT
TORSDOF 0
ENDMDL
MODEL 2
REMARK VINA RESULT:       2.5      1.086      2.674
REMARK  0 active torsions:
REMARK  status: ('A' for Active; 'I' for Inactive)
ROOT
HETATM    1  C1  UNL     1     -33.608   6.611   0.530  1.00 20.00     0.005 C 
HETATM    2  C2  UNL     1     -31.589   5.788   1.753  1.00 20.00     0.005 C 
HETATM    3  C3  UNL     1     -33.181   8.061   0.803  1.00 20.00     0.011 C 
HETATM    4  C4  UNL     1     -31.164   7.240   2.025  1.00 20.00     0.011 C 
HETATM    5  C5  UNL     1     -33.730   6.172   2.991  1.00 20.00     0.084 C 
HETATM    6  C6  UNL     1     -33.122   5.687   1.661  1.00 20.00    -0.009 C 
HETATM    7  C7  UNL     1     -32.404   8.144   2.127  1.00 20.00     0.058 C 
HETATM    8  C8  UNL     1     -33.301   7.616   3.253  1.00 20.00     0.247 C 
HETATM    9  F9  UNL     1     -34.398   8.405   3.374  1.00 20.00    -0.206 F 
HETATM   10  F10 UNL     1     -32.646   7.691   4.438  1.00 20.00    -0.206 F 
ENDROOT
TORSDOF 0
ENDMDL
MODEL 3
REMARK VINA RESULT:       2.6      1.958      2.829
REMARK  0 active torsions:
REMARK  status: ('A' for Active; 'I' for Inactive)
ROOT
HETATM    1  C1  UNL     1     -33.084   5.155   3.079  1.00 20.00     0.005 C 
HETATM    2  C2  UNL     1     -33.315   5.353   0.597  1.00 20.00     0.005 C 
HETATM    3  C3  UNL     1     -33.885   6.454   3.255  1.00 20.00     0.011 C 
HETATM    4  C4  UNL     1     -34.116   6.651   0.777  1.00 20.00     0.011 C 
HETATM    5  C5  UNL     1     -31.354   6.389   1.757  1.00 20.00     0.084 C 
HETATM    6  C6  UNL     1     -32.309   5.180   1.750  1.00 20.00    -0.009 C 
HETATM    7  C7  UNL     1     -33.660   7.383   2.051  1.00 20.00     0.058 C 
HETATM    8  C8  UNL     1     -32.161   7.676   1.935  1.00 20.00     0.247 C 
HETATM    9  F9  UNL     1     -31.733   8.334   3.042  1.00 20.00    -0.206 F 
HETATM   10  F10 UNL     1     -31.933   8.507   0.887  1.00 20.00    -0.206 F 
ENDROOT
TORSDOF 0
ENDMDL
MODEL 4
REMARK VINA RESULT:       2.6      2.247      3.263
REMARK  0 active torsions:
REMARK  status: ('A' for Active; 'I' for Inactive)
ROOT
HETATM    1  C1  UNL     1     -31.980   5.854   1.457  1.00 20.00     0.005 C 
HETATM    2  C2  UNL     1     -33.754   6.972   2.819  1.00 20.00     0.005 C 
HETATM    3  C3  UNL     1     -30.959   6.897   1.934  1.00 20.00     0.011 C 
HETATM    4  C4  UNL     1     -32.730   8.014   3.294  1.00 20.00     0.011 C 
HETATM    5  C5  UNL     1     -33.376   7.668   0.445  1.00 20.00     0.084 C 
HETATM    6  C6  UNL     1     -33.391   6.468   1.410  1.00 20.00    -0.009 C 
HETATM    7  C7  UNL     1     -31.660   8.237   2.212  1.00 20.00     0.058 C 
HETATM    8  C8  UNL     1     -32.355   8.699   0.927  1.00 20.00     0.247 C 
HETATM    9  F9  UNL     1     -31.431   8.917  -0.043  1.00 20.00    -0.206 F 
HETATM   10  F10 UNL     1     -32.971   9.889   1.138  1.00 20.00    -0.206 F 
ENDROOT
TORSDOF 0
ENDMDL
MODEL 5
REMARK VINA RESULT:       2.7      1.575      2.358
REMARK  0 active torsions:
REMARK  status: ('A' for Active; 'I' for Inactive)
ROOT
HETATM    1  C1  UNL     1     -32.337   8.013   4.135  1.00 20.00     0.005 C 
HETATM    2  C2  UNL     1     -34.163   8.716   2.578  1.00 20.00     0.005 C 
HETATM    3  C3  UNL     1     -31.333   8.055   2.974  1.00 20.00     0.011 C 
HETATM    4  C4  UNL     1     -33.156   8.757   1.418  1.00 20.00     0.011 C 
HETATM    5  C5  UNL     1     -33.683   6.285   2.924  1.00 20.00     0.084 C 
HETATM    6  C6  UNL     1     -33.742   7.659   3.616  1.00 20.00    -0.009 C 
HETATM    7  C7  UNL     1     -32.040   7.723   1.650  1.00 20.00     0.058 C 
HETATM    8  C8  UNL     1     -32.679   6.336   1.771  1.00 20.00     0.247 C 
HETATM    9  F9  UNL     1     -31.714   5.400   1.963  1.00 20.00    -0.206 F 
HETATM   10  F10 UNL     1     -33.299   6.010   0.610  1.00 20.00    -0.206 F 
ENDROOT
TORSDOF 0
ENDMDL
MODEL 6
REMARK VINA RESULT:       2.8      1.928      3.097
REMARK  0 active torsions:
REMARK  status: ('A' for Active; 'I' for Inactive)
ROOT
HETATM    1  C1  UNL     1     -34.874   6.519   2.163  1.00 20.00     0.005 C 
HETATM    2  C2  UNL     1     -33.069   5.258   3.347  1.00 20.00     0.005 C 
HETATM    3  C3  UNL     1     -34.047   6.485   0.869  1.00 20.00     0.011 C 
HETATM    4  C4  UNL     1     -32.244   5.226   2.051  1.00 20.00     0.011 C 
HETATM    5  C5  UNL     1     -33.035   7.760   3.320  1.00 20.00     0.084 C 
HETATM    6  C6  UNL     1     -33.948   6.521   3.392  1.00 20.00    -0.009 C 
HETATM    7  C7  UNL     1     -32.546   6.471   1.201  1.00 20.00     0.058 C 
HETATM    8  C8  UNL     1     -32.217   7.718   2.028  1.00 20.00     0.247 C 
HETATM    9  F9  UNL     1     -32.462   8.834   1.296  1.00 20.00    -0.206 F 
HETATM   10  F10 UNL     1     -30.894   7.741   2.324  1.00 20.00    -0.206 F 
ENDROOT
TORSDOF 0
ENDMDL
MODEL 7
REMARK VINA RESULT:       2.9      1.969      3.167
REMARK  0 active torsions:
REMARK  status: ('A' for Active; 'I' for Inactive)
ROOT
HETATM    1  C1  UNL     1     -35.028   5.222   4.058  1.00 20.00     0.005 C 
HETATM    2  C2  UNL     1     -34.480   7.647   4.315  1.00 20.00     0.005 C 
HETATM    3  C3  UNL     1     -33.530   4.892   3.990  1.00 20.00     0.011 C 
HETATM    4  C4  UNL     1     -32.982   7.314   4.247  1.00 20.00     0.011 C 
HETATM    5  C5  UNL     1     -34.810   6.676   2.032  1.00 20.00     0.084 C 
HETATM    6  C6  UNL     1     -35.293   6.629   3.494  1.00 20.00    -0.009 C 
HETATM    7  C7  UNL     1     -32.756   6.068   3.374  1.00 20.00     0.058 C 
HETATM    8  C8  UNL     1     -33.319   6.344   1.976  1.00 20.00     0.247 C 
HETATM    9  F9  UNL     1     -33.120   5.264   1.179  1.00 20.00    -0.206 F 
HETATM   10  F10 UNL     1     -32.644   7.370   1.401  1.00 20.00    -0.206 F 
ENDROOT
TORSDOF 0
ENDMDL
MODEL 8
REMARK VINA RESULT:       2.9      2.425      3.339
REMARK  0 active torsions:
REMARK  status: ('A' for Active; 'I' for Inactive)
ROOT
HETATM    1  C1  UNL     1     -33.259   6.459   2.320  1.00 20.00     0.005 C 
HETATM    2  C2  UNL     1     -32.315   8.206   3.839  1.00 20.00     0.005 C 
HETATM    3  C3  UNL     1     -32.041   6.606   1.397  1.00 20.00     0.011 C 
HETATM    4  C4  UNL     1     -31.097   8.351   2.914  1.00 20.00     0.011 C 
HETATM    5  C5  UNL     1     -33.833   8.870   1.963  1.00 20.00     0.084 C 
HETATM    6  C6  UNL     1     -33.557   7.792   3.030  1.00 20.00    -0.009 C 
HETATM    7  C7  UNL     1     -31.497   8.043   1.461  1.00 20.00     0.058 C 
HETATM    8  C8  UNL     1     -32.615   9.006   1.049  1.00 20.00     0.247 C 
HETATM    9  F9  UNL     1     -32.979   8.766  -0.236  1.00 20.00    -0.206 F 
HETATM   10  F10 UNL     1     -32.160  10.283   1.082  1.00 20.00    -0.206 F 
ENDROOT
TORSDOF 0
ENDMDL
MODEL 9
REMARK VINA RESULT:       2.9      1.331      2.510
REMARK  0 active torsions:
REMARK  status: ('A' for Active; 'I' for Inactive)
ROOT
HETATM    1  C1  UNL     1     -31.982   8.742   0.939  1.00 20.00     0.005 C 
HETATM    2  C2  UNL     1     -31.654   8.177   3.352  1.00 20.00     0.005 C 
HETATM    3  C3  UNL     1     -33.487   8.472   1.082  1.00 20.00     0.011 C 
HETATM    4  C4  UNL     1     -33.160   7.908   3.492  1.00 20.00     0.011 C 
HETATM    5  C5  UNL     1     -31.485   6.384   1.615  1.00 20.00     0.084 C 
HETATM    6  C6  UNL     1     -31.185   7.863   1.920  1.00 20.00    -0.009 C 
HETATM    7  C7  UNL     1     -33.734   7.402   2.158  1.00 20.00     0.058 C 
HETATM    8  C8  UNL     1     -32.985   6.126   1.758  1.00 20.00     0.247 C 
HETATM    9  F9  UNL     1     -33.481   5.650   0.588  1.00 20.00    -0.206 F 
HETATM   10  F10 UNL     1     -33.197   5.158   2.683  1.00 20.00    -0.206 F 
ENDROOT
TORSDOF 0
ENDMDL
