MODEL 1
REMARK VINA RESULT:      -1.6      0.000      0.000
REMARK  0 active torsions:
REMARK  status: ('A' for Active; 'I' for Inactive)
ROOT
HETATM    1  C1  UNL     1     -32.333   9.806   0.120  1.00 20.00     0.013 C 
HETATM    2  C2  UNL     1     -32.385   8.922   0.932  1.00 20.00    -0.106 C 
HETATM    3  C3  UNL     1     -32.011   8.193   3.319  1.00 20.00     0.041 A 
HETATM    4  C4  UNL     1     -33.474   8.034   3.015  1.00 20.00     0.079 A 
HETATM    5  C5  UNL     1     -32.446   7.862   1.908  1.00 20.00     0.033 A 
HETATM    6  C6  UNL     1     -32.094   6.501   1.369  1.00 20.00     0.030 C 
HETATM    7 BR7  UNL     1     -34.396   6.535   3.757  1.00 20.00    -0.089 Br
ENDROOT
TORSDOF 0
ENDMDL
MODEL 2
REMARK VINA RESULT:      -1.0      2.194      3.499
REMARK  0 active torsions:
REMARK  status: ('A' for Active; 'I' for Inactive)
ROOT
HETATM    1  C1  UNL     1     -34.676   6.565   3.898  1.00 20.00     0.013 C 
HETATM    2  C2  UNL     1     -33.771   7.135   3.352  1.00 20.00    -0.106 C 
HETATM    3  C3  UNL     1     -31.928   7.056   1.629  1.00 20.00     0.041 A 
HETATM    4  C4  UNL     1     -32.890   8.135   1.221  1.00 20.00     0.079 A 
HETATM    5  C5  UNL     1     -32.685   7.820   2.694  1.00 20.00     0.033 A 
HETATM    6  C6  UNL     1     -31.897   8.737   3.590  1.00 20.00     0.030 C 
HETATM    7 BR7  UNL     1     -32.186   9.728   0.438  1.00 20.00    -0.089 Br
ENDROOT
TORSDOF 0
ENDMDL
MODEL 3
REMARK VINA RESULT:      -0.9      3.077      4.459
REMARK  0 active torsions:
REMARK  status: ('A' for Active; 'I' for Inactive)
ROOT
HETATM    1  C1  UNL     1     -33.560   3.089   4.539  1.00 20.00     0.013 C 
HETATM    2  C2  UNL     1     -33.776   4.167   4.056  1.00 20.00    -0.106 C 
HETATM    3  C3  UNL     1     -35.411   6.055   3.693  1.00 20.00     0.041 A 
HETATM    4  C4  UNL     1     -34.241   6.604   4.459  1.00 20.00     0.079 A 
HETATM    5  C5  UNL     1     -34.036   5.462   3.476  1.00 20.00     0.033 A 
HETATM    6  C6  UNL     1     -33.381   5.685   2.139  1.00 20.00     0.030 C 
HETATM    7 BR7  UNL     1     -33.648   8.375   4.062  1.00 20.00    -0.089 Br
ENDROOT
TORSDOF 0
ENDMDL
MODEL 4
REMARK VINA RESULT:      -0.8      2.116      3.252
REMARK  0 active torsions:
REMARK  status: ('A' for Active; 'I' for Inactive)
ROOT
HETATM    1  C1  UNL     1     -32.358   5.013   1.121  1.00 20.00     0.013 C 
HETATM    2  C2  UNL     1     -32.381   6.164   1.461  1.00 20.00    -0.106 C 
HETATM    3  C3  UNL     1     -31.077   8.256   2.002  1.00 20.00     0.041 A 
HETATM    4  C4  UNL     1     -31.961   8.560   0.826  1.00 20.00     0.079 A 
HETATM    5  C5  UNL     1     -32.407   7.547   1.870  1.00 20.00     0.033 A 
HETATM    6  C6  UNL     1     -33.478   7.877   2.875  1.00 20.00     0.030 C 
HETATM    7 BR7  UNL     1     -32.760  10.291   0.715  1.00 20.00    -0.089 Br
ENDROOT
TORSDOF 0
ENDMDL
MODEL 5
REMARK VINA RESULT:      -0.7      2.766      4.082
REMARK  0 active torsions:
REMARK  status: ('A' for Active; 'I' for Inactive)
ROOT
HETATM    1  C1  UNL     1     -33.778   3.614   4.455  1.00 20.00     0.013 C 
HETATM    2  C2  UNL     1     -33.743   4.605   3.777  1.00 20.00    -0.106 C 
HETATM    3  C3  UNL     1     -34.750   6.853   3.230  1.00 20.00     0.041 A 
HETATM    4  C4  UNL     1     -33.336   7.083   3.684  1.00 20.00     0.079 A 
HETATM    5  C5  UNL     1     -33.702   5.795   2.963  1.00 20.00     0.033 A 
HETATM    6  C6  UNL     1     -33.299   5.555   1.533  1.00 20.00     0.030 C 
HETATM    7 BR7  UNL     1     -32.318   8.450   2.822  1.00 20.00    -0.089 Br
ENDROOT
TORSDOF 0
ENDMDL
MODEL 6
REMARK VINA RESULT:      -0.6      1.666      2.666
REMARK  0 active torsions:
REMARK  status: ('A' for Active; 'I' for Inactive)
ROOT
HETATM    1  C1  UNL     1     -32.035   8.281   1.677  1.00 20.00     0.013 C 
HETATM    2  C2  UNL     1     -32.762   7.791   2.498  1.00 20.00    -0.106 C 
HETATM    3  C3  UNL     1     -35.066   6.933   3.066  1.00 20.00     0.041 A 
HETATM    4  C4  UNL     1     -34.106   5.785   3.195  1.00 20.00     0.079 A 
HETATM    5  C5  UNL     1     -33.637   7.202   3.482  1.00 20.00     0.033 A 
HETATM    6  C6  UNL     1     -33.396   7.679   4.889  1.00 20.00     0.030 C 
HETATM    7 BR7  UNL     1     -34.383   4.525   4.603  1.00 20.00    -0.089 Br
ENDROOT
TORSDOF 0
ENDMDL
MODEL 7
REMARK VINA RESULT:      -0.2      1.803      2.800
REMARK  0 active torsions:
REMARK  status: ('A' for Active; 'I' for Inactive)
ROOT
HETATM    1  C1  UNL     1     -31.594   8.254   1.908  1.00 20.00     0.013 C 
HETATM    2  C2  UNL     1     -32.421   7.461   2.268  1.00 20.00    -0.106 C 
HETATM    3  C3  UNL     1     -33.877   5.484   1.684  1.00 20.00     0.041 A 
HETATM    4  C4  UNL     1     -32.955   5.062   2.792  1.00 20.00     0.079 A 
HETATM    5  C5  UNL     1     -33.415   6.508   2.697  1.00 20.00     0.033 A 
HETATM    6  C6  UNL     1     -34.443   7.068   3.645  1.00 20.00     0.030 C 
HETATM    7 BR7  UNL     1     -33.632   3.889   4.138  1.00 20.00    -0.089 Br
ENDROOT
TORSDOF 0
ENDMDL
MODEL 8
REMARK VINA RESULT:       0.1      2.970      3.771
REMARK  0 active torsions:
REMARK  status: ('A' for Active; 'I' for Inactive)
ROOT
HETATM    1  C1  UNL     1     -33.505   8.481   4.261  1.00 20.00     0.013 C 
HETATM    2  C2  UNL     1     -33.845   7.357   4.011  1.00 20.00    -0.106 C 
HETATM    3  C3  UNL     1     -33.765   5.410   2.407  1.00 20.00     0.041 A 
HETATM    4  C4  UNL     1     -33.148   4.961   3.702  1.00 20.00     0.079 A 
HETATM    5  C5  UNL     1     -34.253   6.006   3.709  1.00 20.00     0.033 A 
HETATM    6  C6  UNL     1     -35.651   5.667   4.153  1.00 20.00     0.030 C 
HETATM    7 BR7  UNL     1     -33.469   3.172   4.286  1.00 20.00    -0.089 Br
ENDROOT
TORSDOF 0
ENDMDL
MODEL 9
REMARK VINA RESULT:       0.3      2.295      3.739
REMARK  0 active torsions:
REMARK  status: ('A' for Active; 'I' for Inactive)
ROOT
HETATM    1  C1  UNL     1     -35.987   6.201   3.849  1.00 20.00     0.013 C 
HETATM    2  C2  UNL     1     -34.896   6.599   3.543  1.00 20.00    -0.106 C 
HETATM    3  C3  UNL     1     -32.684   6.117   2.428  1.00 20.00     0.041 A 
HETATM    4  C4  UNL     1     -33.333   7.250   1.685  1.00 20.00     0.079 A 
HETATM    5  C5  UNL     1     -33.585   7.076   3.174  1.00 20.00     0.033 A 
HETATM    6  C6  UNL     1     -32.949   7.988   4.190  1.00 20.00     0.030 C 
HETATM    7 BR7  UNL     1     -32.222   8.655   1.022  1.00 20.00    -0.089 Br
ENDROOT
TORSDOF 0
ENDMDL
