MODEL 1
REMARK VINA RESULT:      -1.0      0.000      0.000
REMARK  1 active torsions:
REMARK  status: ('A' for Active; 'I' for Inactive)
REMARK    1  A    between atoms: C5_5  and  C7_7 
ROOT
HETATM    1  C1  UNL     1     -34.617   5.308   4.085  1.00 20.00     0.001 C 
HETATM    2  C2  UNL     1     -35.591   6.458   3.830  1.00 20.00     0.001 C 
HETATM    3  C3  UNL     1     -33.298   5.715   3.432  1.00 20.00     0.018 C 
HETATM    4  C4  UNL     1     -34.815   7.507   3.037  1.00 20.00     0.018 C 
HETATM    5  C5  UNL     1     -33.339   7.248   3.372  1.00 20.00     0.054 C 
HETATM    6  C6  UNL     1     -32.956   7.870   4.724  1.00 20.00     0.024 C 
ENDROOT
BRANCH   5   7
HETATM    7  C7  UNL     1     -32.411   7.794   2.285  1.00 20.00     0.395 C 
HETATM    8  F8  UNL     1     -31.353   8.385   2.852  1.00 20.00    -0.170 F 
HETATM    9  F9  UNL     1     -31.992   6.791   1.504  1.00 20.00    -0.170 F 
HETATM   10  F10 UNL     1     -33.070   8.690   1.540  1.00 20.00    -0.170 F 
ENDBRANCH   5   7
TORSDOF 1
ENDMDL
MODEL 2
REMARK VINA RESULT:      -0.9      1.044      2.286
REMARK  1 active torsions:
REMARK  status: ('A' for Active; 'I' for Inactive)
REMARK    1  A    between atoms: C5_5  and  C7_7 
ROOT
HETATM    1  C1  UNL     1     -35.064   6.204   3.932  1.00 20.00     0.001 C 
HETATM    2  C2  UNL     1     -34.196   4.960   3.752  1.00 20.00     0.001 C 
HETATM    3  C3  UNL     1     -34.282   7.362   3.318  1.00 20.00     0.018 C 
HETATM    4  C4  UNL     1     -32.930   5.424   3.036  1.00 20.00     0.018 C 
HETATM    5  C5  UNL     1     -33.336   6.710   2.302  1.00 20.00     0.054 C 
HETATM    6  C6  UNL     1     -34.062   6.394   0.984  1.00 20.00     0.024 C 
ENDROOT
BRANCH   5   7
HETATM    7  C7  UNL     1     -32.124   7.597   2.009  1.00 20.00     0.395 C 
HETATM    8  F8  UNL     1     -32.439   8.491   1.063  1.00 20.00    -0.170 F 
HETATM    9  F9  UNL     1     -31.759   8.242   3.123  1.00 20.00    -0.170 F 
HETATM   10  F10 UNL     1     -31.106   6.842   1.581  1.00 20.00    -0.170 F 
ENDBRANCH   5   7
TORSDOF 1
ENDMDL
MODEL 3
REMARK VINA RESULT:      -0.8      2.567      3.586
REMARK  1 active torsions:
REMARK  status: ('A' for Active; 'I' for Inactive)
REMARK    1  A    between atoms: C5_5  and  C7_7 
ROOT
HETATM    1  C1  UNL     1     -32.006   7.235   2.010  1.00 20.00     0.001 C 
HETATM    2  C2  UNL     1     -32.730   6.352   0.994  1.00 20.00     0.001 C 
HETATM    3  C3  UNL     1     -32.938   7.352   3.213  1.00 20.00     0.018 C 
HETATM    4  C4  UNL     1     -34.065   5.976   1.632  1.00 20.00     0.018 C 
HETATM    5  C5  UNL     1     -33.837   6.110   3.144  1.00 20.00     0.054 C 
HETATM    6  C6  UNL     1     -33.124   4.872   3.713  1.00 20.00     0.024 C 
ENDROOT
BRANCH   5   7
HETATM    7  C7  UNL     1     -35.152   6.324   3.895  1.00 20.00     0.395 C 
HETATM    8  F8  UNL     1     -36.107   6.699   3.035  1.00 20.00    -0.170 F 
HETATM    9  F9  UNL     1     -35.519   5.184   4.494  1.00 20.00    -0.170 F 
HETATM   10  F10 UNL     1     -34.993   7.278   4.820  1.00 20.00    -0.170 F 
ENDBRANCH   5   7
TORSDOF 1
ENDMDL
MODEL 4
REMARK VINA RESULT:      -0.6      1.841      2.590
REMARK  1 active torsions:
REMARK  status: ('A' for Active; 'I' for Inactive)
REMARK    1  A    between atoms: C5_5  and  C7_7 
ROOT
HETATM    1  C1  UNL     1     -33.129   5.959   2.504  1.00 20.00     0.001 C 
HETATM    2  C2  UNL     1     -33.846   7.035   3.317  1.00 20.00     0.001 C 
HETATM    3  C3  UNL     1     -32.477   6.678   1.325  1.00 20.00     0.018 C 
HETATM    4  C4  UNL     1     -33.593   8.356   2.593  1.00 20.00     0.018 C 
HETATM    5  C5  UNL     1     -32.303   8.130   1.791  1.00 20.00     0.054 C 
HETATM    6  C6  UNL     1     -31.059   8.286   2.680  1.00 20.00     0.024 C 
ENDROOT
BRANCH   5   7
HETATM    7  C7  UNL     1     -32.201   9.093   0.607  1.00 20.00     0.395 C 
HETATM    8  F8  UNL     1     -33.113   8.770  -0.317  1.00 20.00    -0.170 F 
HETATM    9  F9  UNL     1     -32.419  10.345   1.025  1.00 20.00    -0.170 F 
HETATM   10  F10 UNL     1     -30.979   9.014   0.067  1.00 20.00    -0.170 F 
ENDBRANCH   5   7
TORSDOF 1
ENDMDL
MODEL 5
REMARK VINA RESULT:      -0.6      1.835      2.311
REMARK  1 active torsions:
REMARK  status: ('A' for Active; 'I' for Inactive)
REMARK    1  A    between atoms: C5_5  and  C7_7 
ROOT
HETATM    1  C1  UNL     1     -33.139   5.947   2.500  1.00 20.00     0.001 C 
HETATM    2  C2  UNL     1     -33.852   7.022   3.319  1.00 20.00     0.001 C 
HETATM    3  C3  UNL     1     -32.486   6.671   1.325  1.00 20.00     0.018 C 
HETATM    4  C4  UNL     1     -33.596   8.345   2.603  1.00 20.00     0.018 C 
HETATM    5  C5  UNL     1     -32.307   8.120   1.798  1.00 20.00     0.054 C 
HETATM    6  C6  UNL     1     -31.062   8.267   2.688  1.00 20.00     0.024 C 
ENDROOT
BRANCH   5   7
HETATM    7  C7  UNL     1     -32.202   9.090   0.620  1.00 20.00     0.395 C 
HETATM    8  F8  UNL     1     -32.415  10.341   1.046  1.00 20.00    -0.170 F 
HETATM    9  F9  UNL     1     -30.981   9.009   0.078  1.00 20.00    -0.170 F 
HETATM   10  F10 UNL     1     -33.118   8.776  -0.304  1.00 20.00    -0.170 F 
ENDBRANCH   5   7
TORSDOF 1
ENDMDL
MODEL 6
REMARK VINA RESULT:      -0.4      1.315      2.177
REMARK  1 active torsions:
REMARK  status: ('A' for Active; 'I' for Inactive)
REMARK    1  A    between atoms: C5_5  and  C7_7 
ROOT
HETATM    1  C1  UNL     1     -35.338   6.884   4.025  1.00 20.00     0.001 C 
HETATM    2  C2  UNL     1     -34.101   7.548   4.628  1.00 20.00     0.001 C 
HETATM    3  C3  UNL     1     -34.907   6.334   2.668  1.00 20.00     0.018 C 
HETATM    4  C4  UNL     1     -32.979   7.367   3.609  1.00 20.00     0.018 C 
HETATM    5  C5  UNL     1     -33.388   6.141   2.779  1.00 20.00     0.054 C 
HETATM    6  C6  UNL     1     -33.044   4.833   3.510  1.00 20.00     0.024 C 
ENDROOT
BRANCH   5   7
HETATM    7  C7  UNL     1     -32.717   6.142   1.405  1.00 20.00     0.395 C 
HETATM    8  F8  UNL     1     -32.272   7.372   1.122  1.00 20.00    -0.170 F 
HETATM    9  F9  UNL     1     -31.686   5.289   1.406  1.00 20.00    -0.170 F 
HETATM   10  F10 UNL     1     -33.601   5.767   0.472  1.00 20.00    -0.170 F 
ENDBRANCH   5   7
TORSDOF 1
ENDMDL
MODEL 7
REMARK VINA RESULT:      -0.0      2.302      3.501
REMARK  1 active torsions:
REMARK  status: ('A' for Active; 'I' for Inactive)
REMARK    1  A    between atoms: C5_5  and  C7_7 
ROOT
HETATM    1  C1  UNL     1     -32.561   8.730   1.444  1.00 20.00     0.001 C 
HETATM    2  C2  UNL     1     -31.738   7.446   1.530  1.00 20.00     0.001 C 
HETATM    3  C3  UNL     1     -33.823   8.483   2.268  1.00 20.00     0.018 C 
HETATM    4  C4  UNL     1     -32.538   6.483   2.403  1.00 20.00     0.018 C 
HETATM    5  C5  UNL     1     -33.439   7.380   3.265  1.00 20.00     0.054 C 
HETATM    6  C6  UNL     1     -32.668   7.955   4.465  1.00 20.00     0.024 C 
ENDROOT
BRANCH   5   7
HETATM    7  C7  UNL     1     -34.668   6.624   3.771  1.00 20.00     0.395 C 
HETATM    8  F8  UNL     1     -35.009   7.079   4.983  1.00 20.00    -0.170 F 
HETATM    9  F9  UNL     1     -35.690   6.808   2.926  1.00 20.00    -0.170 F 
HETATM   10  F10 UNL     1     -34.391   5.318   3.852  1.00 20.00    -0.170 F 
ENDBRANCH   5   7
TORSDOF 1
ENDMDL
MODEL 8
REMARK VINA RESULT:      -0.0      2.669      3.532
REMARK  1 active torsions:
REMARK  status: ('A' for Active; 'I' for Inactive)
REMARK    1  A    between atoms: C5_5  and  C7_7 
ROOT
HETATM    1  C1  UNL     1     -32.898   5.924   0.854  1.00 20.00     0.001 C 
HETATM    2  C2  UNL     1     -32.158   5.068   1.880  1.00 20.00     0.001 C 
HETATM    3  C3  UNL     1     -34.156   6.434   1.552  1.00 20.00     0.018 C 
HETATM    4  C4  UNL     1     -33.001   5.102   3.152  1.00 20.00     0.018 C 
HETATM    5  C5  UNL     1     -33.825   6.395   3.050  1.00 20.00     0.054 C 
HETATM    6  C6  UNL     1     -32.995   7.619   3.471  1.00 20.00     0.024 C 
ENDROOT
BRANCH   5   7
HETATM    7  C7  UNL     1     -35.090   6.325   3.906  1.00 20.00     0.395 C 
HETATM    8  F8  UNL     1     -34.984   7.172   4.937  1.00 20.00    -0.170 F 
HETATM    9  F9  UNL     1     -36.154   6.661   3.166  1.00 20.00    -0.170 F 
HETATM   10  F10 UNL     1     -35.251   5.081   4.372  1.00 20.00    -0.170 F 
ENDBRANCH   5   7
TORSDOF 1
ENDMDL
MODEL 9
REMARK VINA RESULT:       0.0      2.016      3.544
REMARK  1 active torsions:
REMARK  status: ('A' for Active; 'I' for Inactive)
REMARK    1  A    between atoms: C5_5  and  C7_7 
ROOT
HETATM    1  C1  UNL     1     -31.013   8.623   1.248  1.00 20.00     0.001 C 
HETATM    2  C2  UNL     1     -32.295   9.079   0.554  1.00 20.00     0.001 C 
HETATM    3  C3  UNL     1     -31.447   7.983   2.565  1.00 20.00     0.018 C 
HETATM    4  C4  UNL     1     -33.444   8.693   1.481  1.00 20.00     0.018 C 
HETATM    5  C5  UNL     1     -32.898   7.539   2.334  1.00 20.00     0.054 C 
HETATM    6  C6  UNL     1     -32.959   6.205   1.571  1.00 20.00     0.024 C 
ENDROOT
BRANCH   5   7
HETATM    7  C7  UNL     1     -33.662   7.401   3.651  1.00 20.00     0.395 C 
HETATM    8  F8  UNL     1     -34.000   6.120   3.845  1.00 20.00    -0.170 F 
HETATM    9  F9  UNL     1     -32.891   7.813   4.665  1.00 20.00    -0.170 F 
HETATM   10  F10 UNL     1     -34.772   8.148   3.608  1.00 20.00    -0.170 F 
ENDBRANCH   5   7
TORSDOF 1
ENDMDL
