MODEL 1
REMARK VINA RESULT:      -0.1      0.000      0.000
REMARK  2 active torsions:
REMARK  status: ('A' for Active; 'I' for Inactive)
REMARK    1  A    between atoms: C6_6  and  C10_10 
REMARK    2  A    between atoms: C7_7  and  C11_11 
ROOT
HETATM    1  C1  UNL     1     -32.601   9.221   0.955  1.00 20.00    -0.025 C 
HETATM    2  C2  UNL     1     -31.713   8.330   0.488  1.00 20.00    -0.025 C 
HETATM    3  C3  UNL     1     -31.361   8.505   2.762  1.00 20.00     0.017 C 
HETATM    4  C4  UNL     1     -32.796   8.930   2.427  1.00 20.00     0.013 C 
HETATM    5  C5  UNL     1     -31.311   7.450   1.649  1.00 20.00     0.013 C 
HETATM    6  C6  UNL     1     -33.578   7.591   2.526  1.00 20.00    -0.002 C 
HETATM    7  C7  UNL     1     -32.499   6.545   2.074  1.00 20.00    -0.002 C 
ENDROOT
BRANCH   6   8
HETATM    8  C10 UNL     1     -34.087   7.314   3.936  1.00 20.00     0.001 C 
HETATM    9  C8  UNL     1     -35.171   6.285   3.942  1.00 20.00     0.005 C 
ENDBRANCH   6   8
BRANCH   7  10
HETATM   10  C11 UNL     1     -32.996   5.599   0.988  1.00 20.00     0.001 C 
HETATM   11  C9  UNL     1     -31.939   4.629   0.568  1.00 20.00     0.005 C 
ENDBRANCH   7  10
TORSDOF 2
ENDMDL
MODEL 2
REMARK VINA RESULT:       0.1      1.570      3.577
REMARK  2 active torsions:
REMARK  status: ('A' for Active; 'I' for Inactive)
REMARK    1  A    between atoms: C6_6  and  C10_10 
REMARK    2  A    between atoms: C7_7  and  C11_11 
ROOT
HETATM    1  C1  UNL     1     -32.686   7.945   4.410  1.00 20.00    -0.025 C 
HETATM    2  C2  UNL     1     -33.871   7.759   5.011  1.00 20.00    -0.025 C 
HETATM    3  C3  UNL     1     -34.305   8.205   2.789  1.00 20.00     0.017 C 
HETATM    4  C4  UNL     1     -32.880   7.656   2.938  1.00 20.00     0.013 C 
HETATM    5  C5  UNL     1     -34.857   7.354   3.940  1.00 20.00     0.013 C 
HETATM    6  C6  UNL     1     -33.093   6.123   2.799  1.00 20.00    -0.002 C 
HETATM    7  C7  UNL     1     -34.525   5.931   3.414  1.00 20.00    -0.002 C 
ENDROOT
BRANCH   6   8
HETATM    8  C10 UNL     1     -33.024   5.652   1.351  1.00 20.00     0.001 C 
HETATM    9  C8  UNL     1     -31.698   5.042   1.029  1.00 20.00     0.005 C 
ENDBRANCH   6   8
BRANCH   7  10
HETATM   10  C11 UNL     1     -34.584   4.834   4.469  1.00 20.00     0.001 C 
HETATM   11  C9  UNL     1     -33.677   3.693   4.137  1.00 20.00     0.005 C 
ENDBRANCH   7  10
TORSDOF 2
ENDMDL
MODEL 3
REMARK VINA RESULT:       0.8      1.692      3.389
REMARK  2 active torsions:
REMARK  status: ('A' for Active; 'I' for Inactive)
REMARK    1  A    between atoms: C6_6  and  C10_10 
REMARK    2  A    between atoms: C7_7  and  C11_11 
ROOT
HETATM    1  C1  UNL     1     -31.540   6.395   1.958  1.00 20.00    -0.025 C 
HETATM    2  C2  UNL     1     -32.294   7.456   1.633  1.00 20.00    -0.025 C 
HETATM    3  C3  UNL     1     -33.473   5.572   1.010  1.00 20.00     0.017 C 
HETATM    4  C4  UNL     1     -32.471   5.213   2.114  1.00 20.00     0.013 C 
HETATM    5  C5  UNL     1     -33.727   6.980   1.564  1.00 20.00     0.013 C 
HETATM    6  C6  UNL     1     -33.295   5.452   3.409  1.00 20.00    -0.002 C 
HETATM    7  C7  UNL     1     -34.245   6.627   2.985  1.00 20.00    -0.002 C 
ENDROOT
BRANCH   6   8
HETATM    8  C10 UNL     1     -34.074   4.215   3.843  1.00 20.00     0.001 C 
HETATM    9  C8  UNL     1     -33.214   3.255   4.599  1.00 20.00     0.005 C 
ENDBRANCH   6   8
BRANCH   7  10
HETATM   10  C11 UNL     1     -34.239   7.790   3.969  1.00 20.00     0.001 C 
HETATM   11  C9  UNL     1     -33.126   7.675   4.959  1.00 20.00     0.005 C 
ENDBRANCH   7  10
TORSDOF 2
ENDMDL
MODEL 4
REMARK VINA RESULT:       0.9      1.028      3.049
REMARK  2 active torsions:
REMARK  status: ('A' for Active; 'I' for Inactive)
REMARK    1  A    between atoms: C6_6  and  C10_10 
REMARK    2  A    between atoms: C7_7  and  C11_11 
ROOT
HETATM    1  C1  UNL     1     -31.820   4.957   2.171  1.00 20.00    -0.025 C 
HETATM    2  C2  UNL     1     -31.636   5.539   0.976  1.00 20.00    -0.025 C 
HETATM    3  C3  UNL     1     -33.914   5.367   1.300  1.00 20.00     0.017 C 
HETATM    4  C4  UNL     1     -33.197   5.352   2.656  1.00 20.00     0.013 C 
HETATM    5  C5  UNL     1     -32.893   6.317   0.660  1.00 20.00     0.013 C 
HETATM    6  C6  UNL     1     -33.135   6.861   3.021  1.00 20.00    -0.002 C 
HETATM    7  C7  UNL     1     -33.022   7.539   1.610  1.00 20.00    -0.002 C 
ENDROOT
BRANCH   6   8
HETATM    8  C10 UNL     1     -34.369   7.329   3.784  1.00 20.00     0.001 C 
HETATM    9  C8  UNL     1     -35.240   6.183   4.185  1.00 20.00     0.005 C 
ENDBRANCH   6   8
BRANCH   7  10
HETATM   10  C11 UNL     1     -31.878   8.540   1.514  1.00 20.00     0.001 C 
HETATM   11  C9  UNL     1     -32.158   9.609   0.507  1.00 20.00     0.005 C 
ENDBRANCH   7  10
TORSDOF 2
ENDMDL
MODEL 5
REMARK VINA RESULT:       1.1      1.821      3.417
REMARK  2 active torsions:
REMARK  status: ('A' for Active; 'I' for Inactive)
REMARK    1  A    between atoms: C6_6  and  C10_10 
REMARK    2  A    between atoms: C7_7  and  C11_11 
ROOT
HETATM    1  C1  UNL     1     -35.956   6.726   3.278  1.00 20.00    -0.025 C 
HETATM    2  C2  UNL     1     -34.998   7.475   2.711  1.00 20.00    -0.025 C 
HETATM    3  C3  UNL     1     -34.331   7.055   4.879  1.00 20.00     0.017 C 
HETATM    4  C4  UNL     1     -35.317   5.972   4.423  1.00 20.00     0.013 C 
HETATM    5  C5  UNL     1     -33.723   7.228   3.482  1.00 20.00     0.013 C 
HETATM    6  C6  UNL     1     -34.378   4.904   3.797  1.00 20.00    -0.002 C 
HETATM    7  C7  UNL     1     -33.211   5.784   3.225  1.00 20.00    -0.002 C 
ENDROOT
BRANCH   6   8
HETATM    8  C10 UNL     1     -33.882   3.890   4.821  1.00 20.00     0.001 C 
HETATM    9  C8  UNL     1     -33.116   2.781   4.177  1.00 20.00     0.005 C 
ENDBRANCH   6   8
BRANCH   7  10
HETATM   10  C11 UNL     1     -32.883   5.476   1.770  1.00 20.00     0.001 C 
HETATM   11  C9  UNL     1     -31.909   6.456   1.200  1.00 20.00     0.005 C 
ENDBRANCH   7  10
TORSDOF 2
ENDMDL
MODEL 6
REMARK VINA RESULT:       1.2      0.409      3.173
REMARK  2 active torsions:
REMARK  status: ('A' for Active; 'I' for Inactive)
REMARK    1  A    between atoms: C6_6  and  C10_10 
REMARK    2  A    between atoms: C7_7  and  C11_11 
ROOT
HETATM    1  C1  UNL     1     -30.894   8.151   2.765  1.00 20.00    -0.025 C 
HETATM    2  C2  UNL     1     -31.835   8.980   3.241  1.00 20.00    -0.025 C 
HETATM    3  C3  UNL     1     -32.340   8.590   1.024  1.00 20.00     0.017 C 
HETATM    4  C4  UNL     1     -31.488   7.438   1.570  1.00 20.00     0.013 C 
HETATM    5  C5  UNL     1     -33.054   8.825   2.361  1.00 20.00     0.013 C 
HETATM    6  C6  UNL     1     -32.560   6.454   2.115  1.00 20.00    -0.002 C 
HETATM    7  C7  UNL     1     -33.700   7.430   2.577  1.00 20.00    -0.002 C 
ENDROOT
BRANCH   6   8
HETATM    8  C10 UNL     1     -33.044   5.471   1.054  1.00 20.00     0.001 C 
HETATM    9  C8  UNL     1     -31.920   4.656   0.500  1.00 20.00     0.005 C 
ENDBRANCH   6   8
BRANCH   7  10
HETATM   10  C11 UNL     1     -34.178   7.165   3.999  1.00 20.00     0.001 C 
HETATM   11  C9  UNL     1     -35.283   6.159   4.036  1.00 20.00     0.005 C 
ENDBRANCH   7  10
TORSDOF 2
ENDMDL
MODEL 7
REMARK VINA RESULT:       1.3      1.740      2.765
REMARK  2 active torsions:
REMARK  status: ('A' for Active; 'I' for Inactive)
REMARK    1  A    between atoms: C6_6  and  C10_10 
REMARK    2  A    between atoms: C7_7  and  C11_11 
ROOT
HETATM    1  C1  UNL     1     -33.634   5.936   0.618  1.00 20.00    -0.025 C 
HETATM    2  C2  UNL     1     -32.820   4.927   0.964  1.00 20.00    -0.025 C 
HETATM    3  C3  UNL     1     -32.033   6.821   2.021  1.00 20.00     0.017 C 
HETATM    4  C4  UNL     1     -33.523   6.991   1.696  1.00 20.00     0.013 C 
HETATM    5  C5  UNL     1     -32.160   5.312   2.268  1.00 20.00     0.013 C 
HETATM    6  C6  UNL     1     -34.213   6.420   2.965  1.00 20.00    -0.002 C 
HETATM    7  C7  UNL     1     -33.202   5.308   3.419  1.00 20.00    -0.002 C 
ENDROOT
BRANCH   6   8
HETATM    8  C10 UNL     1     -34.422   7.477   4.043  1.00 20.00     0.001 C 
HETATM    9  C8  UNL     1     -33.125   7.947   4.618  1.00 20.00     0.005 C 
ENDBRANCH   6   8
BRANCH   7  10
HETATM   10  C11 UNL     1     -33.864   3.959   3.671  1.00 20.00     0.001 C 
HETATM   11  C9  UNL     1     -33.141   3.171   4.715  1.00 20.00     0.005 C 
ENDBRANCH   7  10
TORSDOF 2
ENDMDL
MODEL 8
REMARK VINA RESULT:       1.4      1.022      3.545
REMARK  2 active torsions:
REMARK  status: ('A' for Active; 'I' for Inactive)
REMARK    1  A    between atoms: C6_6  and  C10_10 
REMARK    2  A    between atoms: C7_7  and  C11_11 
ROOT
HETATM    1  C1  UNL     1     -35.120   6.817   3.320  1.00 20.00    -0.025 C 
HETATM    2  C2  UNL     1     -34.595   7.935   3.844  1.00 20.00    -0.025 C 
HETATM    3  C3  UNL     1     -33.091   6.232   4.244  1.00 20.00     0.017 C 
HETATM    4  C4  UNL     1     -33.974   5.870   3.043  1.00 20.00     0.013 C 
HETATM    5  C5  UNL     1     -33.100   7.732   3.923  1.00 20.00     0.013 C 
HETATM    6  C6  UNL     1     -33.176   6.460   1.848  1.00 20.00    -0.002 C 
HETATM    7  C7  UNL     1     -32.484   7.710   2.497  1.00 20.00    -0.002 C 
ENDROOT
BRANCH   6   8
HETATM    8  C10 UNL     1     -32.160   5.474   1.280  1.00 20.00     0.001 C 
HETATM    9  C8  UNL     1     -32.776   4.566   0.266  1.00 20.00     0.005 C 
ENDBRANCH   6   8
BRANCH   7  10
HETATM   10  C11 UNL     1     -32.688   8.992   1.698  1.00 20.00     0.001 C 
HETATM   11  C9  UNL     1     -31.915   8.978   0.419  1.00 20.00     0.005 C 
ENDBRANCH   7  10
TORSDOF 2
ENDMDL
MODEL 9
REMARK VINA RESULT:       1.7      1.128      3.628
REMARK  2 active torsions:
REMARK  status: ('A' for Active; 'I' for Inactive)
REMARK    1  A    between atoms: C6_6  and  C10_10 
REMARK    2  A    between atoms: C7_7  and  C11_11 
ROOT
HETATM    1  C1  UNL     1     -33.525   5.436   0.627  1.00 20.00    -0.025 C 
HETATM    2  C2  UNL     1     -33.758   4.961   1.860  1.00 20.00    -0.025 C 
HETATM    3  C3  UNL     1     -31.566   5.680   1.816  1.00 20.00     0.017 C 
HETATM    4  C4  UNL     1     -32.369   6.406   0.730  1.00 20.00     0.013 C 
HETATM    5  C5  UNL     1     -32.753   5.608   2.785  1.00 20.00     0.013 C 
HETATM    6  C6  UNL     1     -32.895   7.660   1.482  1.00 20.00    -0.002 C 
HETATM    7  C7  UNL     1     -33.068   7.121   2.946  1.00 20.00    -0.002 C 
ENDROOT
BRANCH   6   8
HETATM    8  C10 UNL     1     -31.922   8.832   1.415  1.00 20.00     0.001 C 
HETATM    9  C8  UNL     1     -32.308   9.813   0.356  1.00 20.00     0.005 C 
ENDBRANCH   6   8
BRANCH   7  10
HETATM   10  C11 UNL     1     -34.437   7.424   3.541  1.00 20.00     0.001 C 
HETATM   11  C9  UNL     1     -35.049   6.217   4.174  1.00 20.00     0.005 C 
ENDBRANCH   7  10
TORSDOF 2
ENDMDL
