MODEL 1
REMARK VINA RESULT:      -2.7      0.000      0.000
REMARK  0 active torsions:
REMARK  status: ('A' for Active; 'I' for Inactive)
ROOT
HETATM    1  C1  UNL     1     -34.162   4.514   4.061  1.00 20.00     0.041 A 
HETATM    2  C2  UNL     1     -33.971   5.534   3.205  1.00 20.00     0.101 A 
HETATM    3  C3  UNL     1     -35.264   5.221   4.813  1.00 20.00     0.138 A 
HETATM    4  C4  UNL     1     -35.053   6.402   3.836  1.00 20.00     0.287 A 
HETATM    5  F5  UNL     1     -34.671   7.561   4.424  1.00 20.00    -0.199 F 
HETATM    6  F6  UNL     1     -36.135   6.709   3.081  1.00 20.00    -0.199 F 
HETATM    7 CL7  UNL     1     -33.409   2.931   4.243  1.00 20.00    -0.087 Cl
HETATM    8 CL8  UNL     1     -32.876   5.792   1.849  1.00 20.00    -0.081 Cl
ENDROOT
TORSDOF 0
ENDMDL
MODEL 2
REMARK VINA RESULT:      -2.4      2.920      3.706
REMARK  0 active torsions:
REMARK  status: ('A' for Active; 'I' for Inactive)
ROOT
HETATM    1  C1  UNL     1     -33.417   6.992   3.215  1.00 20.00     0.041 A 
HETATM    2  C2  UNL     1     -33.461   5.676   2.937  1.00 20.00     0.101 A 
HETATM    3  C3  UNL     1     -32.749   7.347   1.909  1.00 20.00     0.138 A 
HETATM    4  C4  UNL     1     -32.792   5.837   1.578  1.00 20.00     0.287 A 
HETATM    5  F5  UNL     1     -31.577   5.263   1.399  1.00 20.00    -0.199 F 
HETATM    6  F6  UNL     1     -33.516   5.522   0.477  1.00 20.00    -0.199 F 
HETATM    7 CL7  UNL     1     -33.945   7.954   4.595  1.00 20.00    -0.087 Cl
HETATM    8 CL8  UNL     1     -34.064   4.269   3.811  1.00 20.00    -0.081 Cl
ENDROOT
TORSDOF 0
ENDMDL
MODEL 3
REMARK VINA RESULT:      -2.4      3.304      3.793
REMARK  0 active torsions:
REMARK  status: ('A' for Active; 'I' for Inactive)
ROOT
HETATM    1  C1  UNL     1     -33.406   6.954   3.095  1.00 20.00     0.041 A 
HETATM    2  C2  UNL     1     -32.752   7.239   1.954  1.00 20.00     0.101 A 
HETATM    3  C3  UNL     1     -33.530   5.485   2.774  1.00 20.00     0.138 A 
HETATM    4  C4  UNL     1     -32.780   5.799   1.458  1.00 20.00     0.287 A 
HETATM    5  F5  UNL     1     -33.482   5.533   0.329  1.00 20.00    -0.199 F 
HETATM    6  F6  UNL     1     -31.596   5.157   1.317  1.00 20.00    -0.199 F 
HETATM    7 CL7  UNL     1     -33.928   7.932   4.466  1.00 20.00    -0.087 Cl
HETATM    8 CL8  UNL     1     -32.098   8.725   1.268  1.00 20.00    -0.081 Cl
ENDROOT
TORSDOF 0
ENDMDL
MODEL 4
REMARK VINA RESULT:      -2.3      1.021      2.605
REMARK  0 active torsions:
REMARK  status: ('A' for Active; 'I' for Inactive)
ROOT
HETATM    1  C1  UNL     1     -33.149   5.929   2.411  1.00 20.00     0.041 A 
HETATM    2  C2  UNL     1     -33.836   5.390   3.434  1.00 20.00     0.101 A 
HETATM    3  C3  UNL     1     -33.822   7.274   2.537  1.00 20.00     0.138 A 
HETATM    4  C4  UNL     1     -34.620   6.666   3.714  1.00 20.00     0.287 A 
HETATM    5  F5  UNL     1     -35.963   6.636   3.532  1.00 20.00    -0.199 F 
HETATM    6  F6  UNL     1     -34.422   7.279   4.906  1.00 20.00    -0.199 F 
HETATM    7 CL7  UNL     1     -31.913   5.302   1.321  1.00 20.00    -0.087 Cl
HETATM    8 CL8  UNL     1     -33.843   3.796   4.187  1.00 20.00    -0.081 Cl
ENDROOT
TORSDOF 0
ENDMDL
MODEL 5
REMARK VINA RESULT:      -2.3      1.889      2.892
REMARK  0 active torsions:
REMARK  status: ('A' for Active; 'I' for Inactive)
ROOT
HETATM    1  C1  UNL     1     -33.041   7.498   3.154  1.00 20.00     0.041 A 
HETATM    2  C2  UNL     1     -33.615   6.410   2.609  1.00 20.00     0.101 A 
HETATM    3  C3  UNL     1     -34.036   7.577   4.286  1.00 20.00     0.138 A 
HETATM    4  C4  UNL     1     -34.706   6.327   3.669  1.00 20.00     0.287 A 
HETATM    5  F5  UNL     1     -35.988   6.511   3.272  1.00 20.00    -0.199 F 
HETATM    6  F6  UNL     1     -34.720   5.239   4.476  1.00 20.00    -0.199 F 
HETATM    7 CL7  UNL     1     -31.641   8.475   2.714  1.00 20.00    -0.087 Cl
HETATM    8 CL8  UNL     1     -33.253   5.428   1.190  1.00 20.00    -0.081 Cl
ENDROOT
TORSDOF 0
ENDMDL
MODEL 6
REMARK VINA RESULT:      -2.2      3.003      3.414
REMARK  0 active torsions:
REMARK  status: ('A' for Active; 'I' for Inactive)
ROOT
HETATM    1  C1  UNL     1     -33.714   6.825   3.074  1.00 20.00     0.041 A 
HETATM    2  C2  UNL     1     -32.948   6.548   2.003  1.00 20.00     0.101 A 
HETATM    3  C3  UNL     1     -33.117   8.198   3.270  1.00 20.00     0.138 A 
HETATM    4  C4  UNL     1     -32.229   7.891   2.041  1.00 20.00     0.287 A 
HETATM    5  F5  UNL     1     -30.897   7.888   2.291  1.00 20.00    -0.199 F 
HETATM    6  F6  UNL     1     -32.407   8.731   0.994  1.00 20.00    -0.199 F 
HETATM    7 CL7  UNL     1     -34.959   5.923   3.936  1.00 20.00    -0.087 Cl
HETATM    8 CL8  UNL     1     -32.811   5.151   0.937  1.00 20.00    -0.081 Cl
ENDROOT
TORSDOF 0
ENDMDL
MODEL 7
REMARK VINA RESULT:      -2.1      1.992      2.571
REMARK  0 active torsions:
REMARK  status: ('A' for Active; 'I' for Inactive)
ROOT
HETATM    1  C1  UNL     1     -33.081   6.159   2.184  1.00 20.00     0.041 A 
HETATM    2  C2  UNL     1     -32.909   7.481   2.364  1.00 20.00     0.101 A 
HETATM    3  C3  UNL     1     -33.912   5.996   3.433  1.00 20.00     0.138 A 
HETATM    4  C4  UNL     1     -33.721   7.515   3.653  1.00 20.00     0.287 A 
HETATM    5  F5  UNL     1     -33.075   7.844   4.798  1.00 20.00    -0.199 F 
HETATM    6  F6  UNL     1     -34.870   8.232   3.657  1.00 20.00    -0.199 F 
HETATM    7 CL7  UNL     1     -32.539   5.027   0.946  1.00 20.00    -0.087 Cl
HETATM    8 CL8  UNL     1     -32.060   8.730   1.456  1.00 20.00    -0.081 Cl
ENDROOT
TORSDOF 0
ENDMDL
MODEL 8
REMARK VINA RESULT:      -2.1      2.448      3.266
REMARK  0 active torsions:
REMARK  status: ('A' for Active; 'I' for Inactive)
ROOT
HETATM    1  C1  UNL     1     -32.968   7.191   2.540  1.00 20.00     0.041 A 
HETATM    2  C2  UNL     1     -33.521   7.282   3.763  1.00 20.00     0.101 A 
HETATM    3  C3  UNL     1     -33.839   6.031   2.124  1.00 20.00     0.138 A 
HETATM    4  C4  UNL     1     -34.483   6.124   3.527  1.00 20.00     0.287 A 
HETATM    5  F5  UNL     1     -34.335   5.015   4.292  1.00 20.00    -0.199 F 
HETATM    6  F6  UNL     1     -35.809   6.397   3.522  1.00 20.00    -0.199 F 
HETATM    7 CL7  UNL     1     -31.695   8.092   1.718  1.00 20.00    -0.087 Cl
HETATM    8 CL8  UNL     1     -33.246   8.342   5.144  1.00 20.00    -0.081 Cl
ENDROOT
TORSDOF 0
ENDMDL
MODEL 9
REMARK VINA RESULT:      -1.9      2.864      3.455
REMARK  0 active torsions:
REMARK  status: ('A' for Active; 'I' for Inactive)
ROOT
HETATM    1  C1  UNL     1     -33.375   5.816   2.864  1.00 20.00     0.041 A 
HETATM    2  C2  UNL     1     -33.249   7.121   3.167  1.00 20.00     0.101 A 
HETATM    3  C3  UNL     1     -32.570   5.931   1.593  1.00 20.00     0.138 A 
HETATM    4  C4  UNL     1     -32.418   7.433   1.929  1.00 20.00     0.287 A 
HETATM    5  F5  UNL     1     -32.948   8.274   1.008  1.00 20.00    -0.199 F 
HETATM    6  F6  UNL     1     -31.141   7.843   2.113  1.00 20.00    -0.199 F 
HETATM    7 CL7  UNL     1     -34.181   4.463   3.657  1.00 20.00    -0.087 Cl
HETATM    8 CL8  UNL     1     -33.827   8.120   4.499  1.00 20.00    -0.081 Cl
ENDROOT
TORSDOF 0
ENDMDL
