MODEL 1
REMARK VINA RESULT:      -1.2      0.000      0.000
REMARK  2 active torsions:
REMARK  status: ('A' for Active; 'I' for Inactive)
REMARK    1  A    between atoms: C4_4  and  C10_10 
REMARK    2  A    between atoms: C5_5  and  C11_11 
ROOT
HETATM    1  C1  UNL     1     -33.318   7.725   3.693  1.00 20.00     0.004 A 
HETATM    2  C2  UNL     1     -32.436   8.532   3.086  1.00 20.00    -0.017 A 
HETATM    3  C3  UNL     1     -32.732   6.596   1.808  1.00 20.00    -0.011 A 
HETATM    4  C4  UNL     1     -33.503   6.530   2.904  1.00 20.00    -0.058 A 
HETATM    5  C5  UNL     1     -31.961   7.892   1.808  1.00 20.00     0.034 A 
ENDROOT
BRANCH   4   6
HETATM    6  C10 UNL     1     -34.420   5.440   3.316  1.00 20.00     0.010 C 
HETATM    7  C6  UNL     1     -33.644   4.287   3.956  1.00 20.00     0.015 C 
HETATM    8  C7  UNL     1     -35.499   5.952   4.275  1.00 20.00     0.015 C 
ENDBRANCH   4   6
BRANCH   5   9
HETATM    9  C11 UNL     1     -32.272   8.746   0.586  1.00 20.00    -0.012 C 
HETATM   10  C8  UNL     1     -32.696  10.155   1.003  1.00 20.00     0.010 C 
HETATM   11  C9  UNL     1     -31.065   8.810  -0.351  1.00 20.00     0.010 C 
ENDBRANCH   5   9
TORSDOF 2
ENDMDL
MODEL 2
REMARK VINA RESULT:      -1.0      0.902      4.726
REMARK  2 active torsions:
REMARK  status: ('A' for Active; 'I' for Inactive)
REMARK    1  A    between atoms: C4_4  and  C10_10 
REMARK    2  A    between atoms: C5_5  and  C11_11 
ROOT
HETATM    1  C1  UNL     1     -32.066   6.820   0.786  1.00 20.00     0.004 A 
HETATM    2  C2  UNL     1     -32.378   5.840   1.646  1.00 20.00    -0.017 A 
HETATM    3  C3  UNL     1     -32.766   7.916   2.651  1.00 20.00    -0.011 A 
HETATM    4  C4  UNL     1     -32.306   8.102   1.404  1.00 20.00    -0.058 A 
HETATM    5  C5  UNL     1     -32.861   6.440   2.941  1.00 20.00     0.034 A 
ENDROOT
BRANCH   4   6
HETATM    6  C10 UNL     1     -32.053   9.383   0.702  1.00 20.00     0.010 C 
HETATM    7  C6  UNL     1     -32.387   9.264  -0.787  1.00 20.00     0.015 C 
HETATM    8  C7  UNL     1     -32.845  10.532   1.335  1.00 20.00     0.015 C 
ENDBRANCH   4   6
BRANCH   5   9
HETATM    9  C11 UNL     1     -34.282   6.009   3.281  1.00 20.00    -0.012 C 
HETATM   10  C8  UNL     1     -34.285   4.640   3.962  1.00 20.00     0.010 C 
HETATM   11  C9  UNL     1     -34.965   7.048   4.171  1.00 20.00     0.010 C 
ENDBRANCH   5   9
TORSDOF 2
ENDMDL
MODEL 3
REMARK VINA RESULT:      -0.7      0.949      2.202
REMARK  2 active torsions:
REMARK  status: ('A' for Active; 'I' for Inactive)
REMARK    1  A    between atoms: C4_4  and  C10_10 
REMARK    2  A    between atoms: C5_5  and  C11_11 
ROOT
HETATM    1  C1  UNL     1     -32.664   4.990   2.072  1.00 20.00     0.004 A 
HETATM    2  C2  UNL     1     -32.316   5.810   1.071  1.00 20.00    -0.017 A 
HETATM    3  C3  UNL     1     -33.640   6.973   2.609  1.00 20.00    -0.011 A 
HETATM    4  C4  UNL     1     -33.481   5.706   3.023  1.00 20.00    -0.058 A 
HETATM    5  C5  UNL     1     -32.908   7.175   1.307  1.00 20.00     0.034 A 
ENDROOT
BRANCH   4   6
HETATM    6  C10 UNL     1     -34.026   5.066   4.245  1.00 20.00     0.010 C 
HETATM    7  C6  UNL     1     -35.518   5.370   4.400  1.00 20.00     0.015 C 
HETATM    8  C7  UNL     1     -33.790   3.552   4.233  1.00 20.00     0.015 C 
ENDBRANCH   4   6
BRANCH   5   9
HETATM    9  C11 UNL     1     -31.839   8.256   1.409  1.00 20.00    -0.012 C 
HETATM   10  C8  UNL     1     -32.227   9.481   0.580  1.00 20.00     0.010 C 
HETATM   11  C9  UNL     1     -31.608   8.653   2.867  1.00 20.00     0.010 C 
ENDBRANCH   5   9
TORSDOF 2
ENDMDL
MODEL 4
REMARK VINA RESULT:      -0.5      0.970      2.193
REMARK  2 active torsions:
REMARK  status: ('A' for Active; 'I' for Inactive)
REMARK    1  A    between atoms: C4_4  and  C10_10 
REMARK    2  A    between atoms: C5_5  and  C11_11 
ROOT
HETATM    1  C1  UNL     1     -32.493   4.642   1.956  1.00 20.00     0.004 A 
HETATM    2  C2  UNL     1     -32.039   5.614   1.152  1.00 20.00    -0.017 A 
HETATM    3  C3  UNL     1     -33.760   6.452   2.495  1.00 20.00    -0.011 A 
HETATM    4  C4  UNL     1     -33.556   5.158   2.786  1.00 20.00    -0.058 A 
HETATM    5  C5  UNL     1     -32.806   6.885   1.411  1.00 20.00     0.034 A 
ENDROOT
BRANCH   4   6
HETATM    6  C10 UNL     1     -34.265   4.320   3.782  1.00 20.00     0.010 C 
HETATM    7  C6  UNL     1     -33.271   3.533   4.640  1.00 20.00     0.015 C 
HETATM    8  C7  UNL     1     -35.182   5.166   4.672  1.00 20.00     0.015 C 
ENDBRANCH   4   6
BRANCH   5   9
HETATM    9  C11 UNL     1     -31.900   8.023   1.861  1.00 20.00    -0.012 C 
HETATM   10  C8  UNL     1     -32.030   9.222   0.921  1.00 20.00     0.010 C 
HETATM   11  C9  UNL     1     -32.222   8.436   3.297  1.00 20.00     0.010 C 
ENDBRANCH   5   9
TORSDOF 2
ENDMDL
MODEL 5
REMARK VINA RESULT:      -0.4      0.592      1.150
REMARK  2 active torsions:
REMARK  status: ('A' for Active; 'I' for Inactive)
REMARK    1  A    between atoms: C4_4  and  C10_10 
REMARK    2  A    between atoms: C5_5  and  C11_11 
ROOT
HETATM    1  C1  UNL     1     -32.942   7.896   3.652  1.00 20.00     0.004 A 
HETATM    2  C2  UNL     1     -32.000   8.670   3.092  1.00 20.00    -0.017 A 
HETATM    3  C3  UNL     1     -32.604   6.972   1.601  1.00 20.00    -0.011 A 
HETATM    4  C4  UNL     1     -33.316   6.848   2.733  1.00 20.00    -0.058 A 
HETATM    5  C5  UNL     1     -31.680   8.158   1.712  1.00 20.00     0.034 A 
ENDROOT
BRANCH   4   6
HETATM    6  C10 UNL     1     -34.337   5.825   3.066  1.00 20.00     0.010 C 
HETATM    7  C6  UNL     1     -33.680   4.561   3.625  1.00 20.00     0.015 C 
HETATM    8  C7  UNL     1     -35.370   6.371   4.056  1.00 20.00     0.015 C 
ENDBRANCH   4   6
BRANCH   5   9
HETATM    9  C11 UNL     1     -31.949   9.200   0.633  1.00 20.00    -0.012 C 
HETATM   10  C8  UNL     1     -32.661   8.569  -0.564  1.00 20.00     0.010 C 
HETATM   11  C9  UNL     1     -32.774  10.358   1.193  1.00 20.00     0.010 C 
ENDBRANCH   5   9
TORSDOF 2
ENDMDL
MODEL 6
REMARK VINA RESULT:      -0.4      0.567      1.197
REMARK  2 active torsions:
REMARK  status: ('A' for Active; 'I' for Inactive)
REMARK    1  A    between atoms: C4_4  and  C10_10 
REMARK    2  A    between atoms: C5_5  and  C11_11 
ROOT
HETATM    1  C1  UNL     1     -32.858   8.112   3.946  1.00 20.00     0.004 A 
HETATM    2  C2  UNL     1     -31.984   8.685   3.105  1.00 20.00    -0.017 A 
HETATM    3  C3  UNL     1     -32.953   6.821   2.076  1.00 20.00    -0.011 A 
HETATM    4  C4  UNL     1     -33.457   6.962   3.312  1.00 20.00    -0.058 A 
HETATM    5  C5  UNL     1     -31.950   7.914   1.811  1.00 20.00     0.034 A 
ENDROOT
BRANCH   4   6
HETATM    6  C10 UNL     1     -34.466   6.115   3.992  1.00 20.00     0.010 C 
HETATM    7  C6  UNL     1     -35.878   6.452   3.507  1.00 20.00     0.015 C 
HETATM    8  C7  UNL     1     -34.175   4.625   3.785  1.00 20.00     0.015 C 
ENDBRANCH   4   6
BRANCH   5   9
HETATM    9  C11 UNL     1     -32.339   8.776   0.617  1.00 20.00    -0.012 C 
HETATM   10  C8  UNL     1     -32.730  10.184   1.069  1.00 20.00     0.010 C 
HETATM   11  C9  UNL     1     -31.199   8.841  -0.399  1.00 20.00     0.010 C 
ENDBRANCH   5   9
TORSDOF 2
ENDMDL
MODEL 7
REMARK VINA RESULT:      -0.3      1.016      4.834
REMARK  2 active torsions:
REMARK  status: ('A' for Active; 'I' for Inactive)
REMARK    1  A    between atoms: C4_4  and  C10_10 
REMARK    2  A    between atoms: C5_5  and  C11_11 
ROOT
HETATM    1  C1  UNL     1     -32.760   6.756   0.860  1.00 20.00     0.004 A 
HETATM    2  C2  UNL     1     -33.023   6.187   2.046  1.00 20.00    -0.017 A 
HETATM    3  C3  UNL     1     -32.515   8.449   2.359  1.00 20.00    -0.011 A 
HETATM    4  C4  UNL     1     -32.447   8.152   1.051  1.00 20.00    -0.058 A 
HETATM    5  C5  UNL     1     -32.892   7.216   3.139  1.00 20.00     0.034 A 
ENDROOT
BRANCH   4   6
HETATM    6  C10 UNL     1     -32.108   9.053  -0.077  1.00 20.00     0.010 C 
HETATM    7  C6  UNL     1     -32.570  10.484   0.211  1.00 20.00     0.015 C 
HETATM    8  C7  UNL     1     -30.606   9.029  -0.378  1.00 20.00     0.015 C 
ENDBRANCH   4   6
BRANCH   5   9
HETATM    9  C11 UNL     1     -34.190   7.399   3.915  1.00 20.00    -0.012 C 
HETATM   10  C8  UNL     1     -34.919   6.065   4.076  1.00 20.00     0.010 C 
HETATM   11  C9  UNL     1     -33.919   8.026   5.283  1.00 20.00     0.010 C 
ENDBRANCH   5   9
TORSDOF 2
ENDMDL
MODEL 8
REMARK VINA RESULT:       0.5      1.719      3.191
REMARK  2 active torsions:
REMARK  status: ('A' for Active; 'I' for Inactive)
REMARK    1  A    between atoms: C4_4  and  C10_10 
REMARK    2  A    between atoms: C5_5  and  C11_11 
ROOT
HETATM    1  C1  UNL     1     -32.520   7.917   2.194  1.00 20.00     0.004 A 
HETATM    2  C2  UNL     1     -31.621   7.262   1.445  1.00 20.00    -0.017 A 
HETATM    3  C3  UNL     1     -32.982   5.720   2.560  1.00 20.00    -0.011 A 
HETATM    4  C4  UNL     1     -33.361   6.966   2.882  1.00 20.00    -0.058 A 
HETATM    5  C5  UNL     1     -31.820   5.777   1.600  1.00 20.00     0.034 A 
ENDROOT
BRANCH   4   6
HETATM    6  C10 UNL     1     -34.454   7.385   3.793  1.00 20.00     0.010 C 
HETATM    7  C6  UNL     1     -35.345   6.195   4.159  1.00 20.00     0.015 C 
HETATM    8  C7  UNL     1     -33.902   8.045   5.060  1.00 20.00     0.015 C 
ENDBRANCH   4   6
BRANCH   5   9
HETATM    9  C11 UNL     1     -32.134   5.095   0.275  1.00 20.00    -0.012 C 
HETATM   10  C8  UNL     1     -31.180   3.927   0.027  1.00 20.00     0.010 C 
HETATM   11  C9  UNL     1     -33.585   4.613   0.244  1.00 20.00     0.010 C 
ENDBRANCH   5   9
TORSDOF 2
ENDMDL
MODEL 9
REMARK VINA RESULT:       0.5      0.993      4.543
REMARK  2 active torsions:
REMARK  status: ('A' for Active; 'I' for Inactive)
REMARK    1  A    between atoms: C4_4  and  C10_10 
REMARK    2  A    between atoms: C5_5  and  C11_11 
ROOT
HETATM    1  C1  UNL     1     -33.258   8.329   3.821  1.00 20.00     0.004 A 
HETATM    2  C2  UNL     1     -34.244   7.665   4.441  1.00 20.00    -0.017 A 
HETATM    3  C3  UNL     1     -33.648   6.530   2.485  1.00 20.00    -0.011 A 
HETATM    4  C4  UNL     1     -32.888   7.629   2.613  1.00 20.00    -0.058 A 
HETATM    5  C5  UNL     1     -34.603   6.436   3.647  1.00 20.00     0.034 A 
ENDROOT
BRANCH   4   6
HETATM    6  C10 UNL     1     -31.823   8.118   1.705  1.00 20.00     0.010 C 
HETATM    7  C6  UNL     1     -31.275   6.978   0.843  1.00 20.00     0.015 C 
HETATM    8  C7  UNL     1     -32.328   9.261   0.818  1.00 20.00     0.015 C 
ENDBRANCH   4   6
BRANCH   5   9
HETATM    9  C11 UNL     1     -34.409   5.155   4.449  1.00 20.00    -0.012 C 
HETATM   10  C8  UNL     1     -35.738   4.679   5.039  1.00 20.00     0.010 C 
HETATM   11  C9  UNL     1     -33.790   4.060   3.581  1.00 20.00     0.010 C 
ENDBRANCH   5   9
TORSDOF 2
ENDMDL
