MODEL 1
REMARK VINA RESULT:      -3.4      0.000      0.000
REMARK  0 active torsions:
REMARK  status: ('A' for Active; 'I' for Inactive)
ROOT
HETATM    1  C1  UNL     1     -33.649   5.698   2.342  1.00 20.00     0.019 A 
HETATM    2  C2  UNL     1     -32.757   6.332   1.566  1.00 20.00     0.054 A 
HETATM    3  C3  UNL     1     -32.743   8.270   3.167  1.00 20.00     0.096 A 
HETATM    4  C4  UNL     1     -33.634   7.636   3.941  1.00 20.00     0.133 A 
HETATM    5  C5  UNL     1     -34.186   6.280   3.617  1.00 20.00     0.254 A 
HETATM    6  C6  UNL     1     -32.204   7.688   1.893  1.00 20.00     0.282 A 
HETATM    7  F7  UNL     1     -34.057   8.248   5.070  1.00 20.00    -0.207 F 
HETATM    8  F8  UNL     1     -35.546   6.352   3.545  1.00 20.00    -0.238 F 
HETATM    9  F9  UNL     1     -30.844   7.614   1.969  1.00 20.00    -0.197 F 
HETATM   10  F10 UNL     1     -32.464   8.542   0.861  1.00 20.00    -0.197 F 
ENDROOT
TORSDOF 0
ENDMDL
MODEL 2
REMARK VINA RESULT:      -3.3      1.353      2.594
REMARK  0 active torsions:
REMARK  status: ('A' for Active; 'I' for Inactive)
ROOT
HETATM    1  C1  UNL     1     -32.653   8.202   2.756  1.00 20.00     0.019 A 
HETATM    2  C2  UNL     1     -32.239   7.346   1.812  1.00 20.00     0.054 A 
HETATM    3  C3  UNL     1     -33.872   5.628   2.651  1.00 20.00     0.096 A 
HETATM    4  C4  UNL     1     -34.285   6.485   3.596  1.00 20.00     0.133 A 
HETATM    5  C5  UNL     1     -33.724   7.867   3.754  1.00 20.00     0.254 A 
HETATM    6  C6  UNL     1     -32.802   5.964   1.653  1.00 20.00     0.282 A 
HETATM    7  F7  UNL     1     -35.256   6.085   4.448  1.00 20.00    -0.207 F 
HETATM    8  F8  UNL     1     -33.229   8.011   5.017  1.00 20.00    -0.238 F 
HETATM    9  F9  UNL     1     -33.301   5.822   0.391  1.00 20.00    -0.197 F 
HETATM   10  F10 UNL     1     -31.793   5.051   1.749  1.00 20.00    -0.197 F 
ENDROOT
TORSDOF 0
ENDMDL
MODEL 3
REMARK VINA RESULT:      -3.0      1.581      2.752
REMARK  0 active torsions:
REMARK  status: ('A' for Active; 'I' for Inactive)
ROOT
HETATM    1  C1  UNL     1     -34.096   6.904   3.615  1.00 20.00     0.019 A 
HETATM    2  C2  UNL     1     -33.373   8.019   3.438  1.00 20.00     0.054 A 
HETATM    3  C3  UNL     1     -32.145   6.921   1.538  1.00 20.00     0.096 A 
HETATM    4  C4  UNL     1     -32.868   5.807   1.717  1.00 20.00     0.133 A 
HETATM    5  C5  UNL     1     -33.925   5.674   2.773  1.00 20.00     0.254 A 
HETATM    6  C6  UNL     1     -32.318   8.153   2.379  1.00 20.00     0.282 A 
HETATM    7  F7  UNL     1     -32.636   4.752   0.904  1.00 20.00    -0.207 F 
HETATM    8  F8  UNL     1     -33.628   4.612   3.576  1.00 20.00    -0.238 F 
HETATM    9  F9  UNL     1     -32.617   9.212   1.574  1.00 20.00    -0.197 F 
HETATM   10  F10 UNL     1     -31.127   8.469   2.966  1.00 20.00    -0.197 F 
ENDROOT
TORSDOF 0
ENDMDL
MODEL 4
REMARK VINA RESULT:      -3.0      1.049      3.308
REMARK  0 active torsions:
REMARK  status: ('A' for Active; 'I' for Inactive)
ROOT
HETATM    1  C1  UNL     1     -33.633   5.574   2.497  1.00 20.00     0.019 A 
HETATM    2  C2  UNL     1     -34.079   6.287   3.541  1.00 20.00     0.054 A 
HETATM    3  C3  UNL     1     -32.681   8.242   2.802  1.00 20.00     0.096 A 
HETATM    4  C4  UNL     1     -32.236   7.528   1.759  1.00 20.00     0.133 A 
HETATM    5  C5  UNL     1     -32.661   6.115   1.489  1.00 20.00     0.254 A 
HETATM    6  C6  UNL     1     -33.655   7.701   3.809  1.00 20.00     0.282 A 
HETATM    7  F7  UNL     1     -31.360   8.108   0.908  1.00 20.00    -0.207 F 
HETATM    8  F8  UNL     1     -31.560   5.313   1.444  1.00 20.00    -0.238 F 
HETATM    9  F9  UNL     1     -34.756   8.504   3.849  1.00 20.00    -0.197 F 
HETATM   10  F10 UNL     1     -33.103   7.778   5.055  1.00 20.00    -0.197 F 
ENDROOT
TORSDOF 0
ENDMDL
MODEL 5
REMARK VINA RESULT:      -3.0      1.181      3.859
REMARK  0 active torsions:
REMARK  status: ('A' for Active; 'I' for Inactive)
ROOT
HETATM    1  C1  UNL     1     -33.057   8.124   3.583  1.00 20.00     0.019 A 
HETATM    2  C2  UNL     1     -34.150   7.578   4.135  1.00 20.00     0.054 A 
HETATM    3  C3  UNL     1     -33.995   5.646   2.534  1.00 20.00     0.096 A 
HETATM    4  C4  UNL     1     -32.903   6.193   1.982  1.00 20.00     0.133 A 
HETATM    5  C5  UNL     1     -32.311   7.491   2.444  1.00 20.00     0.254 A 
HETATM    6  C6  UNL     1     -34.740   6.278   3.673  1.00 20.00     0.282 A 
HETATM    7  F7  UNL     1     -32.305   5.543   0.959  1.00 20.00    -0.207 F 
HETATM    8  F8  UNL     1     -32.259   8.362   1.396  1.00 20.00    -0.238 F 
HETATM    9  F9  UNL     1     -34.788   5.406   4.721  1.00 20.00    -0.197 F 
HETATM   10  F10 UNL     1     -36.040   6.477   3.307  1.00 20.00    -0.197 F 
ENDROOT
TORSDOF 0
ENDMDL
MODEL 6
REMARK VINA RESULT:      -2.2      1.785      3.118
REMARK  0 active torsions:
REMARK  status: ('A' for Active; 'I' for Inactive)
ROOT
HETATM    1  C1  UNL     1     -32.288   7.082   1.815  1.00 20.00     0.019 A 
HETATM    2  C2  UNL     1     -32.792   8.003   2.648  1.00 20.00     0.054 A 
HETATM    3  C3  UNL     1     -34.064   6.208   3.865  1.00 20.00     0.096 A 
HETATM    4  C4  UNL     1     -33.560   5.288   3.031  1.00 20.00     0.133 A 
HETATM    5  C5  UNL     1     -32.615   5.620   1.914  1.00 20.00     0.254 A 
HETATM    6  C6  UNL     1     -33.735   7.669   3.767  1.00 20.00     0.282 A 
HETATM    7  F7  UNL     1     -33.919   3.996   3.205  1.00 20.00    -0.207 F 
HETATM    8  F8  UNL     1     -33.146   5.193   0.733  1.00 20.00    -0.238 F 
HETATM    9  F9  UNL     1     -33.202   8.093   4.949  1.00 20.00    -0.197 F 
HETATM   10  F10 UNL     1     -34.888   8.381   3.613  1.00 20.00    -0.197 F 
ENDROOT
TORSDOF 0
ENDMDL
MODEL 7
REMARK VINA RESULT:      -1.8      1.608      2.305
REMARK  0 active torsions:
REMARK  status: ('A' for Active; 'I' for Inactive)
ROOT
HETATM    1  C1  UNL     1     -33.964   6.089   3.573  1.00 20.00     0.019 A 
HETATM    2  C2  UNL     1     -33.663   5.298   2.532  1.00 20.00     0.054 A 
HETATM    3  C3  UNL     1     -32.242   7.126   1.553  1.00 20.00     0.096 A 
HETATM    4  C4  UNL     1     -32.543   7.916   2.593  1.00 20.00     0.133 A 
HETATM    5  C5  UNL     1     -33.436   7.486   3.719  1.00 20.00     0.254 A 
HETATM    6  C6  UNL     1     -32.768   5.728   1.407  1.00 20.00     0.282 A 
HETATM    7  F7  UNL     1     -32.016   9.160   2.630  1.00 20.00    -0.207 F 
HETATM    8  F8  UNL     1     -34.480   8.357   3.824  1.00 20.00    -0.238 F 
HETATM    9  F9  UNL     1     -31.721   4.859   1.306  1.00 20.00    -0.197 F 
HETATM   10  F10 UNL     1     -33.444   5.621   0.227  1.00 20.00    -0.197 F 
ENDROOT
TORSDOF 0
ENDMDL
MODEL 8
REMARK VINA RESULT:      -1.6      1.792      3.262
REMARK  0 active torsions:
REMARK  status: ('A' for Active; 'I' for Inactive)
ROOT
HETATM    1  C1  UNL     1     -34.978   5.369   4.154  1.00 20.00     0.019 A 
HETATM    2  C2  UNL     1     -34.931   6.658   4.521  1.00 20.00     0.054 A 
HETATM    3  C3  UNL     1     -33.079   7.061   2.869  1.00 20.00     0.096 A 
HETATM    4  C4  UNL     1     -33.126   5.772   2.503  1.00 20.00     0.133 A 
HETATM    5  C5  UNL     1     -34.081   4.783   3.103  1.00 20.00     0.254 A 
HETATM    6  C6  UNL     1     -33.977   7.648   3.919  1.00 20.00     0.282 A 
HETATM    7  F7  UNL     1     -32.273   5.343   1.546  1.00 20.00    -0.207 F 
HETATM    8  F8  UNL     1     -33.377   3.743   3.635  1.00 20.00    -0.238 F 
HETATM    9  F9  UNL     1     -34.681   8.685   3.383  1.00 20.00    -0.197 F 
HETATM   10  F10 UNL     1     -33.215   8.199   4.908  1.00 20.00    -0.197 F 
ENDROOT
TORSDOF 0
ENDMDL
MODEL 9
REMARK VINA RESULT:      -1.4      1.124      3.325
REMARK  0 active torsions:
REMARK  status: ('A' for Active; 'I' for Inactive)
ROOT
HETATM    1  C1  UNL     1     -32.935   6.457   1.360  1.00 20.00     0.019 A 
HETATM    2  C2  UNL     1     -33.890   5.823   2.057  1.00 20.00     0.054 A 
HETATM    3  C3  UNL     1     -33.484   7.355   4.008  1.00 20.00     0.096 A 
HETATM    4  C4  UNL     1     -32.529   7.987   3.312  1.00 20.00     0.133 A 
HETATM    5  C5  UNL     1     -32.148   7.610   1.911  1.00 20.00     0.254 A 
HETATM    6  C6  UNL     1     -34.272   6.203   3.457  1.00 20.00     0.282 A 
HETATM    7  F7  UNL     1     -31.877   9.015   3.900  1.00 20.00    -0.207 F 
HETATM    8  F8  UNL     1     -30.817   7.313   1.869  1.00 20.00    -0.238 F 
HETATM    9  F9  UNL     1     -35.602   6.505   3.497  1.00 20.00    -0.197 F 
HETATM   10  F10 UNL     1     -34.121   5.121   4.275  1.00 20.00    -0.197 F 
ENDROOT
TORSDOF 0
ENDMDL
