MODEL 1
REMARK VINA RESULT:       2.0      0.000      0.000
REMARK  0 active torsions:
REMARK  status: ('A' for Active; 'I' for Inactive)
ROOT
HETATM    1  C1  UNL     1     -32.214   9.515   0.575  1.00 20.00     0.012 C 
HETATM    2  C2  UNL     1     -32.255   8.587   1.336  1.00 20.00    -0.112 C 
HETATM    3  C3  UNL     1     -33.534   5.362   3.772  1.00 20.00    -0.026 C 
HETATM    4  C4  UNL     1     -32.850   5.081   2.651  1.00 20.00    -0.024 C 
HETATM    5  C5  UNL     1     -35.174   6.739   2.553  1.00 20.00     0.009 C 
HETATM    6  C6  UNL     1     -34.389   6.403   1.264  1.00 20.00     0.010 C 
HETATM    7  C7  UNL     1     -33.136   7.793   3.540  1.00 20.00     0.026 C 
HETATM    8  C8  UNL     1     -32.306   7.450   2.271  1.00 20.00     0.072 C 
HETATM    9  C9  UNL     1     -34.222   6.712   3.768  1.00 20.00     0.009 C 
HETATM   10  C10 UNL     1     -32.894   6.177   1.601  1.00 20.00     0.023 C 
ENDROOT
TORSDOF 0
ENDMDL
MODEL 2
REMARK VINA RESULT:       2.1      1.034      3.467
REMARK  0 active torsions:
REMARK  status: ('A' for Active; 'I' for Inactive)
ROOT
HETATM    1  C1  UNL     1     -35.177   5.706   4.342  1.00 20.00     0.012 C 
HETATM    2  C2  UNL     1     -34.614   6.540   3.688  1.00 20.00    -0.112 C 
HETATM    3  C3  UNL     1     -31.876   8.617   1.205  1.00 20.00    -0.026 C 
HETATM    4  C4  UNL     1     -33.069   8.276   0.692  1.00 20.00    -0.024 C 
HETATM    5  C5  UNL     1     -31.410   6.307   1.930  1.00 20.00     0.009 C 
HETATM    6  C6  UNL     1     -32.780   5.919   1.326  1.00 20.00     0.010 C 
HETATM    7  C7  UNL     1     -32.528   7.909   3.485  1.00 20.00     0.026 C 
HETATM    8  C8  UNL     1     -33.923   7.565   2.887  1.00 20.00     0.072 C 
HETATM    9  C9  UNL     1     -31.440   7.780   2.391  1.00 20.00     0.009 C 
HETATM   10  C10 UNL     1     -33.751   7.123   1.407  1.00 20.00     0.023 C 
ENDROOT
TORSDOF 0
ENDMDL
MODEL 3
REMARK VINA RESULT:       2.7      1.057      2.480
REMARK  0 active torsions:
REMARK  status: ('A' for Active; 'I' for Inactive)
ROOT
HETATM    1  C1  UNL     1     -31.998  10.080  -0.406  1.00 20.00     0.012 C 
HETATM    2  C2  UNL     1     -32.565   9.354   0.364  1.00 20.00    -0.112 C 
HETATM    3  C3  UNL     1     -33.610   6.154   2.940  1.00 20.00    -0.026 C 
HETATM    4  C4  UNL     1     -33.273   7.332   3.491  1.00 20.00    -0.024 C 
HETATM    5  C5  UNL     1     -31.538   6.066   1.607  1.00 20.00     0.009 C 
HETATM    6  C6  UNL     1     -31.152   7.416   2.254  1.00 20.00     0.010 C 
HETATM    7  C7  UNL     1     -33.604   7.095   0.651  1.00 20.00     0.026 C 
HETATM    8  C8  UNL     1     -33.262   8.464   1.307  1.00 20.00     0.072 C 
HETATM    9  C9  UNL     1     -33.076   5.940   1.538  1.00 20.00     0.009 C 
HETATM   10  C10 UNL     1     -32.430   8.222   2.597  1.00 20.00     0.023 C 
ENDROOT
TORSDOF 0
ENDMDL
MODEL 4
REMARK VINA RESULT:       3.1      1.080      2.418
REMARK  0 active torsions:
REMARK  status: ('A' for Active; 'I' for Inactive)
ROOT
HETATM    1  C1  UNL     1     -31.412   8.042   1.250  1.00 20.00     0.012 C 
HETATM    2  C2  UNL     1     -32.394   7.468   1.631  1.00 20.00    -0.112 C 
HETATM    3  C3  UNL     1     -35.413   5.691   4.020  1.00 20.00    -0.026 C 
HETATM    4  C4  UNL     1     -35.699   6.837   3.380  1.00 20.00    -0.024 C 
HETATM    5  C5  UNL     1     -33.395   6.652   5.059  1.00 20.00     0.009 C 
HETATM    6  C6  UNL     1     -33.736   7.971   4.329  1.00 20.00     0.010 C 
HETATM    7  C7  UNL     1     -33.234   5.461   2.869  1.00 20.00     0.026 C 
HETATM    8  C8  UNL     1     -33.599   6.763   2.099  1.00 20.00     0.072 C 
HETATM    9  C9  UNL     1     -33.935   5.452   4.250  1.00 20.00     0.009 C 
HETATM   10  C10 UNL     1     -34.482   7.665   3.006  1.00 20.00     0.023 C 
ENDROOT
TORSDOF 0
ENDMDL
MODEL 5
REMARK VINA RESULT:       3.1      1.918      3.937
REMARK  0 active torsions:
REMARK  status: ('A' for Active; 'I' for Inactive)
ROOT
HETATM    1  C1  UNL     1     -32.732   3.023   5.196  1.00 20.00     0.012 C 
HETATM    2  C2  UNL     1     -33.416   3.702   4.480  1.00 20.00    -0.112 C 
HETATM    3  C3  UNL     1     -35.375   6.953   2.592  1.00 20.00    -0.026 C 
HETATM    4  C4  UNL     1     -34.388   6.330   1.926  1.00 20.00    -0.024 C 
HETATM    5  C5  UNL     1     -33.950   7.324   4.568  1.00 20.00     0.009 C 
HETATM    6  C6  UNL     1     -32.815   6.616   3.792  1.00 20.00     0.010 C 
HETATM    7  C7  UNL     1     -35.364   5.272   4.408  1.00 20.00     0.026 C 
HETATM    8  C8  UNL     1     -34.256   4.534   3.603  1.00 20.00     0.072 C 
HETATM    9  C9  UNL     1     -35.319   6.789   4.097  1.00 20.00     0.009 C 
HETATM   10  C10 UNL     1     -33.415   5.576   2.814  1.00 20.00     0.023 C 
ENDROOT
TORSDOF 0
ENDMDL
MODEL 6
REMARK VINA RESULT:       3.2      1.179      3.341
REMARK  0 active torsions:
REMARK  status: ('A' for Active; 'I' for Inactive)
ROOT
HETATM    1  C1  UNL     1     -35.722   5.987   4.262  1.00 20.00     0.012 C 
HETATM    2  C2  UNL     1     -34.630   6.248   3.838  1.00 20.00    -0.112 C 
HETATM    3  C3  UNL     1     -31.198   6.670   1.385  1.00 20.00    -0.026 C 
HETATM    4  C4  UNL     1     -31.920   7.767   1.665  1.00 20.00    -0.024 C 
HETATM    5  C5  UNL     1     -33.178   5.447   0.572  1.00 20.00     0.009 C 
HETATM    6  C6  UNL     1     -34.001   6.718   0.886  1.00 20.00     0.010 C 
HETATM    7  C7  UNL     1     -32.493   5.277   2.968  1.00 20.00     0.026 C 
HETATM    8  C8  UNL     1     -33.289   6.567   3.320  1.00 20.00     0.072 C 
HETATM    9  C9  UNL     1     -31.959   5.366   1.517  1.00 20.00     0.009 C 
HETATM   10  C10 UNL     1     -33.356   7.485   2.067  1.00 20.00     0.023 C 
ENDROOT
TORSDOF 0
ENDMDL
MODEL 7
REMARK VINA RESULT:       3.2      1.188      3.560
REMARK  0 active torsions:
REMARK  status: ('A' for Active; 'I' for Inactive)
ROOT
HETATM    1  C1  UNL     1     -35.578   6.413   3.785  1.00 20.00     0.012 C 
HETATM    2  C2  UNL     1     -34.425   6.597   3.507  1.00 20.00    -0.112 C 
HETATM    3  C3  UNL     1     -30.819   7.979   1.757  1.00 20.00    -0.026 C 
HETATM    4  C4  UNL     1     -31.125   8.392   2.998  1.00 20.00    -0.024 C 
HETATM    5  C5  UNL     1     -33.003   8.700   0.867  1.00 20.00     0.009 C 
HETATM    6  C6  UNL     1     -33.343   9.183   2.296  1.00 20.00     0.010 C 
HETATM    7  C7  UNL     1     -32.698   6.369   1.709  1.00 20.00     0.026 C 
HETATM    8  C8  UNL     1     -33.010   6.820   3.165  1.00 20.00     0.072 C 
HETATM    9  C9  UNL     1     -32.008   7.521   0.937  1.00 20.00     0.009 C 
HETATM   10  C10 UNL     1     -32.602   8.310   3.339  1.00 20.00     0.023 C 
ENDROOT
TORSDOF 0
ENDMDL
MODEL 8
REMARK VINA RESULT:       3.3      1.269      2.240
REMARK  0 active torsions:
REMARK  status: ('A' for Active; 'I' for Inactive)
ROOT
HETATM    1  C1  UNL     1     -32.730   9.888  -0.793  1.00 20.00     0.012 C 
HETATM    2  C2  UNL     1     -32.710   9.683   0.390  1.00 20.00    -0.112 C 
HETATM    3  C3  UNL     1     -32.854   7.874   4.221  1.00 20.00    -0.026 C 
HETATM    4  C4  UNL     1     -31.659   8.258   3.742  1.00 20.00    -0.024 C 
HETATM    5  C5  UNL     1     -33.361   6.564   2.195  1.00 20.00     0.009 C 
HETATM    6  C6  UNL     1     -31.980   7.001   1.655  1.00 20.00     0.010 C 
HETATM    7  C7  UNL     1     -34.074   8.952   2.357  1.00 20.00     0.026 C 
HETATM    8  C8  UNL     1     -32.687   9.433   1.840  1.00 20.00     0.072 C 
HETATM    9  C9  UNL     1     -33.909   7.638   3.160  1.00 20.00     0.009 C 
HETATM   10  C10 UNL     1     -31.604   8.389   2.231  1.00 20.00     0.023 C 
ENDROOT
TORSDOF 0
ENDMDL
MODEL 9
REMARK VINA RESULT:       3.9      1.261      2.982
REMARK  0 active torsions:
REMARK  status: ('A' for Active; 'I' for Inactive)
ROOT
HETATM    1  C1  UNL     1     -33.166   8.297   5.174  1.00 20.00     0.012 C 
HETATM    2  C2  UNL     1     -33.255   7.922   4.037  1.00 20.00    -0.112 C 
HETATM    3  C3  UNL     1     -33.041   5.659   0.458  1.00 20.00    -0.026 C 
HETATM    4  C4  UNL     1     -34.238   5.804   1.050  1.00 20.00    -0.024 C 
HETATM    5  C5  UNL     1     -32.000   4.828   2.532  1.00 20.00     0.009 C 
HETATM    6  C6  UNL     1     -33.383   4.987   3.204  1.00 20.00     0.010 C 
HETATM    7  C7  UNL     1     -31.960   7.268   1.997  1.00 20.00     0.026 C 
HETATM    8  C8  UNL     1     -33.362   7.463   2.642  1.00 20.00     0.072 C 
HETATM    9  C9  UNL     1     -31.856   5.850   1.383  1.00 20.00     0.009 C 
HETATM   10  C10 UNL     1     -34.168   6.139   2.529  1.00 20.00     0.023 C 
ENDROOT
TORSDOF 0
ENDMDL
