MODEL 1
REMARK VINA RESULT:      -3.2      0.000      0.000
REMARK  0 active torsions:
REMARK  status: ('A' for Active; 'I' for Inactive)
ROOT
HETATM    1  C1  UNL     1     -32.583   8.177   2.645  1.00 20.00     0.017 A 
HETATM    2  C2  UNL     1     -32.144   7.343   1.694  1.00 20.00     0.054 A 
HETATM    3  C3  UNL     1     -33.753   5.587   2.496  1.00 20.00     0.060 A 
HETATM    4  C4  UNL     1     -34.202   6.414   3.456  1.00 20.00    -0.044 A 
HETATM    5  C5  UNL     1     -33.654   7.810   3.630  1.00 20.00     0.221 A 
HETATM    6  C6  UNL     1     -32.679   5.955   1.513  1.00 20.00     0.280 A 
HETATM    7  C7  UNL     1     -35.280   6.001   4.415  1.00 20.00     0.046 C 
HETATM    8  F8  UNL     1     -33.165   7.956   4.896  1.00 20.00    -0.240 F 
HETATM    9  F9  UNL     1     -33.161   5.819   0.246  1.00 20.00    -0.197 F 
HETATM   10  F10 UNL     1     -31.654   5.060   1.610  1.00 20.00    -0.197 F 
ENDROOT
TORSDOF 0
ENDMDL
MODEL 2
REMARK VINA RESULT:      -2.8      1.887      3.328
REMARK  0 active torsions:
REMARK  status: ('A' for Active; 'I' for Inactive)
ROOT
HETATM    1  C1  UNL     1     -33.139   8.127   3.714  1.00 20.00     0.017 A 
HETATM    2  C2  UNL     1     -34.254   7.583   4.218  1.00 20.00     0.054 A 
HETATM    3  C3  UNL     1     -34.057   5.678   2.591  1.00 20.00     0.060 A 
HETATM    4  C4  UNL     1     -32.937   6.213   2.075  1.00 20.00    -0.044 A 
HETATM    5  C5  UNL     1     -32.359   7.509   2.590  1.00 20.00     0.221 A 
HETATM    6  C6  UNL     1     -34.838   6.299   3.712  1.00 20.00     0.280 A 
HETATM    7  C7  UNL     1     -32.189   5.554   0.954  1.00 20.00     0.046 C 
HETATM    8  F8  UNL     1     -32.263   8.408   1.567  1.00 20.00    -0.240 F 
HETATM    9  F9  UNL     1     -34.934   5.411   4.742  1.00 20.00    -0.197 F 
HETATM   10  F10 UNL     1     -36.121   6.517   3.302  1.00 20.00    -0.197 F 
ENDROOT
TORSDOF 0
ENDMDL
MODEL 3
REMARK VINA RESULT:      -2.4      0.827      3.862
REMARK  0 active torsions:
REMARK  status: ('A' for Active; 'I' for Inactive)
ROOT
HETATM    1  C1  UNL     1     -33.626   5.546   2.539  1.00 20.00     0.017 A 
HETATM    2  C2  UNL     1     -34.074   6.230   3.600  1.00 20.00     0.054 A 
HETATM    3  C3  UNL     1     -32.818   8.261   2.816  1.00 20.00     0.060 A 
HETATM    4  C4  UNL     1     -32.360   7.586   1.748  1.00 20.00    -0.044 A 
HETATM    5  C5  UNL     1     -32.722   6.141   1.499  1.00 20.00     0.221 A 
HETATM    6  C6  UNL     1     -33.719   7.663   3.857  1.00 20.00     0.280 A 
HETATM    7  C7  UNL     1     -31.462   8.227   0.732  1.00 20.00     0.046 C 
HETATM    8  F8  UNL     1     -31.584   5.392   1.416  1.00 20.00    -0.240 F 
HETATM    9  F9  UNL     1     -34.862   8.402   3.943  1.00 20.00    -0.197 F 
HETATM   10  F10 UNL     1     -33.127   7.769   5.081  1.00 20.00    -0.197 F 
ENDROOT
TORSDOF 0
ENDMDL
MODEL 4
REMARK VINA RESULT:      -2.4      1.687      2.591
REMARK  0 active torsions:
REMARK  status: ('A' for Active; 'I' for Inactive)
ROOT
HETATM    1  C1  UNL     1     -33.569   5.709   2.201  1.00 20.00     0.017 A 
HETATM    2  C2  UNL     1     -32.694   6.340   1.409  1.00 20.00     0.054 A 
HETATM    3  C3  UNL     1     -32.580   8.238   3.052  1.00 20.00     0.060 A 
HETATM    4  C4  UNL     1     -33.458   7.615   3.857  1.00 20.00    -0.044 A 
HETATM    5  C5  UNL     1     -34.050   6.270   3.507  1.00 20.00     0.221 A 
HETATM    6  C6  UNL     1     -32.102   7.676   1.745  1.00 20.00     0.280 A 
HETATM    7  C7  UNL     1     -33.906   8.217   5.157  1.00 20.00     0.046 C 
HETATM    8  F8  UNL     1     -35.411   6.362   3.478  1.00 20.00    -0.240 F 
HETATM    9  F9  UNL     1     -30.743   7.575   1.767  1.00 20.00    -0.197 F 
HETATM   10  F10 UNL     1     -32.384   8.559   0.745  1.00 20.00    -0.197 F 
ENDROOT
TORSDOF 0
ENDMDL
MODEL 5
REMARK VINA RESULT:      -2.4      1.734      3.150
REMARK  0 active torsions:
REMARK  status: ('A' for Active; 'I' for Inactive)
ROOT
HETATM    1  C1  UNL     1     -34.113   6.818   3.538  1.00 20.00     0.017 A 
HETATM    2  C2  UNL     1     -33.447   7.975   3.439  1.00 20.00     0.054 A 
HETATM    3  C3  UNL     1     -32.052   7.009   1.585  1.00 20.00     0.060 A 
HETATM    4  C4  UNL     1     -32.713   5.842   1.674  1.00 20.00    -0.044 A 
HETATM    5  C5  UNL     1     -33.824   5.625   2.674  1.00 20.00     0.221 A 
HETATM    6  C6  UNL     1     -32.342   8.199   2.452  1.00 20.00     0.280 A 
HETATM    7  C7  UNL     1     -32.389   4.679   0.784  1.00 20.00     0.046 C 
HETATM    8  F8  UNL     1     -33.521   4.560   3.472  1.00 20.00    -0.240 F 
HETATM    9  F9  UNL     1     -32.650   9.268   1.664  1.00 20.00    -0.197 F 
HETATM   10  F10 UNL     1     -31.207   8.558   3.119  1.00 20.00    -0.197 F 
ENDROOT
TORSDOF 0
ENDMDL
MODEL 6
REMARK VINA RESULT:      -1.5      1.696      3.736
REMARK  0 active torsions:
REMARK  status: ('A' for Active; 'I' for Inactive)
ROOT
HETATM    1  C1  UNL     1     -34.933   5.505   4.083  1.00 20.00     0.017 A 
HETATM    2  C2  UNL     1     -34.881   6.771   4.516  1.00 20.00     0.054 A 
HETATM    3  C3  UNL     1     -33.043   7.255   2.872  1.00 20.00     0.060 A 
HETATM    4  C4  UNL     1     -33.084   5.987   2.428  1.00 20.00    -0.044 A 
HETATM    5  C5  UNL     1     -34.045   4.971   2.997  1.00 20.00     0.221 A 
HETATM    6  C6  UNL     1     -33.930   7.787   3.960  1.00 20.00     0.280 A 
HETATM    7  C7  UNL     1     -32.177   5.501   1.336  1.00 20.00     0.046 C 
HETATM    8  F8  UNL     1     -33.348   3.900   3.478  1.00 20.00    -0.240 F 
HETATM    9  F9  UNL     1     -34.634   8.853   3.487  1.00 20.00    -0.197 F 
HETATM   10  F10 UNL     1     -33.157   8.282   4.970  1.00 20.00    -0.197 F 
ENDROOT
TORSDOF 0
ENDMDL
MODEL 7
REMARK VINA RESULT:      -1.4      1.064      3.345
REMARK  0 active torsions:
REMARK  status: ('A' for Active; 'I' for Inactive)
ROOT
HETATM    1  C1  UNL     1     -32.331   7.084   1.870  1.00 20.00     0.017 A 
HETATM    2  C2  UNL     1     -32.838   8.037   2.662  1.00 20.00     0.054 A 
HETATM    3  C3  UNL     1     -34.054   6.284   3.990  1.00 20.00     0.060 A 
HETATM    4  C4  UNL     1     -33.553   5.317   3.203  1.00 20.00    -0.044 A 
HETATM    5  C5  UNL     1     -32.629   5.624   2.048  1.00 20.00     0.221 A 
HETATM    6  C6  UNL     1     -33.757   7.745   3.809  1.00 20.00     0.280 A 
HETATM    7  C7  UNL     1     -33.877   3.869   3.424  1.00 20.00     0.046 C 
HETATM    8  F8  UNL     1     -33.165   5.134   0.892  1.00 20.00    -0.240 F 
HETATM    9  F9  UNL     1     -33.217   8.241   4.958  1.00 20.00    -0.197 F 
HETATM   10  F10 UNL     1     -34.927   8.425   3.636  1.00 20.00    -0.197 F 
ENDROOT
TORSDOF 0
ENDMDL
MODEL 8
REMARK VINA RESULT:      -1.3      1.595      3.019
REMARK  0 active torsions:
REMARK  status: ('A' for Active; 'I' for Inactive)
ROOT
HETATM    1  C1  UNL     1     -32.012   6.061   1.437  1.00 20.00     0.017 A 
HETATM    2  C2  UNL     1     -31.526   7.304   1.537  1.00 20.00     0.054 A 
HETATM    3  C3  UNL     1     -33.352   7.883   3.164  1.00 20.00     0.060 A 
HETATM    4  C4  UNL     1     -33.850   6.639   3.073  1.00 20.00    -0.044 A 
HETATM    5  C5  UNL     1     -33.223   5.588   2.187  1.00 20.00     0.221 A 
HETATM    6  C6  UNL     1     -32.142   8.355   2.410  1.00 20.00     0.280 A 
HETATM    7  C7  UNL     1     -35.062   6.212   3.848  1.00 20.00     0.046 C 
HETATM    8  F8  UNL     1     -34.149   5.128   1.296  1.00 20.00    -0.240 F 
HETATM    9  F9  UNL     1     -31.209   8.811   3.293  1.00 20.00    -0.197 F 
HETATM   10  F10 UNL     1     -32.478   9.435   1.649  1.00 20.00    -0.197 F 
ENDROOT
TORSDOF 0
ENDMDL
MODEL 9
REMARK VINA RESULT:      -1.0      1.395      2.475
REMARK  0 active torsions:
REMARK  status: ('A' for Active; 'I' for Inactive)
ROOT
HETATM    1  C1  UNL     1     -34.012   4.499   3.484  1.00 20.00     0.017 A 
HETATM    2  C2  UNL     1     -33.347   4.491   2.322  1.00 20.00     0.054 A 
HETATM    3  C3  UNL     1     -33.186   6.998   2.402  1.00 20.00     0.060 A 
HETATM    4  C4  UNL     1     -33.853   7.020   3.568  1.00 20.00    -0.044 A 
HETATM    5  C5  UNL     1     -34.341   5.756   4.235  1.00 20.00     0.221 A 
HETATM    6  C6  UNL     1     -32.861   5.739   1.651  1.00 20.00     0.280 A 
HETATM    7  C7  UNL     1     -34.154   8.304   4.284  1.00 20.00     0.046 C 
HETATM    8  F8  UNL     1     -35.692   5.826   4.418  1.00 20.00    -0.240 F 
HETATM    9  F9  UNL     1     -31.512   5.658   1.469  1.00 20.00    -0.197 F 
HETATM   10  F10 UNL     1     -33.391   5.813   0.396  1.00 20.00    -0.197 F 
ENDROOT
TORSDOF 0
ENDMDL
