MODEL 1
REMARK VINA RESULT:      -1.9      0.000      0.000
REMARK  0 active torsions:
REMARK  status: ('A' for Active; 'I' for Inactive)
ROOT
HETATM    1  C1  UNL     1     -33.999   6.406   3.017  1.00 20.00    -0.004 C 
HETATM    2  C2  UNL     1     -33.178   5.896   1.946  1.00 20.00    -0.003 C 
HETATM    3  C3  UNL     1     -33.666   7.525   3.676  1.00 20.00    -0.025 C 
HETATM    4  C4  UNL     1     -32.172   6.621   1.436  1.00 20.00    -0.011 C 
HETATM    5  C5  UNL     1     -32.434   8.321   3.337  1.00 20.00     0.047 C 
HETATM    6  C6  UNL     1     -31.827   7.983   1.962  1.00 20.00     0.084 C 
HETATM    7 BR7  UNL     1     -32.480   9.271   0.627  1.00 20.00    -0.087 Br
ENDROOT
TORSDOF 0
ENDMDL
MODEL 2
REMARK VINA RESULT:      -1.5      2.587      3.245
REMARK  0 active torsions:
REMARK  status: ('A' for Active; 'I' for Inactive)
ROOT
HETATM    1  C1  UNL     1     -32.877   7.822   3.244  1.00 20.00    -0.004 C 
HETATM    2  C2  UNL     1     -32.610   6.888   2.178  1.00 20.00    -0.003 C 
HETATM    3  C3  UNL     1     -33.935   7.671   4.053  1.00 20.00    -0.025 C 
HETATM    4  C4  UNL     1     -33.285   5.733   2.082  1.00 20.00    -0.011 C 
HETATM    5  C5  UNL     1     -34.898   6.523   3.912  1.00 20.00     0.047 C 
HETATM    6  C6  UNL     1     -34.364   5.359   3.055  1.00 20.00     0.084 C 
HETATM    7 BR7  UNL     1     -33.596   3.983   4.231  1.00 20.00    -0.087 Br
ENDROOT
TORSDOF 0
ENDMDL
MODEL 3
REMARK VINA RESULT:      -0.8      2.268      3.277
REMARK  0 active torsions:
REMARK  status: ('A' for Active; 'I' for Inactive)
ROOT
HETATM    1  C1  UNL     1     -34.105   4.256   4.083  1.00 20.00    -0.004 C 
HETATM    2  C2  UNL     1     -35.247   5.053   4.457  1.00 20.00    -0.003 C 
HETATM    3  C3  UNL     1     -33.183   4.719   3.227  1.00 20.00    -0.025 C 
HETATM    4  C4  UNL     1     -35.327   6.351   4.126  1.00 20.00    -0.011 C 
HETATM    5  C5  UNL     1     -33.272   6.092   2.615  1.00 20.00     0.047 C 
HETATM    6  C6  UNL     1     -34.252   7.037   3.334  1.00 20.00     0.084 C 
HETATM    7 BR7  UNL     1     -33.260   8.159   4.607  1.00 20.00    -0.087 Br
ENDROOT
TORSDOF 0
ENDMDL
MODEL 4
REMARK VINA RESULT:      -0.6      2.004      2.581
REMARK  0 active torsions:
REMARK  status: ('A' for Active; 'I' for Inactive)
ROOT
HETATM    1  C1  UNL     1     -35.401   6.147   4.226  1.00 20.00    -0.004 C 
HETATM    2  C2  UNL     1     -34.771   4.850   4.172  1.00 20.00    -0.003 C 
HETATM    3  C3  UNL     1     -34.756   7.251   3.824  1.00 20.00    -0.025 C 
HETATM    4  C4  UNL     1     -33.604   4.671   3.536  1.00 20.00    -0.011 C 
HETATM    5  C5  UNL     1     -33.351   7.210   3.285  1.00 20.00     0.047 C 
HETATM    6  C6  UNL     1     -32.879   5.804   2.870  1.00 20.00     0.084 C 
HETATM    7 BR7  UNL     1     -33.148   5.570   0.937  1.00 20.00    -0.087 Br
ENDROOT
TORSDOF 0
ENDMDL
MODEL 5
REMARK VINA RESULT:      -0.5      2.016      3.217
REMARK  0 active torsions:
REMARK  status: ('A' for Active; 'I' for Inactive)
ROOT
HETATM    1  C1  UNL     1     -32.269   7.250   1.444  1.00 20.00    -0.004 C 
HETATM    2  C2  UNL     1     -32.440   8.098   2.598  1.00 20.00    -0.003 C 
HETATM    3  C3  UNL     1     -32.648   5.964   1.463  1.00 20.00    -0.025 C 
HETATM    4  C4  UNL     1     -33.162   7.696   3.655  1.00 20.00    -0.011 C 
HETATM    5  C5  UNL     1     -33.281   5.331   2.674  1.00 20.00     0.047 C 
HETATM    6  C6  UNL     1     -33.808   6.343   3.708  1.00 20.00     0.084 C 
HETATM    7 BR7  UNL     1     -35.729   6.636   3.413  1.00 20.00    -0.087 Br
ENDROOT
TORSDOF 0
ENDMDL
MODEL 6
REMARK VINA RESULT:      -0.3      0.746      1.292
REMARK  0 active torsions:
REMARK  status: ('A' for Active; 'I' for Inactive)
ROOT
HETATM    1  C1  UNL     1     -33.251   5.500   1.544  1.00 20.00    -0.004 C 
HETATM    2  C2  UNL     1     -31.913   5.828   1.117  1.00 20.00    -0.003 C 
HETATM    3  C3  UNL     1     -33.919   6.282   2.403  1.00 20.00    -0.025 C 
HETATM    4  C4  UNL     1     -31.367   7.020   1.400  1.00 20.00    -0.011 C 
HETATM    5  C5  UNL     1     -33.328   7.547   2.965  1.00 20.00     0.047 C 
HETATM    6  C6  UNL     1     -32.100   8.063   2.191  1.00 20.00     0.084 C 
HETATM    7 BR7  UNL     1     -32.671   9.434   0.903  1.00 20.00    -0.087 Br
ENDROOT
TORSDOF 0
ENDMDL
MODEL 7
REMARK VINA RESULT:      -0.3      1.896      2.636
REMARK  0 active torsions:
REMARK  status: ('A' for Active; 'I' for Inactive)
ROOT
HETATM    1  C1  UNL     1     -32.418   5.789   1.846  1.00 20.00    -0.004 C 
HETATM    2  C2  UNL     1     -33.608   5.459   2.590  1.00 20.00    -0.003 C 
HETATM    3  C3  UNL     1     -32.043   7.063   1.661  1.00 20.00    -0.025 C 
HETATM    4  C4  UNL     1     -34.269   6.391   3.292  1.00 20.00    -0.011 C 
HETATM    5  C5  UNL     1     -32.826   8.220   2.223  1.00 20.00     0.047 C 
HETATM    6  C6  UNL     1     -33.827   7.824   3.324  1.00 20.00     0.084 C 
HETATM    7 BR7  UNL     1     -33.004   8.109   5.087  1.00 20.00    -0.087 Br
ENDROOT
TORSDOF 0
ENDMDL
MODEL 8
REMARK VINA RESULT:      -0.1      1.658      2.415
REMARK  0 active torsions:
REMARK  status: ('A' for Active; 'I' for Inactive)
ROOT
HETATM    1  C1  UNL     1     -33.859   7.750   3.517  1.00 20.00    -0.004 C 
HETATM    2  C2  UNL     1     -34.205   6.367   3.737  1.00 20.00    -0.003 C 
HETATM    3  C3  UNL     1     -32.889   8.097   2.660  1.00 20.00    -0.025 C 
HETATM    4  C4  UNL     1     -33.716   5.396   2.952  1.00 20.00    -0.011 C 
HETATM    5  C5  UNL     1     -32.112   7.078   1.869  1.00 20.00     0.047 C 
HETATM    6  C6  UNL     1     -32.770   5.686   1.824  1.00 20.00     0.084 C 
HETATM    7 BR7  UNL     1     -33.815   5.513   0.168  1.00 20.00    -0.087 Br
ENDROOT
TORSDOF 0
ENDMDL
