MODEL 1
REMARK VINA RESULT:      -2.0      0.000      0.000
REMARK  0 active torsions:
REMARK  status: ('A' for Active; 'I' for Inactive)
ROOT
HETATM    1  C1  UNL     1     -34.432   6.435   3.607  1.00 20.00    -0.087 C 
HETATM    2  C2  UNL     1     -35.342   5.752   4.301  1.00 20.00     0.014 C 
HETATM    3  C3  UNL     1     -33.576   6.093   2.406  1.00 20.00     0.049 C 
HETATM    4  C4  UNL     1     -33.879   7.838   3.721  1.00 20.00     0.049 C 
HETATM    5  C5  UNL     1     -32.696   7.273   2.894  1.00 20.00     0.065 C 
HETATM    6 BR6  UNL     1     -32.022   8.441   1.502  1.00 20.00    -0.091 Br
ENDROOT
TORSDOF 0
ENDMDL
MODEL 2
REMARK VINA RESULT:      -1.7      2.347      3.246
REMARK  0 active torsions:
REMARK  status: ('A' for Active; 'I' for Inactive)
ROOT
HETATM    1  C1  UNL     1     -32.642   7.371   2.189  1.00 20.00    -0.087 C 
HETATM    2  C2  UNL     1     -32.002   8.347   1.544  1.00 20.00     0.014 C 
HETATM    3  C3  UNL     1     -32.872   5.907   1.885  1.00 20.00     0.049 C 
HETATM    4  C4  UNL     1     -33.399   7.316   3.498  1.00 20.00     0.049 C 
HETATM    5  C5  UNL     1     -34.041   6.041   2.893  1.00 20.00     0.065 C 
HETATM    6 BR6  UNL     1     -34.258   4.557   4.121  1.00 20.00    -0.091 Br
ENDROOT
TORSDOF 0
ENDMDL
MODEL 3
REMARK VINA RESULT:      -1.5      2.253      3.454
REMARK  0 active torsions:
REMARK  status: ('A' for Active; 'I' for Inactive)
ROOT
HETATM    1  C1  UNL     1     -32.565   7.605   2.089  1.00 20.00    -0.087 C 
HETATM    2  C2  UNL     1     -31.642   8.235   1.362  1.00 20.00     0.014 C 
HETATM    3  C3  UNL     1     -33.303   7.962   3.360  1.00 20.00     0.049 C 
HETATM    4  C4  UNL     1     -33.268   6.274   1.942  1.00 20.00     0.049 C 
HETATM    5  C5  UNL     1     -33.559   6.436   3.455  1.00 20.00     0.065 C 
HETATM    6 BR6  UNL     1     -35.342   5.924   4.019  1.00 20.00    -0.091 Br
ENDROOT
TORSDOF 0
ENDMDL
MODEL 4
REMARK VINA RESULT:      -0.9      1.734      2.232
REMARK  0 active torsions:
REMARK  status: ('A' for Active; 'I' for Inactive)
ROOT
HETATM    1  C1  UNL     1     -33.577   7.257   3.505  1.00 20.00    -0.087 C 
HETATM    2  C2  UNL     1     -34.102   8.004   4.475  1.00 20.00     0.014 C 
HETATM    3  C3  UNL     1     -32.539   7.527   2.437  1.00 20.00     0.049 C 
HETATM    4  C4  UNL     1     -33.790   5.824   3.069  1.00 20.00     0.049 C 
HETATM    5  C5  UNL     1     -33.175   6.303   1.729  1.00 20.00     0.065 C 
HETATM    6 BR6  UNL     1     -31.923   5.075   0.902  1.00 20.00    -0.091 Br
ENDROOT
TORSDOF 0
ENDMDL
MODEL 5
REMARK VINA RESULT:      -0.9      1.873      2.796
REMARK  0 active torsions:
REMARK  status: ('A' for Active; 'I' for Inactive)
ROOT
HETATM    1  C1  UNL     1     -32.774   6.039   1.811  1.00 20.00    -0.087 C 
HETATM    2  C2  UNL     1     -32.426   5.260   0.787  1.00 20.00     0.014 C 
HETATM    3  C3  UNL     1     -33.672   5.830   3.012  1.00 20.00     0.049 C 
HETATM    4  C4  UNL     1     -32.412   7.453   2.208  1.00 20.00     0.049 C 
HETATM    5  C5  UNL     1     -33.705   7.380   3.060  1.00 20.00     0.065 C 
HETATM    6 BR6  UNL     1     -33.581   8.161   4.829  1.00 20.00    -0.091 Br
ENDROOT
TORSDOF 0
ENDMDL
MODEL 6
REMARK VINA RESULT:      -0.8      2.861      3.381
REMARK  0 active torsions:
REMARK  status: ('A' for Active; 'I' for Inactive)
ROOT
HETATM    1  C1  UNL     1     -34.511   6.318   3.769  1.00 20.00    -0.087 C 
HETATM    2  C2  UNL     1     -34.920   7.564   3.531  1.00 20.00     0.014 C 
HETATM    3  C3  UNL     1     -33.306   5.520   3.319  1.00 20.00     0.049 C 
HETATM    4  C4  UNL     1     -35.073   5.183   4.596  1.00 20.00     0.049 C 
HETATM    5  C5  UNL     1     -34.172   4.292   3.703  1.00 20.00     0.065 C 
HETATM    6 BR6  UNL     1     -33.235   2.868   4.626  1.00 20.00    -0.091 Br
ENDROOT
TORSDOF 0
ENDMDL
MODEL 7
REMARK VINA RESULT:      -0.5      1.619      2.153
REMARK  0 active torsions:
REMARK  status: ('A' for Active; 'I' for Inactive)
ROOT
HETATM    1  C1  UNL     1     -33.616   7.400   3.710  1.00 20.00    -0.087 C 
HETATM    2  C2  UNL     1     -33.813   8.162   4.785  1.00 20.00     0.014 C 
HETATM    3  C3  UNL     1     -34.165   6.058   3.277  1.00 20.00     0.049 C 
HETATM    4  C4  UNL     1     -32.768   7.560   2.467  1.00 20.00     0.049 C 
HETATM    5  C5  UNL     1     -32.922   6.022   2.352  1.00 20.00     0.065 C 
HETATM    6 BR6  UNL     1     -33.234   5.348   0.561  1.00 20.00    -0.091 Br
ENDROOT
TORSDOF 0
ENDMDL
MODEL 8
REMARK VINA RESULT:      -0.4      2.485      3.102
REMARK  0 active torsions:
REMARK  status: ('A' for Active; 'I' for Inactive)
ROOT
HETATM    1  C1  UNL     1     -33.719   3.849   4.227  1.00 20.00    -0.087 C 
HETATM    2  C2  UNL     1     -33.409   2.570   4.439  1.00 20.00     0.014 C 
HETATM    3  C3  UNL     1     -34.846   4.735   4.712  1.00 20.00     0.049 C 
HETATM    4  C4  UNL     1     -33.070   4.953   3.422  1.00 20.00     0.049 C 
HETATM    5  C5  UNL     1     -34.470   5.615   3.493  1.00 20.00     0.065 C 
HETATM    6 BR6  UNL     1     -34.471   7.527   3.813  1.00 20.00    -0.091 Br
ENDROOT
TORSDOF 0
ENDMDL
MODEL 9
REMARK VINA RESULT:      -0.4      2.914      4.181
REMARK  0 active torsions:
REMARK  status: ('A' for Active; 'I' for Inactive)
ROOT
HETATM    1  C1  UNL     1     -32.389   9.462   0.721  1.00 20.00    -0.087 C 
HETATM    2  C2  UNL     1     -32.522  10.737   0.357  1.00 20.00     0.014 C 
HETATM    3  C3  UNL     1     -33.016   8.627   1.817  1.00 20.00     0.049 C 
HETATM    4  C4  UNL     1     -31.564   8.311   0.187  1.00 20.00     0.049 C 
HETATM    5  C5  UNL     1     -31.798   7.695   1.590  1.00 20.00     0.065 C 
HETATM    6 BR6  UNL     1     -32.186   5.796   1.610  1.00 20.00    -0.091 Br
ENDROOT
TORSDOF 0
ENDMDL
