MODEL 1
REMARK VINA RESULT:       2.1      0.000      0.000
REMARK  0 active torsions:
REMARK  status: ('A' for Active; 'I' for Inactive)
ROOT
HETATM    1  C1  UNL     1     -32.340   9.837   0.222  1.00 20.00     0.012 C 
HETATM    2  C2  UNL     1     -32.378   8.949   1.028  1.00 20.00    -0.112 C 
HETATM    3  C3  UNL     1     -33.189   5.468   0.597  1.00 20.00    -0.026 C 
HETATM    4  C4  UNL     1     -34.096   6.428   0.840  1.00 20.00    -0.024 C 
HETATM    5  C5  UNL     1     -32.764   5.121   3.001  1.00 20.00     0.009 C 
HETATM    6  C6  UNL     1     -33.826   6.213   3.273  1.00 20.00     0.010 C 
HETATM    7  C7  UNL     1     -31.388   6.749   1.688  1.00 20.00     0.026 C 
HETATM    8  C8  UNL     1     -32.424   7.859   2.020  1.00 20.00     0.072 C 
HETATM    9  C9  UNL     1     -32.089   5.371   1.634  1.00 20.00     0.009 C 
HETATM   10  C10 UNL     1     -33.844   7.228   2.104  1.00 20.00     0.023 C 
ENDROOT
TORSDOF 0
ENDMDL
MODEL 2
REMARK VINA RESULT:       2.4      1.159      3.179
REMARK  0 active torsions:
REMARK  status: ('A' for Active; 'I' for Inactive)
ROOT
HETATM    1  C1  UNL     1     -35.738   6.316   4.002  1.00 20.00     0.012 C 
HETATM    2  C2  UNL     1     -34.598   6.357   3.632  1.00 20.00    -0.112 C 
HETATM    3  C3  UNL     1     -33.172   7.876   0.696  1.00 20.00    -0.026 C 
HETATM    4  C4  UNL     1     -33.660   6.625   0.735  1.00 20.00    -0.024 C 
HETATM    5  C5  UNL     1     -30.945   7.139   1.455  1.00 20.00     0.009 C 
HETATM    6  C6  UNL     1     -31.508   5.698   1.477  1.00 20.00     0.010 C 
HETATM    7  C7  UNL     1     -32.675   7.870   3.110  1.00 20.00     0.026 C 
HETATM    8  C8  UNL     1     -33.196   6.407   3.179  1.00 20.00     0.072 C 
HETATM    9  C9  UNL     1     -32.082   8.154   1.709  1.00 20.00     0.009 C 
HETATM   10  C10 UNL     1     -33.025   5.734   1.787  1.00 20.00     0.023 C 
ENDROOT
TORSDOF 0
ENDMDL
MODEL 3
REMARK VINA RESULT:       2.5      1.171      2.619
REMARK  0 active torsions:
REMARK  status: ('A' for Active; 'I' for Inactive)
ROOT
HETATM    1  C1  UNL     1     -32.269  10.737   0.151  1.00 20.00     0.012 C 
HETATM    2  C2  UNL     1     -32.667   9.693   0.589  1.00 20.00    -0.112 C 
HETATM    3  C3  UNL     1     -32.155   8.201   3.825  1.00 20.00    -0.026 C 
HETATM    4  C4  UNL     1     -31.324   8.042   2.783  1.00 20.00    -0.024 C 
HETATM    5  C5  UNL     1     -33.564   6.304   3.119  1.00 20.00     0.009 C 
HETATM    6  C6  UNL     1     -32.589   6.114   1.933  1.00 20.00     0.010 C 
HETATM    7  C7  UNL     1     -34.085   8.630   2.354  1.00 20.00     0.026 C 
HETATM    8  C8  UNL     1     -33.156   8.410   1.127  1.00 20.00     0.072 C 
HETATM    9  C9  UNL     1     -33.586   7.787   3.551  1.00 20.00     0.009 C 
HETATM   10  C10 UNL     1     -31.978   7.479   1.535  1.00 20.00     0.023 C 
ENDROOT
TORSDOF 0
ENDMDL
MODEL 4
REMARK VINA RESULT:       2.7      1.170      3.555
REMARK  0 active torsions:
REMARK  status: ('A' for Active; 'I' for Inactive)
ROOT
HETATM    1  C1  UNL     1     -34.881   6.222   4.248  1.00 20.00     0.012 C 
HETATM    2  C2  UNL     1     -34.369   6.700   3.274  1.00 20.00    -0.112 C 
HETATM    3  C3  UNL     1     -31.034   7.971   2.803  1.00 20.00    -0.026 C 
HETATM    4  C4  UNL     1     -32.061   8.704   3.260  1.00 20.00    -0.024 C 
HETATM    5  C5  UNL     1     -31.602   8.456   0.453  1.00 20.00     0.009 C 
HETATM    6  C6  UNL     1     -32.771   9.316   0.988  1.00 20.00     0.010 C 
HETATM    7  C7  UNL     1     -32.533   6.432   1.596  1.00 20.00     0.026 C 
HETATM    8  C8  UNL     1     -33.741   7.286   2.076  1.00 20.00     0.072 C 
HETATM    9  C9  UNL     1     -31.278   7.325   1.455  1.00 20.00     0.009 C 
HETATM   10  C10 UNL     1     -33.267   8.744   2.339  1.00 20.00     0.023 C 
ENDROOT
TORSDOF 0
ENDMDL
MODEL 5
REMARK VINA RESULT:       2.8      2.007      4.321
REMARK  0 active torsions:
REMARK  status: ('A' for Active; 'I' for Inactive)
ROOT
HETATM    1  C1  UNL     1     -33.322   3.137   4.852  1.00 20.00     0.012 C 
HETATM    2  C2  UNL     1     -33.730   4.026   4.158  1.00 20.00    -0.112 C 
HETATM    3  C3  UNL     1     -33.234   7.582   4.428  1.00 20.00    -0.026 C 
HETATM    4  C4  UNL     1     -34.221   6.911   5.043  1.00 20.00    -0.024 C 
HETATM    5  C5  UNL     1     -34.574   7.876   2.378  1.00 20.00     0.009 C 
HETATM    6  C6  UNL     1     -35.714   7.120   3.102  1.00 20.00     0.010 C 
HETATM    7  C7  UNL     1     -33.061   5.897   2.637  1.00 20.00     0.026 C 
HETATM    8  C8  UNL     1     -34.231   5.119   3.304  1.00 20.00     0.072 C 
HETATM    9  C9  UNL     1     -33.204   7.411   2.923  1.00 20.00     0.009 C 
HETATM   10  C10 UNL     1     -35.115   6.112   4.112  1.00 20.00     0.023 C 
ENDROOT
TORSDOF 0
ENDMDL
MODEL 6
REMARK VINA RESULT:       2.8      1.379      3.764
REMARK  0 active torsions:
REMARK  status: ('A' for Active; 'I' for Inactive)
ROOT
HETATM    1  C1  UNL     1     -33.896   4.221   4.145  1.00 20.00     0.012 C 
HETATM    2  C2  UNL     1     -33.891   5.195   3.445  1.00 20.00    -0.112 C 
HETATM    3  C3  UNL     1     -31.566   7.941   3.322  1.00 20.00    -0.026 C 
HETATM    4  C4  UNL     1     -32.632   7.894   4.136  1.00 20.00    -0.024 C 
HETATM    5  C5  UNL     1     -32.888   8.915   1.482  1.00 20.00     0.009 C 
HETATM    6  C6  UNL     1     -34.107   8.877   2.434  1.00 20.00     0.010 C 
HETATM    7  C7  UNL     1     -32.621   6.433   1.682  1.00 20.00     0.026 C 
HETATM    8  C8  UNL     1     -33.886   6.392   2.585  1.00 20.00     0.072 C 
HETATM    9  C9  UNL     1     -31.896   7.789   1.851  1.00 20.00     0.009 C 
HETATM   10  C10 UNL     1     -33.959   7.698   3.427  1.00 20.00     0.023 C 
ENDROOT
TORSDOF 0
ENDMDL
MODEL 7
REMARK VINA RESULT:       2.9      1.110      2.862
REMARK  0 active torsions:
REMARK  status: ('A' for Active; 'I' for Inactive)
ROOT
HETATM    1  C1  UNL     1     -33.844   8.044   5.044  1.00 20.00     0.012 C 
HETATM    2  C2  UNL     1     -33.922   7.371   4.053  1.00 20.00    -0.112 C 
HETATM    3  C3  UNL     1     -31.354   6.343   1.749  1.00 20.00    -0.026 C 
HETATM    4  C4  UNL     1     -32.038   7.494   1.648  1.00 20.00    -0.024 C 
HETATM    5  C5  UNL     1     -33.061   5.099   0.476  1.00 20.00     0.009 C 
HETATM    6  C6  UNL     1     -33.833   6.434   0.347  1.00 20.00     0.010 C 
HETATM    7  C7  UNL     1     -33.185   5.238   2.973  1.00 20.00     0.026 C 
HETATM    8  C8  UNL     1     -34.018   6.544   2.837  1.00 20.00     0.072 C 
HETATM    9  C9  UNL     1     -32.219   5.101   1.772  1.00 20.00     0.009 C 
HETATM   10  C10 UNL     1     -33.545   7.327   1.578  1.00 20.00     0.023 C 
ENDROOT
TORSDOF 0
ENDMDL
MODEL 8
REMARK VINA RESULT:       3.0      1.477      3.065
REMARK  0 active torsions:
REMARK  status: ('A' for Active; 'I' for Inactive)
ROOT
HETATM    1  C1  UNL     1     -31.739   8.012   1.070  1.00 20.00     0.012 C 
HETATM    2  C2  UNL     1     -32.494   7.233   1.585  1.00 20.00    -0.112 C 
HETATM    3  C3  UNL     1     -34.467   7.562   4.579  1.00 20.00    -0.026 C 
HETATM    4  C4  UNL     1     -33.200   7.117   4.557  1.00 20.00    -0.024 C 
HETATM    5  C5  UNL     1     -35.372   5.304   4.172  1.00 20.00     0.009 C 
HETATM    6  C6  UNL     1     -33.910   4.797   4.170  1.00 20.00     0.010 C 
HETATM    7  C7  UNL     1     -34.871   6.838   2.257  1.00 20.00     0.026 C 
HETATM    8  C8  UNL     1     -33.422   6.277   2.216  1.00 20.00     0.072 C 
HETATM    9  C9  UNL     1     -35.420   6.776   3.703  1.00 20.00     0.009 C 
HETATM   10  C10 UNL     1     -32.969   5.915   3.660  1.00 20.00     0.023 C 
ENDROOT
TORSDOF 0
ENDMDL
MODEL 9
REMARK VINA RESULT:       3.7      2.297      4.389
REMARK  0 active torsions:
REMARK  status: ('A' for Active; 'I' for Inactive)
ROOT
HETATM    1  C1  UNL     1     -33.380   2.575   4.253  1.00 20.00     0.012 C 
HETATM    2  C2  UNL     1     -33.618   3.741   4.404  1.00 20.00    -0.112 C 
HETATM    3  C3  UNL     1     -34.614   6.228   1.999  1.00 20.00    -0.026 C 
HETATM    4  C4  UNL     1     -33.338   5.919   2.277  1.00 20.00    -0.024 C 
HETATM    5  C5  UNL     1     -34.717   7.883   3.825  1.00 20.00     0.009 C 
HETATM    6  C6  UNL     1     -33.240   7.537   4.125  1.00 20.00     0.010 C 
HETATM    7  C7  UNL     1     -35.385   5.503   4.225  1.00 20.00     0.026 C 
HETATM    8  C8  UNL     1     -33.910   5.175   4.591  1.00 20.00     0.072 C 
HETATM    9  C9  UNL     1     -35.429   6.661   3.200  1.00 20.00     0.009 C 
HETATM   10  C10 UNL     1     -32.958   6.064   3.740  1.00 20.00     0.023 C 
ENDROOT
TORSDOF 0
ENDMDL
