MODEL 1
REMARK VINA RESULT:       0.2      0.000      0.000
REMARK  1 active torsions:
REMARK  status: ('A' for Active; 'I' for Inactive)
REMARK    1  A    between atoms: C6_6  and  C10_10 
ROOT
HETATM    1  C1  UNL     1     -32.499   5.794   1.618  1.00 20.00     0.142 A 
HETATM    2  C2  UNL     1     -31.918   8.417   2.710  1.00 20.00     0.006 C 
HETATM    3  C3  UNL     1     -32.642   7.427   3.633  1.00 20.00     0.019 C 
HETATM    4  C4  UNL     1     -33.262   6.986   1.316  1.00 20.00     0.076 A 
HETATM    5  C5  UNL     1     -32.729   8.391   1.400  1.00 20.00    -0.006 C 
HETATM    6  C6  UNL     1     -33.258   6.396   2.706  1.00 20.00     0.034 A 
HETATM    7  C7  UNL     1     -31.900   8.777   0.187  1.00 20.00     0.011 C 
HETATM    8  O11 UNL     1     -31.331   5.490   1.483  1.00 20.00    -0.297 OA
ENDROOT
BRANCH   6   9
HETATM    9  C10 UNL     1     -34.485   5.709   3.224  1.00 20.00    -0.006 C 
HETATM   10  C8  UNL     1     -34.136   4.393   3.939  1.00 20.00     0.011 C 
HETATM   11  C9  UNL     1     -35.279   6.616   4.177  1.00 20.00     0.011 C 
ENDBRANCH   6   9
TORSDOF 1
ENDMDL
MODEL 2
REMARK VINA RESULT:       0.6      1.178      3.753
REMARK  1 active torsions:
REMARK  status: ('A' for Active; 'I' for Inactive)
REMARK    1  A    between atoms: C6_6  and  C10_10 
ROOT
HETATM    1  C1  UNL     1     -33.003   5.782   1.322  1.00 20.00     0.142 A 
HETATM    2  C2  UNL     1     -34.711   6.159   3.635  1.00 20.00     0.006 C 
HETATM    3  C3  UNL     1     -34.124   7.425   2.993  1.00 20.00     0.019 C 
HETATM    4  C4  UNL     1     -32.581   5.561   2.688  1.00 20.00     0.076 A 
HETATM    5  C5  UNL     1     -33.503   5.224   3.829  1.00 20.00    -0.006 C 
HETATM    6  C6  UNL     1     -32.927   6.946   2.194  1.00 20.00     0.034 A 
HETATM    7  C7  UNL     1     -33.893   3.756   3.853  1.00 20.00     0.011 C 
HETATM    8  O11 UNL     1     -33.886   5.314   0.632  1.00 20.00    -0.297 OA
ENDROOT
BRANCH   6   9
HETATM    9  C10 UNL     1     -31.837   7.955   1.992  1.00 20.00    -0.006 C 
HETATM   10  C8  UNL     1     -32.165   8.916   0.837  1.00 20.00     0.011 C 
HETATM   11  C9  UNL     1     -31.570   8.762   3.272  1.00 20.00     0.011 C 
ENDBRANCH   6   9
TORSDOF 1
ENDMDL
MODEL 3
REMARK VINA RESULT:       1.5      1.534      4.228
REMARK  1 active torsions:
REMARK  status: ('A' for Active; 'I' for Inactive)
REMARK    1  A    between atoms: C6_6  and  C10_10 
ROOT
HETATM    1  C1  UNL     1     -32.335   8.623   2.851  1.00 20.00     0.142 A 
HETATM    2  C2  UNL     1     -32.744   5.800   2.330  1.00 20.00     0.006 C 
HETATM    3  C3  UNL     1     -32.001   6.603   1.253  1.00 20.00     0.019 C 
HETATM    4  C4  UNL     1     -33.587   8.053   2.404  1.00 20.00     0.076 A 
HETATM    5  C5  UNL     1     -34.010   6.626   2.626  1.00 20.00    -0.006 C 
HETATM    6  C6  UNL     1     -32.369   8.052   1.512  1.00 20.00     0.034 A 
HETATM    7  C7  UNL     1     -34.555   6.387   4.024  1.00 20.00     0.011 C 
HETATM    8  O11 UNL     1     -31.628   8.436   3.820  1.00 20.00    -0.297 OA
ENDROOT
BRANCH   6   9
HETATM    9  C10 UNL     1     -32.323   8.955   0.317  1.00 20.00    -0.006 C 
HETATM   10  C8  UNL     1     -32.634  10.412   0.699  1.00 20.00     0.011 C 
HETATM   11  C9  UNL     1     -30.960   8.889  -0.389  1.00 20.00     0.011 C 
ENDBRANCH   6   9
TORSDOF 1
ENDMDL
MODEL 4
REMARK VINA RESULT:       2.2      1.576      2.839
REMARK  1 active torsions:
REMARK  status: ('A' for Active; 'I' for Inactive)
REMARK    1  A    between atoms: C6_6  and  C10_10 
ROOT
HETATM    1  C1  UNL     1     -32.083   7.187   2.031  1.00 20.00     0.142 A 
HETATM    2  C2  UNL     1     -33.539   5.383   0.288  1.00 20.00     0.006 C 
HETATM    3  C3  UNL     1     -34.359   6.140   1.343  1.00 20.00     0.019 C 
HETATM    4  C4  UNL     1     -32.104   5.749   2.187  1.00 20.00     0.076 A 
HETATM    5  C5  UNL     1     -32.366   4.768   1.075  1.00 20.00    -0.006 C 
HETATM    6  C6  UNL     1     -33.353   6.573   2.394  1.00 20.00     0.034 A 
HETATM    7  C7  UNL     1     -31.142   4.522   0.210  1.00 20.00     0.011 C 
HETATM    8  O11 UNL     1     -31.742   7.928   1.132  1.00 20.00    -0.297 OA
ENDROOT
BRANCH   6   9
HETATM    9  C10 UNL     1     -33.900   6.757   3.777  1.00 20.00    -0.006 C 
HETATM   10  C8  UNL     1     -33.793   8.220   4.236  1.00 20.00     0.011 C 
HETATM   11  C9  UNL     1     -35.361   6.294   3.873  1.00 20.00     0.011 C 
ENDBRANCH   6   9
TORSDOF 1
ENDMDL
MODEL 5
REMARK VINA RESULT:       2.3      1.697      4.185
REMARK  1 active torsions:
REMARK  status: ('A' for Active; 'I' for Inactive)
REMARK    1  A    between atoms: C6_6  and  C10_10 
ROOT
HETATM    1  C1  UNL     1     -33.673   7.346   3.876  1.00 20.00     0.142 A 
HETATM    2  C2  UNL     1     -33.816   4.493   4.380  1.00 20.00     0.006 C 
HETATM    3  C3  UNL     1     -32.802   4.961   3.326  1.00 20.00     0.019 C 
HETATM    4  C4  UNL     1     -34.709   6.480   3.356  1.00 20.00     0.076 A 
HETATM    5  C5  UNL     1     -35.136   5.179   3.981  1.00 20.00    -0.006 C 
HETATM    6  C6  UNL     1     -33.276   6.338   2.902  1.00 20.00     0.034 A 
HETATM    7  C7  UNL     1     -36.076   5.375   5.158  1.00 20.00     0.011 C 
HETATM    8  O11 UNL     1     -33.292   7.618   4.996  1.00 20.00    -0.297 OA
ENDROOT
BRANCH   6   9
HETATM    9  C10 UNL     1     -32.892   6.757   1.514  1.00 20.00    -0.006 C 
HETATM   10  C8  UNL     1     -31.937   7.961   1.532  1.00 20.00     0.011 C 
HETATM   11  C9  UNL     1     -32.247   5.601   0.735  1.00 20.00     0.011 C 
ENDBRANCH   6   9
TORSDOF 1
ENDMDL
MODEL 6
REMARK VINA RESULT:       2.3      1.751      2.702
REMARK  1 active torsions:
REMARK  status: ('A' for Active; 'I' for Inactive)
REMARK    1  A    between atoms: C6_6  and  C10_10 
ROOT
HETATM    1  C1  UNL     1     -34.725   6.855   3.389  1.00 20.00     0.142 A 
HETATM    2  C2  UNL     1     -32.846   6.252   1.263  1.00 20.00     0.006 C 
HETATM    3  C3  UNL     1     -33.428   5.058   2.033  1.00 20.00     0.019 C 
HETATM    4  C4  UNL     1     -33.290   6.993   3.510  1.00 20.00     0.076 A 
HETATM    5  C5  UNL     1     -32.347   7.215   2.357  1.00 20.00    -0.006 C 
HETATM    6  C6  UNL     1     -33.929   5.635   3.343  1.00 20.00     0.034 A 
HETATM    7  C7  UNL     1     -32.314   8.662   1.897  1.00 20.00     0.011 C 
HETATM    8  O11 UNL     1     -35.554   7.338   2.645  1.00 20.00    -0.297 OA
ENDROOT
BRANCH   6   9
HETATM    9  C10 UNL     1     -33.961   4.683   4.501  1.00 20.00    -0.006 C 
HETATM   10  C8  UNL     1     -35.373   4.573   5.101  1.00 20.00     0.011 C 
HETATM   11  C9  UNL     1     -33.464   3.287   4.097  1.00 20.00     0.011 C 
ENDBRANCH   6   9
TORSDOF 1
ENDMDL
MODEL 7
REMARK VINA RESULT:       2.8      1.557      2.378
REMARK  1 active torsions:
REMARK  status: ('A' for Active; 'I' for Inactive)
REMARK    1  A    between atoms: C6_6  and  C10_10 
ROOT
HETATM    1  C1  UNL     1     -33.345   4.958   3.258  1.00 20.00     0.142 A 
HETATM    2  C2  UNL     1     -31.721   6.415   1.347  1.00 20.00     0.006 C 
HETATM    3  C3  UNL     1     -32.301   7.219   2.520  1.00 20.00     0.019 C 
HETATM    4  C4  UNL     1     -33.812   5.389   1.958  1.00 20.00     0.076 A 
HETATM    5  C5  UNL     1     -32.925   5.647   0.769  1.00 20.00    -0.006 C 
HETATM    6  C6  UNL     1     -33.465   6.392   3.032  1.00 20.00     0.034 A 
HETATM    7  C7  UNL     1     -32.520   4.371   0.052  1.00 20.00     0.011 C 
HETATM    8  O11 UNL     1     -32.435   4.245   3.627  1.00 20.00    -0.297 OA
ENDROOT
BRANCH   6   9
HETATM    9  C10 UNL     1     -34.558   7.162   3.709  1.00 20.00    -0.006 C 
HETATM   10  C8  UNL     1     -35.606   6.225   4.332  1.00 20.00     0.011 C 
HETATM   11  C9  UNL     1     -34.001   8.101   4.790  1.00 20.00     0.011 C 
ENDBRANCH   6   9
TORSDOF 1
ENDMDL
MODEL 8
REMARK VINA RESULT:       3.1      1.329      1.978
REMARK  1 active torsions:
REMARK  status: ('A' for Active; 'I' for Inactive)
REMARK    1  A    between atoms: C6_6  and  C10_10 
ROOT
HETATM    1  C1  UNL     1     -34.167   6.499   1.465  1.00 20.00     0.142 A 
HETATM    2  C2  UNL     1     -31.272   6.514   1.288  1.00 20.00     0.006 C 
HETATM    3  C3  UNL     1     -31.906   5.450   2.196  1.00 20.00     0.019 C 
HETATM    4  C4  UNL     1     -33.316   7.439   2.162  1.00 20.00     0.076 A 
HETATM    5  C5  UNL     1     -31.933   7.837   1.720  1.00 20.00    -0.006 C 
HETATM    6  C6  UNL     1     -33.297   5.969   2.507  1.00 20.00     0.034 A 
HETATM    7  C7  UNL     1     -31.948   8.876   0.612  1.00 20.00     0.011 C 
HETATM    8  O11 UNL     1     -34.329   6.224   0.294  1.00 20.00    -0.297 OA
ENDROOT
BRANCH   6   9
HETATM    9  C10 UNL     1     -33.888   5.503   3.803  1.00 20.00    -0.006 C 
HETATM   10  C8  UNL     1     -35.325   6.020   3.986  1.00 20.00     0.011 C 
HETATM   11  C9  UNL     1     -33.876   3.971   3.910  1.00 20.00     0.011 C 
ENDBRANCH   6   9
TORSDOF 1
ENDMDL
