MODEL 1
REMARK VINA RESULT:      -2.4      0.000      0.000
REMARK  1 active torsions:
REMARK  status: ('A' for Active; 'I' for Inactive)
REMARK    1  A    between atoms: C1_1  and  C4_4 
ROOT
HETATM    1  C2  UNL     1     -33.854   6.703   2.987  1.00 20.00     0.054 A 
HETATM    2  C3  UNL     1     -34.190   7.420   4.261  1.00 20.00     0.054 A 
HETATM    3  C4  UNL     1     -35.030   6.256   3.810  1.00 20.00     0.156 A 
HETATM    4  F6  UNL     1     -36.280   6.584   3.294  1.00 20.00    -0.235 F 
ENDROOT
BRANCH   3   5
HETATM    5  C1  UNL     1     -34.969   4.987   4.541  1.00 20.00     0.274 C 
HETATM    6  O5  UNL     1     -34.276   4.038   4.191  1.00 20.00    -0.303 OA
ENDBRANCH   3   5
TORSDOF 1
ENDMDL
MODEL 2
REMARK VINA RESULT:      -2.1      2.113      2.487
REMARK  1 active torsions:
REMARK  status: ('A' for Active; 'I' for Inactive)
REMARK    1  A    between atoms: C1_1  and  C4_4 
ROOT
HETATM    1  C2  UNL     1     -35.341   6.695   3.525  1.00 20.00     0.054 A 
HETATM    2  C3  UNL     1     -34.189   7.244   4.313  1.00 20.00     0.054 A 
HETATM    3  C4  UNL     1     -33.961   6.131   3.327  1.00 20.00     0.156 A 
HETATM    4  F6  UNL     1     -33.745   4.874   3.883  1.00 20.00    -0.235 F 
ENDROOT
BRANCH   3   5
HETATM    5  C1  UNL     1     -33.235   6.398   2.082  1.00 20.00     0.274 C 
HETATM    6  O5  UNL     1     -32.667   5.528   1.431  1.00 20.00    -0.303 OA
ENDBRANCH   3   5
TORSDOF 1
ENDMDL
MODEL 3
REMARK VINA RESULT:      -2.0      2.423      2.937
REMARK  1 active torsions:
REMARK  status: ('A' for Active; 'I' for Inactive)
REMARK    1  A    between atoms: C1_1  and  C4_4 
ROOT
HETATM    1  C2  UNL     1     -34.510   5.616   4.114  1.00 20.00     0.054 A 
HETATM    2  C3  UNL     1     -35.490   6.615   3.573  1.00 20.00     0.054 A 
HETATM    3  C4  UNL     1     -34.029   6.967   3.659  1.00 20.00     0.156 A 
HETATM    4  F6  UNL     1     -33.686   7.851   4.676  1.00 20.00    -0.235 F 
ENDROOT
BRANCH   3   5
HETATM    5  C1  UNL     1     -33.235   7.083   2.433  1.00 20.00     0.274 C 
HETATM    6  O5  UNL     1     -32.351   7.919   2.277  1.00 20.00    -0.303 OA
ENDBRANCH   3   5
TORSDOF 1
ENDMDL
MODEL 4
REMARK VINA RESULT:      -2.0      1.401      1.596
REMARK  1 active torsions:
REMARK  status: ('A' for Active; 'I' for Inactive)
REMARK    1  A    between atoms: C1_1  and  C4_4 
ROOT
HETATM    1  C2  UNL     1     -34.272   7.257   4.218  1.00 20.00     0.054 A 
HETATM    2  C3  UNL     1     -35.465   6.840   3.410  1.00 20.00     0.054 A 
HETATM    3  C4  UNL     1     -34.298   5.902   3.566  1.00 20.00     0.156 A 
HETATM    4  F6  UNL     1     -33.488   5.765   2.443  1.00 20.00    -0.235 F 
ENDROOT
BRANCH   3   5
HETATM    5  C1  UNL     1     -34.436   4.698   4.390  1.00 20.00     0.274 C 
HETATM    6  O5  UNL     1     -33.961   3.610   4.082  1.00 20.00    -0.303 OA
ENDBRANCH   3   5
TORSDOF 1
ENDMDL
MODEL 5
REMARK VINA RESULT:      -1.7      2.629      3.204
REMARK  1 active torsions:
REMARK  status: ('A' for Active; 'I' for Inactive)
REMARK    1  A    between atoms: C1_1  and  C4_4 
ROOT
HETATM    1  C2  UNL     1     -31.419   8.015   2.182  1.00 20.00     0.054 A 
HETATM    2  C3  UNL     1     -32.519   8.487   1.279  1.00 20.00     0.054 A 
HETATM    3  C4  UNL     1     -32.731   7.281   2.153  1.00 20.00     0.156 A 
HETATM    4  F6  UNL     1     -32.715   6.055   1.495  1.00 20.00    -0.235 F 
ENDROOT
BRANCH   3   5
HETATM    5  C1  UNL     1     -33.639   7.364   3.301  1.00 20.00     0.274 C 
HETATM    6  O5  UNL     1     -34.401   6.460   3.627  1.00 20.00    -0.303 OA
ENDBRANCH   3   5
TORSDOF 1
ENDMDL
MODEL 6
REMARK VINA RESULT:      -1.7      4.182      4.881
REMARK  1 active torsions:
REMARK  status: ('A' for Active; 'I' for Inactive)
REMARK    1  A    between atoms: C1_1  and  C4_4 
ROOT
HETATM    1  C2  UNL     1     -31.936   6.473   1.576  1.00 20.00     0.054 A 
HETATM    2  C3  UNL     1     -33.205   6.999   2.179  1.00 20.00     0.054 A 
HETATM    3  C4  UNL     1     -32.103   7.951   1.800  1.00 20.00     0.156 A 
HETATM    4  F6  UNL     1     -31.376   8.478   2.864  1.00 20.00    -0.235 F 
ENDROOT
BRANCH   3   5
HETATM    5  C1  UNL     1     -32.276   8.847   0.654  1.00 20.00     0.274 C 
HETATM    6  O5  UNL     1     -32.470  10.054   0.763  1.00 20.00    -0.303 OA
ENDBRANCH   3   5
TORSDOF 1
ENDMDL
MODEL 7
REMARK VINA RESULT:      -1.6      4.816      5.472
REMARK  1 active torsions:
REMARK  status: ('A' for Active; 'I' for Inactive)
REMARK    1  A    between atoms: C1_1  and  C4_4 
ROOT
HETATM    1  C2  UNL     1     -32.347  10.652   0.497  1.00 20.00     0.054 A 
HETATM    2  C3  UNL     1     -32.962   9.719  -0.503  1.00 20.00     0.054 A 
HETATM    3  C4  UNL     1     -31.936   9.206   0.470  1.00 20.00     0.156 A 
HETATM    4  F6  UNL     1     -30.677   8.953  -0.066  1.00 20.00    -0.235 F 
ENDROOT
BRANCH   3   5
HETATM    5  C1  UNL     1     -32.345   8.311   1.556  1.00 20.00     0.274 C 
HETATM    6  O5  UNL     1     -31.940   7.159   1.672  1.00 20.00    -0.303 OA
ENDBRANCH   3   5
TORSDOF 1
ENDMDL
MODEL 8
REMARK VINA RESULT:      -1.6      3.168      3.729
REMARK  1 active torsions:
REMARK  status: ('A' for Active; 'I' for Inactive)
REMARK    1  A    between atoms: C1_1  and  C4_4 
ROOT
HETATM    1  C2  UNL     1     -32.393   8.667   1.270  1.00 20.00     0.054 A 
HETATM    2  C3  UNL     1     -31.611   7.397   1.433  1.00 20.00     0.054 A 
HETATM    3  C4  UNL     1     -32.363   7.971   2.603  1.00 20.00     0.156 A 
HETATM    4  F6  UNL     1     -31.579   8.581   3.577  1.00 20.00    -0.235 F 
ENDROOT
BRANCH   3   5
HETATM    5  C1  UNL     1     -33.564   7.294   3.100  1.00 20.00     0.274 C 
HETATM    6  O5  UNL     1     -34.138   7.609   4.137  1.00 20.00    -0.303 OA
ENDBRANCH   3   5
TORSDOF 1
ENDMDL
MODEL 9
REMARK VINA RESULT:      -1.5      5.114      5.653
REMARK  1 active torsions:
REMARK  status: ('A' for Active; 'I' for Inactive)
REMARK    1  A    between atoms: C1_1  and  C4_4 
ROOT
HETATM    1  C2  UNL     1     -32.477   7.449   1.452  1.00 20.00     0.054 A 
HETATM    2  C3  UNL     1     -31.696   8.374   2.338  1.00 20.00     0.054 A 
HETATM    3  C4  UNL     1     -31.829   8.675   0.870  1.00 20.00     0.156 A 
HETATM    4  F6  UNL     1     -30.689   8.441   0.107  1.00 20.00    -0.235 F 
ENDROOT
BRANCH   3   5
HETATM    5  C1  UNL     1     -32.658   9.799   0.429  1.00 20.00     0.274 C 
HETATM    6  O5  UNL     1     -32.999   9.972  -0.736  1.00 20.00    -0.303 OA
ENDBRANCH   3   5
TORSDOF 1
ENDMDL
