MODEL 1
REMARK VINA RESULT:       1.2      0.000      0.000
REMARK  0 active torsions:
REMARK  status: ('A' for Active; 'I' for Inactive)
ROOT
HETATM    1  C1  UNL     1     -30.970   8.917   0.733  1.00 20.00     0.029 C 
HETATM    2  C2  UNL     1     -31.165   8.366   2.124  1.00 20.00     0.042 C 
HETATM    3  C3  UNL     1     -32.563   6.308   1.478  1.00 20.00     0.070 C 
HETATM    4  C4  UNL     1     -33.550   5.555   2.371  1.00 20.00     0.275 C 
HETATM    5  C5  UNL     1     -33.293   7.652   3.353  1.00 20.00     0.309 C 
HETATM    6  C6  UNL     1     -32.360   9.412   0.397  1.00 20.00     0.169 C 
HETATM    7  C7  UNL     1     -32.548   7.742   2.027  1.00 20.00     0.089 C 
HETATM    8  C8  UNL     1     -34.943   6.125   4.275  1.00 20.00     0.310 C 
HETATM    9  N9  UNL     1     -34.284   6.610   3.070  1.00 20.00     0.087 N 
HETATM   10  O10 UNL     1     -33.286   8.583   1.114  1.00 20.00    -0.378 OA
ENDROOT
TORSDOF 0
ENDMDL
MODEL 2
REMARK VINA RESULT:       1.7      1.583      4.120
REMARK  0 active torsions:
REMARK  status: ('A' for Active; 'I' for Inactive)
ROOT
HETATM    1  C1  UNL     1     -34.954   5.148   4.518  1.00 20.00     0.029 C 
HETATM    2  C2  UNL     1     -33.737   5.121   3.627  1.00 20.00     0.042 C 
HETATM    3  C3  UNL     1     -32.946   7.528   4.064  1.00 20.00     0.070 C 
HETATM    4  C4  UNL     1     -32.083   8.390   3.143  1.00 20.00     0.275 C 
HETATM    5  C5  UNL     1     -32.984   6.727   1.782  1.00 20.00     0.309 C 
HETATM    6  C6  UNL     1     -35.881   6.066   3.751  1.00 20.00     0.169 C 
HETATM    7  C7  UNL     1     -33.678   6.556   3.128  1.00 20.00     0.089 C 
HETATM    8  C8  UNL     1     -31.692   8.507   0.750  1.00 20.00     0.310 C 
HETATM    9  N9  UNL     1     -32.628   8.149   1.806  1.00 20.00     0.087 N 
HETATM   10  O10 UNL     1     -35.053   6.982   3.019  1.00 20.00    -0.378 OA
ENDROOT
TORSDOF 0
ENDMDL
MODEL 3
REMARK VINA RESULT:       2.0      1.357      2.117
REMARK  0 active torsions:
REMARK  status: ('A' for Active; 'I' for Inactive)
ROOT
HETATM    1  C1  UNL     1     -32.375   8.845   1.041  1.00 20.00     0.029 C 
HETATM    2  C2  UNL     1     -33.076   7.516   0.912  1.00 20.00     0.042 C 
HETATM    3  C3  UNL     1     -34.335   7.578   3.152  1.00 20.00     0.070 C 
HETATM    4  C4  UNL     1     -34.842   6.377   3.950  1.00 20.00     0.275 C 
HETATM    5  C5  UNL     1     -33.205   5.533   2.524  1.00 20.00     0.309 C 
HETATM    6  C6  UNL     1     -31.362   8.558   2.129  1.00 20.00     0.169 C 
HETATM    7  C7  UNL     1     -33.134   7.046   2.357  1.00 20.00     0.089 C 
HETATM    8  C8  UNL     1     -34.189   4.051   4.179  1.00 20.00     0.310 C 
HETATM    9  N9  UNL     1     -33.750   5.406   3.879  1.00 20.00     0.087 N 
HETATM   10  O10 UNL     1     -31.927   7.544   2.972  1.00 20.00    -0.378 OA
ENDROOT
TORSDOF 0
ENDMDL
MODEL 4
REMARK VINA RESULT:       2.0      1.627      3.880
REMARK  0 active torsions:
REMARK  status: ('A' for Active; 'I' for Inactive)
ROOT
HETATM    1  C1  UNL     1     -33.464   5.255   3.213  1.00 20.00     0.029 C 
HETATM    2  C2  UNL     1     -33.139   5.671   1.800  1.00 20.00     0.042 C 
HETATM    3  C3  UNL     1     -31.546   7.605   2.374  1.00 20.00     0.070 C 
HETATM    4  C4  UNL     1     -31.220   8.813   1.497  1.00 20.00     0.275 C 
HETATM    5  C5  UNL     1     -33.229   7.967   0.674  1.00 20.00     0.309 C 
HETATM    6  C6  UNL     1     -34.319   6.409   3.689  1.00 20.00     0.169 C 
HETATM    7  C7  UNL     1     -32.956   7.174   1.946  1.00 20.00     0.089 C 
HETATM    8  C8  UNL     1     -32.372  10.046  -0.248  1.00 20.00     0.310 C 
HETATM    9  N9  UNL     1     -32.512   9.218   0.941  1.00 20.00     0.087 N 
HETATM   10  O10 UNL     1     -33.885   7.576   2.975  1.00 20.00    -0.378 OA
ENDROOT
TORSDOF 0
ENDMDL
MODEL 5
REMARK VINA RESULT:       2.4      1.863      4.247
REMARK  0 active torsions:
REMARK  status: ('A' for Active; 'I' for Inactive)
ROOT
HETATM    1  C1  UNL     1     -35.471   4.972   4.339  1.00 20.00     0.029 C 
HETATM    2  C2  UNL     1     -35.110   6.395   3.992  1.00 20.00     0.042 C 
HETATM    3  C3  UNL     1     -34.134   5.937   1.658  1.00 20.00     0.070 C 
HETATM    4  C4  UNL     1     -33.116   6.794   0.907  1.00 20.00     0.275 C 
HETATM    5  C5  UNL     1     -32.914   7.401   3.148  1.00 20.00     0.309 C 
HETATM    6  C6  UNL     1     -34.107   4.346   4.542  1.00 20.00     0.169 C 
HETATM    7  C7  UNL     1     -33.861   6.208   3.145  1.00 20.00     0.089 C 
HETATM    8  C8  UNL     1     -31.347   8.331   1.541  1.00 20.00     0.310 C 
HETATM    9  N9  UNL     1     -32.136   7.170   1.927  1.00 20.00     0.087 N 
HETATM   10  O10 UNL     1     -33.189   5.057   3.699  1.00 20.00    -0.378 OA
ENDROOT
TORSDOF 0
ENDMDL
MODEL 6
REMARK VINA RESULT:       3.5      1.957      2.847
REMARK  0 active torsions:
REMARK  status: ('A' for Active; 'I' for Inactive)
ROOT
HETATM    1  C1  UNL     1     -32.917   8.195   1.933  1.00 20.00     0.029 C 
HETATM    2  C2  UNL     1     -33.085   6.722   1.652  1.00 20.00     0.042 C 
HETATM    3  C3  UNL     1     -34.743   6.204   3.547  1.00 20.00     0.070 C 
HETATM    4  C4  UNL     1     -34.976   4.849   4.215  1.00 20.00     0.275 C 
HETATM    5  C5  UNL     1     -32.884   4.695   3.201  1.00 20.00     0.309 C 
HETATM    6  C6  UNL     1     -32.126   8.178   3.223  1.00 20.00     0.169 C 
HETATM    7  C7  UNL     1     -33.292   6.155   3.048  1.00 20.00     0.089 C 
HETATM    8  C8  UNL     1     -33.644   2.856   4.595  1.00 20.00     0.310 C 
HETATM    9  N9  UNL     1     -33.633   4.298   4.397  1.00 20.00     0.087 N 
HETATM   10  O10 UNL     1     -32.485   6.975   3.920  1.00 20.00    -0.378 OA
ENDROOT
TORSDOF 0
ENDMDL
MODEL 7
REMARK VINA RESULT:       3.5      1.773      3.960
REMARK  0 active torsions:
REMARK  status: ('A' for Active; 'I' for Inactive)
ROOT
HETATM    1  C1  UNL     1     -34.037   7.463   4.478  1.00 20.00     0.029 C 
HETATM    2  C2  UNL     1     -32.712   8.058   4.071  1.00 20.00     0.042 C 
HETATM    3  C3  UNL     1     -33.521   9.261   1.949  1.00 20.00     0.070 C 
HETATM    4  C4  UNL     1     -32.674   9.651   0.738  1.00 20.00     0.275 C 
HETATM    5  C5  UNL     1     -31.468   7.987   1.835  1.00 20.00     0.309 C 
HETATM    6  C6  UNL     1     -34.242   6.403   3.417  1.00 20.00     0.169 C 
HETATM    7  C7  UNL     1     -32.811   8.042   2.553  1.00 20.00     0.089 C 
HETATM    8  C8  UNL     1     -30.648   8.808  -0.299  1.00 20.00     0.310 C 
HETATM    9  N9  UNL     1     -31.819   8.486   0.503  1.00 20.00     0.087 N 
HETATM   10  O10 UNL     1     -33.580   6.864   2.230  1.00 20.00    -0.378 OA
ENDROOT
TORSDOF 0
ENDMDL
MODEL 8
REMARK VINA RESULT:       3.7      1.895      3.209
REMARK  0 active torsions:
REMARK  status: ('A' for Active; 'I' for Inactive)
ROOT
HETATM    1  C1  UNL     1     -32.165   4.641  -0.027  1.00 20.00     0.029 C 
HETATM    2  C2  UNL     1     -33.364   5.292   0.618  1.00 20.00     0.042 C 
HETATM    3  C3  UNL     1     -32.192   7.432   1.425  1.00 20.00     0.070 C 
HETATM    4  C4  UNL     1     -32.622   8.330   2.585  1.00 20.00     0.275 C 
HETATM    5  C5  UNL     1     -33.667   6.281   2.959  1.00 20.00     0.309 C 
HETATM    6  C6  UNL     1     -31.330   4.263   1.178  1.00 20.00     0.169 C 
HETATM    7  C7  UNL     1     -32.731   6.039   1.781  1.00 20.00     0.089 C 
HETATM    8  C8  UNL     1     -33.855   8.013   4.652  1.00 20.00     0.310 C 
HETATM    9  N9  UNL     1     -33.005   7.395   3.644  1.00 20.00     0.087 N 
HETATM   10  O10 UNL     1     -31.621   5.220   2.207  1.00 20.00    -0.378 OA
ENDROOT
TORSDOF 0
ENDMDL
MODEL 9
REMARK VINA RESULT:       4.1      1.950      2.779
REMARK  0 active torsions:
REMARK  status: ('A' for Active; 'I' for Inactive)
ROOT
HETATM    1  C1  UNL     1     -32.436   4.521   0.427  1.00 20.00     0.029 C 
HETATM    2  C2  UNL     1     -31.888   5.323   1.582  1.00 20.00     0.042 C 
HETATM    3  C3  UNL     1     -33.903   5.064   3.157  1.00 20.00     0.070 C 
HETATM    4  C4  UNL     1     -34.302   6.004   4.295  1.00 20.00     0.275 C 
HETATM    5  C5  UNL     1     -32.914   7.258   2.905  1.00 20.00     0.309 C 
HETATM    6  C6  UNL     1     -33.528   5.432  -0.094  1.00 20.00     0.169 C 
HETATM    7  C7  UNL     1     -33.148   5.951   2.157  1.00 20.00     0.089 C 
HETATM    8  C8  UNL     1     -34.006   8.366   4.771  1.00 20.00     0.310 C 
HETATM    9  N9  UNL     1     -34.117   7.345   3.739  1.00 20.00     0.087 N 
HETATM   10  O10 UNL     1     -34.010   6.191   1.024  1.00 20.00    -0.378 OA
ENDROOT
TORSDOF 0
ENDMDL
