MODEL 1
REMARK VINA RESULT:      -1.5      0.000      0.000
REMARK  1 active torsions:
REMARK  status: ('A' for Active; 'I' for Inactive)
REMARK    1  A    between atoms: C3_3  and  C6_6 
ROOT
HETATM    1  C1  UNL     1     -33.960   3.950   4.389  1.00 20.00     0.013 C 
HETATM    2  C2  UNL     1     -34.022   5.073   3.968  1.00 20.00    -0.099 C 
HETATM    3  C4  UNL     1     -33.649   7.417   4.568  1.00 20.00     0.038 C 
HETATM    4  C5  UNL     1     -35.561   6.750   3.065  1.00 20.00     0.038 C 
HETATM    5  C6  UNL     1     -34.102   6.464   3.452  1.00 20.00     0.091 C 
ENDROOT
BRANCH   5   6
HETATM    6  C3  UNL     1     -33.181   6.605   2.219  1.00 20.00     0.238 C 
HETATM    7  O7  UNL     1     -33.104   5.732   1.357  1.00 20.00    -0.278 OA
HETATM    8 CL8  UNL     1     -32.273   8.100   2.170  1.00 20.00    -0.042 Cl
ENDBRANCH   5   6
TORSDOF 1
ENDMDL
MODEL 2
REMARK VINA RESULT:      -1.4      1.328      1.328
REMARK  1 active torsions:
REMARK  status: ('A' for Active; 'I' for Inactive)
REMARK    1  A    between atoms: C3_3  and  C6_6 
ROOT
HETATM    1  C1  UNL     1     -33.987   4.049   4.303  1.00 20.00     0.013 C 
HETATM    2  C2  UNL     1     -34.063   5.195   3.953  1.00 20.00    -0.099 C 
HETATM    3  C4  UNL     1     -33.861   7.504   4.743  1.00 20.00     0.038 C 
HETATM    4  C5  UNL     1     -35.586   6.867   3.017  1.00 20.00     0.038 C 
HETATM    5  C6  UNL     1     -34.160   6.615   3.526  1.00 20.00     0.091 C 
ENDROOT
BRANCH   5   6
HETATM    6  C3  UNL     1     -33.132   6.881   2.403  1.00 20.00     0.238 C 
HETATM    7  O7  UNL     1     -32.551   7.958   2.289  1.00 20.00    -0.278 OA
HETATM    8 CL8  UNL     1     -32.880   5.524   1.327  1.00 20.00    -0.042 Cl
ENDBRANCH   5   6
TORSDOF 1
ENDMDL
MODEL 3
REMARK VINA RESULT:      -1.1      2.425      3.230
REMARK  1 active torsions:
REMARK  status: ('A' for Active; 'I' for Inactive)
REMARK    1  A    between atoms: C3_3  and  C6_6 
ROOT
HETATM    1  C1  UNL     1     -32.760   5.982   1.551  1.00 20.00     0.013 C 
HETATM    2  C2  UNL     1     -33.519   6.153   2.466  1.00 20.00    -0.099 C 
HETATM    3  C4  UNL     1     -35.761   6.959   3.031  1.00 20.00     0.038 C 
HETATM    4  C5  UNL     1     -33.810   7.353   4.580  1.00 20.00     0.038 C 
HETATM    5  C6  UNL     1     -34.460   6.369   3.596  1.00 20.00     0.091 C 
ENDROOT
BRANCH   5   6
HETATM    6  C3  UNL     1     -34.741   5.018   4.292  1.00 20.00     0.238 C 
HETATM    7  O7  UNL     1     -35.777   4.809   4.919  1.00 20.00    -0.278 OA
HETATM    8 CL8  UNL     1     -33.464   3.836   4.104  1.00 20.00    -0.042 Cl
ENDBRANCH   5   6
TORSDOF 1
ENDMDL
MODEL 4
REMARK VINA RESULT:      -1.0      2.000      3.431
REMARK  1 active torsions:
REMARK  status: ('A' for Active; 'I' for Inactive)
REMARK    1  A    between atoms: C3_3  and  C6_6 
ROOT
HETATM    1  C1  UNL     1     -31.838   8.441   1.722  1.00 20.00     0.013 C 
HETATM    2  C2  UNL     1     -32.299   7.333   1.727  1.00 20.00    -0.099 C 
HETATM    3  C4  UNL     1     -31.707   4.961   1.604  1.00 20.00     0.038 C 
HETATM    4  C5  UNL     1     -33.815   5.830   0.526  1.00 20.00     0.038 C 
HETATM    5  C6  UNL     1     -32.867   5.960   1.728  1.00 20.00     0.091 C 
ENDROOT
BRANCH   5   6
HETATM    6  C3  UNL     1     -33.637   5.727   3.048  1.00 20.00     0.238 C 
HETATM    7  O7  UNL     1     -33.766   4.609   3.542  1.00 20.00    -0.278 OA
HETATM    8 CL8  UNL     1     -34.297   7.184   3.758  1.00 20.00    -0.042 Cl
ENDBRANCH   5   6
TORSDOF 1
ENDMDL
MODEL 5
REMARK VINA RESULT:      -0.8      0.449      2.188
REMARK  1 active torsions:
REMARK  status: ('A' for Active; 'I' for Inactive)
REMARK    1  A    between atoms: C3_3  and  C6_6 
ROOT
HETATM    1  C1  UNL     1     -33.365   8.267   5.207  1.00 20.00     0.013 C 
HETATM    2  C2  UNL     1     -33.718   7.453   4.398  1.00 20.00    -0.099 C 
HETATM    3  C4  UNL     1     -35.579   6.812   2.942  1.00 20.00     0.038 C 
HETATM    4  C5  UNL     1     -34.155   5.066   4.074  1.00 20.00     0.038 C 
HETATM    5  C6  UNL     1     -34.159   6.445   3.399  1.00 20.00     0.091 C 
ENDROOT
BRANCH   5   6
HETATM    6  C3  UNL     1     -33.188   6.459   2.197  1.00 20.00     0.238 C 
HETATM    7  O7  UNL     1     -33.054   5.490   1.453  1.00 20.00    -0.278 OA
HETATM    8 CL8  UNL     1     -32.311   7.960   2.002  1.00 20.00    -0.042 Cl
ENDBRANCH   5   6
TORSDOF 1
ENDMDL
MODEL 6
REMARK VINA RESULT:      -0.7      1.901      2.922
REMARK  1 active torsions:
REMARK  status: ('A' for Active; 'I' for Inactive)
REMARK    1  A    between atoms: C3_3  and  C6_6 
ROOT
HETATM    1  C1  UNL     1     -34.534   6.377   3.788  1.00 20.00     0.013 C 
HETATM    2  C2  UNL     1     -33.776   6.494   2.865  1.00 20.00    -0.099 C 
HETATM    3  C4  UNL     1     -33.658   6.563   0.420  1.00 20.00     0.038 C 
HETATM    4  C5  UNL     1     -31.832   5.476   1.778  1.00 20.00     0.038 C 
HETATM    5  C6  UNL     1     -32.840   6.633   1.718  1.00 20.00     0.091 C 
ENDROOT
BRANCH   5   6
HETATM    6  C3  UNL     1     -32.109   7.991   1.820  1.00 20.00     0.238 C 
HETATM    7  O7  UNL     1     -31.488   8.326   2.826  1.00 20.00    -0.278 OA
HETATM    8 CL8  UNL     1     -32.247   8.987   0.388  1.00 20.00    -0.042 Cl
ENDBRANCH   5   6
TORSDOF 1
ENDMDL
MODEL 7
REMARK VINA RESULT:      -0.5      2.415      3.233
REMARK  1 active torsions:
REMARK  status: ('A' for Active; 'I' for Inactive)
REMARK    1  A    between atoms: C3_3  and  C6_6 
ROOT
HETATM    1  C1  UNL     1     -33.340   8.138   5.106  1.00 20.00     0.013 C 
HETATM    2  C2  UNL     1     -33.848   7.328   4.379  1.00 20.00    -0.099 C 
HETATM    3  C4  UNL     1     -33.523   6.086   2.295  1.00 20.00     0.038 C 
HETATM    4  C5  UNL     1     -35.809   6.904   2.976  1.00 20.00     0.038 C 
HETATM    5  C6  UNL     1     -34.475   6.330   3.475  1.00 20.00     0.091 C 
ENDROOT
BRANCH   5   6
HETATM    6  C3  UNL     1     -34.712   5.016   4.253  1.00 20.00     0.238 C 
HETATM    7  O7  UNL     1     -35.712   4.837   4.946  1.00 20.00    -0.278 OA
HETATM    8 CL8  UNL     1     -33.443   3.828   4.058  1.00 20.00    -0.042 Cl
ENDBRANCH   5   6
TORSDOF 1
ENDMDL
MODEL 8
REMARK VINA RESULT:      -0.3      2.120      3.217
REMARK  1 active torsions:
REMARK  status: ('A' for Active; 'I' for Inactive)
REMARK    1  A    between atoms: C3_3  and  C6_6 
ROOT
HETATM    1  C1  UNL     1     -31.930   7.970   1.673  1.00 20.00     0.013 C 
HETATM    2  C2  UNL     1     -32.733   7.718   2.530  1.00 20.00    -0.099 C 
HETATM    3  C4  UNL     1     -34.997   8.228   3.310  1.00 20.00     0.038 C 
HETATM    4  C5  UNL     1     -33.123   7.811   4.945  1.00 20.00     0.038 C 
HETATM    5  C6  UNL     1     -33.727   7.411   3.591  1.00 20.00     0.091 C 
ENDROOT
BRANCH   5   6
HETATM    6  C3  UNL     1     -34.046   5.899   3.569  1.00 20.00     0.238 C 
HETATM    7  O7  UNL     1     -33.333   5.088   2.981  1.00 20.00    -0.278 OA
HETATM    8 CL8  UNL     1     -35.494   5.459   4.447  1.00 20.00    -0.042 Cl
ENDBRANCH   5   6
TORSDOF 1
ENDMDL
MODEL 9
REMARK VINA RESULT:      -0.2      2.405      3.996
REMARK  1 active torsions:
REMARK  status: ('A' for Active; 'I' for Inactive)
REMARK    1  A    between atoms: C3_3  and  C6_6 
ROOT
HETATM    1  C1  UNL     1     -32.756   9.867   0.260  1.00 20.00     0.013 C 
HETATM    2  C2  UNL     1     -32.440   9.029   1.060  1.00 20.00    -0.099 C 
HETATM    3  C4  UNL     1     -31.623   8.706   3.345  1.00 20.00     0.038 C 
HETATM    4  C5  UNL     1     -30.864   7.200   1.470  1.00 20.00     0.038 C 
HETATM    5  C6  UNL     1     -32.044   7.994   2.050  1.00 20.00     0.091 C 
ENDROOT
BRANCH   5   6
HETATM    6  C3  UNL     1     -33.244   7.058   2.317  1.00 20.00     0.238 C 
HETATM    7  O7  UNL     1     -33.509   6.108   1.583  1.00 20.00    -0.278 OA
HETATM    8 CL8  UNL     1     -34.173   7.473   3.740  1.00 20.00    -0.042 Cl
ENDBRANCH   5   6
TORSDOF 1
ENDMDL
