MODEL 1
REMARK VINA RESULT:      -2.2      0.000      0.000
REMARK  1 active torsions:
REMARK  status: ('A' for Active; 'I' for Inactive)
REMARK    1  A    between atoms: C2_2  and  C4_4 
ROOT
HETATM    1  C1  UNL     1     -32.114   8.180   1.459  1.00 20.00     0.107 C 
HETATM    2  C2  UNL     1     -33.751   7.494   3.129  1.00 20.00     0.118 C 
HETATM    3  C3  UNL     1     -32.945   7.216   2.092  1.00 20.00     0.095 C 
HETATM    4  N5  UNL     1     -31.432   8.960   0.936  1.00 20.00    -0.191 NA
HETATM    5 BR9  UNL     1     -32.843   5.489   1.372  1.00 20.00    -0.039 Br
ENDROOT
BRANCH   2   6
HETATM    6  C4  UNL     1     -34.663   6.574   3.870  1.00 20.00     0.409 C 
HETATM    7  F6  UNL     1     -35.874   6.492   3.262  1.00 20.00    -0.167 F 
HETATM    8  F7  UNL     1     -34.205   5.304   3.993  1.00 20.00    -0.167 F 
HETATM    9  F8  UNL     1     -34.892   7.027   5.131  1.00 20.00    -0.167 F 
ENDBRANCH   2   6
TORSDOF 1
ENDMDL
MODEL 2
REMARK VINA RESULT:      -2.2      0.049      1.254
REMARK  1 active torsions:
REMARK  status: ('A' for Active; 'I' for Inactive)
REMARK    1  A    between atoms: C2_2  and  C4_4 
ROOT
HETATM    1  C1  UNL     1     -32.090   8.141   1.437  1.00 20.00     0.107 C 
HETATM    2  C2  UNL     1     -33.741   7.502   3.113  1.00 20.00     0.118 C 
HETATM    3  C3  UNL     1     -32.939   7.200   2.080  1.00 20.00     0.095 C 
HETATM    4  N5  UNL     1     -31.395   8.904   0.906  1.00 20.00    -0.191 NA
HETATM    5 BR9  UNL     1     -32.866   5.463   1.379  1.00 20.00    -0.039 Br
ENDROOT
BRANCH   2   6
HETATM    6  C4  UNL     1     -34.668   6.606   3.864  1.00 20.00     0.409 C 
HETATM    7  F6  UNL     1     -34.873   7.064   5.126  1.00 20.00    -0.167 F 
HETATM    8  F7  UNL     1     -35.893   6.463   3.300  1.00 20.00    -0.167 F 
HETATM    9  F8  UNL     1     -34.148   5.357   3.984  1.00 20.00    -0.167 F 
ENDBRANCH   2   6
TORSDOF 1
ENDMDL
MODEL 3
REMARK VINA RESULT:      -2.1      2.189      2.435
REMARK  1 active torsions:
REMARK  status: ('A' for Active; 'I' for Inactive)
REMARK    1  A    between atoms: C2_2  and  C4_4 
ROOT
HETATM    1  C1  UNL     1     -32.346   5.416   1.126  1.00 20.00     0.107 C 
HETATM    2  C2  UNL     1     -33.715   6.282   2.948  1.00 20.00     0.118 C 
HETATM    3  C3  UNL     1     -32.777   6.449   2.003  1.00 20.00     0.095 C 
HETATM    4  N5  UNL     1     -31.990   4.578   0.406  1.00 20.00    -0.191 NA
HETATM    5 BR9  UNL     1     -31.932   8.103   1.751  1.00 20.00    -0.039 Br
ENDROOT
BRANCH   2   6
HETATM    6  C4  UNL     1     -34.245   7.283   3.920  1.00 20.00     0.409 C 
HETATM    7  F6  UNL     1     -35.241   6.750   4.674  1.00 20.00    -0.167 F 
HETATM    8  F7  UNL     1     -33.323   7.770   4.786  1.00 20.00    -0.167 F 
HETATM    9  F8  UNL     1     -34.777   8.354   3.275  1.00 20.00    -0.167 F 
ENDBRANCH   2   6
TORSDOF 1
ENDMDL
MODEL 4
REMARK VINA RESULT:      -2.0      3.728      4.305
REMARK  1 active torsions:
REMARK  status: ('A' for Active; 'I' for Inactive)
REMARK    1  A    between atoms: C2_2  and  C4_4 
ROOT
HETATM    1  C1  UNL     1     -34.761   5.992   3.985  1.00 20.00     0.107 C 
HETATM    2  C2  UNL     1     -33.139   6.943   2.433  1.00 20.00     0.118 C 
HETATM    3  C3  UNL     1     -33.801   6.967   3.601  1.00 20.00     0.095 C 
HETATM    4  N5  UNL     1     -35.546   5.200   4.306  1.00 20.00    -0.191 NA
HETATM    5 BR9  UNL     1     -33.506   8.324   4.860  1.00 20.00    -0.039 Br
ENDROOT
BRANCH   2   6
HETATM    6  C4  UNL     1     -32.117   7.903   1.923  1.00 20.00     0.409 C 
HETATM    7  F6  UNL     1     -31.259   7.292   1.066  1.00 20.00    -0.167 F 
HETATM    8  F7  UNL     1     -32.628   8.972   1.264  1.00 20.00    -0.167 F 
HETATM    9  F8  UNL     1     -31.363   8.397   2.939  1.00 20.00    -0.167 F 
ENDBRANCH   2   6
TORSDOF 1
ENDMDL
MODEL 5
REMARK VINA RESULT:      -2.0      3.726      4.304
REMARK  1 active torsions:
REMARK  status: ('A' for Active; 'I' for Inactive)
REMARK    1  A    between atoms: C2_2  and  C4_4 
ROOT
HETATM    1  C1  UNL     1     -34.808   6.055   3.983  1.00 20.00     0.107 C 
HETATM    2  C2  UNL     1     -33.172   6.974   2.427  1.00 20.00     0.118 C 
HETATM    3  C3  UNL     1     -33.810   6.996   3.607  1.00 20.00     0.095 C 
HETATM    4  N5  UNL     1     -35.623   5.291   4.298  1.00 20.00    -0.191 NA
HETATM    5 BR9  UNL     1     -33.430   8.301   4.897  1.00 20.00    -0.039 Br
ENDROOT
BRANCH   2   6
HETATM    6  C4  UNL     1     -32.116   7.900   1.923  1.00 20.00     0.409 C 
HETATM    7  F6  UNL     1     -32.664   8.949   1.257  1.00 20.00    -0.167 F 
HETATM    8  F7  UNL     1     -31.322   8.426   2.887  1.00 20.00    -0.167 F 
HETATM    9  F8  UNL     1     -31.294   7.270   1.044  1.00 20.00    -0.167 F 
ENDBRANCH   2   6
TORSDOF 1
ENDMDL
MODEL 6
REMARK VINA RESULT:      -1.9      3.723      4.300
REMARK  1 active torsions:
REMARK  status: ('A' for Active; 'I' for Inactive)
REMARK    1  A    between atoms: C2_2  and  C4_4 
ROOT
HETATM    1  C1  UNL     1     -34.771   5.998   3.988  1.00 20.00     0.107 C 
HETATM    2  C2  UNL     1     -33.155   6.939   2.424  1.00 20.00     0.118 C 
HETATM    3  C3  UNL     1     -33.802   6.963   3.600  1.00 20.00     0.095 C 
HETATM    4  N5  UNL     1     -35.563   5.214   4.313  1.00 20.00    -0.191 NA
HETATM    5 BR9  UNL     1     -33.474   8.306   4.864  1.00 20.00    -0.039 Br
ENDROOT
BRANCH   2   6
HETATM    6  C4  UNL     1     -32.126   7.889   1.908  1.00 20.00     0.409 C 
HETATM    7  F6  UNL     1     -31.372   8.389   2.921  1.00 20.00    -0.167 F 
HETATM    8  F7  UNL     1     -31.263   7.352   1.012  1.00 20.00    -0.167 F 
HETATM    9  F8  UNL     1     -32.709   8.953   1.297  1.00 20.00    -0.167 F 
ENDBRANCH   2   6
TORSDOF 1
ENDMDL
MODEL 7
REMARK VINA RESULT:      -1.8      3.963      4.564
REMARK  1 active torsions:
REMARK  status: ('A' for Active; 'I' for Inactive)
REMARK    1  A    between atoms: C2_2  and  C4_4 
ROOT
HETATM    1  C1  UNL     1     -33.481   7.628   3.396  1.00 20.00     0.107 C 
HETATM    2  C2  UNL     1     -32.768   9.096   1.585  1.00 20.00     0.118 C 
HETATM    3  C3  UNL     1     -32.872   7.876   2.136  1.00 20.00     0.095 C 
HETATM    4  N5  UNL     1     -33.978   7.417   4.424  1.00 20.00    -0.191 NA
HETATM    5 BR9  UNL     1     -32.205   6.355   1.268  1.00 20.00    -0.039 Br
ENDROOT
BRANCH   2   6
HETATM    6  C4  UNL     1     -32.155   9.478   0.280  1.00 20.00     0.409 C 
HETATM    7  F6  UNL     1     -32.026  10.826   0.177  1.00 20.00    -0.167 F 
HETATM    8  F7  UNL     1     -30.924   8.953   0.061  1.00 20.00    -0.167 F 
HETATM    9  F8  UNL     1     -32.935   9.083  -0.759  1.00 20.00    -0.167 F 
ENDBRANCH   2   6
TORSDOF 1
ENDMDL
MODEL 8
REMARK VINA RESULT:      -1.7      3.718      4.254
REMARK  1 active torsions:
REMARK  status: ('A' for Active; 'I' for Inactive)
REMARK    1  A    between atoms: C2_2  and  C4_4 
ROOT
HETATM    1  C1  UNL     1     -33.905   5.004   3.572  1.00 20.00     0.107 C 
HETATM    2  C2  UNL     1     -32.578   6.566   2.254  1.00 20.00     0.118 C 
HETATM    3  C3  UNL     1     -33.458   6.310   3.234  1.00 20.00     0.095 C 
HETATM    4  N5  UNL     1     -34.275   3.940   3.855  1.00 20.00    -0.191 NA
HETATM    5 BR9  UNL     1     -34.193   7.689   4.268  1.00 20.00    -0.039 Br
ENDROOT
BRANCH   2   6
HETATM    6  C4  UNL     1     -32.038   7.884   1.809  1.00 20.00     0.409 C 
HETATM    7  F6  UNL     1     -33.032   8.692   1.358  1.00 20.00    -0.167 F 
HETATM    8  F7  UNL     1     -31.382   8.578   2.772  1.00 20.00    -0.167 F 
HETATM    9  F8  UNL     1     -31.165   7.731   0.779  1.00 20.00    -0.167 F 
ENDBRANCH   2   6
TORSDOF 1
ENDMDL
MODEL 9
REMARK VINA RESULT:      -1.6      0.446      1.305
REMARK  1 active torsions:
REMARK  status: ('A' for Active; 'I' for Inactive)
REMARK    1  A    between atoms: C2_2  and  C4_4 
ROOT
HETATM    1  C1  UNL     1     -32.538   8.618   1.291  1.00 20.00     0.107 C 
HETATM    2  C2  UNL     1     -33.970   7.717   3.046  1.00 20.00     0.118 C 
HETATM    3  C3  UNL     1     -33.113   7.546   2.028  1.00 20.00     0.095 C 
HETATM    4  N5  UNL     1     -32.065   9.487   0.684  1.00 20.00    -0.191 NA
HETATM    5 BR9  UNL     1     -32.585   5.835   1.476  1.00 20.00    -0.039 Br
ENDROOT
BRANCH   2   6
HETATM    6  C4  UNL     1     -34.634   6.679   3.888  1.00 20.00     0.409 C 
HETATM    7  F6  UNL     1     -33.967   5.498   3.823  1.00 20.00    -0.167 F 
HETATM    8  F7  UNL     1     -34.731   6.997   5.202  1.00 20.00    -0.167 F 
HETATM    9  F8  UNL     1     -35.898   6.435   3.453  1.00 20.00    -0.167 F 
ENDBRANCH   2   6
TORSDOF 1
ENDMDL
