MODEL 1
REMARK VINA RESULT:      -2.7      0.000      0.000
REMARK  2 active torsions:
REMARK  status: ('A' for Active; 'I' for Inactive)
REMARK    1  A    between atoms: C1_1  and  C4_4 
REMARK    2  A    between atoms: C1_1  and  C5_5 
ROOT
HETATM    1  C1  UNL     1     -33.037   6.534   2.201  1.00 20.00     0.159 C 
HETATM    2  O6  UNL     1     -33.010   5.639   1.366  1.00 20.00    -0.295 OA
ENDROOT
BRANCH   1   3
HETATM    3  C4  UNL     1     -33.684   6.325   3.500  1.00 20.00     0.058 A 
HETATM    4  C2  UNL     1     -34.237   7.508   4.249  1.00 20.00     0.013 A 
HETATM    5  C3  UNL     1     -35.172   6.519   3.620  1.00 20.00     0.013 A 
ENDBRANCH   1   3
BRANCH   1   6
HETATM    6  C5  UNL     1     -32.429   7.890   1.983  1.00 20.00     0.300 C 
HETATM    7  F7  UNL     1     -31.278   7.800   1.264  1.00 20.00    -0.248 F 
ENDBRANCH   1   6
TORSDOF 2
ENDMDL
MODEL 2
REMARK VINA RESULT:      -2.6      1.528      1.889
REMARK  2 active torsions:
REMARK  status: ('A' for Active; 'I' for Inactive)
REMARK    1  A    between atoms: C1_1  and  C4_4 
REMARK    2  A    between atoms: C1_1  and  C5_5 
ROOT
HETATM    1  C1  UNL     1     -32.840   7.177   2.217  1.00 20.00     0.159 C 
HETATM    2  O6  UNL     1     -31.921   7.963   2.029  1.00 20.00    -0.295 OA
ENDROOT
BRANCH   1   3
HETATM    3  C4  UNL     1     -34.007   7.570   3.013  1.00 20.00     0.058 A 
HETATM    4  C2  UNL     1     -34.711   6.538   3.853  1.00 20.00     0.013 A 
HETATM    5  C3  UNL     1     -33.895   7.608   4.514  1.00 20.00     0.013 A 
ENDBRANCH   1   3
BRANCH   1   6
HETATM    6  C5  UNL     1     -32.862   5.779   1.670  1.00 20.00     0.300 C 
HETATM    7  F7  UNL     1     -31.621   5.391   1.269  1.00 20.00    -0.248 F 
ENDBRANCH   1   6
TORSDOF 2
ENDMDL
MODEL 3
REMARK VINA RESULT:      -2.4      2.551      3.446
REMARK  2 active torsions:
REMARK  status: ('A' for Active; 'I' for Inactive)
REMARK    1  A    between atoms: C1_1  and  C4_4 
REMARK    2  A    between atoms: C1_1  and  C5_5 
ROOT
HETATM    1  C1  UNL     1     -33.970   7.207   3.658  1.00 20.00     0.159 C 
HETATM    2  O6  UNL     1     -33.383   7.868   4.505  1.00 20.00    -0.295 OA
ENDROOT
BRANCH   1   3
HETATM    3  C4  UNL     1     -33.526   7.222   2.260  1.00 20.00     0.058 A 
HETATM    4  C2  UNL     1     -32.108   7.609   1.939  1.00 20.00     0.013 A 
HETATM    5  C3  UNL     1     -32.545   6.183   1.787  1.00 20.00     0.013 A 
ENDBRANCH   1   3
BRANCH   1   6
HETATM    6  C5  UNL     1     -35.163   6.346   3.957  1.00 20.00     0.300 C 
HETATM    7  F7  UNL     1     -34.793   5.055   4.172  1.00 20.00    -0.248 F 
ENDBRANCH   1   6
TORSDOF 2
ENDMDL
MODEL 4
REMARK VINA RESULT:      -2.2      1.915      2.940
REMARK  2 active torsions:
REMARK  status: ('A' for Active; 'I' for Inactive)
REMARK    1  A    between atoms: C1_1  and  C4_4 
REMARK    2  A    between atoms: C1_1  and  C5_5 
ROOT
HETATM    1  C1  UNL     1     -33.886   6.354   3.272  1.00 20.00     0.159 C 
HETATM    2  O6  UNL     1     -34.071   5.219   3.693  1.00 20.00    -0.295 OA
ENDROOT
BRANCH   1   3
HETATM    3  C4  UNL     1     -33.331   6.572   1.932  1.00 20.00     0.058 A 
HETATM    4  C2  UNL     1     -32.078   7.391   1.776  1.00 20.00     0.013 A 
HETATM    5  C3  UNL     1     -32.033   5.908   1.557  1.00 20.00     0.013 A 
ENDBRANCH   1   3
BRANCH   1   6
HETATM    6  C5  UNL     1     -34.199   7.593   4.060  1.00 20.00     0.300 C 
HETATM    7  F7  UNL     1     -33.152   7.945   4.855  1.00 20.00    -0.248 F 
ENDBRANCH   1   6
TORSDOF 2
ENDMDL
MODEL 5
REMARK VINA RESULT:      -2.1      2.087      3.280
REMARK  2 active torsions:
REMARK  status: ('A' for Active; 'I' for Inactive)
REMARK    1  A    between atoms: C1_1  and  C4_4 
REMARK    2  A    between atoms: C1_1  and  C5_5 
ROOT
HETATM    1  C1  UNL     1     -33.326   6.984   2.843  1.00 20.00     0.159 C 
HETATM    2  O6  UNL     1     -33.387   5.927   2.228  1.00 20.00    -0.295 OA
ENDROOT
BRANCH   1   3
HETATM    3  C4  UNL     1     -32.313   7.988   2.501  1.00 20.00     0.058 A 
HETATM    4  C2  UNL     1     -31.366   7.725   1.361  1.00 20.00     0.013 A 
HETATM    5  C3  UNL     1     -32.443   8.756   1.213  1.00 20.00     0.013 A 
ENDBRANCH   1   3
BRANCH   1   6
HETATM    6  C5  UNL     1     -34.250   7.344   3.969  1.00 20.00     0.300 C 
HETATM    7  F7  UNL     1     -35.328   6.515   4.002  1.00 20.00    -0.248 F 
ENDBRANCH   1   6
TORSDOF 2
ENDMDL
MODEL 6
REMARK VINA RESULT:      -2.0      2.733      3.600
REMARK  2 active torsions:
REMARK  status: ('A' for Active; 'I' for Inactive)
REMARK    1  A    between atoms: C1_1  and  C4_4 
REMARK    2  A    between atoms: C1_1  and  C5_5 
ROOT
HETATM    1  C1  UNL     1     -34.153   7.015   3.823  1.00 20.00     0.159 C 
HETATM    2  O6  UNL     1     -34.046   8.050   4.467  1.00 20.00    -0.295 OA
ENDROOT
BRANCH   1   3
HETATM    3  C4  UNL     1     -33.025   6.503   3.039  1.00 20.00     0.058 A 
HETATM    4  C2  UNL     1     -33.243   6.101   1.605  1.00 20.00     0.013 A 
HETATM    5  C3  UNL     1     -32.464   7.343   1.922  1.00 20.00     0.013 A 
ENDBRANCH   1   3
BRANCH   1   6
HETATM    6  C5  UNL     1     -35.410   6.195   3.774  1.00 20.00     0.300 C 
HETATM    7  F7  UNL     1     -35.252   5.017   4.436  1.00 20.00    -0.248 F 
ENDBRANCH   1   6
TORSDOF 2
ENDMDL
MODEL 7
REMARK VINA RESULT:      -2.0      3.243      3.752
REMARK  2 active torsions:
REMARK  status: ('A' for Active; 'I' for Inactive)
REMARK    1  A    between atoms: C1_1  and  C4_4 
REMARK    2  A    between atoms: C1_1  and  C5_5 
ROOT
HETATM    1  C1  UNL     1     -34.540   4.774   4.159  1.00 20.00     0.159 C 
HETATM    2  O6  UNL     1     -35.559   4.677   4.831  1.00 20.00    -0.295 OA
ENDROOT
BRANCH   1   3
HETATM    3  C4  UNL     1     -34.235   6.016   3.440  1.00 20.00     0.058 A 
HETATM    4  C2  UNL     1     -35.255   7.122   3.412  1.00 20.00     0.013 A 
HETATM    5  C3  UNL     1     -34.004   7.281   4.222  1.00 20.00     0.013 A 
ENDBRANCH   1   3
BRANCH   1   6
HETATM    6  C5  UNL     1     -33.536   3.668   4.010  1.00 20.00     0.300 C 
HETATM    7  F7  UNL     1     -33.307   3.051   5.200  1.00 20.00    -0.248 F 
ENDBRANCH   1   6
TORSDOF 2
ENDMDL
MODEL 8
REMARK VINA RESULT:      -1.9      1.373      1.575
REMARK  2 active torsions:
REMARK  status: ('A' for Active; 'I' for Inactive)
REMARK    1  A    between atoms: C1_1  and  C4_4 
REMARK    2  A    between atoms: C1_1  and  C5_5 
ROOT
HETATM    1  C1  UNL     1     -33.369   5.574   2.686  1.00 20.00     0.159 C 
HETATM    2  O6  UNL     1     -33.396   4.547   3.351  1.00 20.00    -0.295 OA
ENDROOT
BRANCH   1   3
HETATM    3  C4  UNL     1     -34.291   6.676   2.977  1.00 20.00     0.058 A 
HETATM    4  C2  UNL     1     -35.268   6.542   4.114  1.00 20.00     0.013 A 
HETATM    5  C3  UNL     1     -34.105   7.479   4.236  1.00 20.00     0.013 A 
ENDBRANCH   1   3
BRANCH   1   6
HETATM    6  C5  UNL     1     -32.420   5.799   1.544  1.00 20.00     0.300 C 
HETATM    7  F7  UNL     1     -31.903   7.056   1.577  1.00 20.00    -0.248 F 
ENDBRANCH   1   6
TORSDOF 2
ENDMDL
MODEL 9
REMARK VINA RESULT:      -1.9      1.781      1.941
REMARK  2 active torsions:
REMARK  status: ('A' for Active; 'I' for Inactive)
REMARK    1  A    between atoms: C1_1  and  C4_4 
REMARK    2  A    between atoms: C1_1  and  C5_5 
ROOT
HETATM    1  C1  UNL     1     -33.277   7.469   3.437  1.00 20.00     0.159 C 
HETATM    2  O6  UNL     1     -33.257   7.992   4.544  1.00 20.00    -0.295 OA
ENDROOT
BRANCH   1   3
HETATM    3  C4  UNL     1     -34.253   6.420   3.124  1.00 20.00     0.058 A 
HETATM    4  C2  UNL     1     -34.300   5.178   3.974  1.00 20.00     0.013 A 
HETATM    5  C3  UNL     1     -35.407   6.185   4.061  1.00 20.00     0.013 A 
ENDBRANCH   1   3
BRANCH   1   6
HETATM    6  C5  UNL     1     -32.335   7.839   2.328  1.00 20.00     0.300 C 
HETATM    7  F7  UNL     1     -32.049   6.761   1.549  1.00 20.00    -0.248 F 
ENDBRANCH   1   6
TORSDOF 2
ENDMDL
