MODEL 1
REMARK VINA RESULT:      -1.4      0.000      0.000
REMARK  2 active torsions:
REMARK  status: ('A' for Active; 'I' for Inactive)
REMARK    1  A    between atoms: C4_4  and  C8_8 
REMARK    2  A    between atoms: C9_9  and  O11_11 
ROOT
HETATM    1  C1  UNL     1     -33.571   7.417   3.548  1.00 20.00    -0.079 C 
HETATM    2  C2  UNL     1     -33.621   7.779   4.841  1.00 20.00     0.015 C 
HETATM    3  C5  UNL     1     -33.057   8.383   2.507  1.00 20.00     0.065 C 
HETATM    4  C6  UNL     1     -32.774   5.457   2.216  1.00 20.00     0.016 C 
HETATM    5  C7  UNL     1     -32.236   6.413   1.151  1.00 20.00     0.033 C 
HETATM    6  C8  UNL     1     -33.970   6.061   2.979  1.00 20.00     0.041 C 
HETATM    7  C9  UNL     1     -31.880   7.779   1.741  1.00 20.00     0.122 C 
ENDROOT
BRANCH   6   8
HETATM    8  C4  UNL     1     -34.502   5.075   3.979  1.00 20.00    -0.085 C 
HETATM    9  C3  UNL     1     -35.641   5.294   4.652  1.00 20.00     0.014 C 
HETATM   10  C10 UNL     1     -33.687   3.833   4.182  1.00 20.00     0.043 C 
ENDBRANCH   6   8
BRANCH   7  11
HETATM   11  O11 UNL     1     -31.516   8.670   0.691  1.00 20.00    -0.395 OA
HETATM   12  H27 UNL     1     -30.640   8.391   0.383  1.00 20.00     0.210 HD
ENDBRANCH   7  11
TORSDOF 2
ENDMDL
MODEL 2
REMARK VINA RESULT:      -1.2      2.270      4.578
REMARK  2 active torsions:
REMARK  status: ('A' for Active; 'I' for Inactive)
REMARK    1  A    between atoms: C4_4  and  C8_8 
REMARK    2  A    between atoms: C9_9  and  O11_11 
ROOT
HETATM    1  C1  UNL     1     -32.984   6.089   2.011  1.00 20.00    -0.079 C 
HETATM    2  C2  UNL     1     -31.909   5.500   1.460  1.00 20.00     0.015 C 
HETATM    3  C5  UNL     1     -34.112   5.249   2.561  1.00 20.00     0.065 C 
HETATM    4  C6  UNL     1     -33.440   7.903   3.669  1.00 20.00     0.016 C 
HETATM    5  C7  UNL     1     -34.581   7.070   4.252  1.00 20.00     0.033 C 
HETATM    6  C8  UNL     1     -33.200   7.588   2.180  1.00 20.00     0.041 C 
HETATM    7  C9  UNL     1     -34.359   5.572   4.035  1.00 20.00     0.122 C 
ENDROOT
BRANCH   6   8
HETATM    8  C4  UNL     1     -32.108   8.460   1.631  1.00 20.00    -0.085 C 
HETATM    9  C3  UNL     1     -30.896   8.522   2.202  1.00 20.00     0.014 C 
HETATM   10  C10 UNL     1     -32.450   9.258   0.408  1.00 20.00     0.043 C 
ENDBRANCH   6   8
BRANCH   7  11
HETATM   11  O11 UNL     1     -35.509   4.852   4.471  1.00 20.00    -0.395 OA
HETATM   12  H27 UNL     1     -35.325   4.560   5.378  1.00 20.00     0.210 HD
ENDBRANCH   7  11
TORSDOF 2
ENDMDL
MODEL 3
REMARK VINA RESULT:      -0.5      0.717      2.149
REMARK  2 active torsions:
REMARK  status: ('A' for Active; 'I' for Inactive)
REMARK    1  A    between atoms: C4_4  and  C8_8 
REMARK    2  A    between atoms: C9_9  and  O11_11 
ROOT
HETATM    1  C1  UNL     1     -32.985   5.870   1.739  1.00 20.00    -0.079 C 
HETATM    2  C2  UNL     1     -33.637   4.981   0.972  1.00 20.00     0.015 C 
HETATM    3  C5  UNL     1     -31.917   6.753   1.139  1.00 20.00     0.065 C 
HETATM    4  C6  UNL     1     -33.565   7.615   3.433  1.00 20.00     0.016 C 
HETATM    5  C7  UNL     1     -32.497   8.532   2.838  1.00 20.00     0.033 C 
HETATM    6  C8  UNL     1     -33.226   6.126   3.222  1.00 20.00     0.041 C 
HETATM    7  C9  UNL     1     -32.246   8.230   1.360  1.00 20.00     0.122 C 
ENDROOT
BRANCH   6   8
HETATM    8  C4  UNL     1     -34.270   5.257   3.863  1.00 20.00    -0.085 C 
HETATM    9  C3  UNL     1     -35.502   5.713   4.135  1.00 20.00     0.014 C 
HETATM   10  C10 UNL     1     -33.857   3.851   4.179  1.00 20.00     0.043 C 
ENDBRANCH   6   8
BRANCH   7  11
HETATM   11  O11 UNL     1     -31.153   9.014   0.893  1.00 20.00    -0.395 OA
HETATM   12  H27 UNL     1     -31.228   9.044  -0.074  1.00 20.00     0.210 HD
ENDBRANCH   7  11
TORSDOF 2
ENDMDL
MODEL 4
REMARK VINA RESULT:      -0.4      0.748      2.398
REMARK  2 active torsions:
REMARK  status: ('A' for Active; 'I' for Inactive)
REMARK    1  A    between atoms: C4_4  and  C8_8 
REMARK    2  A    between atoms: C9_9  and  O11_11 
ROOT
HETATM    1  C1  UNL     1     -32.954   5.876   1.689  1.00 20.00    -0.079 C 
HETATM    2  C2  UNL     1     -33.610   4.991   0.920  1.00 20.00     0.015 C 
HETATM    3  C5  UNL     1     -31.904   6.778   1.084  1.00 20.00     0.065 C 
HETATM    4  C6  UNL     1     -33.524   7.591   3.416  1.00 20.00     0.016 C 
HETATM    5  C7  UNL     1     -32.475   8.528   2.817  1.00 20.00     0.033 C 
HETATM    6  C8  UNL     1     -33.174   6.109   3.179  1.00 20.00     0.041 C 
HETATM    7  C9  UNL     1     -32.245   8.248   1.331  1.00 20.00     0.122 C 
ENDROOT
BRANCH   6   8
HETATM    8  C4  UNL     1     -34.199   5.220   3.824  1.00 20.00    -0.085 C 
HETATM    9  C3  UNL     1     -33.935   3.942   4.131  1.00 20.00     0.014 C 
HETATM   10  C10 UNL     1     -35.533   5.845   4.104  1.00 20.00     0.043 C 
ENDBRANCH   6   8
BRANCH   7  11
HETATM   11  O11 UNL     1     -31.167   9.049   0.857  1.00 20.00    -0.395 OA
HETATM   12  H27 UNL     1     -30.354   8.546   1.023  1.00 20.00     0.210 HD
ENDBRANCH   7  11
TORSDOF 2
ENDMDL
MODEL 5
REMARK VINA RESULT:       0.6      2.026      3.629
REMARK  2 active torsions:
REMARK  status: ('A' for Active; 'I' for Inactive)
REMARK    1  A    between atoms: C4_4  and  C8_8 
REMARK    2  A    between atoms: C9_9  and  O11_11 
ROOT
HETATM    1  C1  UNL     1     -32.393   7.426   2.189  1.00 20.00    -0.079 C 
HETATM    2  C2  UNL     1     -31.986   8.136   1.124  1.00 20.00     0.015 C 
HETATM    3  C5  UNL     1     -32.543   8.093   3.536  1.00 20.00     0.065 C 
HETATM    4  C6  UNL     1     -34.205   5.789   2.726  1.00 20.00     0.016 C 
HETATM    5  C7  UNL     1     -34.384   6.452   4.091  1.00 20.00     0.033 C 
HETATM    6  C8  UNL     1     -32.767   5.949   2.195  1.00 20.00     0.041 C 
HETATM    7  C9  UNL     1     -33.966   7.923   4.069  1.00 20.00     0.122 C 
ENDROOT
BRANCH   6   8
HETATM    8  C4  UNL     1     -32.615   5.242   0.878  1.00 20.00    -0.085 C 
HETATM    9  C3  UNL     1     -31.460   4.669   0.510  1.00 20.00     0.014 C 
HETATM   10  C10 UNL     1     -33.830   5.214  -0.001  1.00 20.00     0.043 C 
ENDBRANCH   6   8
BRANCH   7  11
HETATM   11  O11 UNL     1     -34.022   8.454   5.389  1.00 20.00    -0.395 OA
HETATM   12  H27 UNL     1     -34.394   7.757   5.952  1.00 20.00     0.210 HD
ENDBRANCH   7  11
TORSDOF 2
ENDMDL
MODEL 6
REMARK VINA RESULT:       1.0      1.976      3.517
REMARK  2 active torsions:
REMARK  status: ('A' for Active; 'I' for Inactive)
REMARK    1  A    between atoms: C4_4  and  C8_8 
REMARK    2  A    between atoms: C9_9  and  O11_11 
ROOT
HETATM    1  C1  UNL     1     -33.861   5.555   3.089  1.00 20.00    -0.079 C 
HETATM    2  C2  UNL     1     -33.870   4.267   3.469  1.00 20.00     0.015 C 
HETATM    3  C5  UNL     1     -34.438   6.619   3.993  1.00 20.00     0.065 C 
HETATM    4  C6  UNL     1     -32.225   7.177   2.119  1.00 20.00     0.016 C 
HETATM    5  C7  UNL     1     -32.783   8.270   3.030  1.00 20.00     0.033 C 
HETATM    6  C8  UNL     1     -33.283   6.106   1.791  1.00 20.00     0.041 C 
HETATM    7  C9  UNL     1     -33.392   7.688   4.308  1.00 20.00     0.122 C 
ENDROOT
BRANCH   6   8
HETATM    8  C4  UNL     1     -32.714   5.079   0.854  1.00 20.00    -0.085 C 
HETATM    9  C3  UNL     1     -31.425   4.711   0.904  1.00 20.00     0.014 C 
HETATM   10  C10 UNL     1     -33.669   4.488  -0.139  1.00 20.00     0.043 C 
ENDBRANCH   6   8
BRANCH   7  11
HETATM   11  O11 UNL     1     -34.016   8.729   5.054  1.00 20.00    -0.395 OA
HETATM   12  H27 UNL     1     -34.697   9.111   4.478  1.00 20.00     0.210 HD
ENDBRANCH   7  11
TORSDOF 2
ENDMDL
MODEL 7
REMARK VINA RESULT:       1.6      2.409      4.099
REMARK  2 active torsions:
REMARK  status: ('A' for Active; 'I' for Inactive)
REMARK    1  A    between atoms: C4_4  and  C8_8 
REMARK    2  A    between atoms: C9_9  and  O11_11 
ROOT
HETATM    1  C1  UNL     1     -34.018   7.698   3.582  1.00 20.00    -0.079 C 
HETATM    2  C2  UNL     1     -34.492   8.932   3.338  1.00 20.00     0.015 C 
HETATM    3  C5  UNL     1     -34.732   6.789   4.554  1.00 20.00     0.065 C 
HETATM    4  C6  UNL     1     -33.203   5.745   2.252  1.00 20.00     0.016 C 
HETATM    5  C7  UNL     1     -33.924   4.802   3.215  1.00 20.00     0.033 C 
HETATM    6  C8  UNL     1     -32.793   7.063   2.938  1.00 20.00     0.041 C 
HETATM    7  C9  UNL     1     -35.127   5.476   3.877  1.00 20.00     0.122 C 
ENDROOT
BRANCH   6   8
HETATM    8  C4  UNL     1     -32.044   7.941   1.976  1.00 20.00    -0.085 C 
HETATM    9  C3  UNL     1     -32.354   7.988   0.672  1.00 20.00     0.014 C 
HETATM   10  C10 UNL     1     -30.931   8.760   2.558  1.00 20.00     0.043 C 
ENDBRANCH   6   8
BRANCH   7  11
HETATM   11  O11 UNL     1     -35.678   4.606   4.861  1.00 20.00    -0.395 OA
HETATM   12  H27 UNL     1     -35.722   3.725   4.458  1.00 20.00     0.210 HD
ENDBRANCH   7  11
TORSDOF 2
ENDMDL
MODEL 8
REMARK VINA RESULT:       1.6      2.404      4.113
REMARK  2 active torsions:
REMARK  status: ('A' for Active; 'I' for Inactive)
REMARK    1  A    between atoms: C4_4  and  C8_8 
REMARK    2  A    between atoms: C9_9  and  O11_11 
ROOT
HETATM    1  C1  UNL     1     -34.010   7.712   3.591  1.00 20.00    -0.079 C 
HETATM    2  C2  UNL     1     -34.481   8.949   3.356  1.00 20.00     0.015 C 
HETATM    3  C5  UNL     1     -34.724   6.797   4.556  1.00 20.00     0.065 C 
HETATM    4  C6  UNL     1     -33.197   5.767   2.247  1.00 20.00     0.016 C 
HETATM    5  C7  UNL     1     -33.920   4.818   3.204  1.00 20.00     0.033 C 
HETATM    6  C8  UNL     1     -32.785   7.079   2.943  1.00 20.00     0.041 C 
HETATM    7  C9  UNL     1     -35.122   5.489   3.870  1.00 20.00     0.122 C 
ENDROOT
BRANCH   6   8
HETATM    8  C4  UNL     1     -32.034   7.963   1.987  1.00 20.00    -0.085 C 
HETATM    9  C3  UNL     1     -30.988   8.704   2.380  1.00 20.00     0.014 C 
HETATM   10  C10 UNL     1     -32.522   7.967   0.569  1.00 20.00     0.043 C 
ENDBRANCH   6   8
BRANCH   7  11
HETATM   11  O11 UNL     1     -35.674   4.614   4.848  1.00 20.00    -0.395 OA
HETATM   12  H27 UNL     1     -36.577   4.924   5.019  1.00 20.00     0.210 HD
ENDBRANCH   7  11
TORSDOF 2
ENDMDL
