MODEL 1
REMARK VINA RESULT:      -1.3      0.000      0.000
REMARK  2 active torsions:
REMARK  status: ('A' for Active; 'I' for Inactive)
REMARK    1  A    between atoms: C6_6  and  C8_8 
REMARK    2  A    between atoms: C7_7  and  C9_9 
ROOT
HETATM    1  C1  UNL     1     -32.012   6.378   1.465  1.00 20.00     0.005 C 
HETATM    2  C2  UNL     1     -33.335   6.137   2.231  1.00 20.00     0.005 C 
HETATM    3  C5  UNL     1     -32.289   7.950   3.260  1.00 20.00     0.010 C 
HETATM    4  C6  UNL     1     -31.616   7.806   1.878  1.00 20.00    -0.010 C 
HETATM    5  C7  UNL     1     -33.675   7.565   2.730  1.00 20.00    -0.010 C 
ENDROOT
BRANCH   4   6
HETATM    6  C8  UNL     1     -32.426   8.885   1.165  1.00 20.00    -0.006 C 
HETATM    7  C3  UNL     1     -32.772  10.381   0.947  1.00 20.00     0.006 C 
HETATM    8  C4  UNL     1     -32.792   9.950  -0.587  1.00 20.00     0.006 C 
HETATM    9  C9  UNL     1     -31.591   9.051  -0.167  1.00 20.00    -0.006 C 
ENDBRANCH   4   6
TORSDOF 2
ENDMDL
MODEL 2
REMARK VINA RESULT:      -0.4      1.120      3.762
REMARK  2 active torsions:
REMARK  status: ('A' for Active; 'I' for Inactive)
REMARK    1  A    between atoms: C6_6  and  C8_8 
REMARK    2  A    between atoms: C7_7  and  C9_9 
ROOT
HETATM    1  C1  UNL     1     -32.634   9.545   1.704  1.00 20.00     0.005 C 
HETATM    2  C2  UNL     1     -32.355   8.895   0.329  1.00 20.00     0.005 C 
HETATM    3  C5  UNL     1     -31.269   7.582   1.921  1.00 20.00     0.010 C 
HETATM    4  C6  UNL     1     -32.297   8.426   2.703  1.00 20.00    -0.010 C 
HETATM    5  C7  UNL     1     -32.195   7.401   0.713  1.00 20.00    -0.010 C 
ENDROOT
BRANCH   4   6
HETATM    6  C8  UNL     1     -33.381   7.356   2.796  1.00 20.00    -0.006 C 
HETATM    7  C3  UNL     1     -33.809   5.902   3.125  1.00 20.00     0.006 C 
HETATM    8  C4  UNL     1     -35.066   6.629   3.782  1.00 20.00     0.006 C 
HETATM    9  C9  UNL     1     -34.006   7.688   4.209  1.00 20.00    -0.006 C 
ENDBRANCH   4   6
TORSDOF 2
ENDMDL
MODEL 3
REMARK VINA RESULT:      -0.2      1.572      3.948
REMARK  2 active torsions:
REMARK  status: ('A' for Active; 'I' for Inactive)
REMARK    1  A    between atoms: C6_6  and  C8_8 
REMARK    2  A    between atoms: C7_7  and  C9_9 
ROOT
HETATM    1  C1  UNL     1     -32.294   8.098   1.890  1.00 20.00     0.005 C 
HETATM    2  C2  UNL     1     -32.716   7.706   0.454  1.00 20.00     0.005 C 
HETATM    3  C5  UNL     1     -31.932   5.761   1.474  1.00 20.00     0.010 C 
HETATM    4  C6  UNL     1     -32.226   6.748   2.623  1.00 20.00    -0.010 C 
HETATM    5  C7  UNL     1     -33.133   6.225   0.642  1.00 20.00    -0.010 C 
ENDROOT
BRANCH   4   6
HETATM    6  C8  UNL     1     -33.600   6.196   2.993  1.00 20.00    -0.006 C 
HETATM    7  C3  UNL     1     -34.485   5.272   3.871  1.00 20.00     0.006 C 
HETATM    8  C4  UNL     1     -35.462   6.531   3.865  1.00 20.00     0.006 C 
HETATM    9  C9  UNL     1     -34.133   7.340   3.944  1.00 20.00    -0.006 C 
ENDBRANCH   4   6
TORSDOF 2
ENDMDL
MODEL 4
REMARK VINA RESULT:       0.0      0.707      3.714
REMARK  2 active torsions:
REMARK  status: ('A' for Active; 'I' for Inactive)
REMARK    1  A    between atoms: C6_6  and  C8_8 
REMARK    2  A    between atoms: C7_7  and  C9_9 
ROOT
HETATM    1  C1  UNL     1     -32.670  10.355   1.186  1.00 20.00     0.005 C 
HETATM    2  C2  UNL     1     -32.984  10.243  -0.324  1.00 20.00     0.005 C 
HETATM    3  C5  UNL     1     -31.135   8.878   0.076  1.00 20.00     0.010 C 
HETATM    4  C6  UNL     1     -31.776   9.132   1.456  1.00 20.00    -0.010 C 
HETATM    5  C7  UNL     1     -32.487   8.809  -0.644  1.00 20.00    -0.010 C 
ENDROOT
BRANCH   4   6
HETATM    6  C8  UNL     1     -32.558   7.824   1.541  1.00 20.00    -0.006 C 
HETATM    7  C3  UNL     1     -32.579   6.275   1.631  1.00 20.00     0.006 C 
HETATM    8  C4  UNL     1     -33.751   6.549   2.677  1.00 20.00     0.006 C 
HETATM    9  C9  UNL     1     -32.859   7.758   3.091  1.00 20.00    -0.006 C 
ENDBRANCH   4   6
TORSDOF 2
ENDMDL
MODEL 5
REMARK VINA RESULT:       0.1      1.737      2.813
REMARK  2 active torsions:
REMARK  status: ('A' for Active; 'I' for Inactive)
REMARK    1  A    between atoms: C6_6  and  C8_8 
REMARK    2  A    between atoms: C7_7  and  C9_9 
ROOT
HETATM    1  C1  UNL     1     -34.337   5.428   3.800  1.00 20.00     0.005 C 
HETATM    2  C2  UNL     1     -35.612   6.303   3.780  1.00 20.00     0.005 C 
HETATM    3  C5  UNL     1     -33.897   7.642   4.618  1.00 20.00     0.010 C 
HETATM    4  C6  UNL     1     -33.200   6.457   3.918  1.00 20.00    -0.010 C 
HETATM    5  C7  UNL     1     -35.018   7.721   3.576  1.00 20.00    -0.010 C 
ENDROOT
BRANCH   4   6
HETATM    6  C8  UNL     1     -32.897   7.171   2.604  1.00 20.00    -0.006 C 
HETATM    7  C3  UNL     1     -31.911   7.953   1.696  1.00 20.00     0.006 C 
HETATM    8  C4  UNL     1     -32.532   7.026   0.558  1.00 20.00     0.006 C 
HETATM    9  C9  UNL     1     -32.521   5.945   1.680  1.00 20.00    -0.006 C 
ENDBRANCH   4   6
TORSDOF 2
ENDMDL
MODEL 6
REMARK VINA RESULT:       0.4      2.455      4.900
REMARK  2 active torsions:
REMARK  status: ('A' for Active; 'I' for Inactive)
REMARK    1  A    between atoms: C6_6  and  C8_8 
REMARK    2  A    between atoms: C7_7  and  C9_9 
ROOT
HETATM    1  C1  UNL     1     -32.812   6.899   2.347  1.00 20.00     0.005 C 
HETATM    2  C2  UNL     1     -32.653   7.994   3.427  1.00 20.00     0.005 C 
HETATM    3  C5  UNL     1     -34.912   7.416   3.392  1.00 20.00     0.010 C 
HETATM    4  C6  UNL     1     -34.172   6.262   2.682  1.00 20.00    -0.010 C 
HETATM    5  C7  UNL     1     -33.791   7.630   4.415  1.00 20.00    -0.010 C 
ENDROOT
BRANCH   4   6
HETATM    6  C8  UNL     1     -34.114   5.316   3.878  1.00 20.00    -0.006 C 
HETATM    7  C3  UNL     1     -34.821   4.341   4.855  1.00 20.00     0.006 C 
HETATM    8  C4  UNL     1     -33.492   3.486   4.654  1.00 20.00     0.006 C 
HETATM    9  C9  UNL     1     -33.600   3.992   3.184  1.00 20.00    -0.006 C 
ENDBRANCH   4   6
TORSDOF 2
ENDMDL
MODEL 7
REMARK VINA RESULT:       0.7      2.139      3.520
REMARK  2 active torsions:
REMARK  status: ('A' for Active; 'I' for Inactive)
REMARK    1  A    between atoms: C6_6  and  C8_8 
REMARK    2  A    between atoms: C7_7  and  C9_9 
ROOT
HETATM    1  C1  UNL     1     -33.609   8.079   4.170  1.00 20.00     0.005 C 
HETATM    2  C2  UNL     1     -34.260   7.047   5.120  1.00 20.00     0.005 C 
HETATM    3  C5  UNL     1     -35.441   6.942   3.111  1.00 20.00     0.010 C 
HETATM    4  C6  UNL     1     -34.110   7.651   2.780  1.00 20.00    -0.010 C 
HETATM    5  C7  UNL     1     -34.790   5.988   4.119  1.00 20.00    -0.010 C 
ENDROOT
BRANCH   4   6
HETATM    6  C8  UNL     1     -33.382   6.429   2.229  1.00 20.00    -0.006 C 
HETATM    7  C3  UNL     1     -33.143   5.410   1.084  1.00 20.00     0.006 C 
HETATM    8  C4  UNL     1     -31.615   5.610   1.489  1.00 20.00     0.006 C 
HETATM    9  C9  UNL     1     -32.049   7.092   1.699  1.00 20.00    -0.006 C 
ENDBRANCH   4   6
TORSDOF 2
ENDMDL
MODEL 8
REMARK VINA RESULT:       0.9      1.898      4.248
REMARK  2 active torsions:
REMARK  status: ('A' for Active; 'I' for Inactive)
REMARK    1  A    between atoms: C6_6  and  C8_8 
REMARK    2  A    between atoms: C7_7  and  C9_9 
ROOT
HETATM    1  C1  UNL     1     -31.627   5.784   1.723  1.00 20.00     0.005 C 
HETATM    2  C2  UNL     1     -31.358   7.305   1.803  1.00 20.00     0.005 C 
HETATM    3  C5  UNL     1     -33.533   7.054   1.001  1.00 20.00     0.010 C 
HETATM    4  C6  UNL     1     -33.160   5.697   1.635  1.00 20.00    -0.010 C 
HETATM    5  C7  UNL     1     -32.781   7.863   2.063  1.00 20.00    -0.010 C 
ENDROOT
BRANCH   4   6
HETATM    6  C8  UNL     1     -33.853   5.923   2.975  1.00 20.00    -0.006 C 
HETATM    7  C3  UNL     1     -35.136   6.239   3.788  1.00 20.00     0.006 C 
HETATM    8  C4  UNL     1     -34.566   5.107   4.755  1.00 20.00     0.006 C 
HETATM    9  C9  UNL     1     -34.135   4.432   3.418  1.00 20.00    -0.006 C 
ENDBRANCH   4   6
TORSDOF 2
ENDMDL
MODEL 9
REMARK VINA RESULT:       0.9      1.966      3.722
REMARK  2 active torsions:
REMARK  status: ('A' for Active; 'I' for Inactive)
REMARK    1  A    between atoms: C6_6  and  C8_8 
REMARK    2  A    between atoms: C7_7  and  C9_9 
ROOT
HETATM    1  C1  UNL     1     -33.480   5.672   0.721  1.00 20.00     0.005 C 
HETATM    2  C2  UNL     1     -32.066   5.130   1.036  1.00 20.00     0.005 C 
HETATM    3  C5  UNL     1     -32.014   7.421   1.468  1.00 20.00     0.010 C 
HETATM    4  C6  UNL     1     -33.507   7.035   1.435  1.00 20.00    -0.010 C 
HETATM    5  C7  UNL     1     -31.592   6.110   2.140  1.00 20.00    -0.010 C 
ENDROOT
BRANCH   4   6
HETATM    6  C8  UNL     1     -33.701   6.918   2.944  1.00 20.00    -0.006 C 
HETATM    7  C3  UNL     1     -33.953   7.586   4.321  1.00 20.00     0.006 C 
HETATM    8  C4  UNL     1     -34.923   6.338   4.529  1.00 20.00     0.006 C 
HETATM    9  C9  UNL     1     -35.238   6.558   3.019  1.00 20.00    -0.006 C 
ENDBRANCH   4   6
TORSDOF 2
ENDMDL
