MODEL 1
REMARK VINA RESULT:       0.7      0.000      0.000
REMARK  0 active torsions:
REMARK  status: ('A' for Active; 'I' for Inactive)
ROOT
HETATM    1  C1  UNL     1     -32.810   7.910   4.116  1.00 20.00     0.001 C 
HETATM    2  C2  UNL     1     -34.307   7.790   4.460  1.00 20.00     0.005 C 
HETATM    3  C3  UNL     1     -34.537   5.218   4.383  1.00 20.00     0.005 C 
HETATM    4  C4  UNL     1     -33.742   4.345   3.388  1.00 20.00     0.006 C 
HETATM    5  C5  UNL     1     -32.514   7.704   2.619  1.00 20.00     0.010 C 
HETATM    6  C6  UNL     1     -34.760   6.646   2.291  1.00 20.00     0.014 C 
HETATM    7  C7  UNL     1     -32.713   5.458   1.189  1.00 20.00     0.015 A 
HETATM    8  C8  UNL     1     -35.019   6.580   3.801  1.00 20.00    -0.014 C 
HETATM    9  C9  UNL     1     -32.722   5.176   2.669  1.00 20.00    -0.005 A 
HETATM   10  C10 UNL     1     -33.265   6.489   2.139  1.00 20.00    -0.036 A 
ENDROOT
TORSDOF 0
ENDMDL
MODEL 2
REMARK VINA RESULT:       1.5      0.837      3.442
REMARK  0 active torsions:
REMARK  status: ('A' for Active; 'I' for Inactive)
ROOT
HETATM    1  C1  UNL     1     -32.469   4.563   2.915  1.00 20.00     0.001 C 
HETATM    2  C2  UNL     1     -32.291   4.997   1.447  1.00 20.00     0.005 C 
HETATM    3  C3  UNL     1     -31.756   7.496   1.827  1.00 20.00     0.005 C 
HETATM    4  C4  UNL     1     -32.398   8.317   2.965  1.00 20.00     0.006 C 
HETATM    5  C5  UNL     1     -33.820   4.993   3.515  1.00 20.00     0.010 C 
HETATM    6  C6  UNL     1     -34.147   6.649   1.666  1.00 20.00     0.014 C 
HETATM    7  C7  UNL     1     -34.662   7.460   4.093  1.00 20.00     0.015 A 
HETATM    8  C8  UNL     1     -32.712   6.462   1.161  1.00 20.00    -0.014 C 
HETATM    9  C9  UNL     1     -33.171   7.418   3.882  1.00 20.00    -0.005 A 
HETATM   10  C10 UNL     1     -34.072   6.435   3.160  1.00 20.00    -0.036 A 
ENDROOT
TORSDOF 0
ENDMDL
MODEL 3
REMARK VINA RESULT:       2.0      1.106      1.700
REMARK  0 active torsions:
REMARK  status: ('A' for Active; 'I' for Inactive)
ROOT
HETATM    1  C1  UNL     1     -32.584   7.956   4.807  1.00 20.00     0.001 C 
HETATM    2  C2  UNL     1     -34.063   7.534   4.708  1.00 20.00     0.005 C 
HETATM    3  C3  UNL     1     -33.827   5.637   2.970  1.00 20.00     0.005 C 
HETATM    4  C4  UNL     1     -32.800   5.691   1.819  1.00 20.00     0.006 C 
HETATM    5  C5  UNL     1     -32.115   8.805   3.611  1.00 20.00     0.010 C 
HETATM    6  C6  UNL     1     -34.098   8.067   2.272  1.00 20.00     0.014 C 
HETATM    7  C7  UNL     1     -31.778   8.044   1.074  1.00 20.00     0.015 A 
HETATM    8  C8  UNL     1     -34.484   7.008   3.311  1.00 20.00    -0.014 C 
HETATM    9  C9  UNL     1     -31.878   6.859   2.000  1.00 20.00    -0.005 A 
HETATM   10  C10 UNL     1     -32.591   8.155   2.338  1.00 20.00    -0.036 A 
ENDROOT
TORSDOF 0
ENDMDL
MODEL 4
REMARK VINA RESULT:       2.3      1.565      3.464
REMARK  0 active torsions:
REMARK  status: ('A' for Active; 'I' for Inactive)
ROOT
HETATM    1  C1  UNL     1     -32.860   9.225   0.609  1.00 20.00     0.001 C 
HETATM    2  C2  UNL     1     -31.479   8.556   0.473  1.00 20.00     0.005 C 
HETATM    3  C3  UNL     1     -32.126   6.150   1.158  1.00 20.00     0.005 C 
HETATM    4  C4  UNL     1     -33.198   5.854   2.228  1.00 20.00     0.006 C 
HETATM    5  C5  UNL     1     -33.256   9.507   2.069  1.00 20.00     0.010 C 
HETATM    6  C6  UNL     1     -31.506   7.912   2.883  1.00 20.00     0.014 C 
HETATM    7  C7  UNL     1     -33.866   7.750   3.985  1.00 20.00     0.015 A 
HETATM    8  C8  UNL     1     -31.235   7.390   1.467  1.00 20.00    -0.014 C 
HETATM    9  C9  UNL     1     -33.904   7.116   2.619  1.00 20.00    -0.005 A 
HETATM   10  C10 UNL     1     -32.971   8.280   2.895  1.00 20.00    -0.036 A 
ENDROOT
TORSDOF 0
ENDMDL
MODEL 5
REMARK VINA RESULT:       2.7      1.354      3.062
REMARK  0 active torsions:
REMARK  status: ('A' for Active; 'I' for Inactive)
ROOT
HETATM    1  C1  UNL     1     -34.114   7.315   3.564  1.00 20.00     0.001 C 
HETATM    2  C2  UNL     1     -32.874   8.218   3.710  1.00 20.00     0.005 C 
HETATM    3  C3  UNL     1     -32.543   8.857   1.229  1.00 20.00     0.005 C 
HETATM    4  C4  UNL     1     -32.846   7.878   0.074  1.00 20.00     0.006 C 
HETATM    5  C5  UNL     1     -33.784   5.916   3.014  1.00 20.00     0.010 C 
HETATM    6  C6  UNL     1     -31.557   6.727   2.206  1.00 20.00     0.014 C 
HETATM    7  C7  UNL     1     -32.954   5.255   0.564  1.00 20.00     0.015 A 
HETATM    8  C8  UNL     1     -31.917   8.190   2.490  1.00 20.00    -0.014 C 
HETATM    9  C9  UNL     1     -33.525   6.650   0.600  1.00 20.00    -0.005 A 
HETATM   10  C10 UNL     1     -32.862   6.063   1.832  1.00 20.00    -0.036 A 
ENDROOT
TORSDOF 0
ENDMDL
MODEL 6
REMARK VINA RESULT:       2.8      1.251      2.479
REMARK  0 active torsions:
REMARK  status: ('A' for Active; 'I' for Inactive)
ROOT
HETATM    1  C1  UNL     1     -33.650   7.137   4.141  1.00 20.00     0.001 C 
HETATM    2  C2  UNL     1     -34.247   5.888   3.464  1.00 20.00     0.005 C 
HETATM    3  C3  UNL     1     -32.213   5.192   2.032  1.00 20.00     0.005 C 
HETATM    4  C4  UNL     1     -31.256   6.223   1.396  1.00 20.00     0.006 C 
HETATM    5  C5  UNL     1     -33.598   8.364   3.214  1.00 20.00     0.010 C 
HETATM    6  C6  UNL     1     -33.909   6.897   1.208  1.00 20.00     0.014 C 
HETATM    7  C7  UNL     1     -32.070   8.743   1.057  1.00 20.00     0.015 A 
HETATM    8  C8  UNL     1     -33.710   5.620   2.034  1.00 20.00    -0.014 C 
HETATM    9  C9  UNL     1     -31.567   7.600   1.899  1.00 20.00    -0.005 A 
HETATM   10  C10 UNL     1     -33.045   7.940   1.878  1.00 20.00    -0.036 A 
ENDROOT
TORSDOF 0
ENDMDL
MODEL 7
REMARK VINA RESULT:       3.0      0.957      2.674
REMARK  0 active torsions:
REMARK  status: ('A' for Active; 'I' for Inactive)
ROOT
HETATM    1  C1  UNL     1     -35.804   7.029   3.287  1.00 20.00     0.001 C 
HETATM    2  C2  UNL     1     -34.746   8.140   3.435  1.00 20.00     0.005 C 
HETATM    3  C3  UNL     1     -32.882   7.121   1.965  1.00 20.00     0.005 C 
HETATM    4  C4  UNL     1     -32.625   5.600   1.887  1.00 20.00     0.006 C 
HETATM    5  C5  UNL     1     -35.501   5.785   4.140  1.00 20.00     0.010 C 
HETATM    6  C6  UNL     1     -33.125   6.523   4.424  1.00 20.00     0.014 C 
HETATM    7  C7  UNL     1     -33.528   4.012   3.835  1.00 20.00     0.015 A 
HETATM    8  C8  UNL     1     -33.281   7.635   3.380  1.00 20.00    -0.014 C 
HETATM    9  C9  UNL     1     -33.713   4.854   2.599  1.00 20.00    -0.005 A 
HETATM   10  C10 UNL     1     -34.050   5.419   3.966  1.00 20.00    -0.036 A 
ENDROOT
TORSDOF 0
ENDMDL
MODEL 8
REMARK VINA RESULT:       3.3      0.913      2.901
REMARK  0 active torsions:
REMARK  status: ('A' for Active; 'I' for Inactive)
ROOT
HETATM    1  C1  UNL     1     -32.858   7.281   1.282  1.00 20.00     0.001 C 
HETATM    2  C2  UNL     1     -32.898   5.750   1.452  1.00 20.00     0.005 C 
HETATM    3  C3  UNL     1     -34.979   5.564   2.970  1.00 20.00     0.005 C 
HETATM    4  C4  UNL     1     -35.323   6.625   4.039  1.00 20.00     0.006 C 
HETATM    5  C5  UNL     1     -32.302   8.014   2.515  1.00 20.00     0.010 C 
HETATM    6  C6  UNL     1     -32.659   5.975   3.924  1.00 20.00     0.014 C 
HETATM    7  C7  UNL     1     -33.412   8.263   4.931  1.00 20.00     0.015 A 
HETATM    8  C8  UNL     1     -33.457   5.274   2.818  1.00 20.00    -0.014 C 
HETATM    9  C9  UNL     1     -34.416   7.810   3.903  1.00 20.00    -0.005 A 
HETATM   10  C10 UNL     1     -32.951   7.447   3.751  1.00 20.00    -0.036 A 
ENDROOT
TORSDOF 0
ENDMDL
MODEL 9
REMARK VINA RESULT:       3.4      1.653      3.409
REMARK  0 active torsions:
REMARK  status: ('A' for Active; 'I' for Inactive)
ROOT
HETATM    1  C1  UNL     1     -33.491   5.988   1.888  1.00 20.00     0.001 C 
HETATM    2  C2  UNL     1     -33.727   6.525   3.313  1.00 20.00     0.005 C 
HETATM    3  C3  UNL     1     -34.085   9.021   2.751  1.00 20.00     0.005 C 
HETATM    4  C4  UNL     1     -33.329   9.730   1.607  1.00 20.00     0.006 C 
HETATM    5  C5  UNL     1     -32.084   6.301   1.347  1.00 20.00     0.010 C 
HETATM    6  C6  UNL     1     -31.763   8.050   3.110  1.00 20.00     0.014 C 
HETATM    7  C7  UNL     1     -31.061   8.674   0.674  1.00 20.00     0.015 A 
HETATM    8  C8  UNL     1     -33.235   7.979   3.536  1.00 20.00    -0.014 C 
HETATM    9  C9  UNL     1     -32.562   8.731   0.795  1.00 20.00    -0.005 A 
HETATM   10  C10 UNL     1     -31.765   7.746   1.630  1.00 20.00    -0.036 A 
ENDROOT
TORSDOF 0
ENDMDL
