MODEL 1
REMARK VINA RESULT:      -3.0      0.000      0.000
REMARK  3 active torsions:
REMARK  status: ('A' for Active; 'I' for Inactive)
REMARK    1  A    between atoms: C1_1  and  C3_3 
REMARK    2  A    between atoms: C2_2  and  C4_4 
REMARK    3  A    between atoms: C5_5  and  C6_6 
ROOT
HETATM    1  C3  UNL     1     -33.339   5.761   2.358  1.00 20.00     0.010 C 
HETATM    2  C5  UNL     1     -34.088   5.985   3.452  1.00 20.00    -0.017 C 
HETATM    3  C7  UNL     1     -34.577   7.299   3.976  1.00 20.00     0.052 C 
ENDROOT
BRANCH   1   4
HETATM    4  C1  UNL     1     -32.805   6.774   1.470  1.00 20.00     0.004 C 
HETATM    5  C2  UNL     1     -32.060   7.796   1.911  1.00 20.00     0.041 C 
BRANCH   5   6
HETATM    6  C4  UNL     1     -31.558   8.788   0.941  1.00 20.00     0.258 C 
HETATM    7  O9  UNL     1     -32.308   9.557   0.352  1.00 20.00    -0.302 OA
ENDBRANCH   5   6
ENDBRANCH   1   4
BRANCH   2   8
HETATM    8  C6  UNL     1     -34.512   4.762   4.203  1.00 20.00     0.151 C 
HETATM    9  C8  UNL     1     -33.569   3.586   4.199  1.00 20.00     0.096 C 
HETATM   10  O10 UNL     1     -35.579   4.725   4.812  1.00 20.00    -0.293 OA
ENDBRANCH   2   8
TORSDOF 3
ENDMDL
MODEL 2
REMARK VINA RESULT:      -2.0      1.310      2.047
REMARK  3 active torsions:
REMARK  status: ('A' for Active; 'I' for Inactive)
REMARK    1  A    between atoms: C1_1  and  C3_3 
REMARK    2  A    between atoms: C2_2  and  C4_4 
REMARK    3  A    between atoms: C5_5  and  C6_6 
ROOT
HETATM    1  C3  UNL     1     -33.023   7.356   2.821  1.00 20.00     0.010 C 
HETATM    2  C5  UNL     1     -33.275   6.063   2.553  1.00 20.00    -0.017 C 
HETATM    3  C7  UNL     1     -32.797   5.257   1.385  1.00 20.00     0.052 C 
ENDROOT
BRANCH   1   4
HETATM    4  C1  UNL     1     -32.256   8.263   1.992  1.00 20.00     0.004 C 
HETATM    5  C2  UNL     1     -32.774   8.863   0.912  1.00 20.00     0.041 C 
BRANCH   5   6
HETATM    6  C4  UNL     1     -31.922   9.770   0.118  1.00 20.00     0.258 C 
HETATM    7  O9  UNL     1     -32.177  10.963   0.002  1.00 20.00    -0.302 OA
ENDBRANCH   5   6
ENDBRANCH   1   4
BRANCH   2   8
HETATM    8  C6  UNL     1     -34.100   5.343   3.573  1.00 20.00     0.151 C 
HETATM    9  C8  UNL     1     -35.287   6.075   4.145  1.00 20.00     0.096 C 
HETATM   10  O10 UNL     1     -33.830   4.194   3.917  1.00 20.00    -0.293 OA
ENDBRANCH   2   8
TORSDOF 3
ENDMDL
MODEL 3
REMARK VINA RESULT:      -2.0      1.366      5.364
REMARK  3 active torsions:
REMARK  status: ('A' for Active; 'I' for Inactive)
REMARK    1  A    between atoms: C1_1  and  C3_3 
REMARK    2  A    between atoms: C2_2  and  C4_4 
REMARK    3  A    between atoms: C5_5  and  C6_6 
ROOT
HETATM    1  C3  UNL     1     -33.146   8.139   2.727  1.00 20.00     0.010 C 
HETATM    2  C5  UNL     1     -32.388   7.772   1.679  1.00 20.00    -0.017 C 
HETATM    3  C7  UNL     1     -32.008   6.385   1.262  1.00 20.00     0.052 C 
ENDROOT
BRANCH   1   4
HETATM    4  C1  UNL     1     -33.725   7.249   3.713  1.00 20.00     0.004 C 
HETATM    5  C2  UNL     1     -34.847   6.556   3.484  1.00 20.00     0.041 C 
BRANCH   5   6
HETATM    6  C4  UNL     1     -35.375   5.673   4.544  1.00 20.00     0.258 C 
HETATM    7  O9  UNL     1     -35.089   4.484   4.599  1.00 20.00    -0.302 OA
ENDBRANCH   5   6
ENDBRANCH   1   4
BRANCH   2   8
HETATM    8  C6  UNL     1     -31.907   8.891   0.809  1.00 20.00     0.151 C 
HETATM    9  C8  UNL     1     -32.731  10.153   0.787  1.00 20.00     0.096 C 
HETATM   10  O10 UNL     1     -30.873   8.789   0.153  1.00 20.00    -0.293 OA
ENDBRANCH   2   8
TORSDOF 3
ENDMDL
MODEL 4
REMARK VINA RESULT:      -2.0      1.269      1.507
REMARK  3 active torsions:
REMARK  status: ('A' for Active; 'I' for Inactive)
REMARK    1  A    between atoms: C1_1  and  C3_3 
REMARK    2  A    between atoms: C2_2  and  C4_4 
REMARK    3  A    between atoms: C5_5  and  C6_6 
ROOT
HETATM    1  C3  UNL     1     -32.814   6.611   2.273  1.00 20.00     0.010 C 
HETATM    2  C5  UNL     1     -33.610   6.659   3.356  1.00 20.00    -0.017 C 
HETATM    3  C7  UNL     1     -34.007   7.865   4.149  1.00 20.00     0.052 C 
ENDROOT
BRANCH   1   4
HETATM    4  C1  UNL     1     -32.130   7.736   1.668  1.00 20.00     0.004 C 
HETATM    5  C2  UNL     1     -32.756   8.615   0.875  1.00 20.00     0.041 C 
BRANCH   5   6
HETATM    6  C4  UNL     1     -31.985   9.732   0.293  1.00 20.00     0.258 C 
HETATM    7  O9  UNL     1     -32.385  10.889   0.338  1.00 20.00    -0.302 OA
ENDBRANCH   5   6
ENDBRANCH   1   4
BRANCH   2   8
HETATM    8  C6  UNL     1     -34.194   5.350   3.784  1.00 20.00     0.151 C 
HETATM    9  C8  UNL     1     -35.545   5.380   4.452  1.00 20.00     0.096 C 
HETATM   10  O10 UNL     1     -33.603   4.291   3.583  1.00 20.00    -0.293 OA
ENDBRANCH   2   8
TORSDOF 3
ENDMDL
MODEL 5
REMARK VINA RESULT:      -1.6      1.107      5.248
REMARK  3 active torsions:
REMARK  status: ('A' for Active; 'I' for Inactive)
REMARK    1  A    between atoms: C1_1  and  C3_3 
REMARK    2  A    between atoms: C2_2  and  C4_4 
REMARK    3  A    between atoms: C5_5  and  C6_6 
ROOT
HETATM    1  C3  UNL     1     -32.829   6.901   1.565  1.00 20.00     0.010 C 
HETATM    2  C5  UNL     1     -32.212   8.058   1.864  1.00 20.00    -0.017 C 
HETATM    3  C7  UNL     1     -31.775   8.543   3.211  1.00 20.00     0.052 C 
ENDROOT
BRANCH   1   4
HETATM    4  C1  UNL     1     -33.244   5.888   2.514  1.00 20.00     0.004 C 
HETATM    5  C2  UNL     1     -34.294   6.053   3.329  1.00 20.00     0.041 C 
BRANCH   5   6
HETATM    6  C4  UNL     1     -34.649   4.974   4.271  1.00 20.00     0.258 C 
HETATM    7  O9  UNL     1     -34.139   3.862   4.204  1.00 20.00    -0.302 OA
ENDBRANCH   5   6
ENDBRANCH   1   4
BRANCH   2   8
HETATM    8  C6  UNL     1     -31.893   8.937   0.696  1.00 20.00     0.151 C 
HETATM    9  C8  UNL     1     -32.723  10.182   0.519  1.00 20.00     0.096 C 
HETATM   10  O10 UNL     1     -30.978   8.662  -0.078  1.00 20.00    -0.293 OA
ENDBRANCH   2   8
TORSDOF 3
ENDMDL
MODEL 6
REMARK VINA RESULT:      -1.4      1.282      5.279
REMARK  3 active torsions:
REMARK  status: ('A' for Active; 'I' for Inactive)
REMARK    1  A    between atoms: C1_1  and  C3_3 
REMARK    2  A    between atoms: C2_2  and  C4_4 
REMARK    3  A    between atoms: C5_5  and  C6_6 
ROOT
HETATM    1  C3  UNL     1     -33.339   8.169   2.787  1.00 20.00     0.010 C 
HETATM    2  C5  UNL     1     -32.524   7.897   1.753  1.00 20.00    -0.017 C 
HETATM    3  C7  UNL     1     -31.983   6.564   1.337  1.00 20.00     0.052 C 
ENDROOT
BRANCH   1   4
HETATM    4  C1  UNL     1     -33.834   7.213   3.756  1.00 20.00     0.004 C 
HETATM    5  C2  UNL     1     -34.913   6.453   3.530  1.00 20.00     0.041 C 
BRANCH   5   6
HETATM    6  C4  UNL     1     -35.356   5.506   4.572  1.00 20.00     0.258 C 
HETATM    7  O9  UNL     1     -34.961   4.347   4.604  1.00 20.00    -0.302 OA
ENDBRANCH   5   6
ENDBRANCH   1   4
BRANCH   2   8
HETATM    8  C6  UNL     1     -32.154   9.068   0.898  1.00 20.00     0.151 C 
HETATM    9  C8  UNL     1     -31.080   8.859  -0.137  1.00 20.00     0.096 C 
HETATM   10  O10 UNL     1     -32.718  10.154   1.026  1.00 20.00    -0.293 OA
ENDBRANCH   2   8
TORSDOF 3
ENDMDL
MODEL 7
REMARK VINA RESULT:      -0.5      1.593      2.173
REMARK  3 active torsions:
REMARK  status: ('A' for Active; 'I' for Inactive)
REMARK    1  A    between atoms: C1_1  and  C3_3 
REMARK    2  A    between atoms: C2_2  and  C4_4 
REMARK    3  A    between atoms: C5_5  and  C6_6 
ROOT
HETATM    1  C3  UNL     1     -32.378   7.365   1.635  1.00 20.00     0.010 C 
HETATM    2  C5  UNL     1     -33.127   6.784   2.588  1.00 20.00    -0.017 C 
HETATM    3  C7  UNL     1     -33.986   7.454   3.615  1.00 20.00     0.052 C 
ENDROOT
BRANCH   1   4
HETATM    4  C1  UNL     1     -32.212   8.790   1.432  1.00 20.00     0.004 C 
HETATM    5  C2  UNL     1     -32.536   9.395   0.282  1.00 20.00     0.041 C 
BRANCH   5   6
HETATM    6  C4  UNL     1     -32.331  10.852   0.155  1.00 20.00     0.258 C 
HETATM    7  O9  UNL     1     -32.445  11.608   1.112  1.00 20.00    -0.302 OA
ENDBRANCH   5   6
ENDBRANCH   1   4
BRANCH   2   8
HETATM    8  C6  UNL     1     -33.126   5.288   2.585  1.00 20.00     0.151 C 
HETATM    9  C8  UNL     1     -32.444   4.599   1.431  1.00 20.00     0.096 C 
HETATM   10  O10 UNL     1     -33.646   4.647   3.496  1.00 20.00    -0.293 OA
ENDBRANCH   2   8
TORSDOF 3
ENDMDL
