MODEL 1
REMARK VINA RESULT:       1.1      0.000      0.000
REMARK  1 active torsions:
REMARK  status: ('A' for Active; 'I' for Inactive)
REMARK    1  A    between atoms: C1_1  and  C8_8 
ROOT
HETATM    1  C1  UNL     1     -32.890   7.424   2.805  1.00 20.00     0.069 C 
HETATM    2  C2  UNL     1     -34.248   7.438   4.617  1.00 20.00     0.169 C 
HETATM    3  C3  UNL     1     -34.912   6.311   3.815  1.00 20.00     0.025 C 
HETATM    4  C4  UNL     1     -36.120   6.815   3.019  1.00 20.00     0.029 C 
HETATM    5  C5  UNL     1     -35.304   5.132   4.703  1.00 20.00     0.029 C 
HETATM    6  N9  UNL     1     -33.300   8.188   3.762  1.00 20.00    -0.285 NA
HETATM    7  S10 UNL     1     -33.587   5.833   2.663  1.00 20.00    -0.104 SA
ENDROOT
BRANCH   1   8
HETATM    8  C8  UNL     1     -31.889   7.850   1.786  1.00 20.00     0.036 C 
HETATM    9  C6  UNL     1     -31.540   6.687   0.857  1.00 20.00     0.016 C 
HETATM   10  C7  UNL     1     -32.399   9.047   0.983  1.00 20.00     0.016 C 
ENDBRANCH   1   8
TORSDOF 1
ENDMDL
MODEL 2
REMARK VINA RESULT:       1.2      1.582      4.183
REMARK  1 active torsions:
REMARK  status: ('A' for Active; 'I' for Inactive)
REMARK    1  A    between atoms: C1_1  and  C8_8 
ROOT
HETATM    1  C1  UNL     1     -33.460   6.018   2.772  1.00 20.00     0.069 C 
HETATM    2  C2  UNL     1     -31.749   6.554   1.388  1.00 20.00     0.169 C 
HETATM    3  C3  UNL     1     -32.070   7.949   1.942  1.00 20.00     0.025 C 
HETATM    4  C4  UNL     1     -32.970   8.745   0.991  1.00 20.00     0.029 C 
HETATM    5  C5  UNL     1     -30.806   8.736   2.276  1.00 20.00     0.029 C 
HETATM    6  N9  UNL     1     -32.839   5.607   1.716  1.00 20.00    -0.285 NA
HETATM    7  S10 UNL     1     -32.996   7.551   3.458  1.00 20.00    -0.104 SA
ENDROOT
BRANCH   1   8
HETATM    8  C8  UNL     1     -34.585   5.273   3.405  1.00 20.00     0.036 C 
HETATM    9  C6  UNL     1     -34.056   4.101   4.231  1.00 20.00     0.016 C 
HETATM   10  C7  UNL     1     -35.439   6.200   4.270  1.00 20.00     0.016 C 
ENDBRANCH   1   8
TORSDOF 1
ENDMDL
MODEL 3
REMARK VINA RESULT:       1.7      1.378      4.056
REMARK  1 active torsions:
REMARK  status: ('A' for Active; 'I' for Inactive)
REMARK    1  A    between atoms: C1_1  and  C8_8 
ROOT
HETATM    1  C1  UNL     1     -33.842   6.231   3.115  1.00 20.00     0.069 C 
HETATM    2  C2  UNL     1     -33.355   8.441   3.030  1.00 20.00     0.169 C 
HETATM    3  C3  UNL     1     -32.358   7.924   1.984  1.00 20.00     0.025 C 
HETATM    4  C4  UNL     1     -30.959   7.731   2.579  1.00 20.00     0.029 C 
HETATM    5  C5  UNL     1     -32.302   8.826   0.753  1.00 20.00     0.029 C 
HETATM    6  N9  UNL     1     -33.906   7.314   3.816  1.00 20.00    -0.285 NA
HETATM    7  S10 UNL     1     -33.062   6.301   1.557  1.00 20.00    -0.104 SA
ENDROOT
BRANCH   1   8
HETATM    8  C8  UNL     1     -34.356   4.914   3.587  1.00 20.00     0.036 C 
HETATM    9  C6  UNL     1     -33.209   4.038   4.090  1.00 20.00     0.016 C 
HETATM   10  C7  UNL     1     -35.413   5.097   4.677  1.00 20.00     0.016 C 
ENDBRANCH   1   8
TORSDOF 1
ENDMDL
MODEL 4
REMARK VINA RESULT:       1.7      1.155      1.642
REMARK  1 active torsions:
REMARK  status: ('A' for Active; 'I' for Inactive)
REMARK    1  A    between atoms: C1_1  and  C8_8 
ROOT
HETATM    1  C1  UNL     1     -32.753   7.879   1.915  1.00 20.00     0.069 C 
HETATM    2  C2  UNL     1     -33.123   7.312   4.076  1.00 20.00     0.169 C 
HETATM    3  C3  UNL     1     -34.005   6.261   3.386  1.00 20.00     0.025 C 
HETATM    4  C4  UNL     1     -35.474   6.693   3.343  1.00 20.00     0.029 C 
HETATM    5  C5  UNL     1     -33.865   4.885   4.031  1.00 20.00     0.029 C 
HETATM    6  N9  UNL     1     -32.727   8.363   3.112  1.00 20.00    -0.285 NA
HETATM    7  S10 UNL     1     -33.329   6.248   1.696  1.00 20.00    -0.104 SA
ENDROOT
BRANCH   1   8
HETATM    8  C8  UNL     1     -32.364   8.658   0.705  1.00 20.00     0.036 C 
HETATM    9  C6  UNL     1     -32.749  10.128   0.865  1.00 20.00     0.016 C 
HETATM   10  C7  UNL     1     -30.868   8.520   0.421  1.00 20.00     0.016 C 
ENDBRANCH   1   8
TORSDOF 1
ENDMDL
MODEL 5
REMARK VINA RESULT:       2.1      1.713      2.494
REMARK  1 active torsions:
REMARK  status: ('A' for Active; 'I' for Inactive)
REMARK    1  A    between atoms: C1_1  and  C8_8 
ROOT
HETATM    1  C1  UNL     1     -32.629   8.451   1.529  1.00 20.00     0.069 C 
HETATM    2  C2  UNL     1     -32.851   6.466   2.597  1.00 20.00     0.169 C 
HETATM    3  C3  UNL     1     -33.718   7.342   3.513  1.00 20.00     0.025 C 
HETATM    4  C4  UNL     1     -32.942   7.816   4.746  1.00 20.00     0.029 C 
HETATM    5  C5  UNL     1     -35.008   6.637   3.923  1.00 20.00     0.029 C 
HETATM    6  N9  UNL     1     -32.040   7.312   1.692  1.00 20.00    -0.285 NA
HETATM    7  S10 UNL     1     -34.079   8.769   2.442  1.00 20.00    -0.104 SA
ENDROOT
BRANCH   1   8
HETATM    8  C8  UNL     1     -32.106   9.525   0.639  1.00 20.00     0.036 C 
HETATM    9  C6  UNL     1     -32.339   9.169  -0.829  1.00 20.00     0.016 C 
HETATM   10  C7  UNL     1     -32.743  10.875   0.974  1.00 20.00     0.016 C 
ENDBRANCH   1   8
TORSDOF 1
ENDMDL
MODEL 6
REMARK VINA RESULT:       2.6      1.683      2.313
REMARK  1 active torsions:
REMARK  status: ('A' for Active; 'I' for Inactive)
REMARK    1  A    between atoms: C1_1  and  C8_8 
ROOT
HETATM    1  C1  UNL     1     -32.719   7.097   2.162  1.00 20.00     0.069 C 
HETATM    2  C2  UNL     1     -34.121   5.323   2.031  1.00 20.00     0.169 C 
HETATM    3  C3  UNL     1     -34.163   5.565   3.546  1.00 20.00     0.025 C 
HETATM    4  C4  UNL     1     -33.203   4.636   4.296  1.00 20.00     0.029 C 
HETATM    5  C5  UNL     1     -35.579   5.445   4.104  1.00 20.00     0.029 C 
HETATM    6  N9  UNL     1     -33.003   6.078   1.420  1.00 20.00    -0.285 NA
HETATM    7  S10 UNL     1     -33.567   7.280   3.674  1.00 20.00    -0.104 SA
ENDROOT
BRANCH   1   8
HETATM    8  C8  UNL     1     -31.671   8.098   1.815  1.00 20.00     0.036 C 
HETATM    9  C6  UNL     1     -32.186   9.073   0.758  1.00 20.00     0.016 C 
HETATM   10  C7  UNL     1     -31.199   8.852   3.060  1.00 20.00     0.016 C 
ENDBRANCH   1   8
TORSDOF 1
ENDMDL
MODEL 7
REMARK VINA RESULT:       3.1      1.441      3.907
REMARK  1 active torsions:
REMARK  status: ('A' for Active; 'I' for Inactive)
REMARK    1  A    between atoms: C1_1  and  C8_8 
ROOT
HETATM    1  C1  UNL     1     -33.443   7.013   2.777  1.00 20.00     0.069 C 
HETATM    2  C2  UNL     1     -31.946   6.867   1.085  1.00 20.00     0.169 C 
HETATM    3  C3  UNL     1     -32.209   5.372   1.317  1.00 20.00     0.025 C 
HETATM    4  C4  UNL     1     -31.133   4.738   2.203  1.00 20.00     0.029 C 
HETATM    5  C5  UNL     1     -32.349   4.607   0.004  1.00 20.00     0.029 C 
HETATM    6  N9  UNL     1     -32.482   7.665   2.211  1.00 20.00    -0.285 NA
HETATM    7  S10 UNL     1     -33.791   5.400   2.215  1.00 20.00    -0.104 SA
ENDROOT
BRANCH   1   8
HETATM    8  C8  UNL     1     -34.238   7.549   3.919  1.00 20.00     0.036 C 
HETATM    9  C6  UNL     1     -35.221   6.497   4.431  1.00 20.00     0.016 C 
HETATM   10  C7  UNL     1     -33.323   8.026   5.048  1.00 20.00     0.016 C 
ENDBRANCH   1   8
TORSDOF 1
ENDMDL
MODEL 8
REMARK VINA RESULT:       3.2      2.050      4.571
REMARK  1 active torsions:
REMARK  status: ('A' for Active; 'I' for Inactive)
REMARK    1  A    between atoms: C1_1  and  C8_8 
ROOT
HETATM    1  C1  UNL     1     -32.374   7.697   1.873  1.00 20.00     0.069 C 
HETATM    2  C2  UNL     1     -31.020   9.065   0.679  1.00 20.00     0.169 C 
HETATM    3  C3  UNL     1     -32.327   9.865   0.588  1.00 20.00     0.025 C 
HETATM    4  C4  UNL     1     -33.066   9.597  -0.727  1.00 20.00     0.029 C 
HETATM    5  C5  UNL     1     -32.097  11.361   0.785  1.00 20.00     0.029 C 
HETATM    6  N9  UNL     1     -31.288   7.695   1.173  1.00 20.00    -0.285 NA
HETATM    7  S10 UNL     1     -33.290   9.177   1.972  1.00 20.00    -0.104 SA
ENDROOT
BRANCH   1   8
HETATM    8  C8  UNL     1     -32.910   6.488   2.559  1.00 20.00     0.036 C 
HETATM    9  C6  UNL     1     -34.152   6.841   3.378  1.00 20.00     0.016 C 
HETATM   10  C7  UNL     1     -33.225   5.380   1.553  1.00 20.00     0.016 C 
ENDBRANCH   1   8
TORSDOF 1
ENDMDL
MODEL 9
REMARK VINA RESULT:       3.3      2.335      4.278
REMARK  1 active torsions:
REMARK  status: ('A' for Active; 'I' for Inactive)
REMARK    1  A    between atoms: C1_1  and  C8_8 
ROOT
HETATM    1  C1  UNL     1     -34.116   4.440   4.386  1.00 20.00     0.069 C 
HETATM    2  C2  UNL     1     -35.420   6.206   3.827  1.00 20.00     0.169 C 
HETATM    3  C3  UNL     1     -34.038   6.821   3.565  1.00 20.00     0.025 C 
HETATM    4  C4  UNL     1     -33.558   7.665   4.750  1.00 20.00     0.029 C 
HETATM    5  C5  UNL     1     -34.011   7.635   2.274  1.00 20.00     0.029 C 
HETATM    6  N9  UNL     1     -35.285   4.948   4.597  1.00 20.00    -0.285 NA
HETATM    7  S10 UNL     1     -32.987   5.343   3.412  1.00 20.00    -0.104 SA
ENDROOT
BRANCH   1   8
HETATM    8  C8  UNL     1     -33.665   3.146   4.971  1.00 20.00     0.036 C 
HETATM    9  C6  UNL     1     -33.099   2.232   3.885  1.00 20.00     0.016 C 
HETATM   10  C7  UNL     1     -32.633   3.373   6.077  1.00 20.00     0.016 C 
ENDBRANCH   1   8
TORSDOF 1
ENDMDL
