MODEL 1
REMARK VINA RESULT:      -1.0      0.000      0.000
REMARK  0 active torsions:
REMARK  status: ('A' for Active; 'I' for Inactive)
ROOT
HETATM    1  C1  UNL     1     -34.107   6.626   3.399  1.00 20.00     0.411 C 
HETATM    2  C2  UNL     1     -32.370   7.350   2.188  1.00 20.00     0.368 C 
HETATM    3  C3  UNL     1     -32.817   6.017   1.656  1.00 20.00     0.199 C 
HETATM    4  C4  UNL     1     -31.667   5.063   1.383  1.00 20.00     0.070 C 
HETATM    5  O5  UNL     1     -34.977   6.587   4.255  1.00 20.00    -0.229 OA
HETATM    6  O6  UNL     1     -33.470   7.766   2.988  1.00 20.00    -0.257 OA
HETATM    7  O7  UNL     1     -33.637   5.536   2.716  1.00 20.00    -0.265 OA
HETATM    8  F8  UNL     1     -32.176   8.262   1.208  1.00 20.00    -0.214 F 
HETATM    9 CL9  UNL     1     -33.818   6.179   0.182  1.00 20.00    -0.082 Cl
ENDROOT
TORSDOF 0
ENDMDL
MODEL 2
REMARK VINA RESULT:      -0.9      1.870      2.528
REMARK  0 active torsions:
REMARK  status: ('A' for Active; 'I' for Inactive)
ROOT
HETATM    1  C1  UNL     1     -34.019   6.950   3.316  1.00 20.00     0.411 C 
HETATM    2  C2  UNL     1     -32.692   6.534   1.563  1.00 20.00     0.368 C 
HETATM    3  C3  UNL     1     -32.487   7.956   2.006  1.00 20.00     0.199 C 
HETATM    4  C4  UNL     1     -32.463   8.947   0.856  1.00 20.00     0.070 C 
HETATM    5  O5  UNL     1     -34.849   6.785   4.197  1.00 20.00    -0.229 OA
HETATM    6  O6  UNL     1     -33.356   5.941   2.671  1.00 20.00    -0.257 OA
HETATM    7  O7  UNL     1     -33.621   8.172   2.840  1.00 20.00    -0.265 OA
HETATM    8  F8  UNL     1     -31.525   5.883   1.356  1.00 20.00    -0.214 F 
HETATM    9 CL9  UNL     1     -31.005   8.152   2.990  1.00 20.00    -0.082 Cl
ENDROOT
TORSDOF 0
ENDMDL
MODEL 3
REMARK VINA RESULT:      -0.7      2.520      3.241
REMARK  0 active torsions:
REMARK  status: ('A' for Active; 'I' for Inactive)
ROOT
HETATM    1  C1  UNL     1     -34.045   4.222   4.261  1.00 20.00     0.411 C 
HETATM    2  C2  UNL     1     -35.223   6.116   4.080  1.00 20.00     0.368 C 
HETATM    3  C3  UNL     1     -33.904   6.291   3.381  1.00 20.00     0.199 C 
HETATM    4  C4  UNL     1     -33.222   7.610   3.703  1.00 20.00     0.070 C 
HETATM    5  O5  UNL     1     -33.741   3.081   4.572  1.00 20.00    -0.229 OA
HETATM    6  O6  UNL     1     -35.325   4.707   4.233  1.00 20.00    -0.257 OA
HETATM    7  O7  UNL     1     -33.153   5.193   3.888  1.00 20.00    -0.265 OA
HETATM    8  F8  UNL     1     -36.265   6.550   3.336  1.00 20.00    -0.214 F 
HETATM    9 CL9  UNL     1     -34.050   6.116   1.606  1.00 20.00    -0.082 Cl
ENDROOT
TORSDOF 0
ENDMDL
MODEL 4
REMARK VINA RESULT:      -0.7      2.392      3.271
REMARK  0 active torsions:
REMARK  status: ('A' for Active; 'I' for Inactive)
ROOT
HETATM    1  C1  UNL     1     -33.941   4.278   4.089  1.00 20.00     0.411 C 
HETATM    2  C2  UNL     1     -33.828   5.868   2.518  1.00 20.00     0.368 C 
HETATM    3  C3  UNL     1     -34.727   6.339   3.628  1.00 20.00     0.199 C 
HETATM    4  C4  UNL     1     -36.016   6.969   3.131  1.00 20.00     0.070 C 
HETATM    5  O5  UNL     1     -33.754   3.223   4.675  1.00 20.00    -0.229 OA
HETATM    6  O6  UNL     1     -33.130   4.778   3.106  1.00 20.00    -0.257 OA
HETATM    7  O7  UNL     1     -34.989   5.127   4.329  1.00 20.00    -0.265 OA
HETATM    8  F8  UNL     1     -32.931   6.807   2.144  1.00 20.00    -0.214 F 
HETATM    9 CL9  UNL     1     -33.897   7.475   4.734  1.00 20.00    -0.082 Cl
ENDROOT
TORSDOF 0
ENDMDL
MODEL 5
REMARK VINA RESULT:      -0.5      2.587      3.665
REMARK  0 active torsions:
REMARK  status: ('A' for Active; 'I' for Inactive)
ROOT
HETATM    1  C1  UNL     1     -33.115   5.657   2.064  1.00 20.00     0.411 C 
HETATM    2  C2  UNL     1     -33.990   5.287   4.090  1.00 20.00     0.368 C 
HETATM    3  C3  UNL     1     -34.306   6.695   3.671  1.00 20.00     0.199 C 
HETATM    4  C4  UNL     1     -34.068   7.718   4.769  1.00 20.00     0.070 C 
HETATM    5  O5  UNL     1     -32.514   5.470   1.018  1.00 20.00    -0.229 OA
HETATM    6  O6  UNL     1     -33.600   4.665   2.873  1.00 20.00    -0.257 OA
HETATM    7  O7  UNL     1     -33.401   6.891   2.588  1.00 20.00    -0.265 OA
HETATM    8  F8  UNL     1     -35.069   4.638   4.583  1.00 20.00    -0.214 F 
HETATM    9 CL9  UNL     1     -35.979   6.860   3.059  1.00 20.00    -0.082 Cl
ENDROOT
TORSDOF 0
ENDMDL
MODEL 6
REMARK VINA RESULT:      -0.2      2.487      3.318
REMARK  0 active torsions:
REMARK  status: ('A' for Active; 'I' for Inactive)
ROOT
HETATM    1  C1  UNL     1     -32.537   7.338   2.244  1.00 20.00     0.411 C 
HETATM    2  C2  UNL     1     -33.788   7.857   4.026  1.00 20.00     0.368 C 
HETATM    3  C3  UNL     1     -34.303   6.581   3.422  1.00 20.00     0.199 C 
HETATM    4  C4  UNL     1     -35.815   6.546   3.289  1.00 20.00     0.070 C 
HETATM    5  O5  UNL     1     -31.673   7.407   1.385  1.00 20.00    -0.229 OA
HETATM    6  O6  UNL     1     -32.498   7.995   3.445  1.00 20.00    -0.257 OA
HETATM    7  O7  UNL     1     -33.680   6.588   2.141  1.00 20.00    -0.265 OA
HETATM    8  F8  UNL     1     -33.653   7.778   5.369  1.00 20.00    -0.214 F 
HETATM    9 CL9  UNL     1     -33.751   5.136   4.321  1.00 20.00    -0.082 Cl
ENDROOT
TORSDOF 0
ENDMDL
MODEL 7
REMARK VINA RESULT:      -0.2      2.034      2.935
REMARK  0 active torsions:
REMARK  status: ('A' for Active; 'I' for Inactive)
ROOT
HETATM    1  C1  UNL     1     -32.652   5.878   1.493  1.00 20.00     0.411 C 
HETATM    2  C2  UNL     1     -33.194   7.313   3.123  1.00 20.00     0.368 C 
HETATM    3  C3  UNL     1     -32.155   7.946   2.239  1.00 20.00     0.199 C 
HETATM    4  C4  UNL     1     -31.041   8.627   3.012  1.00 20.00     0.070 C 
HETATM    5  O5  UNL     1     -32.632   4.866   0.810  1.00 20.00    -0.229 OA
HETATM    6  O6  UNL     1     -33.671   6.227   2.339  1.00 20.00    -0.257 OA
HETATM    7  O7  UNL     1     -31.660   6.823   1.515  1.00 20.00    -0.265 OA
HETATM    8  F8  UNL     1     -34.226   8.145   3.387  1.00 20.00    -0.214 F 
HETATM    9 CL9  UNL     1     -32.870   9.106   1.079  1.00 20.00    -0.082 Cl
ENDROOT
TORSDOF 0
ENDMDL
MODEL 8
REMARK VINA RESULT:       0.4      1.576      1.641
REMARK  0 active torsions:
REMARK  status: ('A' for Active; 'I' for Inactive)
ROOT
HETATM    1  C1  UNL     1     -34.336   6.914   3.499  1.00 20.00     0.411 C 
HETATM    2  C2  UNL     1     -32.222   7.642   3.586  1.00 20.00     0.368 C 
HETATM    3  C3  UNL     1     -32.558   7.284   2.166  1.00 20.00     0.199 C 
HETATM    4  C4  UNL     1     -31.476   6.471   1.478  1.00 20.00     0.070 C 
HETATM    5  O5  UNL     1     -35.458   6.590   3.857  1.00 20.00    -0.229 OA
HETATM    6  O6  UNL     1     -33.496   7.728   4.210  1.00 20.00    -0.257 OA
HETATM    7  O7  UNL     1     -33.746   6.516   2.328  1.00 20.00    -0.265 OA
HETATM    8  F8  UNL     1     -31.606   8.842   3.687  1.00 20.00    -0.214 F 
HETATM    9 CL9  UNL     1     -32.937   8.726   1.176  1.00 20.00    -0.082 Cl
ENDROOT
TORSDOF 0
ENDMDL
MODEL 9
REMARK VINA RESULT:       0.6      2.523      2.928
REMARK  0 active torsions:
REMARK  status: ('A' for Active; 'I' for Inactive)
ROOT
HETATM    1  C1  UNL     1     -33.291   7.783   4.453  1.00 20.00     0.411 C 
HETATM    2  C2  UNL     1     -34.993   6.903   3.297  1.00 20.00     0.368 C 
HETATM    3  C3  UNL     1     -33.744   6.121   3.000  1.00 20.00     0.199 C 
HETATM    4  C4  UNL     1     -33.552   5.833   1.521  1.00 20.00     0.070 C 
HETATM    5  O5  UNL     1     -32.665   8.519   5.200  1.00 20.00    -0.229 OA
HETATM    6  O6  UNL     1     -34.651   7.629   4.470  1.00 20.00    -0.257 OA
HETATM    7  O7  UNL     1     -32.728   6.994   3.484  1.00 20.00    -0.265 OA
HETATM    8  F8  UNL     1     -36.050   6.106   3.572  1.00 20.00    -0.214 F 
HETATM    9 CL9  UNL     1     -33.671   4.588   3.919  1.00 20.00    -0.082 Cl
ENDROOT
TORSDOF 0
ENDMDL
