MODEL 1
REMARK VINA RESULT:       0.4      0.000      0.000
REMARK  0 active torsions:
REMARK  status: ('A' for Active; 'I' for Inactive)
ROOT
HETATM    1  C1  UNL     1     -35.564   6.286   4.109  1.00 20.00     0.083 C 
HETATM    2  C2  UNL     1     -33.363   6.669   1.290  1.00 20.00    -0.003 A 
HETATM    3  C3  UNL     1     -32.069   6.159   1.111  1.00 20.00    -0.011 A 
HETATM    4  C4  UNL     1     -32.905   5.350   1.827  1.00 20.00    -0.006 A 
HETATM    5  C5  UNL     1     -32.967   7.622   2.183  1.00 20.00    -0.016 C 
HETATM    6  C6  UNL     1     -34.566   7.392   4.230  1.00 20.00     0.052 C 
HETATM    7  C7  UNL     1     -31.540   7.575   1.461  1.00 20.00     0.023 C 
HETATM    8  C8  UNL     1     -33.962   4.548   4.012  1.00 20.00     0.153 C 
HETATM    9  C9  UNL     1     -32.976   5.506   3.393  1.00 20.00     0.022 C 
HETATM   10  C10 UNL     1     -33.172   7.023   3.726  1.00 20.00     0.007 C 
HETATM   11  N11 UNL     1     -35.324   5.032   4.013  1.00 20.00    -0.305 NA
ENDROOT
TORSDOF 0
ENDMDL
MODEL 2
REMARK VINA RESULT:       1.1      1.827      3.830
REMARK  0 active torsions:
REMARK  status: ('A' for Active; 'I' for Inactive)
ROOT
HETATM    1  C1  UNL     1     -32.373   7.345   0.850  1.00 20.00     0.083 C 
HETATM    2  C2  UNL     1     -35.099   6.602   3.075  1.00 20.00    -0.003 A 
HETATM    3  C3  UNL     1     -35.118   6.620   4.477  1.00 20.00    -0.011 A 
HETATM    4  C4  UNL     1     -34.313   7.564   3.906  1.00 20.00    -0.006 A 
HETATM    5  C5  UNL     1     -34.372   5.448   3.005  1.00 20.00    -0.016 C 
HETATM    6  C6  UNL     1     -32.401   5.944   1.372  1.00 20.00     0.052 C 
HETATM    7  C7  UNL     1     -35.001   5.074   4.428  1.00 20.00     0.023 C 
HETATM    8  C8  UNL     1     -32.076   8.366   2.963  1.00 20.00     0.153 C 
HETATM    9  C9  UNL     1     -32.806   7.216   3.610  1.00 20.00     0.022 C 
HETATM   10  C10 UNL     1     -32.760   5.845   2.853  1.00 20.00     0.007 C 
HETATM   11  N11 UNL     1     -32.230   8.422   1.527  1.00 20.00    -0.305 NA
ENDROOT
TORSDOF 0
ENDMDL
MODEL 3
REMARK VINA RESULT:       1.7      1.015      2.367
REMARK  0 active torsions:
REMARK  status: ('A' for Active; 'I' for Inactive)
ROOT
HETATM    1  C1  UNL     1     -33.736   4.351   3.774  1.00 20.00     0.083 C 
HETATM    2  C2  UNL     1     -32.094   7.497   3.185  1.00 20.00    -0.003 A 
HETATM    3  C3  UNL     1     -32.650   8.711   2.756  1.00 20.00    -0.011 A 
HETATM    4  C4  UNL     1     -33.466   7.961   3.555  1.00 20.00    -0.006 A 
HETATM    5  C5  UNL     1     -32.190   6.909   1.956  1.00 20.00    -0.016 C 
HETATM    6  C6  UNL     1     -33.350   4.608   2.353  1.00 20.00     0.052 C 
HETATM    7  C7  UNL     1     -32.094   8.385   1.346  1.00 20.00     0.023 C 
HETATM    8  C8  UNL     1     -35.247   6.165   3.928  1.00 20.00     0.153 C 
HETATM    9  C9  UNL     1     -34.439   6.912   2.897  1.00 20.00     0.022 C 
HETATM   10  C10 UNL     1     -33.612   6.041   1.892  1.00 20.00     0.007 C 
HETATM   11  N11 UNL     1     -34.565   5.018   4.485  1.00 20.00    -0.305 NA
ENDROOT
TORSDOF 0
ENDMDL
MODEL 4
REMARK VINA RESULT:       2.1      1.695      3.509
REMARK  0 active torsions:
REMARK  status: ('A' for Active; 'I' for Inactive)
ROOT
HETATM    1  C1  UNL     1     -31.461   7.664   1.857  1.00 20.00     0.083 C 
HETATM    2  C2  UNL     1     -33.600   6.065   4.267  1.00 20.00    -0.003 A 
HETATM    3  C3  UNL     1     -34.575   5.078   4.058  1.00 20.00    -0.011 A 
HETATM    4  C4  UNL     1     -33.490   4.990   3.234  1.00 20.00    -0.006 A 
HETATM    5  C5  UNL     1     -34.358   7.063   3.724  1.00 20.00    -0.016 C 
HETATM    6  C6  UNL     1     -32.824   8.264   1.992  1.00 20.00     0.052 C 
HETATM    7  C7  UNL     1     -35.636   6.204   4.162  1.00 20.00     0.023 C 
HETATM    8  C8  UNL     1     -32.220   5.558   1.089  1.00 20.00     0.153 C 
HETATM    9  C9  UNL     1     -33.503   5.752   1.855  1.00 20.00     0.022 C 
HETATM   10  C10 UNL     1     -33.943   7.232   2.119  1.00 20.00     0.007 C 
HETATM   11  N11 UNL     1     -31.171   6.480   1.462  1.00 20.00    -0.305 NA
ENDROOT
TORSDOF 0
ENDMDL
MODEL 5
REMARK VINA RESULT:       2.4      2.142      3.098
REMARK  0 active torsions:
REMARK  status: ('A' for Active; 'I' for Inactive)
ROOT
HETATM    1  C1  UNL     1     -33.706   6.461   2.495  1.00 20.00     0.083 C 
HETATM    2  C2  UNL     1     -33.187   9.267   0.306  1.00 20.00    -0.003 A 
HETATM    3  C3  UNL     1     -31.978   9.827  -0.131  1.00 20.00    -0.011 A 
HETATM    4  C4  UNL     1     -31.947   8.473   0.043  1.00 20.00    -0.006 A 
HETATM    5  C5  UNL     1     -33.075   9.775   1.568  1.00 20.00    -0.016 C 
HETATM    6  C6  UNL     1     -33.478   7.768   3.184  1.00 20.00     0.052 C 
HETATM    7  C7  UNL     1     -32.198  10.945   0.920  1.00 20.00     0.023 C 
HETATM    8  C8  UNL     1     -31.579   6.378   1.462  1.00 20.00     0.153 C 
HETATM    9  C9  UNL     1     -31.540   7.885   1.447  1.00 20.00     0.022 C 
HETATM   10  C10 UNL     1     -32.380   8.618   2.547  1.00 20.00     0.007 C 
HETATM   11  N11 UNL     1     -32.889   5.831   1.737  1.00 20.00    -0.305 NA
ENDROOT
TORSDOF 0
ENDMDL
MODEL 6
REMARK VINA RESULT:       2.9      1.782      2.738
REMARK  0 active torsions:
REMARK  status: ('A' for Active; 'I' for Inactive)
ROOT
HETATM    1  C1  UNL     1     -33.356   7.717   4.786  1.00 20.00     0.083 C 
HETATM    2  C2  UNL     1     -32.289   5.396   2.252  1.00 20.00    -0.003 A 
HETATM    3  C3  UNL     1     -31.989   5.644   0.905  1.00 20.00    -0.011 A 
HETATM    4  C4  UNL     1     -31.662   6.660   1.757  1.00 20.00    -0.006 A 
HETATM    5  C5  UNL     1     -33.637   5.523   2.074  1.00 20.00    -0.016 C 
HETATM    6  C6  UNL     1     -34.448   7.178   3.919  1.00 20.00     0.052 C 
HETATM    7  C7  UNL     1     -33.387   5.066   0.562  1.00 20.00     0.023 C 
HETATM    8  C8  UNL     1     -32.198   8.808   3.035  1.00 20.00     0.153 C 
HETATM    9  C9  UNL     1     -32.723   7.783   2.062  1.00 20.00     0.022 C 
HETATM   10  C10 UNL     1     -34.076   7.090   2.440  1.00 20.00     0.007 C 
HETATM   11  N11 UNL     1     -32.360   8.434   4.422  1.00 20.00    -0.305 NA
ENDROOT
TORSDOF 0
ENDMDL
MODEL 7
REMARK VINA RESULT:       2.9      2.335      4.074
REMARK  0 active torsions:
REMARK  status: ('A' for Active; 'I' for Inactive)
ROOT
HETATM    1  C1  UNL     1     -32.330   9.510  -0.096  1.00 20.00     0.083 C 
HETATM    2  C2  UNL     1     -33.616   6.542   1.479  1.00 20.00    -0.003 A 
HETATM    3  C3  UNL     1     -33.454   6.110   2.803  1.00 20.00    -0.011 A 
HETATM    4  C4  UNL     1     -33.527   7.466   2.651  1.00 20.00    -0.006 A 
HETATM    5  C5  UNL     1     -32.336   6.229   1.121  1.00 20.00    -0.016 C 
HETATM    6  C6  UNL     1     -31.383   8.353  -0.054  1.00 20.00     0.052 C 
HETATM    7  C7  UNL     1     -32.381   5.123   2.276  1.00 20.00     0.023 C 
HETATM    8  C8  UNL     1     -32.478   9.763   2.252  1.00 20.00     0.153 C 
HETATM    9  C9  UNL     1     -32.205   8.289   2.418  1.00 20.00     0.022 C 
HETATM   10  C10 UNL     1     -31.392   7.596   1.272  1.00 20.00     0.007 C 
HETATM   11  N11 UNL     1     -32.823  10.145   0.901  1.00 20.00    -0.305 NA
ENDROOT
TORSDOF 0
ENDMDL
