MODEL 1
REMARK VINA RESULT:      -0.3      0.000      0.000
REMARK  2 active torsions:
REMARK  status: ('A' for Active; 'I' for Inactive)
REMARK    1  A    between atoms: C7_7  and  C9_9 
REMARK    2  A    between atoms: C8_8  and  C10_10 
ROOT
HETATM    1  C1  UNL     1     -31.685   6.596   1.547  1.00 20.00     0.005 C 
HETATM    2  C2  UNL     1     -33.066   6.006   1.857  1.00 20.00     0.005 C 
HETATM    3  C3  UNL     1     -31.978   8.261   3.382  1.00 20.00     0.005 C 
HETATM    4  C4  UNL     1     -33.369   7.670   3.693  1.00 20.00     0.005 C 
HETATM    5  C7  UNL     1     -31.649   8.094   1.884  1.00 20.00    -0.010 C 
HETATM    6  C8  UNL     1     -34.004   7.092   2.410  1.00 20.00    -0.010 C 
ENDROOT
BRANCH   5   7
HETATM    7  C9  UNL     1     -32.738   8.855   1.104  1.00 20.00    -0.006 A 
HETATM    8  C5  UNL     1     -32.881  10.390   1.189  1.00 20.00     0.006 A 
HETATM    9  C6  UNL     1     -32.482  10.515  -0.290  1.00 20.00     0.006 A 
HETATM   10  C10 UNL     1     -32.340   8.981  -0.386  1.00 20.00    -0.006 A 
ENDBRANCH   5   7
TORSDOF 2
ENDMDL
MODEL 2
REMARK VINA RESULT:       1.3      2.266      4.881
REMARK  2 active torsions:
REMARK  status: ('A' for Active; 'I' for Inactive)
REMARK    1  A    between atoms: C7_7  and  C9_9 
REMARK    2  A    between atoms: C8_8  and  C10_10 
ROOT
HETATM    1  C1  UNL     1     -33.180   6.460   1.844  1.00 20.00     0.005 C 
HETATM    2  C2  UNL     1     -32.493   7.543   2.685  1.00 20.00     0.005 C 
HETATM    3  C3  UNL     1     -35.215   6.632   3.279  1.00 20.00     0.005 C 
HETATM    4  C4  UNL     1     -34.522   7.720   4.127  1.00 20.00     0.005 C 
HETATM    5  C7  UNL     1     -34.168   5.656   2.703  1.00 20.00    -0.010 C 
HETATM    6  C8  UNL     1     -32.995   7.498   4.137  1.00 20.00    -0.010 C 
ENDROOT
BRANCH   5   7
HETATM    7  C9  UNL     1     -33.449   5.017   3.907  1.00 20.00    -0.006 A 
HETATM    8  C5  UNL     1     -34.189   4.104   4.909  1.00 20.00     0.006 A 
HETATM    9  C6  UNL     1     -33.346   2.905   4.446  1.00 20.00     0.006 A 
HETATM   10  C10 UNL     1     -32.599   3.811   3.444  1.00 20.00    -0.006 A 
ENDBRANCH   5   7
TORSDOF 2
ENDMDL
MODEL 3
REMARK VINA RESULT:       1.7      1.626      3.827
REMARK  2 active torsions:
REMARK  status: ('A' for Active; 'I' for Inactive)
REMARK    1  A    between atoms: C7_7  and  C9_9 
REMARK    2  A    between atoms: C8_8  and  C10_10 
ROOT
HETATM    1  C1  UNL     1     -33.162   5.576   0.738  1.00 20.00     0.005 C 
HETATM    2  C2  UNL     1     -31.688   5.377   1.115  1.00 20.00     0.005 C 
HETATM    3  C3  UNL     1     -32.941   8.026   1.155  1.00 20.00     0.005 C 
HETATM    4  C4  UNL     1     -31.459   7.826   1.536  1.00 20.00     0.005 C 
HETATM    5  C7  UNL     1     -33.759   6.765   1.505  1.00 20.00    -0.010 C 
HETATM    6  C8  UNL     1     -31.249   6.425   2.150  1.00 20.00    -0.010 C 
ENDROOT
BRANCH   5   7
HETATM    7  C9  UNL     1     -33.622   6.558   3.026  1.00 20.00    -0.006 A 
HETATM    8  C5  UNL     1     -34.425   7.402   4.040  1.00 20.00     0.006 A 
HETATM    9  C6  UNL     1     -35.203   6.150   4.475  1.00 20.00     0.006 A 
HETATM   10  C10 UNL     1     -34.403   5.297   3.466  1.00 20.00    -0.006 A 
ENDBRANCH   5   7
TORSDOF 2
ENDMDL
MODEL 4
REMARK VINA RESULT:       2.1      1.960      3.081
REMARK  2 active torsions:
REMARK  status: ('A' for Active; 'I' for Inactive)
REMARK    1  A    between atoms: C7_7  and  C9_9 
REMARK    2  A    between atoms: C8_8  and  C10_10 
ROOT
HETATM    1  C1  UNL     1     -34.295   5.103   4.082  1.00 20.00     0.005 C 
HETATM    2  C2  UNL     1     -35.620   5.842   3.858  1.00 20.00     0.005 C 
HETATM    3  C3  UNL     1     -33.169   7.269   4.598  1.00 20.00     0.005 C 
HETATM    4  C4  UNL     1     -34.501   8.013   4.370  1.00 20.00     0.005 C 
HETATM    5  C7  UNL     1     -33.105   6.004   3.717  1.00 20.00    -0.010 C 
HETATM    6  C8  UNL     1     -35.362   7.263   3.332  1.00 20.00    -0.010 C 
ENDROOT
BRANCH   5   7
HETATM    7  C9  UNL     1     -33.209   6.478   2.255  1.00 20.00    -0.006 A 
HETATM    8  C5  UNL     1     -32.213   7.494   1.653  1.00 20.00     0.006 A 
HETATM    9  C6  UNL     1     -31.671   6.410   0.707  1.00 20.00     0.006 A 
HETATM   10  C10 UNL     1     -32.665   5.389   1.300  1.00 20.00    -0.006 A 
ENDBRANCH   5   7
TORSDOF 2
ENDMDL
MODEL 5
REMARK VINA RESULT:       2.2      1.552      3.973
REMARK  2 active torsions:
REMARK  status: ('A' for Active; 'I' for Inactive)
REMARK    1  A    between atoms: C7_7  and  C9_9 
REMARK    2  A    between atoms: C8_8  and  C10_10 
ROOT
HETATM    1  C1  UNL     1     -31.995   7.979   1.945  1.00 20.00     0.005 C 
HETATM    2  C2  UNL     1     -32.621   7.942   0.546  1.00 20.00     0.005 C 
HETATM    3  C3  UNL     1     -31.899   5.485   1.972  1.00 20.00     0.005 C 
HETATM    4  C4  UNL     1     -32.531   5.448   0.565  1.00 20.00     0.005 C 
HETATM    5  C7  UNL     1     -32.387   6.728   2.746  1.00 20.00    -0.010 C 
HETATM    6  C8  UNL     1     -33.458   6.665   0.363  1.00 20.00    -0.010 C 
ENDROOT
BRANCH   5   7
HETATM    7  C9  UNL     1     -33.919   6.607   2.853  1.00 20.00    -0.006 A 
HETATM    8  C5  UNL     1     -34.597   5.408   3.551  1.00 20.00     0.006 A 
HETATM    9  C6  UNL     1     -35.125   6.341   4.653  1.00 20.00     0.006 A 
HETATM   10  C10 UNL     1     -34.454   7.546   3.960  1.00 20.00    -0.006 A 
ENDBRANCH   5   7
TORSDOF 2
ENDMDL
MODEL 6
REMARK VINA RESULT:       2.6      0.954      3.789
REMARK  2 active torsions:
REMARK  status: ('A' for Active; 'I' for Inactive)
REMARK    1  A    between atoms: C7_7  and  C9_9 
REMARK    2  A    between atoms: C8_8  and  C10_10 
ROOT
HETATM    1  C1  UNL     1     -32.313   9.906   2.179  1.00 20.00     0.005 C 
HETATM    2  C2  UNL     1     -32.761  10.146   0.732  1.00 20.00     0.005 C 
HETATM    3  C3  UNL     1     -30.850   8.033   1.420  1.00 20.00     0.005 C 
HETATM    4  C4  UNL     1     -31.303   8.272  -0.035  1.00 20.00     0.005 C 
HETATM    5  C7  UNL     1     -31.975   8.425   2.401  1.00 20.00    -0.010 C 
HETATM    6  C8  UNL     1     -32.741   8.830  -0.064  1.00 20.00    -0.010 C 
ENDROOT
BRANCH   5   7
HETATM    7  C9  UNL     1     -33.185   7.532   2.066  1.00 20.00    -0.006 A 
HETATM    8  C5  UNL     1     -33.065   5.995   1.973  1.00 20.00     0.006 A 
HETATM    9  C6  UNL     1     -33.969   5.845   3.207  1.00 20.00     0.006 A 
HETATM   10  C10 UNL     1     -34.097   7.381   3.306  1.00 20.00    -0.006 A 
ENDBRANCH   5   7
TORSDOF 2
ENDMDL
