MODEL 1
REMARK VINA RESULT:      -2.7      0.000      0.000
REMARK  4 active torsions:
REMARK  status: ('A' for Active; 'I' for Inactive)
REMARK    1  A    between atoms: C1_1  and  C6_6 
REMARK    2  A    between atoms: C2_2  and  C7_7 
REMARK    3  A    between atoms: C6_6  and  C8_8 
REMARK    4  A    between atoms: C7_7  and  C9_9 
ROOT
HETATM    1  C1  UNL     1     -32.084   7.749   1.350  1.00 20.00    -0.107 C 
HETATM    2  C2  UNL     1     -32.685   6.911   1.967  1.00 20.00    -0.106 C 
ENDROOT
BRANCH   2   3
HETATM    3  C7  UNL     1     -33.431   5.891   2.717  1.00 20.00     0.097 C 
BRANCH   3   4
HETATM    4  C9  UNL     1     -34.574   6.467   3.572  1.00 20.00    -0.012 C 
HETATM    5  C4  UNL     1     -34.116   7.643   4.438  1.00 20.00     0.010 C 
HETATM    6  C5  UNL     1     -35.253   5.399   4.431  1.00 20.00     0.010 C 
ENDBRANCH   3   4
ENDBRANCH   2   3
BRANCH   1   7
HETATM    7  C6  UNL     1     -31.364   8.776   0.587  1.00 20.00     0.093 C 
BRANCH   7   8
HETATM    8  C8  UNL     1     -32.308   9.659  -0.229  1.00 20.00     0.007 C 
HETATM    9  C3  UNL     1     -32.815  10.866   0.547  1.00 20.00     0.006 C 
ENDBRANCH   7   8
ENDBRANCH   1   7
TORSDOF 4
ENDMDL
MODEL 2
REMARK VINA RESULT:      -2.4      1.173      5.095
REMARK  4 active torsions:
REMARK  status: ('A' for Active; 'I' for Inactive)
REMARK    1  A    between atoms: C1_1  and  C6_6 
REMARK    2  A    between atoms: C2_2  and  C7_7 
REMARK    3  A    between atoms: C6_6  and  C8_8 
REMARK    4  A    between atoms: C7_7  and  C9_9 
ROOT
HETATM    1  C1  UNL     1     -34.378   6.875   3.727  1.00 20.00    -0.107 C 
HETATM    2  C2  UNL     1     -33.443   7.566   3.425  1.00 20.00    -0.106 C 
ENDROOT
BRANCH   2   3
HETATM    3  C7  UNL     1     -32.294   8.410   3.068  1.00 20.00     0.097 C 
BRANCH   3   4
HETATM    4  C9  UNL     1     -31.721   8.113   1.670  1.00 20.00    -0.012 C 
HETATM    5  C4  UNL     1     -32.195   9.121   0.622  1.00 20.00     0.010 C 
HETATM    6  C5  UNL     1     -32.014   6.683   1.213  1.00 20.00     0.010 C 
ENDBRANCH   3   4
ENDBRANCH   2   3
BRANCH   1   7
HETATM    7  C6  UNL     1     -35.512   6.024   4.109  1.00 20.00     0.093 C 
BRANCH   7   8
HETATM    8  C8  UNL     1     -35.060   4.708   4.743  1.00 20.00     0.007 C 
HETATM    9  C3  UNL     1     -33.928   4.036   3.978  1.00 20.00     0.006 C 
ENDBRANCH   7   8
ENDBRANCH   1   7
TORSDOF 4
ENDMDL
MODEL 3
REMARK VINA RESULT:      -2.4      0.931      1.484
REMARK  4 active torsions:
REMARK  status: ('A' for Active; 'I' for Inactive)
REMARK    1  A    between atoms: C1_1  and  C6_6 
REMARK    2  A    between atoms: C2_2  and  C7_7 
REMARK    3  A    between atoms: C6_6  and  C8_8 
REMARK    4  A    between atoms: C7_7  and  C9_9 
ROOT
HETATM    1  C1  UNL     1     -32.180   7.707   1.558  1.00 20.00    -0.107 C 
HETATM    2  C2  UNL     1     -32.748   6.694   1.867  1.00 20.00    -0.106 C 
ENDROOT
BRANCH   2   3
HETATM    3  C7  UNL     1     -33.452   5.462   2.251  1.00 20.00     0.097 C 
BRANCH   3   4
HETATM    4  C9  UNL     1     -33.931   5.456   3.714  1.00 20.00    -0.012 C 
HETATM    5  C4  UNL     1     -34.031   4.041   4.287  1.00 20.00     0.010 C 
HETATM    6  C5  UNL     1     -35.253   6.205   3.897  1.00 20.00     0.010 C 
ENDBRANCH   3   4
ENDBRANCH   2   3
BRANCH   1   7
HETATM    7  C6  UNL     1     -31.501   8.953   1.182  1.00 20.00     0.093 C 
BRANCH   7   8
HETATM    8  C8  UNL     1     -32.485  10.043   0.757  1.00 20.00     0.007 C 
HETATM    9  C3  UNL     1     -32.772  10.037  -0.738  1.00 20.00     0.006 C 
ENDBRANCH   7   8
ENDBRANCH   1   7
TORSDOF 4
ENDMDL
MODEL 4
REMARK VINA RESULT:      -2.4      0.396      1.228
REMARK  4 active torsions:
REMARK  status: ('A' for Active; 'I' for Inactive)
REMARK    1  A    between atoms: C1_1  and  C6_6 
REMARK    2  A    between atoms: C2_2  and  C7_7 
REMARK    3  A    between atoms: C6_6  and  C8_8 
REMARK    4  A    between atoms: C7_7  and  C9_9 
ROOT
HETATM    1  C1  UNL     1     -32.082   7.791   1.289  1.00 20.00    -0.107 C 
HETATM    2  C2  UNL     1     -32.674   6.939   1.896  1.00 20.00    -0.106 C 
ENDROOT
BRANCH   2   3
HETATM    3  C7  UNL     1     -33.401   5.893   2.628  1.00 20.00     0.097 C 
BRANCH   3   4
HETATM    4  C9  UNL     1     -34.096   6.401   3.904  1.00 20.00    -0.012 C 
HETATM    5  C4  UNL     1     -35.587   6.055   3.931  1.00 20.00     0.010 C 
HETATM    6  C5  UNL     1     -33.888   7.901   4.122  1.00 20.00     0.010 C 
ENDBRANCH   3   4
ENDBRANCH   2   3
BRANCH   1   7
HETATM    7  C6  UNL     1     -31.358   8.821   0.533  1.00 20.00     0.093 C 
BRANCH   7   8
HETATM    8  C8  UNL     1     -32.304   9.759  -0.216  1.00 20.00     0.007 C 
HETATM    9  C3  UNL     1     -32.891  10.848   0.671  1.00 20.00     0.006 C 
ENDBRANCH   7   8
ENDBRANCH   1   7
TORSDOF 4
ENDMDL
MODEL 5
REMARK VINA RESULT:      -2.2      0.837      1.172
REMARK  4 active torsions:
REMARK  status: ('A' for Active; 'I' for Inactive)
REMARK    1  A    between atoms: C1_1  and  C6_6 
REMARK    2  A    between atoms: C2_2  and  C7_7 
REMARK    3  A    between atoms: C6_6  and  C8_8 
REMARK    4  A    between atoms: C7_7  and  C9_9 
ROOT
HETATM    1  C1  UNL     1     -32.120   8.170   1.564  1.00 20.00    -0.107 C 
HETATM    2  C2  UNL     1     -32.670   7.727   2.536  1.00 20.00    -0.106 C 
ENDROOT
BRANCH   2   3
HETATM    3  C7  UNL     1     -33.353   7.193   3.724  1.00 20.00     0.097 C 
BRANCH   3   4
HETATM    4  C9  UNL     1     -34.316   6.034   3.413  1.00 20.00    -0.012 C 
HETATM    5  C4  UNL     1     -35.658   6.185   4.132  1.00 20.00     0.010 C 
HETATM    6  C5  UNL     1     -33.697   4.667   3.710  1.00 20.00     0.010 C 
ENDBRANCH   3   4
ENDBRANCH   2   3
BRANCH   1   7
HETATM    7  C6  UNL     1     -31.463   8.718   0.371  1.00 20.00     0.093 C 
BRANCH   7   8
HETATM    8  C8  UNL     1     -32.343   9.731  -0.360  1.00 20.00     0.007 C 
HETATM    9  C3  UNL     1     -32.821  10.863   0.538  1.00 20.00     0.006 C 
ENDBRANCH   7   8
ENDBRANCH   1   7
TORSDOF 4
ENDMDL
MODEL 6
REMARK VINA RESULT:      -1.9      0.876      1.450
REMARK  4 active torsions:
REMARK  status: ('A' for Active; 'I' for Inactive)
REMARK    1  A    between atoms: C1_1  and  C6_6 
REMARK    2  A    between atoms: C2_2  and  C7_7 
REMARK    3  A    between atoms: C6_6  and  C8_8 
REMARK    4  A    between atoms: C7_7  and  C9_9 
ROOT
HETATM    1  C1  UNL     1     -32.375   8.109   1.992  1.00 20.00    -0.107 C 
HETATM    2  C2  UNL     1     -33.017   7.872   2.979  1.00 20.00    -0.106 C 
ENDROOT
BRANCH   2   3
HETATM    3  C7  UNL     1     -33.808   7.596   4.187  1.00 20.00     0.097 C 
BRANCH   3   4
HETATM    4  C9  UNL     1     -34.686   6.336   4.074  1.00 20.00    -0.012 C 
HETATM    5  C4  UNL     1     -33.928   5.152   3.471  1.00 20.00     0.010 C 
HETATM    6  C5  UNL     1     -35.981   6.597   3.303  1.00 20.00     0.010 C 
ENDBRANCH   3   4
ENDBRANCH   2   3
BRANCH   1   7
HETATM    7  C6  UNL     1     -31.600   8.410   0.781  1.00 20.00     0.093 C 
BRANCH   7   8
HETATM    8  C8  UNL     1     -32.313   9.410  -0.128  1.00 20.00     0.007 C 
HETATM    9  C3  UNL     1     -32.719  10.688   0.594  1.00 20.00     0.006 C 
ENDBRANCH   7   8
ENDBRANCH   1   7
TORSDOF 4
ENDMDL
MODEL 7
REMARK VINA RESULT:      -1.9      0.968      5.198
REMARK  4 active torsions:
REMARK  status: ('A' for Active; 'I' for Inactive)
REMARK    1  A    between atoms: C1_1  and  C6_6 
REMARK    2  A    between atoms: C2_2  and  C7_7 
REMARK    3  A    between atoms: C6_6  and  C8_8 
REMARK    4  A    between atoms: C7_7  and  C9_9 
ROOT
HETATM    1  C1  UNL     1     -33.614   7.483   3.347  1.00 20.00    -0.107 C 
HETATM    2  C2  UNL     1     -32.809   7.799   2.513  1.00 20.00    -0.106 C 
ENDROOT
BRANCH   2   3
HETATM    3  C7  UNL     1     -31.824   8.197   1.497  1.00 20.00     0.097 C 
BRANCH   3   4
HETATM    4  C9  UNL     1     -32.396   9.131   0.416  1.00 20.00    -0.012 C 
HETATM    5  C4  UNL     1     -31.459   9.271  -0.786  1.00 20.00     0.010 C 
HETATM    6  C5  UNL     1     -32.767  10.507   0.973  1.00 20.00     0.010 C 
ENDBRANCH   3   4
ENDBRANCH   2   3
BRANCH   1   7
HETATM    7  C6  UNL     1     -34.594   7.111   4.376  1.00 20.00     0.093 C 
BRANCH   7   8
HETATM    8  C8  UNL     1     -35.274   5.777   4.070  1.00 20.00     0.007 C 
HETATM    9  C3  UNL     1     -34.298   4.610   4.010  1.00 20.00     0.006 C 
ENDBRANCH   7   8
ENDBRANCH   1   7
TORSDOF 4
ENDMDL
MODEL 8
REMARK VINA RESULT:      -1.8      1.144      5.079
REMARK  4 active torsions:
REMARK  status: ('A' for Active; 'I' for Inactive)
REMARK    1  A    between atoms: C1_1  and  C6_6 
REMARK    2  A    between atoms: C2_2  and  C7_7 
REMARK    3  A    between atoms: C6_6  and  C8_8 
REMARK    4  A    between atoms: C7_7  and  C9_9 
ROOT
HETATM    1  C1  UNL     1     -34.184   6.415   3.134  1.00 20.00    -0.107 C 
HETATM    2  C2  UNL     1     -33.304   6.622   2.342  1.00 20.00    -0.106 C 
ENDROOT
BRANCH   2   3
HETATM    3  C7  UNL     1     -32.221   6.867   1.379  1.00 20.00     0.097 C 
BRANCH   3   4
HETATM    4  C9  UNL     1     -31.610   8.276   1.484  1.00 20.00    -0.012 C 
HETATM    5  C4  UNL     1     -31.496   8.753   2.934  1.00 20.00     0.010 C 
HETATM    6  C5  UNL     1     -32.364   9.302   0.637  1.00 20.00     0.010 C 
ENDBRANCH   3   4
ENDBRANCH   2   3
BRANCH   1   7
HETATM    7  C6  UNL     1     -35.249   6.150   4.109  1.00 20.00     0.093 C 
BRANCH   7   8
HETATM    8  C8  UNL     1     -35.136   4.755   4.723  1.00 20.00     0.007 C 
HETATM    9  C3  UNL     1     -33.946   3.966   4.196  1.00 20.00     0.006 C 
ENDBRANCH   7   8
ENDBRANCH   1   7
TORSDOF 4
ENDMDL
MODEL 9
REMARK VINA RESULT:      -1.5      0.631      4.877
REMARK  4 active torsions:
REMARK  status: ('A' for Active; 'I' for Inactive)
REMARK    1  A    between atoms: C1_1  and  C6_6 
REMARK    2  A    between atoms: C2_2  and  C7_7 
REMARK    3  A    between atoms: C6_6  and  C8_8 
REMARK    4  A    between atoms: C7_7  and  C9_9 
ROOT
HETATM    1  C1  UNL     1     -32.897   6.636   2.192  1.00 20.00    -0.107 C 
HETATM    2  C2  UNL     1     -32.346   7.563   1.663  1.00 20.00    -0.106 C 
ENDROOT
BRANCH   2   3
HETATM    3  C7  UNL     1     -31.679   8.706   1.023  1.00 20.00     0.097 C 
BRANCH   3   4
HETATM    4  C9  UNL     1     -32.656   9.755   0.461  1.00 20.00    -0.012 C 
HETATM    5  C4  UNL     1     -32.519   9.925  -1.053  1.00 20.00     0.010 C 
HETATM    6  C5  UNL     1     -32.530  11.105   1.169  1.00 20.00     0.010 C 
ENDBRANCH   3   4
ENDBRANCH   2   3
BRANCH   1   7
HETATM    7  C6  UNL     1     -33.576   5.513   2.851  1.00 20.00     0.093 C 
BRANCH   7   8
HETATM    8  C8  UNL     1     -34.650   5.982   3.831  1.00 20.00     0.007 C 
HETATM    9  C3  UNL     1     -34.497   7.443   4.231  1.00 20.00     0.006 C 
ENDBRANCH   7   8
ENDBRANCH   1   7
TORSDOF 4
ENDMDL
