MODEL 1
REMARK VINA RESULT:       3.2      0.000      0.000
REMARK  0 active torsions:
REMARK  status: ('A' for Active; 'I' for Inactive)
ROOT
HETATM    1  C1  UNL     1     -32.695   6.175   1.454  1.00 20.00    -0.081 C 
HETATM    2  C2  UNL     1     -32.283   5.127   0.719  1.00 20.00     0.015 C 
HETATM    3  C3  UNL     1     -32.463   7.576   0.925  1.00 20.00     0.034 C 
HETATM    4  C4  UNL     1     -31.666   8.415   1.919  1.00 20.00     0.004 C 
HETATM    5  C5  UNL     1     -32.309   8.410   3.302  1.00 20.00     0.001 C 
HETATM    6  C6  UNL     1     -35.621   5.015   4.554  1.00 20.00     0.000 C 
HETATM    7  C7  UNL     1     -34.196   4.502   4.715  1.00 20.00     0.001 C 
HETATM    8  C8  UNL     1     -35.653   6.436   4.007  1.00 20.00     0.001 C 
HETATM    9  C9  UNL     1     -32.541   6.985   3.809  1.00 20.00     0.014 C 
HETATM   10  C10 UNL     1     -33.403   4.637   3.413  1.00 20.00     0.014 C 
HETATM   11  C11 UNL     1     -34.841   6.574   2.718  1.00 20.00     0.014 C 
HETATM   12  C12 UNL     1     -33.369   6.086   2.841  1.00 20.00    -0.018 C 
ENDROOT
TORSDOF 0
ENDMDL
MODEL 2
REMARK VINA RESULT:       3.8      1.286      3.490
REMARK  0 active torsions:
REMARK  status: ('A' for Active; 'I' for Inactive)
ROOT
HETATM    1  C1  UNL     1     -32.747   7.613   2.366  1.00 20.00    -0.081 C 
HETATM    2  C2  UNL     1     -31.637   8.365   2.263  1.00 20.00     0.015 C 
HETATM    3  C3  UNL     1     -33.961   8.192   3.063  1.00 20.00     0.034 C 
HETATM    4  C4  UNL     1     -34.407   7.304   4.221  1.00 20.00     0.004 C 
HETATM    5  C5  UNL     1     -34.622   5.863   3.773  1.00 20.00     0.001 C 
HETATM    6  C6  UNL     1     -32.739   4.202  -0.442  1.00 20.00     0.000 C 
HETATM    7  C7  UNL     1     -31.714   4.179   0.684  1.00 20.00     0.001 C 
HETATM    8  C8  UNL     1     -34.075   4.772   0.020  1.00 20.00     0.001 C 
HETATM    9  C9  UNL     1     -33.385   5.304   3.064  1.00 20.00     0.014 C 
HETATM   10  C10 UNL     1     -31.560   5.559   1.328  1.00 20.00     0.014 C 
HETATM   11  C11 UNL     1     -33.916   6.142   0.683  1.00 20.00     0.014 C 
HETATM   12  C12 UNL     1     -32.895   6.162   1.858  1.00 20.00    -0.018 C 
ENDROOT
TORSDOF 0
ENDMDL
MODEL 3
REMARK VINA RESULT:       4.0      1.342      4.534
REMARK  0 active torsions:
REMARK  status: ('A' for Active; 'I' for Inactive)
ROOT
HETATM    1  C1  UNL     1     -33.267   7.663   3.657  1.00 20.00    -0.081 C 
HETATM    2  C2  UNL     1     -32.853   8.264   4.787  1.00 20.00     0.015 C 
HETATM    3  C3  UNL     1     -34.457   6.728   3.719  1.00 20.00     0.034 C 
HETATM    4  C4  UNL     1     -34.097   5.344   3.190  1.00 20.00     0.004 C 
HETATM    5  C5  UNL     1     -33.482   5.416   1.797  1.00 20.00     0.001 C 
HETATM    6  C6  UNL     1     -31.684   9.623   0.028  1.00 20.00     0.000 C 
HETATM    7  C7  UNL     1     -30.682   8.914   0.929  1.00 20.00     0.001 C 
HETATM    8  C8  UNL     1     -33.002   8.865  -0.061  1.00 20.00     0.001 C 
HETATM    9  C9  UNL     1     -32.288   6.373   1.759  1.00 20.00     0.014 C 
HETATM   10  C10 UNL     1     -31.277   8.628   2.310  1.00 20.00     0.014 C 
HETATM   11  C11 UNL     1     -33.584   8.561   1.321  1.00 20.00     0.014 C 
HETATM   12  C12 UNL     1     -32.604   7.812   2.270  1.00 20.00    -0.018 C 
ENDROOT
TORSDOF 0
ENDMDL
MODEL 4
REMARK VINA RESULT:       4.3      1.232      4.111
REMARK  0 active torsions:
REMARK  status: ('A' for Active; 'I' for Inactive)
ROOT
HETATM    1  C1  UNL     1     -33.220   5.603   1.740  1.00 20.00    -0.081 C 
HETATM    2  C2  UNL     1     -33.319   4.845   0.634  1.00 20.00     0.015 C 
HETATM    3  C3  UNL     1     -33.370   4.943   3.096  1.00 20.00     0.034 C 
HETATM    4  C4  UNL     1     -34.485   5.598   3.906  1.00 20.00     0.004 C 
HETATM    5  C5  UNL     1     -34.295   7.107   4.008  1.00 20.00     0.001 C 
HETATM    6  C6  UNL     1     -31.307   9.505   0.944  1.00 20.00     0.000 C 
HETATM    7  C7  UNL     1     -32.677   9.262   0.324  1.00 20.00     0.001 C 
HETATM    8  C8  UNL     1     -31.202   8.906   2.341  1.00 20.00     0.001 C 
HETATM    9  C9  UNL     1     -34.136   7.748   2.627  1.00 20.00     0.014 C 
HETATM   10  C10 UNL     1     -33.043   7.776   0.343  1.00 20.00     0.014 C 
HETATM   11  C11 UNL     1     -31.590   7.426   2.361  1.00 20.00     0.014 C 
HETATM   12  C12 UNL     1     -32.996   7.131   1.761  1.00 20.00    -0.018 C 
ENDROOT
TORSDOF 0
ENDMDL
MODEL 5
REMARK VINA RESULT:       4.4      0.919      2.593
REMARK  0 active torsions:
REMARK  status: ('A' for Active; 'I' for Inactive)
ROOT
HETATM    1  C1  UNL     1     -32.392   7.609   2.898  1.00 20.00    -0.081 C 
HETATM    2  C2  UNL     1     -32.319   8.742   3.620  1.00 20.00     0.015 C 
HETATM    3  C3  UNL     1     -31.329   7.337   1.853  1.00 20.00     0.034 C 
HETATM    4  C4  UNL     1     -31.952   7.123   0.478  1.00 20.00     0.004 C 
HETATM    5  C5  UNL     1     -33.030   6.045   0.510  1.00 20.00     0.001 C 
HETATM    6  C6  UNL     1     -35.061   4.608   4.738  1.00 20.00     0.000 C 
HETATM    7  C7  UNL     1     -35.707   5.879   4.203  1.00 20.00     0.001 C 
HETATM    8  C8  UNL     1     -33.923   4.131   3.845  1.00 20.00     0.001 C 
HETATM    9  C9  UNL     1     -34.086   6.338   1.579  1.00 20.00     0.014 C 
HETATM   10  C10 UNL     1     -34.667   6.975   3.960  1.00 20.00     0.014 C 
HETATM   11  C11 UNL     1     -32.896   5.235   3.584  1.00 20.00     0.014 C 
HETATM   12  C12 UNL     1     -33.507   6.547   3.012  1.00 20.00    -0.018 C 
ENDROOT
TORSDOF 0
ENDMDL
MODEL 6
REMARK VINA RESULT:       4.6      1.111      4.234
REMARK  0 active torsions:
REMARK  status: ('A' for Active; 'I' for Inactive)
ROOT
HETATM    1  C1  UNL     1     -34.425   7.037   4.032  1.00 20.00    -0.081 C 
HETATM    2  C2  UNL     1     -34.448   8.152   4.783  1.00 20.00     0.015 C 
HETATM    3  C3  UNL     1     -35.481   5.975   4.266  1.00 20.00     0.034 C 
HETATM    4  C4  UNL     1     -34.843   4.626   4.583  1.00 20.00     0.004 C 
HETATM    5  C5  UNL     1     -33.830   4.219   3.519  1.00 20.00     0.001 C 
HETATM    6  C6  UNL     1     -31.969   7.506   0.389  1.00 20.00     0.000 C 
HETATM    7  C7  UNL     1     -31.241   7.523   1.727  1.00 20.00     0.001 C 
HETATM    8  C8  UNL     1     -33.114   6.502   0.380  1.00 20.00     0.001 C 
HETATM    9  C9  UNL     1     -32.781   5.311   3.296  1.00 20.00     0.014 C 
HETATM   10  C10 UNL     1     -32.212   7.744   2.889  1.00 20.00     0.014 C 
HETATM   11  C11 UNL     1     -34.072   6.711   1.556  1.00 20.00     0.014 C 
HETATM   12  C12 UNL     1     -33.375   6.709   2.948  1.00 20.00    -0.018 C 
ENDROOT
TORSDOF 0
ENDMDL
MODEL 7
REMARK VINA RESULT:       4.9      0.543      3.982
REMARK  0 active torsions:
REMARK  status: ('A' for Active; 'I' for Inactive)
ROOT
HETATM    1  C1  UNL     1     -33.647   4.768   3.773  1.00 20.00    -0.081 C 
HETATM    2  C2  UNL     1     -33.043   3.583   3.578  1.00 20.00     0.015 C 
HETATM    3  C3  UNL     1     -34.643   4.905   4.907  1.00 20.00     0.034 C 
HETATM    4  C4  UNL     1     -35.999   5.379   4.395  1.00 20.00     0.004 C 
HETATM    5  C5  UNL     1     -35.874   6.654   3.569  1.00 20.00     0.001 C 
HETATM    6  C6  UNL     1     -31.555   8.082   1.734  1.00 20.00     0.000 C 
HETATM    7  C7  UNL     1     -32.226   7.036   0.853  1.00 20.00     0.001 C 
HETATM    8  C8  UNL     1     -32.378   8.387   2.979  1.00 20.00     0.001 C 
HETATM    9  C9  UNL     1     -34.857   6.493   2.436  1.00 20.00     0.014 C 
HETATM   10  C10 UNL     1     -32.563   5.771   1.646  1.00 20.00     0.014 C 
HETATM   11  C11 UNL     1     -32.732   7.119   3.758  1.00 20.00     0.014 C 
HETATM   12  C12 UNL     1     -33.444   6.029   2.905  1.00 20.00    -0.018 C 
ENDROOT
TORSDOF 0
ENDMDL
MODEL 8
REMARK VINA RESULT:       5.0      1.260      3.525
REMARK  0 active torsions:
REMARK  status: ('A' for Active; 'I' for Inactive)
ROOT
HETATM    1  C1  UNL     1     -33.820   6.894   3.443  1.00 20.00    -0.081 C 
HETATM    2  C2  UNL     1     -35.099   6.731   3.824  1.00 20.00     0.015 C 
HETATM    3  C3  UNL     1     -32.856   7.580   4.390  1.00 20.00     0.034 C 
HETATM    4  C4  UNL     1     -32.206   8.792   3.731  1.00 20.00     0.004 C 
HETATM    5  C5  UNL     1     -31.559   8.429   2.399  1.00 20.00     0.001 C 
HETATM    6  C6  UNL     1     -32.723   4.279   0.056  1.00 20.00     0.000 C 
HETATM    7  C7  UNL     1     -33.733   5.386  -0.218  1.00 20.00     0.001 C 
HETATM    8  C8  UNL     1     -31.633   4.731   1.019  1.00 20.00     0.001 C 
HETATM    9  C9  UNL     1     -32.550   7.730   1.465  1.00 20.00     0.014 C 
HETATM   10  C10 UNL     1     -34.310   5.950   1.082  1.00 20.00     0.014 C 
HETATM   11  C11 UNL     1     -32.212   5.316   2.309  1.00 20.00     0.014 C 
HETATM   12  C12 UNL     1     -33.232   6.470   2.080  1.00 20.00    -0.018 C 
ENDROOT
TORSDOF 0
ENDMDL
MODEL 9
REMARK VINA RESULT:       6.2      1.528      2.728
REMARK  0 active torsions:
REMARK  status: ('A' for Active; 'I' for Inactive)
ROOT
HETATM    1  C1  UNL     1     -31.265   8.231   1.869  1.00 20.00    -0.081 C 
HETATM    2  C2  UNL     1     -30.130   8.150   2.586  1.00 20.00     0.015 C 
HETATM    3  C3  UNL     1     -31.173   8.512   0.383  1.00 20.00     0.034 C 
HETATM    4  C4  UNL     1     -31.975   9.753   0.007  1.00 20.00     0.004 C 
HETATM    5  C5  UNL     1     -33.416   9.662   0.497  1.00 20.00     0.001 C 
HETATM    6  C6  UNL     1     -34.720   6.458   3.975  1.00 20.00     0.000 C 
HETATM    7  C7  UNL     1     -34.118   7.725   4.569  1.00 20.00     0.001 C 
HETATM    8  C8  UNL     1     -34.726   6.494   2.452  1.00 20.00     0.001 C 
HETATM    9  C9  UNL     1     -33.481   9.370   1.998  1.00 20.00     0.014 C 
HETATM   10  C10 UNL     1     -32.728   8.006   3.994  1.00 20.00     0.014 C 
HETATM   11  C11 UNL     1     -33.340   6.797   1.879  1.00 20.00     0.014 C 
HETATM   12  C12 UNL     1     -32.694   8.098   2.439  1.00 20.00    -0.018 C 
ENDROOT
TORSDOF 0
ENDMDL
