MODEL 1
REMARK VINA RESULT:      -1.1      0.000      0.000
REMARK  2 active torsions:
REMARK  status: ('A' for Active; 'I' for Inactive)
REMARK    1  A    between atoms: C5_5  and  C6_6 
REMARK    2  A    between atoms: C5_5  and  O8_8 
ROOT
HETATM    1  C1  UNL     1     -32.262   8.536   1.411  1.00 20.00     0.228 C 
HETATM    2  N7  UNL     1     -32.192   9.298   0.538  1.00 20.00    -0.164 NA
HETATM    3  O8  UNL     1     -32.333   7.667   2.417  1.00 20.00    -0.283 OA
ENDROOT
BRANCH   3   4
HETATM    4  C5  UNL     1     -33.405   6.755   2.211  1.00 20.00     0.198 C 
BRANCH   4   5
HETATM    5  C6  UNL     1     -34.236   6.579   3.498  1.00 20.00    -0.029 C 
HETATM    6  C2  UNL     1     -33.774   7.579   4.571  1.00 20.00     0.016 C 
HETATM    7  C3  UNL     1     -34.043   5.148   4.025  1.00 20.00     0.016 C 
HETATM    8  C4  UNL     1     -35.727   6.814   3.206  1.00 20.00     0.016 C 
ENDBRANCH   4   5
ENDBRANCH   3   4
TORSDOF 2
ENDMDL
MODEL 2
REMARK VINA RESULT:      -1.1      0.028      1.533
REMARK  2 active torsions:
REMARK  status: ('A' for Active; 'I' for Inactive)
REMARK    1  A    between atoms: C5_5  and  C6_6 
REMARK    2  A    between atoms: C5_5  and  O8_8 
ROOT
HETATM    1  C1  UNL     1     -32.256   8.530   1.421  1.00 20.00     0.228 C 
HETATM    2  N7  UNL     1     -32.163   9.270   0.532  1.00 20.00    -0.164 NA
HETATM    3  O8  UNL     1     -32.353   7.686   2.447  1.00 20.00    -0.283 OA
ENDROOT
BRANCH   3   4
HETATM    4  C5  UNL     1     -33.410   6.760   2.229  1.00 20.00     0.198 C 
BRANCH   4   5
HETATM    5  C6  UNL     1     -34.247   6.566   3.510  1.00 20.00    -0.029 C 
HETATM    6  C2  UNL     1     -35.737   6.807   3.213  1.00 20.00     0.016 C 
HETATM    7  C3  UNL     1     -33.775   7.570   4.573  1.00 20.00     0.016 C 
HETATM    8  C4  UNL     1     -34.071   5.136   4.049  1.00 20.00     0.016 C 
ENDBRANCH   4   5
ENDBRANCH   3   4
TORSDOF 2
ENDMDL
MODEL 3
REMARK VINA RESULT:      -1.1      0.030      1.538
REMARK  2 active torsions:
REMARK  status: ('A' for Active; 'I' for Inactive)
REMARK    1  A    between atoms: C5_5  and  C6_6 
REMARK    2  A    between atoms: C5_5  and  O8_8 
ROOT
HETATM    1  C1  UNL     1     -32.266   8.520   1.415  1.00 20.00     0.228 C 
HETATM    2  N7  UNL     1     -32.184   9.264   0.529  1.00 20.00    -0.164 NA
HETATM    3  O8  UNL     1     -32.352   7.670   2.437  1.00 20.00    -0.283 OA
ENDROOT
BRANCH   3   4
HETATM    4  C5  UNL     1     -33.420   6.754   2.233  1.00 20.00     0.198 C 
BRANCH   4   5
HETATM    5  C6  UNL     1     -34.245   6.569   3.523  1.00 20.00    -0.029 C 
HETATM    6  C2  UNL     1     -34.077   5.138   4.061  1.00 20.00     0.016 C 
HETATM    7  C3  UNL     1     -35.728   6.820   3.208  1.00 20.00     0.016 C 
HETATM    8  C4  UNL     1     -33.781   7.565   4.599  1.00 20.00     0.016 C 
ENDBRANCH   4   5
ENDBRANCH   3   4
TORSDOF 2
ENDMDL
MODEL 4
REMARK VINA RESULT:      -1.0      3.436      4.269
REMARK  2 active torsions:
REMARK  status: ('A' for Active; 'I' for Inactive)
REMARK    1  A    between atoms: C5_5  and  C6_6 
REMARK    2  A    between atoms: C5_5  and  O8_8 
ROOT
HETATM    1  C1  UNL     1     -33.501   3.333   4.551  1.00 20.00     0.228 C 
HETATM    2  N7  UNL     1     -32.772   2.705   5.200  1.00 20.00    -0.164 NA
HETATM    3  O8  UNL     1     -34.336   4.045   3.797  1.00 20.00    -0.283 OA
ENDROOT
BRANCH   3   4
HETATM    4  C5  UNL     1     -34.777   5.200   4.499  1.00 20.00     0.198 C 
BRANCH   4   5
HETATM    5  C6  UNL     1     -34.557   6.475   3.660  1.00 20.00    -0.029 C 
HETATM    6  C2  UNL     1     -33.981   7.598   4.540  1.00 20.00     0.016 C 
HETATM    7  C3  UNL     1     -35.906   6.931   3.080  1.00 20.00     0.016 C 
HETATM    8  C4  UNL     1     -33.579   6.193   2.508  1.00 20.00     0.016 C 
ENDBRANCH   4   5
ENDBRANCH   3   4
TORSDOF 2
ENDMDL
MODEL 5
REMARK VINA RESULT:      -0.9      3.442      4.317
REMARK  2 active torsions:
REMARK  status: ('A' for Active; 'I' for Inactive)
REMARK    1  A    between atoms: C5_5  and  C6_6 
REMARK    2  A    between atoms: C5_5  and  O8_8 
ROOT
HETATM    1  C1  UNL     1     -33.494   3.326   4.551  1.00 20.00     0.228 C 
HETATM    2  N7  UNL     1     -32.775   2.694   5.206  1.00 20.00    -0.164 NA
HETATM    3  O8  UNL     1     -34.318   4.045   3.790  1.00 20.00    -0.283 OA
ENDROOT
BRANCH   3   4
HETATM    4  C5  UNL     1     -34.775   5.190   4.498  1.00 20.00     0.198 C 
BRANCH   4   5
HETATM    5  C6  UNL     1     -34.572   6.473   3.666  1.00 20.00    -0.029 C 
HETATM    6  C2  UNL     1     -35.912   6.942   3.075  1.00 20.00     0.016 C 
HETATM    7  C3  UNL     1     -33.591   6.175   2.520  1.00 20.00     0.016 C 
HETATM    8  C4  UNL     1     -33.996   7.594   4.546  1.00 20.00     0.016 C 
ENDBRANCH   4   5
ENDBRANCH   3   4
TORSDOF 2
ENDMDL
MODEL 6
REMARK VINA RESULT:      -0.9      3.434      4.261
REMARK  2 active torsions:
REMARK  status: ('A' for Active; 'I' for Inactive)
REMARK    1  A    between atoms: C5_5  and  C6_6 
REMARK    2  A    between atoms: C5_5  and  O8_8 
ROOT
HETATM    1  C1  UNL     1     -33.488   3.327   4.549  1.00 20.00     0.228 C 
HETATM    2  N7  UNL     1     -32.774   2.689   5.204  1.00 20.00    -0.164 NA
HETATM    3  O8  UNL     1     -34.306   4.052   3.788  1.00 20.00    -0.283 OA
ENDROOT
BRANCH   3   4
HETATM    4  C5  UNL     1     -34.752   5.202   4.494  1.00 20.00     0.198 C 
BRANCH   4   5
HETATM    5  C6  UNL     1     -34.561   6.478   3.649  1.00 20.00    -0.029 C 
HETATM    6  C2  UNL     1     -33.583   6.210   2.493  1.00 20.00     0.016 C 
HETATM    7  C3  UNL     1     -33.990   7.590   4.545  1.00 20.00     0.016 C 
HETATM    8  C4  UNL     1     -35.907   6.939   3.067  1.00 20.00     0.016 C 
ENDBRANCH   4   5
ENDBRANCH   3   4
TORSDOF 2
ENDMDL
MODEL 7
REMARK VINA RESULT:      -0.7      2.468      3.909
REMARK  2 active torsions:
REMARK  status: ('A' for Active; 'I' for Inactive)
REMARK    1  A    between atoms: C5_5  and  C6_6 
REMARK    2  A    between atoms: C5_5  and  O8_8 
ROOT
HETATM    1  C1  UNL     1     -34.611   6.648   4.005  1.00 20.00     0.228 C 
HETATM    2  N7  UNL     1     -35.506   5.926   4.160  1.00 20.00    -0.164 NA
HETATM    3  O8  UNL     1     -33.580   7.474   3.837  1.00 20.00    -0.283 OA
ENDROOT
BRANCH   3   4
HETATM    4  C5  UNL     1     -33.625   8.069   2.546  1.00 20.00     0.198 C 
BRANCH   4   5
HETATM    5  C6  UNL     1     -32.243   8.016   1.864  1.00 20.00    -0.029 C 
HETATM    6  C2  UNL     1     -32.203   8.981   0.667  1.00 20.00     0.016 C 
HETATM    7  C3  UNL     1     -31.986   6.584   1.366  1.00 20.00     0.016 C 
HETATM    8  C4  UNL     1     -31.141   8.411   2.861  1.00 20.00     0.016 C 
ENDBRANCH   4   5
ENDBRANCH   3   4
TORSDOF 2
ENDMDL
MODEL 8
REMARK VINA RESULT:      -0.7      2.476      3.932
REMARK  2 active torsions:
REMARK  status: ('A' for Active; 'I' for Inactive)
REMARK    1  A    between atoms: C5_5  and  C6_6 
REMARK    2  A    between atoms: C5_5  and  O8_8 
ROOT
HETATM    1  C1  UNL     1     -34.615   6.655   4.023  1.00 20.00     0.228 C 
HETATM    2  N7  UNL     1     -35.497   5.918   4.184  1.00 20.00    -0.164 NA
HETATM    3  O8  UNL     1     -33.600   7.499   3.848  1.00 20.00    -0.283 OA
ENDROOT
BRANCH   3   4
HETATM    4  C5  UNL     1     -33.638   8.058   2.542  1.00 20.00     0.198 C 
BRANCH   4   5
HETATM    5  C6  UNL     1     -32.251   7.992   1.871  1.00 20.00    -0.029 C 
HETATM    6  C2  UNL     1     -31.966   6.564   1.377  1.00 20.00     0.016 C 
HETATM    7  C3  UNL     1     -31.180   8.395   2.897  1.00 20.00     0.016 C 
HETATM    8  C4  UNL     1     -32.192   8.955   0.673  1.00 20.00     0.016 C 
ENDBRANCH   4   5
ENDBRANCH   3   4
TORSDOF 2
ENDMDL
MODEL 9
REMARK VINA RESULT:      -0.7      2.477      3.915
REMARK  2 active torsions:
REMARK  status: ('A' for Active; 'I' for Inactive)
REMARK    1  A    between atoms: C5_5  and  C6_6 
REMARK    2  A    between atoms: C5_5  and  O8_8 
ROOT
HETATM    1  C1  UNL     1     -34.624   6.660   4.018  1.00 20.00     0.228 C 
HETATM    2  N7  UNL     1     -35.500   5.917   4.179  1.00 20.00    -0.164 NA
HETATM    3  O8  UNL     1     -33.616   7.513   3.843  1.00 20.00    -0.283 OA
ENDROOT
BRANCH   3   4
HETATM    4  C5  UNL     1     -33.639   8.046   2.526  1.00 20.00     0.198 C 
BRANCH   4   5
HETATM    5  C6  UNL     1     -32.241   7.985   1.879  1.00 20.00    -0.029 C 
HETATM    6  C2  UNL     1     -31.165   8.401   2.896  1.00 20.00     0.016 C 
HETATM    7  C3  UNL     1     -32.201   8.946   0.680  1.00 20.00     0.016 C 
HETATM    8  C4  UNL     1     -31.941   6.557   1.392  1.00 20.00     0.016 C 
ENDBRANCH   4   5
ENDBRANCH   3   4
TORSDOF 2
ENDMDL
