MODEL 1
REMARK VINA RESULT:       0.6      0.000      0.000
REMARK  1 active torsions:
REMARK  status: ('A' for Active; 'I' for Inactive)
REMARK    1  A    between atoms: C4_4  and  O11_11 
ROOT
HETATM    1  C1  UNL     1     -33.043   9.050   1.428  1.00 20.00    -0.021 C 
HETATM    2  C2  UNL     1     -32.111   8.629   0.557  1.00 20.00    -0.025 C 
HETATM    3  C3  UNL     1     -33.000   6.891   2.589  1.00 20.00    -0.043 C 
HETATM    4  C4  UNL     1     -33.933   6.164   3.209  1.00 20.00     0.045 C 
HETATM    5  C5  UNL     1     -31.949   6.374   1.613  1.00 20.00     0.046 C 
HETATM    6  C6  UNL     1     -31.220   8.376   2.677  1.00 20.00     0.022 C 
HETATM    7  C7  UNL     1     -32.750   8.381   2.752  1.00 20.00     0.040 C 
HETATM    8  C8  UNL     1     -31.189   7.688   1.305  1.00 20.00     0.013 C 
HETATM    9  C9  UNL     1     -34.937   6.736   4.158  1.00 20.00     0.076 C 
ENDROOT
BRANCH   4  10
HETATM   10  O11 UNL     1     -34.010   4.802   2.991  1.00 20.00    -0.360 OA
HETATM   11  C10 UNL     1     -33.956   4.062   4.186  1.00 20.00     0.209 C 
ENDBRANCH   4  10
TORSDOF 1
ENDMDL
MODEL 2
REMARK VINA RESULT:       0.8      1.146      1.212
REMARK  1 active torsions:
REMARK  status: ('A' for Active; 'I' for Inactive)
REMARK    1  A    between atoms: C4_4  and  O11_11 
ROOT
HETATM    1  C1  UNL     1     -32.375   9.280   1.472  1.00 20.00    -0.021 C 
HETATM    2  C2  UNL     1     -32.363   8.558   0.339  1.00 20.00    -0.025 C 
HETATM    3  C3  UNL     1     -33.219   7.361   2.743  1.00 20.00    -0.043 C 
HETATM    4  C4  UNL     1     -34.046   7.241   3.784  1.00 20.00     0.045 C 
HETATM    5  C5  UNL     1     -33.229   6.512   1.476  1.00 20.00     0.046 C 
HETATM    6  C6  UNL     1     -31.066   7.422   1.881  1.00 20.00     0.022 C 
HETATM    7  C7  UNL     1     -32.060   8.333   2.607  1.00 20.00     0.040 C 
HETATM    8  C8  UNL     1     -32.027   7.130   0.720  1.00 20.00     0.013 C 
HETATM    9  C9  UNL     1     -33.981   8.109   4.999  1.00 20.00     0.076 C 
ENDROOT
BRANCH   4  10
HETATM   10  O11 UNL     1     -35.032   6.273   3.780  1.00 20.00    -0.360 OA
HETATM   11  C10 UNL     1     -34.565   5.027   4.236  1.00 20.00     0.209 C 
ENDBRANCH   4  10
TORSDOF 1
ENDMDL
MODEL 3
REMARK VINA RESULT:       1.7      1.440      3.710
REMARK  1 active torsions:
REMARK  status: ('A' for Active; 'I' for Inactive)
REMARK    1  A    between atoms: C4_4  and  O11_11 
ROOT
HETATM    1  C1  UNL     1     -34.012   7.913   4.560  1.00 20.00    -0.021 C 
HETATM    2  C2  UNL     1     -34.512   6.844   5.200  1.00 20.00    -0.025 C 
HETATM    3  C3  UNL     1     -33.359   6.523   2.649  1.00 20.00    -0.043 C 
HETATM    4  C4  UNL     1     -32.336   6.562   1.792  1.00 20.00     0.045 C 
HETATM    5  C5  UNL     1     -33.906   5.284   3.350  1.00 20.00     0.046 C 
HETATM    6  C6  UNL     1     -35.580   6.966   3.152  1.00 20.00     0.022 C 
HETATM    7  C7  UNL     1     -34.231   7.689   3.081  1.00 20.00     0.040 C 
HETATM    8  C8  UNL     1     -35.076   5.912   4.147  1.00 20.00     0.013 C 
HETATM    9  C9  UNL     1     -31.848   7.816   1.139  1.00 20.00     0.076 C 
ENDROOT
BRANCH   4  10
HETATM   10  O11 UNL     1     -31.661   5.402   1.462  1.00 20.00    -0.360 OA
HETATM   11  C10 UNL     1     -32.280   4.700   0.412  1.00 20.00     0.209 C 
ENDBRANCH   4  10
TORSDOF 1
ENDMDL
MODEL 4
REMARK VINA RESULT:       1.8      1.711      2.831
REMARK  1 active torsions:
REMARK  status: ('A' for Active; 'I' for Inactive)
REMARK    1  A    between atoms: C4_4  and  O11_11 
ROOT
HETATM    1  C1  UNL     1     -32.234   4.907   1.890  1.00 20.00    -0.021 C 
HETATM    2  C2  UNL     1     -31.280   5.737   1.440  1.00 20.00    -0.025 C 
HETATM    3  C3  UNL     1     -33.544   6.797   2.741  1.00 20.00    -0.043 C 
HETATM    4  C4  UNL     1     -34.340   6.960   3.800  1.00 20.00     0.045 C 
HETATM    5  C5  UNL     1     -32.477   7.770   2.253  1.00 20.00     0.046 C 
HETATM    6  C6  UNL     1     -33.271   6.405   0.470  1.00 20.00     0.022 C 
HETATM    7  C7  UNL     1     -33.554   5.634   1.763  1.00 20.00     0.040 C 
HETATM    8  C8  UNL     1     -31.966   7.015   1.000  1.00 20.00     0.013 C 
HETATM    9  C9  UNL     1     -35.370   5.962   4.225  1.00 20.00     0.076 C 
ENDROOT
BRANCH   4  10
HETATM   10  O11 UNL     1     -34.242   8.099   4.575  1.00 20.00    -0.360 OA
HETATM   11  C10 UNL     1     -33.064   8.129   5.341  1.00 20.00     0.209 C 
ENDBRANCH   4  10
TORSDOF 1
ENDMDL
MODEL 5
REMARK VINA RESULT:       2.0      2.006      4.363
REMARK  1 active torsions:
REMARK  status: ('A' for Active; 'I' for Inactive)
REMARK    1  A    between atoms: C4_4  and  O11_11 
ROOT
HETATM    1  C1  UNL     1     -34.021   5.884   3.094  1.00 20.00    -0.021 C 
HETATM    2  C2  UNL     1     -35.078   6.441   3.708  1.00 20.00    -0.025 C 
HETATM    3  C3  UNL     1     -33.122   8.096   2.535  1.00 20.00    -0.043 C 
HETATM    4  C4  UNL     1     -32.434   8.571   1.495  1.00 20.00     0.045 C 
HETATM    5  C5  UNL     1     -34.313   8.764   3.214  1.00 20.00     0.046 C 
HETATM    6  C6  UNL     1     -33.181   7.301   4.714  1.00 20.00     0.022 C 
HETATM    7  C7  UNL     1     -32.846   6.813   3.301  1.00 20.00     0.040 C 
HETATM    8  C8  UNL     1     -34.604   7.736   4.335  1.00 20.00     0.013 C 
HETATM    9  C9  UNL     1     -31.272   7.862   0.875  1.00 20.00     0.076 C 
ENDROOT
BRANCH   4  10
HETATM   10  O11 UNL     1     -32.780   9.782   0.927  1.00 20.00    -0.360 OA
HETATM   11  C10 UNL     1     -32.477   9.840  -0.445  1.00 20.00     0.209 C 
ENDBRANCH   4  10
TORSDOF 1
ENDMDL
MODEL 6
REMARK VINA RESULT:       3.2      1.615      2.046
REMARK  1 active torsions:
REMARK  status: ('A' for Active; 'I' for Inactive)
REMARK    1  A    between atoms: C4_4  and  O11_11 
ROOT
HETATM    1  C1  UNL     1     -34.073   6.567   1.062  1.00 20.00    -0.021 C 
HETATM    2  C2  UNL     1     -33.031   6.100   0.355  1.00 20.00    -0.025 C 
HETATM    3  C3  UNL     1     -33.463   5.162   2.977  1.00 20.00    -0.043 C 
HETATM    4  C4  UNL     1     -34.172   4.525   3.911  1.00 20.00     0.045 C 
HETATM    5  C5  UNL     1     -32.277   4.601   2.201  1.00 20.00     0.046 C 
HETATM    6  C6  UNL     1     -32.177   6.977   2.317  1.00 20.00     0.022 C 
HETATM    7  C7  UNL     1     -33.648   6.597   2.513  1.00 20.00     0.040 C 
HETATM    8  C8  UNL     1     -31.907   5.830   1.334  1.00 20.00     0.013 C 
HETATM    9  C9  UNL     1     -35.329   5.137   4.636  1.00 20.00     0.076 C 
ENDROOT
BRANCH   4  10
HETATM   10  O11 UNL     1     -33.855   3.226   4.259  1.00 20.00    -0.360 OA
HETATM   11  C10 UNL     1     -32.889   3.163   5.279  1.00 20.00     0.209 C 
ENDBRANCH   4  10
TORSDOF 1
ENDMDL
MODEL 7
REMARK VINA RESULT:       3.2      1.503      2.956
REMARK  1 active torsions:
REMARK  status: ('A' for Active; 'I' for Inactive)
REMARK    1  A    between atoms: C4_4  and  O11_11 
ROOT
HETATM    1  C1  UNL     1     -32.282   8.114   3.956  1.00 20.00    -0.021 C 
HETATM    2  C2  UNL     1     -33.172   8.349   4.934  1.00 20.00    -0.025 C 
HETATM    3  C3  UNL     1     -33.604   6.216   3.143  1.00 20.00    -0.043 C 
HETATM    4  C4  UNL     1     -33.284   5.045   2.588  1.00 20.00     0.045 C 
HETATM    5  C5  UNL     1     -34.631   6.445   4.247  1.00 20.00     0.046 C 
HETATM    6  C6  UNL     1     -34.332   8.409   2.934  1.00 20.00     0.022 C 
HETATM    7  C7  UNL     1     -33.053   7.582   2.770  1.00 20.00     0.040 C 
HETATM    8  C8  UNL     1     -34.540   7.984   4.395  1.00 20.00     0.013 C 
HETATM    9  C9  UNL     1     -32.264   4.891   1.506  1.00 20.00     0.076 C 
ENDROOT
BRANCH   4  10
HETATM   10  O11 UNL     1     -33.906   3.885   3.007  1.00 20.00    -0.360 OA
HETATM   11  C10 UNL     1     -33.356   3.378   4.197  1.00 20.00     0.209 C 
ENDBRANCH   4  10
TORSDOF 1
ENDMDL
MODEL 8
REMARK VINA RESULT:       3.3      1.629      3.043
REMARK  1 active torsions:
REMARK  status: ('A' for Active; 'I' for Inactive)
REMARK    1  A    between atoms: C4_4  and  O11_11 
ROOT
HETATM    1  C1  UNL     1     -30.961   9.180  -0.342  1.00 20.00    -0.021 C 
HETATM    2  C2  UNL     1     -31.124  10.478  -0.036  1.00 20.00    -0.025 C 
HETATM    3  C3  UNL     1     -32.655   8.530   1.307  1.00 20.00    -0.043 C 
HETATM    4  C4  UNL     1     -32.796   7.474   2.110  1.00 20.00     0.045 C 
HETATM    5  C5  UNL     1     -32.860   9.992   1.689  1.00 20.00     0.046 C 
HETATM    6  C6  UNL     1     -33.201   9.661  -0.644  1.00 20.00     0.022 C 
HETATM    7  C7  UNL     1     -32.306   8.511  -0.172  1.00 20.00     0.040 C 
HETATM    8  C8  UNL     1     -32.581  10.675   0.327  1.00 20.00     0.013 C 
HETATM    9  C9  UNL     1     -32.579   6.061   1.669  1.00 20.00     0.076 C 
ENDROOT
BRANCH   4  10
HETATM   10  O11 UNL     1     -33.163   7.649   3.431  1.00 20.00    -0.360 OA
HETATM   11  C10 UNL     1     -34.338   6.950   3.761  1.00 20.00     0.209 C 
ENDBRANCH   4  10
TORSDOF 1
ENDMDL
MODEL 9
REMARK VINA RESULT:       3.4      1.301      2.671
REMARK  1 active torsions:
REMARK  status: ('A' for Active; 'I' for Inactive)
REMARK    1  A    between atoms: C4_4  and  O11_11 
ROOT
HETATM    1  C1  UNL     1     -31.311   6.037   1.777  1.00 20.00    -0.021 C 
HETATM    2  C2  UNL     1     -31.613   7.342   1.678  1.00 20.00    -0.025 C 
HETATM    3  C3  UNL     1     -33.484   5.564   2.810  1.00 20.00    -0.043 C 
HETATM    4  C4  UNL     1     -33.889   4.697   3.740  1.00 20.00     0.045 C 
HETATM    5  C5  UNL     1     -33.858   7.040   2.724  1.00 20.00     0.046 C 
HETATM    6  C6  UNL     1     -33.282   6.176   0.581  1.00 20.00     0.022 C 
HETATM    7  C7  UNL     1     -32.601   5.267   1.610  1.00 20.00     0.040 C 
HETATM    8  C8  UNL     1     -33.104   7.441   1.432  1.00 20.00     0.013 C 
HETATM    9  C9  UNL     1     -33.483   3.258   3.766  1.00 20.00     0.076 C 
ENDROOT
BRANCH   4  10
HETATM   10  O11 UNL     1     -34.732   5.108   4.754  1.00 20.00    -0.360 OA
HETATM   11  C10 UNL     1     -35.685   6.045   4.316  1.00 20.00     0.209 C 
ENDBRANCH   4  10
TORSDOF 1
ENDMDL
