MODEL 1
REMARK VINA RESULT:      -0.4      0.000      0.000
REMARK  0 active torsions:
REMARK  status: ('A' for Active; 'I' for Inactive)
ROOT
HETATM    1  C1  UNL     1     -32.422   9.537  -0.051  1.00 20.00     0.012 C 
HETATM    2  C2  UNL     1     -32.172   8.850   0.901  1.00 20.00    -0.113 C 
HETATM    3  C3  UNL     1     -32.574   8.565   3.324  1.00 20.00     0.020 C 
HETATM    4  C4  UNL     1     -33.224   7.505   4.217  1.00 20.00     0.041 C 
HETATM    5  C5  UNL     1     -32.161   6.527   1.753  1.00 20.00     0.052 C 
HETATM    6  C6  UNL     1     -31.862   8.003   2.073  1.00 20.00     0.067 C 
HETATM    7  C7  UNL     1     -33.527   6.058   2.140  1.00 20.00     0.158 A 
HETATM    8  C8  UNL     1     -34.085   6.551   3.443  1.00 20.00     0.084 A 
HETATM    9  C9  UNL     1     -35.058   5.712   4.198  1.00 20.00     0.049 C 
HETATM   10  O10 UNL     1     -34.574   7.035   2.180  1.00 20.00    -0.370 OA
ENDROOT
TORSDOF 0
ENDMDL
MODEL 2
REMARK VINA RESULT:       0.4      1.553      3.978
REMARK  0 active torsions:
REMARK  status: ('A' for Active; 'I' for Inactive)
ROOT
HETATM    1  C1  UNL     1     -33.464   3.482   4.464  1.00 20.00     0.012 C 
HETATM    2  C2  UNL     1     -33.868   4.464   3.905  1.00 20.00    -0.113 C 
HETATM    3  C3  UNL     1     -33.835   6.937   3.930  1.00 20.00     0.020 C 
HETATM    4  C4  UNL     1     -33.348   8.043   2.992  1.00 20.00     0.041 C 
HETATM    5  C5  UNL     1     -34.055   5.590   1.710  1.00 20.00     0.052 C 
HETATM    6  C6  UNL     1     -34.366   5.674   3.216  1.00 20.00     0.067 C 
HETATM    7  C7  UNL     1     -32.771   6.233   1.291  1.00 20.00     0.158 A 
HETATM    8  C8  UNL     1     -32.402   7.532   1.944  1.00 20.00     0.084 A 
HETATM    9  C9  UNL     1     -31.570   8.524   1.206  1.00 20.00     0.049 C 
HETATM   10  O10 UNL     1     -31.721   6.306   2.262  1.00 20.00    -0.370 OA
ENDROOT
TORSDOF 0
ENDMDL
MODEL 3
REMARK VINA RESULT:       0.5      0.929      1.047
REMARK  0 active torsions:
REMARK  status: ('A' for Active; 'I' for Inactive)
ROOT
HETATM    1  C1  UNL     1     -32.772  10.116  -0.089  1.00 20.00     0.012 C 
HETATM    2  C2  UNL     1     -32.374   9.433   0.815  1.00 20.00    -0.113 C 
HETATM    3  C3  UNL     1     -32.945   8.540   3.049  1.00 20.00     0.020 C 
HETATM    4  C4  UNL     1     -33.159   7.154   3.662  1.00 20.00     0.041 C 
HETATM    5  C5  UNL     1     -31.423   7.223   1.394  1.00 20.00     0.052 C 
HETATM    6  C6  UNL     1     -31.883   8.592   1.928  1.00 20.00     0.067 C 
HETATM    7  C7  UNL     1     -32.463   6.149   1.423  1.00 20.00     0.158 A 
HETATM    8  C8  UNL     1     -33.365   6.092   2.621  1.00 20.00     0.084 A 
HETATM    9  C9  UNL     1     -33.943   4.788   3.054  1.00 20.00     0.049 C 
HETATM   10  O10 UNL     1     -33.834   6.553   1.342  1.00 20.00    -0.370 OA
ENDROOT
TORSDOF 0
ENDMDL
MODEL 4
REMARK VINA RESULT:       1.4      2.209      4.315
REMARK  0 active torsions:
REMARK  status: ('A' for Active; 'I' for Inactive)
ROOT
HETATM    1  C1  UNL     1     -32.660   2.919   5.203  1.00 20.00     0.012 C 
HETATM    2  C2  UNL     1     -33.393   3.541   4.485  1.00 20.00    -0.113 C 
HETATM    3  C3  UNL     1     -35.286   5.132   4.451  1.00 20.00     0.020 C 
HETATM    4  C4  UNL     1     -35.518   6.561   3.954  1.00 20.00     0.041 C 
HETATM    5  C5  UNL     1     -33.476   5.114   2.577  1.00 20.00     0.052 C 
HETATM    6  C6  UNL     1     -34.297   4.306   3.599  1.00 20.00     0.067 C 
HETATM    7  C7  UNL     1     -33.159   6.517   2.984  1.00 20.00     0.158 A 
HETATM    8  C8  UNL     1     -34.234   7.291   3.690  1.00 20.00     0.084 A 
HETATM    9  C9  UNL     1     -34.284   8.776   3.563  1.00 20.00     0.049 C 
HETATM   10  O10 UNL     1     -33.077   6.795   4.387  1.00 20.00    -0.370 OA
ENDROOT
TORSDOF 0
ENDMDL
MODEL 5
REMARK VINA RESULT:       1.4      1.393      2.638
REMARK  0 active torsions:
REMARK  status: ('A' for Active; 'I' for Inactive)
ROOT
HETATM    1  C1  UNL     1     -34.355   5.013  -0.488  1.00 20.00     0.012 C 
HETATM    2  C2  UNL     1     -33.593   5.307   0.391  1.00 20.00    -0.113 C 
HETATM    3  C3  UNL     1     -32.448   7.201   1.495  1.00 20.00     0.020 C 
HETATM    4  C4  UNL     1     -32.445   7.825   2.893  1.00 20.00     0.041 C 
HETATM    5  C5  UNL     1     -33.117   5.050   2.805  1.00 20.00     0.052 C 
HETATM    6  C6  UNL     1     -32.653   5.670   1.474  1.00 20.00     0.067 C 
HETATM    7  C7  UNL     1     -33.978   5.933   3.651  1.00 20.00     0.158 A 
HETATM    8  C8  UNL     1     -33.620   7.389   3.718  1.00 20.00     0.084 A 
HETATM    9  C9  UNL     1     -33.953   8.179   4.938  1.00 20.00     0.049 C 
HETATM   10  O10 UNL     1     -34.765   6.926   2.981  1.00 20.00    -0.370 OA
ENDROOT
TORSDOF 0
ENDMDL
MODEL 6
REMARK VINA RESULT:       1.5      1.044      3.910
REMARK  0 active torsions:
REMARK  status: ('A' for Active; 'I' for Inactive)
ROOT
HETATM    1  C1  UNL     1     -35.841   6.458   3.856  1.00 20.00     0.012 C 
HETATM    2  C2  UNL     1     -34.663   6.389   3.635  1.00 20.00    -0.113 C 
HETATM    3  C3  UNL     1     -32.979   5.837   1.910  1.00 20.00     0.020 C 
HETATM    4  C4  UNL     1     -31.873   6.589   1.168  1.00 20.00     0.041 C 
HETATM    5  C5  UNL     1     -32.524   7.626   3.748  1.00 20.00     0.052 C 
HETATM    6  C6  UNL     1     -33.212   6.304   3.364  1.00 20.00     0.067 C 
HETATM    7  C7  UNL     1     -32.379   8.613   2.634  1.00 20.00     0.158 A 
HETATM    8  C8  UNL     1     -32.017   8.078   1.279  1.00 20.00     0.084 A 
HETATM    9  C9  UNL     1     -31.253   8.932   0.325  1.00 20.00     0.049 C 
HETATM   10  O10 UNL     1     -33.341   8.558   1.574  1.00 20.00    -0.370 OA
ENDROOT
TORSDOF 0
ENDMDL
MODEL 7
REMARK VINA RESULT:       2.4      2.570      3.759
REMARK  0 active torsions:
REMARK  status: ('A' for Active; 'I' for Inactive)
ROOT
HETATM    1  C1  UNL     1     -33.501   8.517   4.844  1.00 20.00     0.012 C 
HETATM    2  C2  UNL     1     -33.910   7.614   4.168  1.00 20.00    -0.113 C 
HETATM    3  C3  UNL     1     -33.230   5.784   2.649  1.00 20.00     0.020 C 
HETATM    4  C4  UNL     1     -33.321   4.256   2.653  1.00 20.00     0.041 C 
HETATM    5  C5  UNL     1     -35.340   5.594   4.167  1.00 20.00     0.052 C 
HETATM    6  C6  UNL     1     -34.415   6.501   3.335  1.00 20.00     0.067 C 
HETATM    7  C7  UNL     1     -34.668   4.423   4.812  1.00 20.00     0.158 A 
HETATM    8  C8  UNL     1     -33.621   3.702   4.015  1.00 20.00     0.084 A 
HETATM    9  C9  UNL     1     -33.378   2.251   4.252  1.00 20.00     0.049 C 
HETATM   10  O10 UNL     1     -33.276   4.550   5.125  1.00 20.00    -0.370 OA
ENDROOT
TORSDOF 0
ENDMDL
