MODEL 1
REMARK VINA RESULT:       0.3      0.000      0.000
REMARK  0 active torsions:
REMARK  status: ('A' for Active; 'I' for Inactive)
ROOT
HETATM    1  C1  UNL     1     -34.896   5.364   4.164  1.00 20.00     0.128 A 
HETATM    2  C2  UNL     1     -33.441   5.325   3.642  1.00 20.00     0.089 A 
HETATM    3  C3  UNL     1     -35.141   6.769   3.567  1.00 20.00     0.089 A 
HETATM    4  C4  UNL     1     -32.773   7.833   3.443  1.00 20.00     0.085 C 
HETATM    5  C5  UNL     1     -33.521   6.853   1.537  1.00 20.00     0.085 C 
HETATM    6  C6  UNL     1     -33.714   6.705   3.041  1.00 20.00    -0.011 A 
HETATM    7  O7  UNL     1     -35.581   4.590   4.797  1.00 20.00    -0.298 OA
HETATM    8  S8  UNL     1     -31.888   7.624   1.853  1.00 20.00    -0.167 SA
ENDROOT
TORSDOF 0
ENDMDL
MODEL 2
REMARK VINA RESULT:       0.6      0.438      1.639
REMARK  0 active torsions:
REMARK  status: ('A' for Active; 'I' for Inactive)
ROOT
HETATM    1  C1  UNL     1     -34.952   5.463   4.116  1.00 20.00     0.128 A 
HETATM    2  C2  UNL     1     -34.958   6.767   3.285  1.00 20.00     0.089 A 
HETATM    3  C3  UNL     1     -33.461   5.195   3.806  1.00 20.00     0.089 A 
HETATM    4  C4  UNL     1     -33.048   6.420   1.551  1.00 20.00     0.085 C 
HETATM    5  C5  UNL     1     -32.488   7.574   3.423  1.00 20.00     0.085 C 
HETATM    6  C6  UNL     1     -33.479   6.493   3.010  1.00 20.00    -0.011 A 
HETATM    7  O7  UNL     1     -35.793   4.876   4.763  1.00 20.00    -0.298 OA
HETATM    8  S8  UNL     1     -32.420   8.136   1.680  1.00 20.00    -0.167 SA
ENDROOT
TORSDOF 0
ENDMDL
MODEL 3
REMARK VINA RESULT:       0.7      2.895      3.654
REMARK  0 active torsions:
REMARK  status: ('A' for Active; 'I' for Inactive)
ROOT
HETATM    1  C1  UNL     1     -32.463   7.611   2.212  1.00 20.00     0.128 A 
HETATM    2  C2  UNL     1     -33.014   7.445   3.647  1.00 20.00     0.089 A 
HETATM    3  C3  UNL     1     -33.336   6.454   1.674  1.00 20.00     0.089 A 
HETATM    4  C4  UNL     1     -33.765   4.955   3.754  1.00 20.00     0.085 C 
HETATM    5  C5  UNL     1     -35.392   6.460   3.263  1.00 20.00     0.085 C 
HETATM    6  C6  UNL     1     -33.885   6.319   3.087  1.00 20.00    -0.011 A 
HETATM    7  O7  UNL     1     -31.656   8.359   1.704  1.00 20.00    -0.298 OA
HETATM    8  S8  UNL     1     -35.304   5.305   4.684  1.00 20.00    -0.167 SA
ENDROOT
TORSDOF 0
ENDMDL
MODEL 4
REMARK VINA RESULT:       1.0      1.464      1.867
REMARK  0 active torsions:
REMARK  status: ('A' for Active; 'I' for Inactive)
ROOT
HETATM    1  C1  UNL     1     -33.811   6.266   3.232  1.00 20.00     0.128 A 
HETATM    2  C2  UNL     1     -33.039   6.282   1.892  1.00 20.00     0.089 A 
HETATM    3  C3  UNL     1     -33.433   7.732   3.542  1.00 20.00     0.089 A 
HETATM    4  C4  UNL     1     -31.220   8.112   2.233  1.00 20.00     0.085 C 
HETATM    5  C5  UNL     1     -33.119   8.786   1.188  1.00 20.00     0.085 C 
HETATM    6  C6  UNL     1     -32.696   7.738   2.210  1.00 20.00    -0.011 A 
HETATM    7  O7  UNL     1     -34.463   5.426   3.815  1.00 20.00    -0.298 OA
HETATM    8  S8  UNL     1     -31.400   8.814   0.551  1.00 20.00    -0.167 SA
ENDROOT
TORSDOF 0
ENDMDL
MODEL 5
REMARK VINA RESULT:       1.1      1.482      2.288
REMARK  0 active torsions:
REMARK  status: ('A' for Active; 'I' for Inactive)
ROOT
HETATM    1  C1  UNL     1     -33.679   5.893   3.098  1.00 20.00     0.128 A 
HETATM    2  C2  UNL     1     -33.666   7.437   3.016  1.00 20.00     0.089 A 
HETATM    3  C3  UNL     1     -32.733   5.755   1.882  1.00 20.00     0.089 A 
HETATM    4  C4  UNL     1     -33.127   7.933   0.518  1.00 20.00     0.085 C 
HETATM    5  C5  UNL     1     -31.356   7.958   1.937  1.00 20.00     0.085 C 
HETATM    6  C6  UNL     1     -32.714   7.277   1.829  1.00 20.00    -0.011 A 
HETATM    7  O7  UNL     1     -34.221   5.096   3.834  1.00 20.00    -0.298 OA
HETATM    8  S8  UNL     1     -31.988   9.320   0.886  1.00 20.00    -0.167 SA
ENDROOT
TORSDOF 0
ENDMDL
MODEL 6
REMARK VINA RESULT:       1.2      3.379      4.221
REMARK  0 active torsions:
REMARK  status: ('A' for Active; 'I' for Inactive)
ROOT
HETATM    1  C1  UNL     1     -31.969   8.781   0.895  1.00 20.00     0.128 A 
HETATM    2  C2  UNL     1     -33.409   8.625   1.436  1.00 20.00     0.089 A 
HETATM    3  C3  UNL     1     -31.417   7.718   1.873  1.00 20.00     0.089 A 
HETATM    4  C4  UNL     1     -33.080   7.761   3.869  1.00 20.00     0.085 C 
HETATM    5  C5  UNL     1     -33.460   6.170   2.296  1.00 20.00     0.085 C 
HETATM    6  C6  UNL     1     -32.844   7.561   2.378  1.00 20.00    -0.011 A 
HETATM    7  O7  UNL     1     -31.465   9.472   0.035  1.00 20.00    -0.298 OA
HETATM    8  S8  UNL     1     -34.457   6.556   3.784  1.00 20.00    -0.167 SA
ENDROOT
TORSDOF 0
ENDMDL
MODEL 7
REMARK VINA RESULT:       1.7      2.097      2.550
REMARK  0 active torsions:
REMARK  status: ('A' for Active; 'I' for Inactive)
ROOT
HETATM    1  C1  UNL     1     -33.713   7.322   3.621  1.00 20.00     0.128 A 
HETATM    2  C2  UNL     1     -33.823   5.862   3.124  1.00 20.00     0.089 A 
HETATM    3  C3  UNL     1     -32.794   7.722   2.444  1.00 20.00     0.089 A 
HETATM    4  C4  UNL     1     -31.646   5.498   1.744  1.00 20.00     0.085 C 
HETATM    5  C5  UNL     1     -33.488   6.081   0.552  1.00 20.00     0.085 C 
HETATM    6  C6  UNL     1     -32.931   6.287   1.956  1.00 20.00    -0.011 A 
HETATM    7  O7  UNL     1     -34.171   7.922   4.570  1.00 20.00    -0.298 OA
HETATM    8  S8  UNL     1     -32.475   4.561   0.406  1.00 20.00    -0.167 SA
ENDROOT
TORSDOF 0
ENDMDL
MODEL 8
REMARK VINA RESULT:       2.0      2.850      3.457
REMARK  0 active torsions:
REMARK  status: ('A' for Active; 'I' for Inactive)
ROOT
HETATM    1  C1  UNL     1     -32.020   4.832   0.630  1.00 20.00     0.128 A 
HETATM    2  C2  UNL     1     -31.670   5.387   2.030  1.00 20.00     0.089 A 
HETATM    3  C3  UNL     1     -33.301   5.694   0.537  1.00 20.00     0.089 A 
HETATM    4  C4  UNL     1     -33.966   6.118   3.014  1.00 20.00     0.085 C 
HETATM    5  C5  UNL     1     -32.749   7.755   2.020  1.00 20.00     0.085 C 
HETATM    6  C6  UNL     1     -32.929   6.247   1.906  1.00 20.00    -0.011 A 
HETATM    7  O7  UNL     1     -31.494   4.030  -0.111  1.00 20.00    -0.298 OA
HETATM    8  S8  UNL     1     -33.322   7.663   3.758  1.00 20.00    -0.167 SA
ENDROOT
TORSDOF 0
ENDMDL
MODEL 9
REMARK VINA RESULT:       2.1      3.209      4.105
REMARK  0 active torsions:
REMARK  status: ('A' for Active; 'I' for Inactive)
ROOT
HETATM    1  C1  UNL     1     -32.196   8.705   1.011  1.00 20.00     0.128 A 
HETATM    2  C2  UNL     1     -31.814   7.897   2.273  1.00 20.00     0.089 A 
HETATM    3  C3  UNL     1     -33.303   7.698   0.622  1.00 20.00     0.089 A 
HETATM    4  C4  UNL     1     -32.543   5.463   1.710  1.00 20.00     0.085 C 
HETATM    5  C5  UNL     1     -34.033   6.692   2.904  1.00 20.00     0.085 C 
HETATM    6  C6  UNL     1     -32.929   6.926   1.880  1.00 20.00    -0.011 A 
HETATM    7  O7  UNL     1     -31.786   9.734   0.517  1.00 20.00    -0.298 OA
HETATM    8  S8  UNL     1     -33.216   5.121   3.379  1.00 20.00    -0.167 SA
ENDROOT
TORSDOF 0
ENDMDL
