MODEL 1
REMARK VINA RESULT:      -0.9      0.000      0.000
REMARK  1 active torsions:
REMARK  status: ('A' for Active; 'I' for Inactive)
REMARK    1  A    between atoms: C7_7  and  O10_10 
ROOT
HETATM    1  C1  UNL     1     -33.473   3.506   4.444  1.00 20.00     0.013 C 
HETATM    2  C2  UNL     1     -33.716   4.529   3.867  1.00 20.00    -0.102 C 
HETATM    3  C3  UNL     1     -33.411   6.104   1.855  1.00 20.00    -0.040 C 
HETATM    4  C4  UNL     1     -33.582   5.445   0.701  1.00 20.00     0.019 C 
HETATM    5  C5  UNL     1     -33.293   8.126   3.161  1.00 20.00     0.043 C 
HETATM    6  C6  UNL     1     -35.281   6.479   3.568  1.00 20.00     0.034 A 
HETATM    7  C7  UNL     1     -32.645   7.402   1.969  1.00 20.00     0.148 C 
HETATM    8  C8  UNL     1     -33.951   7.045   3.978  1.00 20.00     0.015 A 
HETATM    9  C9  UNL     1     -34.007   5.759   3.174  1.00 20.00     0.052 A 
ENDROOT
BRANCH   7  10
HETATM   10  O10 UNL     1     -31.288   7.100   2.271  1.00 20.00    -0.391 OA
HETATM   11  H20 UNL     1     -30.755   7.452   1.541  1.00 20.00     0.210 HD
ENDBRANCH   7  10
TORSDOF 1
ENDMDL
MODEL 2
REMARK VINA RESULT:      -0.4      1.945      3.839
REMARK  1 active torsions:
REMARK  status: ('A' for Active; 'I' for Inactive)
REMARK    1  A    between atoms: C7_7  and  O10_10 
ROOT
HETATM    1  C1  UNL     1     -32.614   9.668  -0.085  1.00 20.00     0.013 C 
HETATM    2  C2  UNL     1     -32.457   8.927   0.846  1.00 20.00    -0.102 C 
HETATM    3  C3  UNL     1     -32.889   6.688   2.037  1.00 20.00    -0.040 C 
HETATM    4  C4  UNL     1     -32.659   5.656   1.214  1.00 20.00     0.019 C 
HETATM    5  C5  UNL     1     -33.183   7.645   4.228  1.00 20.00     0.043 C 
HETATM    6  C6  UNL     1     -31.063   8.295   2.846  1.00 20.00     0.034 A 
HETATM    7  C7  UNL     1     -33.763   6.595   3.266  1.00 20.00     0.148 C 
HETATM    8  C8  UNL     1     -32.438   8.621   3.357  1.00 20.00     0.015 A 
HETATM    9  C9  UNL     1     -32.270   8.039   1.965  1.00 20.00     0.052 A 
ENDROOT
BRANCH   7  10
HETATM   10  O10 UNL     1     -35.091   6.958   2.904  1.00 20.00    -0.391 OA
HETATM   11  H20 UNL     1     -35.681   6.527   3.542  1.00 20.00     0.210 HD
ENDBRANCH   7  10
TORSDOF 1
ENDMDL
MODEL 3
REMARK VINA RESULT:       0.4      1.661      3.177
REMARK  1 active torsions:
REMARK  status: ('A' for Active; 'I' for Inactive)
REMARK    1  A    between atoms: C7_7  and  O10_10 
ROOT
HETATM    1  C1  UNL     1     -33.971   4.683  -0.366  1.00 20.00     0.013 C 
HETATM    2  C2  UNL     1     -33.618   5.149   0.682  1.00 20.00    -0.102 C 
HETATM    3  C3  UNL     1     -33.754   5.271   3.249  1.00 20.00    -0.040 C 
HETATM    4  C4  UNL     1     -33.661   4.050   3.792  1.00 20.00     0.019 C 
HETATM    5  C5  UNL     1     -33.644   7.675   3.371  1.00 20.00     0.043 C 
HETATM    6  C6  UNL     1     -31.849   6.404   1.961  1.00 20.00     0.034 A 
HETATM    7  C7  UNL     1     -34.372   6.454   3.958  1.00 20.00     0.148 C 
HETATM    8  C8  UNL     1     -33.107   7.221   2.039  1.00 20.00     0.015 A 
HETATM    9  C9  UNL     1     -33.196   5.709   1.941  1.00 20.00     0.052 A 
ENDROOT
BRANCH   7  10
HETATM   10  O10 UNL     1     -35.753   6.511   3.620  1.00 20.00    -0.391 OA
HETATM   11  H20 UNL     1     -36.087   7.357   3.958  1.00 20.00     0.210 HD
ENDBRANCH   7  10
TORSDOF 1
ENDMDL
MODEL 4
REMARK VINA RESULT:       0.8      1.267      2.876
REMARK  1 active torsions:
REMARK  status: ('A' for Active; 'I' for Inactive)
REMARK    1  A    between atoms: C7_7  and  O10_10 
ROOT
HETATM    1  C1  UNL     1     -36.361   6.681   3.335  1.00 20.00     0.013 C 
HETATM    2  C2  UNL     1     -35.167   6.599   3.243  1.00 20.00    -0.102 C 
HETATM    3  C3  UNL     1     -32.824   7.656   3.356  1.00 20.00    -0.040 C 
HETATM    4  C4  UNL     1     -32.661   8.338   4.498  1.00 20.00     0.019 C 
HETATM    5  C5  UNL     1     -31.974   6.543   1.396  1.00 20.00     0.043 C 
HETATM    6  C6  UNL     1     -33.134   5.114   3.251  1.00 20.00     0.034 A 
HETATM    7  C7  UNL     1     -32.001   7.903   2.113  1.00 20.00     0.148 C 
HETATM    8  C8  UNL     1     -33.174   5.793   1.911  1.00 20.00     0.015 A 
HETATM    9  C9  UNL     1     -33.734   6.500   3.132  1.00 20.00     0.052 A 
ENDROOT
BRANCH   7  10
HETATM   10  O10 UNL     1     -32.679   8.858   1.305  1.00 20.00    -0.391 OA
HETATM   11  H20 UNL     1     -32.924   9.593   1.890  1.00 20.00     0.210 HD
ENDBRANCH   7  10
TORSDOF 1
ENDMDL
MODEL 5
REMARK VINA RESULT:       1.1      1.618      3.267
REMARK  1 active torsions:
REMARK  status: ('A' for Active; 'I' for Inactive)
REMARK    1  A    between atoms: C7_7  and  O10_10 
ROOT
HETATM    1  C1  UNL     1     -32.625   8.642   5.576  1.00 20.00     0.013 C 
HETATM    2  C2  UNL     1     -32.991   8.105   4.567  1.00 20.00    -0.102 C 
HETATM    3  C3  UNL     1     -34.416   6.346   3.345  1.00 20.00    -0.040 C 
HETATM    4  C4  UNL     1     -35.693   6.403   3.745  1.00 20.00     0.019 C 
HETATM    5  C5  UNL     1     -32.692   5.691   1.793  1.00 20.00     0.043 C 
HETATM    6  C6  UNL     1     -33.241   8.231   2.065  1.00 20.00     0.034 A 
HETATM    7  C7  UNL     1     -33.796   5.126   2.702  1.00 20.00     0.148 C 
HETATM    8  C8  UNL     1     -32.363   7.048   2.357  1.00 20.00     0.015 A 
HETATM    9  C9  UNL     1     -33.429   7.460   3.356  1.00 20.00     0.052 A 
ENDROOT
BRANCH   7  10
HETATM   10  O10 UNL     1     -33.214   4.325   3.725  1.00 20.00    -0.391 OA
HETATM   11  H20 UNL     1     -32.729   4.929   4.308  1.00 20.00     0.210 HD
ENDBRANCH   7  10
TORSDOF 1
ENDMDL
MODEL 6
REMARK VINA RESULT:       1.4      1.654      2.490
REMARK  1 active torsions:
REMARK  status: ('A' for Active; 'I' for Inactive)
REMARK    1  A    between atoms: C7_7  and  O10_10 
ROOT
HETATM    1  C1  UNL     1     -31.261   4.648   1.064  1.00 20.00     0.013 C 
HETATM    2  C2  UNL     1     -31.991   5.534   1.414  1.00 20.00    -0.102 C 
HETATM    3  C3  UNL     1     -32.475   8.032   1.794  1.00 20.00    -0.040 C 
HETATM    4  C4  UNL     1     -32.174   8.749   0.703  1.00 20.00     0.019 C 
HETATM    5  C5  UNL     1     -33.586   7.732   3.910  1.00 20.00     0.043 C 
HETATM    6  C6  UNL     1     -34.350   6.286   1.873  1.00 20.00     0.034 A 
HETATM    7  C7  UNL     1     -32.567   8.623   3.181  1.00 20.00     0.148 C 
HETATM    8  C8  UNL     1     -33.588   6.427   3.160  1.00 20.00     0.015 A 
HETATM    9  C9  UNL     1     -32.868   6.597   1.835  1.00 20.00     0.052 A 
ENDROOT
BRANCH   7  10
HETATM   10  O10 UNL     1     -31.294   8.507   3.806  1.00 20.00    -0.391 OA
HETATM   11  H20 UNL     1     -31.093   9.374   4.191  1.00 20.00     0.210 HD
ENDBRANCH   7  10
TORSDOF 1
ENDMDL
MODEL 7
REMARK VINA RESULT:       2.0      1.790      3.080
REMARK  1 active torsions:
REMARK  status: ('A' for Active; 'I' for Inactive)
REMARK    1  A    between atoms: C7_7  and  O10_10 
ROOT
HETATM    1  C1  UNL     1     -35.451   6.454   3.403  1.00 20.00     0.013 C 
HETATM    2  C2  UNL     1     -34.339   6.559   2.963  1.00 20.00    -0.102 C 
HETATM    3  C3  UNL     1     -32.216   7.944   2.521  1.00 20.00    -0.040 C 
HETATM    4  C4  UNL     1     -31.801   8.554   3.640  1.00 20.00     0.019 C 
HETATM    5  C5  UNL     1     -31.866   7.122   0.284  1.00 20.00     0.043 C 
HETATM    6  C6  UNL     1     -32.234   5.399   2.214  1.00 20.00     0.034 A 
HETATM    7  C7  UNL     1     -31.841   8.404   1.132  1.00 20.00     0.148 C 
HETATM    8  C8  UNL     1     -32.756   6.163   1.031  1.00 20.00     0.015 A 
HETATM    9  C9  UNL     1     -33.005   6.685   2.435  1.00 20.00     0.052 A 
ENDROOT
BRANCH   7  10
HETATM   10  O10 UNL     1     -32.841   9.305   0.670  1.00 20.00    -0.391 OA
HETATM   11  H20 UNL     1     -32.404   9.911   0.051  1.00 20.00     0.210 HD
ENDBRANCH   7  10
TORSDOF 1
ENDMDL
