MODEL 1
REMARK VINA RESULT:       4.1      0.000      0.000
REMARK  0 active torsions:
REMARK  status: ('A' for Active; 'I' for Inactive)
ROOT
HETATM    1  C1  UNL     1     -33.912   7.818   3.913  1.00 20.00     0.005 C 
HETATM    2  C2  UNL     1     -34.257   5.381   3.511  1.00 20.00     0.005 C 
HETATM    3  C3  UNL     1     -32.375   7.818   3.806  1.00 20.00     0.005 C 
HETATM    4  C4  UNL     1     -32.774   4.999   3.341  1.00 20.00     0.005 C 
HETATM    5  C5  UNL     1     -32.880   7.985   1.415  1.00 20.00     0.010 C 
HETATM    6  C6  UNL     1     -33.199   5.737   1.044  1.00 20.00     0.010 C 
HETATM    7  C7  UNL     1     -34.553   6.792   2.949  1.00 20.00    -0.010 C 
HETATM    8  C8  UNL     1     -31.927   7.318   2.421  1.00 20.00    -0.010 C 
HETATM    9  C9  UNL     1     -32.147   5.770   2.166  1.00 20.00    -0.010 C 
HETATM   10  C10 UNL     1     -34.020   6.962   1.462  1.00 20.00    -0.010 C 
ENDROOT
TORSDOF 0
ENDMDL
MODEL 2
REMARK VINA RESULT:       4.1      0.877      2.790
REMARK  0 active torsions:
REMARK  status: ('A' for Active; 'I' for Inactive)
ROOT
HETATM    1  C1  UNL     1     -32.935   5.388   2.196  1.00 20.00     0.005 C 
HETATM    2  C2  UNL     1     -34.658   5.403   3.999  1.00 20.00     0.005 C 
HETATM    3  C3  UNL     1     -33.548   6.506   1.330  1.00 20.00     0.005 C 
HETATM    4  C4  UNL     1     -35.541   6.523   3.416  1.00 20.00     0.005 C 
HETATM    5  C5  UNL     1     -32.317   7.929   2.899  1.00 20.00     0.010 C 
HETATM    6  C6  UNL     1     -33.905   7.942   4.562  1.00 20.00     0.010 C 
HETATM    7  C7  UNL     1     -33.158   5.645   3.705  1.00 20.00    -0.010 C 
HETATM    8  C8  UNL     1     -33.643   7.819   2.128  1.00 20.00    -0.010 C 
HETATM    9  C9  UNL     1     -34.737   7.828   3.274  1.00 20.00    -0.010 C 
HETATM   10  C10 UNL     1     -32.697   7.103   4.133  1.00 20.00    -0.010 C 
ENDROOT
TORSDOF 0
ENDMDL
MODEL 3
REMARK VINA RESULT:       4.2      0.777      3.004
REMARK  0 active torsions:
REMARK  status: ('A' for Active; 'I' for Inactive)
ROOT
HETATM    1  C1  UNL     1     -33.232   5.549   1.841  1.00 20.00     0.005 C 
HETATM    2  C2  UNL     1     -32.443   7.908   2.022  1.00 20.00     0.005 C 
HETATM    3  C3  UNL     1     -32.960   5.140   3.301  1.00 20.00     0.005 C 
HETATM    4  C4  UNL     1     -32.048   7.869   3.510  1.00 20.00     0.005 C 
HETATM    5  C5  UNL     1     -35.162   6.158   3.640  1.00 20.00     0.010 C 
HETATM    6  C6  UNL     1     -34.435   8.334   3.806  1.00 20.00     0.010 C 
HETATM    7  C7  UNL     1     -33.681   7.025   1.735  1.00 20.00    -0.010 C 
HETATM    8  C8  UNL     1     -33.766   6.022   4.271  1.00 20.00    -0.010 C 
HETATM    9  C9  UNL     1     -33.265   7.521   4.385  1.00 20.00    -0.010 C 
HETATM   10  C10 UNL     1     -34.884   7.351   2.719  1.00 20.00    -0.010 C 
ENDROOT
TORSDOF 0
ENDMDL
MODEL 4
REMARK VINA RESULT:       4.7      0.680      2.753
REMARK  0 active torsions:
REMARK  status: ('A' for Active; 'I' for Inactive)
ROOT
HETATM    1  C1  UNL     1     -32.550   7.898   3.724  1.00 20.00     0.005 C 
HETATM    2  C2  UNL     1     -31.904   8.294   1.348  1.00 20.00     0.005 C 
HETATM    3  C3  UNL     1     -34.027   7.544   3.468  1.00 20.00     0.005 C 
HETATM    4  C4  UNL     1     -33.280   8.002   0.720  1.00 20.00     0.005 C 
HETATM    5  C5  UNL     1     -33.071   5.327   3.052  1.00 20.00     0.010 C 
HETATM    6  C6  UNL     1     -32.474   5.693   0.861  1.00 20.00     0.010 C 
HETATM    7  C7  UNL     1     -31.636   7.399   2.580  1.00 20.00    -0.010 C 
HETATM    8  C8  UNL     1     -34.139   6.313   2.550  1.00 20.00    -0.010 C 
HETATM    9  C9  UNL     1     -33.728   6.565   1.041  1.00 20.00    -0.010 C 
HETATM   10  C10 UNL     1     -31.873   5.861   2.260  1.00 20.00    -0.010 C 
ENDROOT
TORSDOF 0
ENDMDL
MODEL 5
REMARK VINA RESULT:       4.8      0.711      2.727
REMARK  0 active torsions:
REMARK  status: ('A' for Active; 'I' for Inactive)
ROOT
HETATM    1  C1  UNL     1     -32.741   5.466   0.813  1.00 20.00     0.005 C 
HETATM    2  C2  UNL     1     -33.197   5.321   3.260  1.00 20.00     0.005 C 
HETATM    3  C3  UNL     1     -33.769   6.566   0.487  1.00 20.00     0.005 C 
HETATM    4  C4  UNL     1     -34.297   6.398   3.318  1.00 20.00     0.005 C 
HETATM    5  C5  UNL     1     -31.937   8.021   1.212  1.00 20.00     0.010 C 
HETATM    6  C6  UNL     1     -32.357   7.887   3.469  1.00 20.00     0.010 C 
HETATM    7  C7  UNL     1     -32.112   5.667   2.212  1.00 20.00    -0.010 C 
HETATM    8  C8  UNL     1     -33.463   7.848   1.283  1.00 20.00    -0.010 C 
HETATM    9  C9  UNL     1     -33.753   7.755   2.837  1.00 20.00    -0.010 C 
HETATM   10  C10 UNL     1     -31.549   7.139   2.404  1.00 20.00    -0.010 C 
ENDROOT
TORSDOF 0
ENDMDL
MODEL 6
REMARK VINA RESULT:       4.8      0.638      2.679
REMARK  0 active torsions:
REMARK  status: ('A' for Active; 'I' for Inactive)
ROOT
HETATM    1  C1  UNL     1     -33.714   7.942   4.394  1.00 20.00     0.005 C 
HETATM    2  C2  UNL     1     -32.025   8.158   2.572  1.00 20.00     0.005 C 
HETATM    3  C3  UNL     1     -34.956   7.795   3.494  1.00 20.00     0.005 C 
HETATM    4  C4  UNL     1     -33.002   8.045   1.386  1.00 20.00     0.005 C 
HETATM    5  C5  UNL     1     -34.246   5.451   3.475  1.00 20.00     0.010 C 
HETATM    6  C6  UNL     1     -32.687   5.650   1.795  1.00 20.00     0.010 C 
HETATM    7  C7  UNL     1     -32.468   7.276   3.764  1.00 20.00    -0.010 C 
HETATM    8  C8  UNL     1     -34.822   6.562   2.582  1.00 20.00    -0.010 C 
HETATM    9  C9  UNL     1     -33.749   6.700   1.425  1.00 20.00    -0.010 C 
HETATM   10  C10 UNL     1     -32.757   5.779   3.320  1.00 20.00    -0.010 C 
ENDROOT
TORSDOF 0
ENDMDL
MODEL 7
REMARK VINA RESULT:       4.8      1.061      1.765
REMARK  0 active torsions:
REMARK  status: ('A' for Active; 'I' for Inactive)
ROOT
HETATM    1  C1  UNL     1     -34.064   7.203   3.201  1.00 20.00     0.005 C 
HETATM    2  C2  UNL     1     -33.033   5.762   1.447  1.00 20.00     0.005 C 
HETATM    3  C3  UNL     1     -32.760   7.602   3.918  1.00 20.00     0.005 C 
HETATM    4  C4  UNL     1     -31.567   5.936   1.888  1.00 20.00     0.005 C 
HETATM    5  C5  UNL     1     -32.704   9.294   2.147  1.00 20.00     0.010 C 
HETATM    6  C6  UNL     1     -31.753   7.964   0.528  1.00 20.00     0.010 C 
HETATM    7  C7  UNL     1     -33.856   7.052   1.676  1.00 20.00    -0.010 C 
HETATM    8  C8  UNL     1     -31.811   8.334   2.951  1.00 20.00    -0.010 C 
HETATM    9  C9  UNL     1     -31.157   7.417   1.837  1.00 20.00    -0.010 C 
HETATM   10  C10 UNL     1     -33.149   8.327   1.045  1.00 20.00    -0.010 C 
ENDROOT
TORSDOF 0
ENDMDL
MODEL 8
REMARK VINA RESULT:       5.6      0.796      2.669
REMARK  0 active torsions:
REMARK  status: ('A' for Active; 'I' for Inactive)
ROOT
HETATM    1  C1  UNL     1     -31.580   7.490   1.802  1.00 20.00     0.005 C 
HETATM    2  C2  UNL     1     -32.904   5.500   1.088  1.00 20.00     0.005 C 
HETATM    3  C3  UNL     1     -32.730   8.514   1.765  1.00 20.00     0.005 C 
HETATM    4  C4  UNL     1     -34.262   6.213   0.939  1.00 20.00     0.005 C 
HETATM    5  C5  UNL     1     -33.146   7.620   4.007  1.00 20.00     0.010 C 
HETATM    6  C6  UNL     1     -34.367   5.785   3.349  1.00 20.00     0.010 C 
HETATM    7  C7  UNL     1     -32.072   6.093   2.250  1.00 20.00    -0.010 C 
HETATM    8  C8  UNL     1     -33.856   8.101   2.731  1.00 20.00    -0.010 C 
HETATM    9  C9  UNL     1     -34.696   6.837   2.277  1.00 20.00    -0.010 C 
HETATM   10  C10 UNL     1     -32.904   6.162   3.601  1.00 20.00    -0.010 C 
ENDROOT
TORSDOF 0
ENDMDL
MODEL 9
REMARK VINA RESULT:       5.9      1.202      3.120
REMARK  0 active torsions:
REMARK  status: ('A' for Active; 'I' for Inactive)
ROOT
HETATM    1  C1  UNL     1     -33.074   7.751   3.582  1.00 20.00     0.005 C 
HETATM    2  C2  UNL     1     -32.251   9.630   2.165  1.00 20.00     0.005 C 
HETATM    3  C3  UNL     1     -34.063   7.155   2.562  1.00 20.00     0.005 C 
HETATM    4  C4  UNL     1     -33.110   9.329   0.922  1.00 20.00     0.005 C 
HETATM    5  C5  UNL     1     -32.035   6.045   1.755  1.00 20.00     0.010 C 
HETATM    6  C6  UNL     1     -31.274   7.778   0.448  1.00 20.00     0.010 C 
HETATM    7  C7  UNL     1     -31.820   8.333   2.890  1.00 20.00    -0.010 C 
HETATM    8  C8  UNL     1     -33.327   6.728   1.279  1.00 20.00    -0.010 C 
HETATM    9  C9  UNL     1     -32.804   7.922   0.379  1.00 20.00    -0.010 C 
HETATM   10  C10 UNL     1     -31.153   7.290   1.895  1.00 20.00    -0.010 C 
ENDROOT
TORSDOF 0
ENDMDL
