MODEL 1
REMARK VINA RESULT:      -1.6      0.000      0.000
REMARK  3 active torsions:
REMARK  status: ('A' for Active; 'I' for Inactive)
REMARK    1  A    between atoms: C1_1  and  C7_7 
REMARK    2  A    between atoms: C2_2  and  C8_8 
REMARK    3  A    between atoms: C8_8  and  C9_9 
ROOT
HETATM    1  C1  UNL     1     -31.767   8.776   1.596  1.00 20.00     0.157 A 
HETATM    2  C2  UNL     1     -32.177   7.629   2.487  1.00 20.00     0.185 A 
HETATM    3  O10 UNL     1     -31.392   7.422   1.305  1.00 20.00    -0.372 OA
ENDROOT
BRANCH   2   4
HETATM    4  C8  UNL     1     -33.540   7.011   2.450  1.00 20.00     0.204 C 
HETATM    5  F11 UNL     1     -33.395   5.659   2.370  1.00 20.00    -0.246 F 
BRANCH   4   6
HETATM    6  C9  UNL     1     -34.415   7.355   3.666  1.00 20.00     0.014 C 
HETATM    7  C5  UNL     1     -33.602   7.920   4.834  1.00 20.00     0.012 C 
HETATM    8  C6  UNL     1     -35.173   6.108   4.132  1.00 20.00     0.012 C 
ENDBRANCH   4   6
ENDBRANCH   2   4
BRANCH   1   9
HETATM    9  C7  UNL     1     -32.675   9.397   0.597  1.00 20.00     0.009 C 
HETATM   10  C3  UNL     1     -32.808  10.920   0.807  1.00 20.00     0.012 C 
HETATM   11  C4  UNL     1     -32.216   9.128  -0.850  1.00 20.00     0.012 C 
ENDBRANCH   1   9
TORSDOF 3
ENDMDL
MODEL 2
REMARK VINA RESULT:      -0.9      1.556      4.341
REMARK  3 active torsions:
REMARK  status: ('A' for Active; 'I' for Inactive)
REMARK    1  A    between atoms: C1_1  and  C7_7 
REMARK    2  A    between atoms: C2_2  and  C8_8 
REMARK    3  A    between atoms: C8_8  and  C9_9 
ROOT
HETATM    1  C1  UNL     1     -33.401   5.790   1.880  1.00 20.00     0.157 A 
HETATM    2  C2  UNL     1     -32.714   6.892   1.111  1.00 20.00     0.185 A 
HETATM    3  O10 UNL     1     -32.012   5.715   1.531  1.00 20.00    -0.372 OA
ENDROOT
BRANCH   2   4
HETATM    4  C8  UNL     1     -32.243   8.163   1.745  1.00 20.00     0.204 C 
HETATM    5  F11 UNL     1     -31.069   7.911   2.387  1.00 20.00    -0.246 F 
BRANCH   4   6
HETATM    6  C9  UNL     1     -32.039   9.318   0.752  1.00 20.00     0.014 C 
HETATM    7  C5  UNL     1     -32.820  10.575   1.146  1.00 20.00     0.012 C 
HETATM    8  C6  UNL     1     -32.460   8.879  -0.653  1.00 20.00     0.012 C 
ENDBRANCH   4   6
ENDBRANCH   2   4
BRANCH   1   9
HETATM    9  C7  UNL     1     -33.672   5.863   3.340  1.00 20.00     0.009 C 
HETATM   10  C3  UNL     1     -34.886   6.760   3.657  1.00 20.00     0.012 C 
HETATM   11  C4  UNL     1     -33.903   4.468   3.955  1.00 20.00     0.012 C 
ENDBRANCH   1   9
TORSDOF 3
ENDMDL
MODEL 3
REMARK VINA RESULT:      -0.0      1.727      2.447
REMARK  3 active torsions:
REMARK  status: ('A' for Active; 'I' for Inactive)
REMARK    1  A    between atoms: C1_1  and  C7_7 
REMARK    2  A    between atoms: C2_2  and  C8_8 
REMARK    3  A    between atoms: C8_8  and  C9_9 
ROOT
HETATM    1  C1  UNL     1     -32.152   6.774   1.295  1.00 20.00     0.157 A 
HETATM    2  C2  UNL     1     -32.752   5.633   2.079  1.00 20.00     0.185 A 
HETATM    3  O10 UNL     1     -33.403   6.180   0.924  1.00 20.00    -0.372 OA
ENDROOT
BRANCH   2   4
HETATM    4  C8  UNL     1     -33.493   5.824   3.365  1.00 20.00     0.204 C 
HETATM    5  F11 UNL     1     -34.279   6.929   3.247  1.00 20.00    -0.246 F 
BRANCH   4   6
HETATM    6  C9  UNL     1     -34.364   4.623   3.768  1.00 20.00     0.014 C 
HETATM    7  C5  UNL     1     -35.490   5.011   4.730  1.00 20.00     0.012 C 
HETATM    8  C6  UNL     1     -33.495   3.541   4.413  1.00 20.00     0.012 C 
ENDBRANCH   4   6
ENDBRANCH   2   4
BRANCH   1   9
HETATM    9  C7  UNL     1     -32.241   8.194   1.725  1.00 20.00     0.009 C 
HETATM   10  C3  UNL     1     -31.158   8.552   2.763  1.00 20.00     0.012 C 
HETATM   11  C4  UNL     1     -32.136   9.167   0.533  1.00 20.00     0.012 C 
ENDBRANCH   1   9
TORSDOF 3
ENDMDL
MODEL 4
REMARK VINA RESULT:      -0.0      1.451      4.461
REMARK  3 active torsions:
REMARK  status: ('A' for Active; 'I' for Inactive)
REMARK    1  A    between atoms: C1_1  and  C7_7 
REMARK    2  A    between atoms: C2_2  and  C8_8 
REMARK    3  A    between atoms: C8_8  and  C9_9 
ROOT
HETATM    1  C1  UNL     1     -33.799   6.144   2.384  1.00 20.00     0.157 A 
HETATM    2  C2  UNL     1     -32.741   6.788   1.521  1.00 20.00     0.185 A 
HETATM    3  O10 UNL     1     -32.401   5.942   2.628  1.00 20.00    -0.372 OA
ENDROOT
BRANCH   2   4
HETATM    4  C8  UNL     1     -32.320   8.216   1.670  1.00 20.00     0.204 C 
HETATM    5  F11 UNL     1     -31.071   8.240   2.212  1.00 20.00    -0.246 F 
BRANCH   4   6
HETATM    6  C9  UNL     1     -32.317   9.007   0.353  1.00 20.00     0.014 C 
HETATM    7  C5  UNL     1     -30.966   8.946  -0.366  1.00 20.00     0.012 C 
HETATM    8  C6  UNL     1     -32.683  10.470   0.622  1.00 20.00     0.012 C 
ENDBRANCH   4   6
ENDBRANCH   2   4
BRANCH   1   9
HETATM    9  C7  UNL     1     -34.521   6.868   3.463  1.00 20.00     0.009 C 
HETATM   10  C3  UNL     1     -35.448   5.931   4.265  1.00 20.00     0.012 C 
HETATM   11  C4  UNL     1     -33.553   7.571   4.436  1.00 20.00     0.012 C 
ENDBRANCH   1   9
TORSDOF 3
ENDMDL
MODEL 5
REMARK VINA RESULT:       0.4      1.648      2.373
REMARK  3 active torsions:
REMARK  status: ('A' for Active; 'I' for Inactive)
REMARK    1  A    between atoms: C1_1  and  C7_7 
REMARK    2  A    between atoms: C2_2  and  C8_8 
REMARK    3  A    between atoms: C8_8  and  C9_9 
ROOT
HETATM    1  C1  UNL     1     -32.189   6.759   1.452  1.00 20.00     0.157 A 
HETATM    2  C2  UNL     1     -32.988   5.776   2.273  1.00 20.00     0.185 A 
HETATM    3  O10 UNL     1     -33.423   6.205   0.975  1.00 20.00    -0.372 OA
ENDROOT
BRANCH   2   4
HETATM    4  C8  UNL     1     -33.882   6.185   3.401  1.00 20.00     0.204 C 
HETATM    5  F11 UNL     1     -35.059   6.626   2.876  1.00 20.00    -0.246 F 
BRANCH   4   6
HETATM    6  C9  UNL     1     -34.165   5.064   4.412  1.00 20.00     0.014 C 
HETATM    7  C5  UNL     1     -33.696   3.693   3.917  1.00 20.00     0.012 C 
HETATM    8  C6  UNL     1     -35.665   5.006   4.720  1.00 20.00     0.012 C 
ENDBRANCH   4   6
ENDBRANCH   2   4
BRANCH   1   9
HETATM    9  C7  UNL     1     -32.216   8.226   1.687  1.00 20.00     0.009 C 
HETATM   10  C3  UNL     1     -31.148   8.667   2.708  1.00 20.00     0.012 C 
HETATM   11  C4  UNL     1     -32.022   9.024   0.381  1.00 20.00     0.012 C 
ENDBRANCH   1   9
TORSDOF 3
ENDMDL
MODEL 6
REMARK VINA RESULT:       0.5      2.204      3.141
REMARK  3 active torsions:
REMARK  status: ('A' for Active; 'I' for Inactive)
REMARK    1  A    between atoms: C1_1  and  C7_7 
REMARK    2  A    between atoms: C2_2  and  C8_8 
REMARK    3  A    between atoms: C8_8  and  C9_9 
ROOT
HETATM    1  C1  UNL     1     -32.942   7.110   1.517  1.00 20.00     0.157 A 
HETATM    2  C2  UNL     1     -33.308   7.859   2.774  1.00 20.00     0.185 A 
HETATM    3  O10 UNL     1     -31.958   7.804   2.295  1.00 20.00    -0.372 OA
ENDROOT
BRANCH   2   4
HETATM    4  C8  UNL     1     -33.533   7.187   4.092  1.00 20.00     0.204 C 
HETATM    5  F11 UNL     1     -33.357   8.109   5.079  1.00 20.00    -0.246 F 
BRANCH   4   6
HETATM    6  C9  UNL     1     -34.922   6.547   4.238  1.00 20.00     0.014 C 
HETATM    7  C5  UNL     1     -34.865   5.018   4.265  1.00 20.00     0.012 C 
HETATM    8  C6  UNL     1     -35.829   7.001   3.090  1.00 20.00     0.012 C 
ENDBRANCH   4   6
ENDBRANCH   2   4
BRANCH   1   9
HETATM    9  C7  UNL     1     -32.770   5.634   1.469  1.00 20.00     0.009 C 
HETATM   10  C3  UNL     1     -33.619   4.990   0.353  1.00 20.00     0.012 C 
HETATM   11  C4  UNL     1     -31.295   5.230   1.274  1.00 20.00     0.012 C 
ENDBRANCH   1   9
TORSDOF 3
ENDMDL
MODEL 7
REMARK VINA RESULT:       0.6      1.896      4.267
REMARK  3 active torsions:
REMARK  status: ('A' for Active; 'I' for Inactive)
REMARK    1  A    between atoms: C1_1  and  C7_7 
REMARK    2  A    between atoms: C2_2  and  C8_8 
REMARK    3  A    between atoms: C8_8  and  C9_9 
ROOT
HETATM    1  C1  UNL     1     -33.708   5.384   1.999  1.00 20.00     0.157 A 
HETATM    2  C2  UNL     1     -32.758   6.207   1.163  1.00 20.00     0.185 A 
HETATM    3  O10 UNL     1     -32.473   4.845   1.509  1.00 20.00    -0.372 OA
ENDROOT
BRANCH   2   4
HETATM    4  C8  UNL     1     -31.815   7.212   1.746  1.00 20.00     0.204 C 
HETATM    5  F11 UNL     1     -30.873   7.510   0.809  1.00 20.00    -0.246 F 
BRANCH   4   6
HETATM    6  C9  UNL     1     -32.494   8.510   2.213  1.00 20.00     0.014 C 
HETATM    7  C5  UNL     1     -32.384   9.634   1.180  1.00 20.00     0.012 C 
HETATM    8  C6  UNL     1     -31.878   8.974   3.536  1.00 20.00     0.012 C 
ENDBRANCH   4   6
ENDBRANCH   2   4
BRANCH   1   9
HETATM    9  C7  UNL     1     -33.795   5.493   3.478  1.00 20.00     0.009 C 
HETATM   10  C3  UNL     1     -34.970   6.389   3.922  1.00 20.00     0.012 C 
HETATM   11  C4  UNL     1     -33.933   4.113   4.153  1.00 20.00     0.012 C 
ENDBRANCH   1   9
TORSDOF 3
ENDMDL
MODEL 8
REMARK VINA RESULT:       0.8      1.616      4.612
REMARK  3 active torsions:
REMARK  status: ('A' for Active; 'I' for Inactive)
REMARK    1  A    between atoms: C1_1  and  C7_7 
REMARK    2  A    between atoms: C2_2  and  C8_8 
REMARK    3  A    between atoms: C8_8  and  C9_9 
ROOT
HETATM    1  C1  UNL     1     -32.764   7.107   2.925  1.00 20.00     0.157 A 
HETATM    2  C2  UNL     1     -32.258   7.795   1.681  1.00 20.00     0.185 A 
HETATM    3  O10 UNL     1     -31.718   8.086   2.977  1.00 20.00    -0.372 OA
ENDROOT
BRANCH   2   4
HETATM    4  C8  UNL     1     -32.971   8.937   1.028  1.00 20.00     0.204 C 
HETATM    5  F11 UNL     1     -32.989   9.984   1.898  1.00 20.00    -0.246 F 
BRANCH   4   6
HETATM    6  C9  UNL     1     -32.343   9.390  -0.299  1.00 20.00     0.014 C 
HETATM    7  C5  UNL     1     -30.942   8.811  -0.513  1.00 20.00     0.012 C 
HETATM    8  C6  UNL     1     -32.272  10.920  -0.347  1.00 20.00     0.012 C 
ENDBRANCH   4   6
ENDBRANCH   2   4
BRANCH   1   9
HETATM    9  C7  UNL     1     -34.018   7.500   3.620  1.00 20.00     0.009 C 
HETATM   10  C3  UNL     1     -34.972   6.302   3.809  1.00 20.00     0.012 C 
HETATM   11  C4  UNL     1     -33.741   8.143   4.993  1.00 20.00     0.012 C 
ENDBRANCH   1   9
TORSDOF 3
ENDMDL
MODEL 9
REMARK VINA RESULT:       1.0      1.288      1.527
REMARK  3 active torsions:
REMARK  status: ('A' for Active; 'I' for Inactive)
REMARK    1  A    between atoms: C1_1  and  C7_7 
REMARK    2  A    between atoms: C2_2  and  C8_8 
REMARK    3  A    between atoms: C8_8  and  C9_9 
ROOT
HETATM    1  C1  UNL     1     -31.734   8.504   1.462  1.00 20.00     0.157 A 
HETATM    2  C2  UNL     1     -32.059   7.680   2.683  1.00 20.00     0.185 A 
HETATM    3  O10 UNL     1     -32.024   7.103   1.371  1.00 20.00    -0.372 OA
ENDROOT
BRANCH   2   4
HETATM    4  C8  UNL     1     -33.406   7.676   3.335  1.00 20.00     0.204 C 
HETATM    5  F11 UNL     1     -34.112   8.741   2.865  1.00 20.00    -0.246 F 
BRANCH   4   6
HETATM    6  C9  UNL     1     -34.211   6.389   3.095  1.00 20.00     0.014 C 
HETATM    7  C5  UNL     1     -35.452   6.298   3.988  1.00 20.00     0.012 C 
HETATM    8  C6  UNL     1     -33.323   5.165   3.336  1.00 20.00     0.012 C 
ENDBRANCH   4   6
ENDBRANCH   2   4
BRANCH   1   9
HETATM    9  C7  UNL     1     -32.722   9.388   0.789  1.00 20.00     0.009 C 
HETATM   10  C3  UNL     1     -32.545  10.865   1.197  1.00 20.00     0.012 C 
HETATM   11  C4  UNL     1     -32.646   9.278  -0.747  1.00 20.00     0.012 C 
ENDBRANCH   1   9
TORSDOF 3
ENDMDL
