MODEL 1
REMARK VINA RESULT:      -1.6      0.000      0.000
REMARK  4 active torsions:
REMARK  status: ('A' for Active; 'I' for Inactive)
REMARK    1  A    between atoms: C2_2  and  C9_9 
REMARK    2  A    between atoms: C7_7  and  C8_8 
REMARK    3  A    between atoms: C8_8  and  C9_9 
REMARK    4  A    between atoms: C9_9  and  O11_11 
ROOT
HETATM    1  C3  UNL     1     -33.320   4.657   2.995  1.00 20.00     0.031 C 
HETATM    2  C4  UNL     1     -34.698   6.729   3.313  1.00 20.00     0.031 C 
HETATM    3  C5  UNL     1     -33.999   4.098   4.239  1.00 20.00     0.168 C 
HETATM    4  C6  UNL     1     -35.302   6.054   4.539  1.00 20.00     0.168 C 
HETATM    5  C7  UNL     1     -33.291   6.189   3.036  1.00 20.00    -0.008 C 
HETATM    6  O10 UNL     1     -35.314   4.635   4.381  1.00 20.00    -0.391 OA
ENDROOT
BRANCH   5   7
HETATM    7  C8  UNL     1     -32.727   6.765   1.739  1.00 20.00     0.040 C 
BRANCH   7   8
HETATM    8  C9  UNL     1     -32.367   8.249   1.842  1.00 20.00     0.140 C 
BRANCH   8   9
HETATM    9  C2  UNL     1     -32.077   8.874   0.508  1.00 20.00    -0.006 C 
HETATM   10  C1  UNL     1     -32.525  10.076   0.133  1.00 20.00     0.009 C 
ENDBRANCH   8   9
BRANCH   8  11
HETATM   11  O11 UNL     1     -31.186   8.374   2.634  1.00 20.00    -0.392 OA
HETATM   12  H27 UNL     1     -30.501   8.734   2.050  1.00 20.00     0.210 HD
ENDBRANCH   8  11
ENDBRANCH   7   8
ENDBRANCH   5   7
TORSDOF 4
ENDMDL
MODEL 2
REMARK VINA RESULT:      -1.4      0.464      1.538
REMARK  4 active torsions:
REMARK  status: ('A' for Active; 'I' for Inactive)
REMARK    1  A    between atoms: C2_2  and  C9_9 
REMARK    2  A    between atoms: C7_7  and  C8_8 
REMARK    3  A    between atoms: C8_8  and  C9_9 
REMARK    4  A    between atoms: C9_9  and  O11_11 
ROOT
HETATM    1  C3  UNL     1     -34.227   6.920   3.246  1.00 20.00     0.031 C 
HETATM    2  C4  UNL     1     -33.021   4.724   3.120  1.00 20.00     0.031 C 
HETATM    3  C5  UNL     1     -35.351   6.182   3.962  1.00 20.00     0.168 C 
HETATM    4  C6  UNL     1     -34.212   4.108   3.844  1.00 20.00     0.168 C 
HETATM    5  C7  UNL     1     -33.450   5.966   2.331  1.00 20.00    -0.008 C 
HETATM    6  O10 UNL     1     -34.839   5.069   4.694  1.00 20.00    -0.391 OA
ENDROOT
BRANCH   5   7
HETATM    7  C8  UNL     1     -32.245   6.663   1.704  1.00 20.00     0.040 C 
BRANCH   7   8
HETATM    8  C9  UNL     1     -32.271   8.185   1.873  1.00 20.00     0.140 C 
BRANCH   8   9
HETATM    9  C2  UNL     1     -32.033   8.919   0.586  1.00 20.00    -0.006 C 
HETATM   10  C1  UNL     1     -32.537  10.127   0.310  1.00 20.00     0.009 C 
ENDBRANCH   8   9
BRANCH   8  11
HETATM   11  O11 UNL     1     -31.227   8.557   2.773  1.00 20.00    -0.392 OA
HETATM   12  H27 UNL     1     -31.458   9.435   3.112  1.00 20.00     0.210 HD
ENDBRANCH   8  11
ENDBRANCH   7   8
ENDBRANCH   5   7
TORSDOF 4
ENDMDL
MODEL 3
REMARK VINA RESULT:      -1.2      1.440      5.191
REMARK  4 active torsions:
REMARK  status: ('A' for Active; 'I' for Inactive)
REMARK    1  A    between atoms: C2_2  and  C9_9 
REMARK    2  A    between atoms: C7_7  and  C8_8 
REMARK    3  A    between atoms: C8_8  and  C9_9 
REMARK    4  A    between atoms: C9_9  and  O11_11 
ROOT
HETATM    1  C3  UNL     1     -33.282   8.042   3.211  1.00 20.00     0.031 C 
HETATM    2  C4  UNL     1     -33.021   6.175   1.556  1.00 20.00     0.031 C 
HETATM    3  C5  UNL     1     -31.993   8.627   2.648  1.00 20.00     0.168 C 
HETATM    4  C6  UNL     1     -31.746   6.865   1.084  1.00 20.00     0.168 C 
HETATM    5  C7  UNL     1     -33.315   6.521   3.019  1.00 20.00    -0.008 C 
HETATM    6  O10 UNL     1     -31.836   8.277   1.273  1.00 20.00    -0.391 OA
ENDROOT
BRANCH   5   7
HETATM    7  C8  UNL     1     -34.654   5.939   3.464  1.00 20.00     0.040 C 
BRANCH   7   8
HETATM    8  C9  UNL     1     -34.520   4.892   4.574  1.00 20.00     0.140 C 
BRANCH   8   9
HETATM    9  C2  UNL     1     -33.882   3.618   4.100  1.00 20.00    -0.006 C 
HETATM   10  C1  UNL     1     -33.095   2.850   4.860  1.00 20.00     0.009 C 
ENDBRANCH   8   9
BRANCH   8  11
HETATM   11  O11 UNL     1     -35.827   4.563   5.044  1.00 20.00    -0.392 OA
HETATM   12  H27 UNL     1     -36.421   4.645   4.283  1.00 20.00     0.210 HD
ENDBRANCH   8  11
ENDBRANCH   7   8
ENDBRANCH   5   7
TORSDOF 4
ENDMDL
MODEL 4
REMARK VINA RESULT:      -0.8      1.009      1.782
REMARK  4 active torsions:
REMARK  status: ('A' for Active; 'I' for Inactive)
REMARK    1  A    between atoms: C2_2  and  C9_9 
REMARK    2  A    between atoms: C7_7  and  C8_8 
REMARK    3  A    between atoms: C8_8  and  C9_9 
REMARK    4  A    between atoms: C9_9  and  O11_11 
ROOT
HETATM    1  C3  UNL     1     -34.768   7.031   4.073  1.00 20.00     0.031 C 
HETATM    2  C4  UNL     1     -32.994   5.380   3.425  1.00 20.00     0.031 C 
HETATM    3  C5  UNL     1     -35.730   5.854   4.171  1.00 20.00     0.168 C 
HETATM    4  C6  UNL     1     -34.054   4.294   3.560  1.00 20.00     0.168 C 
HETATM    5  C7  UNL     1     -33.640   6.727   3.081  1.00 20.00    -0.008 C 
HETATM    6  O10 UNL     1     -35.033   4.661   4.532  1.00 20.00    -0.391 OA
ENDROOT
BRANCH   5   7
HETATM    7  C8  UNL     1     -32.602   7.847   3.066  1.00 20.00     0.040 C 
BRANCH   7   8
HETATM    8  C9  UNL     1     -31.895   8.000   1.717  1.00 20.00     0.140 C 
BRANCH   8   9
HETATM    9  C2  UNL     1     -32.677   8.827   0.739  1.00 20.00    -0.006 C 
HETATM   10  C1  UNL     1     -32.341  10.069   0.373  1.00 20.00     0.009 C 
ENDBRANCH   8   9
BRANCH   8  11
HETATM   11  O11 UNL     1     -31.734   6.703   1.142  1.00 20.00    -0.392 OA
HETATM   12  H27 UNL     1     -30.815   6.442   1.308  1.00 20.00     0.210 HD
ENDBRANCH   8  11
ENDBRANCH   7   8
ENDBRANCH   5   7
TORSDOF 4
ENDMDL
MODEL 5
REMARK VINA RESULT:      -0.8      1.262      4.880
REMARK  4 active torsions:
REMARK  status: ('A' for Active; 'I' for Inactive)
REMARK    1  A    between atoms: C2_2  and  C9_9 
REMARK    2  A    between atoms: C7_7  and  C8_8 
REMARK    3  A    between atoms: C8_8  and  C9_9 
REMARK    4  A    between atoms: C9_9  and  O11_11 
ROOT
HETATM    1  C3  UNL     1     -32.969   6.662   1.891  1.00 20.00     0.031 C 
HETATM    2  C4  UNL     1     -33.358   7.640   4.168  1.00 20.00     0.031 C 
HETATM    3  C5  UNL     1     -31.939   7.763   1.671  1.00 20.00     0.168 C 
HETATM    4  C6  UNL     1     -32.305   8.686   3.822  1.00 20.00     0.168 C 
HETATM    5  C7  UNL     1     -34.034   7.111   2.898  1.00 20.00    -0.008 C 
HETATM    6  O10 UNL     1     -31.345   8.154   2.909  1.00 20.00    -0.391 OA
ENDROOT
BRANCH   5   7
HETATM    7  C8  UNL     1     -35.001   5.974   3.222  1.00 20.00     0.040 C 
BRANCH   7   8
HETATM    8  C9  UNL     1     -34.531   5.093   4.382  1.00 20.00     0.140 C 
BRANCH   8   9
HETATM    9  C2  UNL     1     -33.775   3.880   3.926  1.00 20.00    -0.006 C 
HETATM   10  C1  UNL     1     -33.216   2.992   4.755  1.00 20.00     0.009 C 
ENDBRANCH   8   9
BRANCH   8  11
HETATM   11  O11 UNL     1     -35.681   4.633   5.093  1.00 20.00    -0.392 OA
HETATM   12  H27 UNL     1     -35.929   5.345   5.702  1.00 20.00     0.210 HD
ENDBRANCH   8  11
ENDBRANCH   7   8
ENDBRANCH   5   7
TORSDOF 4
ENDMDL
MODEL 6
REMARK VINA RESULT:      -0.2      1.209      1.230
REMARK  4 active torsions:
REMARK  status: ('A' for Active; 'I' for Inactive)
REMARK    1  A    between atoms: C2_2  and  C9_9 
REMARK    2  A    between atoms: C7_7  and  C8_8 
REMARK    3  A    between atoms: C8_8  and  C9_9 
REMARK    4  A    between atoms: C9_9  and  O11_11 
ROOT
HETATM    1  C3  UNL     1     -33.609   5.371   2.443  1.00 20.00     0.031 C 
HETATM    2  C4  UNL     1     -33.847   7.759   3.174  1.00 20.00     0.031 C 
HETATM    3  C5  UNL     1     -34.252   4.974   3.766  1.00 20.00     0.168 C 
HETATM    4  C6  UNL     1     -34.479   7.229   4.457  1.00 20.00     0.168 C 
HETATM    5  C7  UNL     1     -32.894   6.721   2.572  1.00 20.00    -0.008 C 
HETATM    6  O10 UNL     1     -35.147   5.991   4.217  1.00 20.00    -0.391 OA
ENDROOT
BRANCH   5   7
HETATM    7  C8  UNL     1     -32.352   7.188   1.223  1.00 20.00     0.040 C 
BRANCH   7   8
HETATM    8  C9  UNL     1     -31.770   8.604   1.263  1.00 20.00     0.140 C 
BRANCH   8   9
HETATM    9  C2  UNL     1     -32.734   9.645   0.772  1.00 20.00    -0.006 C 
HETATM   10  C1  UNL     1     -32.750  10.119  -0.478  1.00 20.00     0.009 C 
ENDBRANCH   8   9
BRANCH   8  11
HETATM   11  O11 UNL     1     -30.628   8.646   0.408  1.00 20.00    -0.392 OA
HETATM   12  H27 UNL     1     -30.180   9.486   0.591  1.00 20.00     0.210 HD
ENDBRANCH   8  11
ENDBRANCH   7   8
ENDBRANCH   5   7
TORSDOF 4
ENDMDL
MODEL 7
REMARK VINA RESULT:       0.3      1.878      5.316
REMARK  4 active torsions:
REMARK  status: ('A' for Active; 'I' for Inactive)
REMARK    1  A    between atoms: C2_2  and  C9_9 
REMARK    2  A    between atoms: C7_7  and  C8_8 
REMARK    3  A    between atoms: C8_8  and  C9_9 
REMARK    4  A    between atoms: C9_9  and  O11_11 
ROOT
HETATM    1  C3  UNL     1     -33.081   9.811   1.526  1.00 20.00     0.031 C 
HETATM    2  C4  UNL     1     -31.709   8.140   0.254  1.00 20.00     0.031 C 
HETATM    3  C5  UNL     1     -32.898  10.756   0.346  1.00 20.00     0.168 C 
HETATM    4  C6  UNL     1     -31.603   9.178  -0.857  1.00 20.00     0.168 C 
HETATM    5  C7  UNL     1     -31.915   8.820   1.612  1.00 20.00    -0.008 C 
HETATM    6  O10 UNL     1     -32.754  10.023  -0.871  1.00 20.00    -0.391 OA
ENDROOT
BRANCH   5   7
HETATM    7  C8  UNL     1     -32.149   7.788   2.714  1.00 20.00     0.040 C 
BRANCH   7   8
HETATM    8  C9  UNL     1     -33.474   7.036   2.568  1.00 20.00     0.140 C 
BRANCH   8   9
HETATM    9  C2  UNL     1     -34.273   7.009   3.838  1.00 20.00    -0.006 C 
HETATM   10  C1  UNL     1     -35.314   6.196   4.049  1.00 20.00     0.009 C 
ENDBRANCH   8   9
BRANCH   8  11
HETATM   11  O11 UNL     1     -33.189   5.682   2.216  1.00 20.00    -0.392 OA
HETATM   12  H27 UNL     1     -34.044   5.245   2.094  1.00 20.00     0.210 HD
ENDBRANCH   8  11
ENDBRANCH   7   8
ENDBRANCH   5   7
TORSDOF 4
ENDMDL
MODEL 8
REMARK VINA RESULT:       0.3      1.332      4.754
REMARK  4 active torsions:
REMARK  status: ('A' for Active; 'I' for Inactive)
REMARK    1  A    between atoms: C2_2  and  C9_9 
REMARK    2  A    between atoms: C7_7  and  C8_8 
REMARK    3  A    between atoms: C8_8  and  C9_9 
REMARK    4  A    between atoms: C9_9  and  O11_11 
ROOT
HETATM    1  C3  UNL     1     -32.984   5.973   2.340  1.00 20.00     0.031 C 
HETATM    2  C4  UNL     1     -32.570   8.388   2.880  1.00 20.00     0.031 C 
HETATM    3  C5  UNL     1     -32.322   6.233   0.993  1.00 20.00     0.168 C 
HETATM    4  C6  UNL     1     -31.930   8.513   1.502  1.00 20.00     0.168 C 
HETATM    5  C7  UNL     1     -33.607   7.259   2.894  1.00 20.00    -0.008 C 
HETATM    6  O10 UNL     1     -31.349   7.273   1.100  1.00 20.00    -0.391 OA
ENDROOT
BRANCH   5   7
HETATM    7  C8  UNL     1     -34.164   7.041   4.299  1.00 20.00     0.040 C 
BRANCH   7   8
HETATM    8  C9  UNL     1     -35.163   5.885   4.381  1.00 20.00     0.140 C 
BRANCH   8   9
HETATM    9  C2  UNL     1     -34.568   4.569   3.972  1.00 20.00    -0.006 C 
HETATM   10  C1  UNL     1     -33.859   3.783   4.790  1.00 20.00     0.009 C 
ENDBRANCH   8   9
BRANCH   8  11
HETATM   11  O11 UNL     1     -36.244   6.157   3.488  1.00 20.00    -0.392 OA
HETATM   12  H27 UNL     1     -35.902   6.777   2.827  1.00 20.00     0.210 HD
ENDBRANCH   8  11
ENDBRANCH   7   8
ENDBRANCH   5   7
TORSDOF 4
ENDMDL
MODEL 9
REMARK VINA RESULT:       1.0      1.418      4.920
REMARK  4 active torsions:
REMARK  status: ('A' for Active; 'I' for Inactive)
REMARK    1  A    between atoms: C2_2  and  C9_9 
REMARK    2  A    between atoms: C7_7  and  C8_8 
REMARK    3  A    between atoms: C8_8  and  C9_9 
REMARK    4  A    between atoms: C9_9  and  O11_11 
ROOT
HETATM    1  C3  UNL     1     -31.794   7.280   1.970  1.00 20.00     0.031 C 
HETATM    2  C4  UNL     1     -33.153   9.388   2.029  1.00 20.00     0.031 C 
HETATM    3  C5  UNL     1     -31.407   7.653   0.544  1.00 20.00     0.168 C 
HETATM    4  C6  UNL     1     -32.690   9.644   0.600  1.00 20.00     0.168 C 
HETATM    5  C7  UNL     1     -33.152   7.887   2.338  1.00 20.00    -0.008 C 
HETATM    6  O10 UNL     1     -31.402   9.070   0.375  1.00 20.00    -0.391 OA
ENDROOT
BRANCH   5   7
HETATM    7  C8  UNL     1     -33.493   7.626   3.803  1.00 20.00     0.040 C 
BRANCH   7   8
HETATM    8  C9  UNL     1     -34.486   6.477   3.999  1.00 20.00     0.140 C 
BRANCH   8   9
HETATM    9  C2  UNL     1     -33.971   5.166   3.480  1.00 20.00    -0.006 C 
HETATM   10  C1  UNL     1     -33.994   4.026   4.177  1.00 20.00     0.009 C 
ENDBRANCH   8   9
BRANCH   8  11
HETATM   11  O11 UNL     1     -35.678   6.782   3.275  1.00 20.00    -0.392 OA
HETATM   12  H27 UNL     1     -35.399   7.036   2.383  1.00 20.00     0.210 HD
ENDBRANCH   8  11
ENDBRANCH   7   8
ENDBRANCH   5   7
TORSDOF 4
ENDMDL
