MODEL 1
REMARK VINA RESULT:       1.6      0.000      0.000
REMARK  0 active torsions:
REMARK  status: ('A' for Active; 'I' for Inactive)
ROOT
HETATM    1  C1  UNL     1     -32.419   9.172   0.591  1.00 20.00    -0.028 C 
HETATM    2  C2  UNL     1     -32.949   9.358   1.806  1.00 20.00    -0.014 C 
HETATM    3  C3  UNL     1     -31.405   8.068   0.600  1.00 20.00     0.043 C 
HETATM    4  C4  UNL     1     -34.468   6.764   3.499  1.00 20.00     0.084 C 
HETATM    5  C5  UNL     1     -33.675   5.573   3.001  1.00 20.00     0.084 C 
HETATM    6  C6  UNL     1     -32.322   8.423   2.795  1.00 20.00     0.083 C 
HETATM    7  C7  UNL     1     -31.759   7.305   1.896  1.00 20.00     0.068 C 
HETATM    8  S8  UNL     1     -33.389   8.034   4.200  1.00 20.00    -0.158 SA
HETATM    9  S9  UNL     1     -32.887   5.935   1.415  1.00 20.00    -0.162 SA
ENDROOT
TORSDOF 0
ENDMDL
MODEL 2
REMARK VINA RESULT:       2.4      1.852      3.188
REMARK  0 active torsions:
REMARK  status: ('A' for Active; 'I' for Inactive)
ROOT
HETATM    1  C1  UNL     1     -33.164   8.002   5.065  1.00 20.00    -0.028 C 
HETATM    2  C2  UNL     1     -32.370   8.354   4.047  1.00 20.00    -0.014 C 
HETATM    3  C3  UNL     1     -34.487   7.493   4.576  1.00 20.00     0.043 C 
HETATM    4  C4  UNL     1     -31.594   6.115   1.540  1.00 20.00     0.084 C 
HETATM    5  C5  UNL     1     -32.850   5.269   1.493  1.00 20.00     0.084 C 
HETATM    6  C6  UNL     1     -33.082   8.163   2.742  1.00 20.00     0.083 C 
HETATM    7  C7  UNL     1     -34.182   7.146   3.102  1.00 20.00     0.068 C 
HETATM    8  S8  UNL     1     -31.971   7.873   1.347  1.00 20.00    -0.158 SA
HETATM    9  S9  UNL     1     -33.753   5.359   3.055  1.00 20.00    -0.162 SA
ENDROOT
TORSDOF 0
ENDMDL
MODEL 3
REMARK VINA RESULT:       3.1      1.358      3.726
REMARK  0 active torsions:
REMARK  status: ('A' for Active; 'I' for Inactive)
ROOT
HETATM    1  C1  UNL     1     -35.241   6.866   3.966  1.00 20.00    -0.028 C 
HETATM    2  C2  UNL     1     -34.721   5.891   3.212  1.00 20.00    -0.014 C 
HETATM    3  C3  UNL     1     -34.168   7.668   4.640  1.00 20.00     0.043 C 
HETATM    4  C4  UNL     1     -32.439   6.596   0.722  1.00 20.00     0.084 C 
HETATM    5  C5  UNL     1     -31.733   7.808   1.295  1.00 20.00     0.084 C 
HETATM    6  C6  UNL     1     -33.226   5.892   3.318  1.00 20.00     0.083 C 
HETATM    7  C7  UNL     1     -32.921   7.326   3.794  1.00 20.00     0.068 C 
HETATM    8  S8  UNL     1     -32.396   5.199   1.870  1.00 20.00    -0.158 SA
HETATM    9  S9  UNL     1     -32.766   8.643   2.520  1.00 20.00    -0.162 SA
ENDROOT
TORSDOF 0
ENDMDL
MODEL 4
REMARK VINA RESULT:       3.4      1.124      2.584
REMARK  0 active torsions:
REMARK  status: ('A' for Active; 'I' for Inactive)
ROOT
HETATM    1  C1  UNL     1     -31.268   7.942   1.914  1.00 20.00    -0.028 C 
HETATM    2  C2  UNL     1     -31.524   6.650   1.679  1.00 20.00    -0.014 C 
HETATM    3  C3  UNL     1     -32.527   8.756   1.922  1.00 20.00     0.043 C 
HETATM    4  C4  UNL     1     -33.719   4.882   3.669  1.00 20.00     0.084 C 
HETATM    5  C5  UNL     1     -34.695   5.965   4.078  1.00 20.00     0.084 C 
HETATM    6  C6  UNL     1     -32.992   6.442   1.458  1.00 20.00     0.083 C 
HETATM    7  C7  UNL     1     -33.614   7.680   2.133  1.00 20.00     0.068 C 
HETATM    8  S8  UNL     1     -33.558   4.777   1.871  1.00 20.00    -0.158 SA
HETATM    9  S9  UNL     1     -33.943   7.603   3.940  1.00 20.00    -0.162 SA
ENDROOT
TORSDOF 0
ENDMDL
MODEL 5
REMARK VINA RESULT:       3.5      1.713      3.169
REMARK  0 active torsions:
REMARK  status: ('A' for Active; 'I' for Inactive)
ROOT
HETATM    1  C1  UNL     1     -32.477   4.462   2.192  1.00 20.00    -0.028 C 
HETATM    2  C2  UNL     1     -33.232   4.901   3.205  1.00 20.00    -0.014 C 
HETATM    3  C3  UNL     1     -32.604   5.349   0.990  1.00 20.00     0.043 C 
HETATM    4  C4  UNL     1     -32.879   8.108   4.426  1.00 20.00     0.084 C 
HETATM    5  C5  UNL     1     -32.465   8.861   3.178  1.00 20.00     0.084 C 
HETATM    6  C6  UNL     1     -33.996   6.123   2.794  1.00 20.00     0.083 C 
HETATM    7  C7  UNL     1     -33.176   6.649   1.600  1.00 20.00     0.068 C 
HETATM    8  S8  UNL     1     -34.426   7.206   4.174  1.00 20.00    -0.158 SA
HETATM    9  S9  UNL     1     -31.743   7.744   1.955  1.00 20.00    -0.162 SA
ENDROOT
TORSDOF 0
ENDMDL
MODEL 6
REMARK VINA RESULT:       3.6      2.040      2.435
REMARK  0 active torsions:
REMARK  status: ('A' for Active; 'I' for Inactive)
ROOT
HETATM    1  C1  UNL     1     -32.791   5.863   0.724  1.00 20.00    -0.028 C 
HETATM    2  C2  UNL     1     -33.361   6.863   1.407  1.00 20.00    -0.014 C 
HETATM    3  C3  UNL     1     -32.014   4.956   1.630  1.00 20.00     0.043 C 
HETATM    4  C4  UNL     1     -35.475   6.226   4.058  1.00 20.00     0.084 C 
HETATM    5  C5  UNL     1     -34.894   4.938   4.603  1.00 20.00     0.084 C 
HETATM    6  C6  UNL     1     -33.002   6.773   2.859  1.00 20.00     0.083 C 
HETATM    7  C7  UNL     1     -32.603   5.293   3.017  1.00 20.00     0.068 C 
HETATM    8  S8  UNL     1     -34.223   7.527   3.955  1.00 20.00    -0.158 SA
HETATM    9  S9  UNL     1     -33.937   4.070   3.339  1.00 20.00    -0.162 SA
ENDROOT
TORSDOF 0
ENDMDL
MODEL 7
REMARK VINA RESULT:       3.9      1.272      3.715
REMARK  0 active torsions:
REMARK  status: ('A' for Active; 'I' for Inactive)
ROOT
HETATM    1  C1  UNL     1     -33.624   3.972   3.932  1.00 20.00    -0.028 C 
HETATM    2  C2  UNL     1     -34.010   5.126   4.489  1.00 20.00    -0.014 C 
HETATM    3  C3  UNL     1     -33.727   4.026   2.437  1.00 20.00     0.043 C 
HETATM    4  C4  UNL     1     -32.528   8.112   3.600  1.00 20.00     0.084 C 
HETATM    5  C5  UNL     1     -32.170   7.851   2.151  1.00 20.00     0.084 C 
HETATM    6  C6  UNL     1     -34.460   6.089   3.433  1.00 20.00     0.083 C 
HETATM    7  C7  UNL     1     -33.775   5.545   2.164  1.00 20.00     0.068 C 
HETATM    8  S8  UNL     1     -34.286   7.822   3.912  1.00 20.00    -0.158 SA
HETATM    9  S9  UNL     1     -32.049   6.078   1.821  1.00 20.00    -0.162 SA
ENDROOT
TORSDOF 0
ENDMDL
MODEL 8
REMARK VINA RESULT:       4.0      1.963      3.328
REMARK  0 active torsions:
REMARK  status: ('A' for Active; 'I' for Inactive)
ROOT
HETATM    1  C1  UNL     1     -34.805   8.017   4.304  1.00 20.00    -0.028 C 
HETATM    2  C2  UNL     1     -34.855   6.711   4.015  1.00 20.00    -0.014 C 
HETATM    3  C3  UNL     1     -33.389   8.494   4.433  1.00 20.00     0.043 C 
HETATM    4  C4  UNL     1     -33.228   5.437   1.253  1.00 20.00     0.084 C 
HETATM    5  C5  UNL     1     -32.038   6.369   1.147  1.00 20.00     0.084 C 
HETATM    6  C6  UNL     1     -33.472   6.138   3.955  1.00 20.00     0.083 C 
HETATM    7  C7  UNL     1     -32.600   7.383   3.706  1.00 20.00     0.068 C 
HETATM    8  S8  UNL     1     -33.337   4.683   2.893  1.00 20.00    -0.158 SA
HETATM    9  S9  UNL     1     -32.372   7.943   1.970  1.00 20.00    -0.162 SA
ENDROOT
TORSDOF 0
ENDMDL
MODEL 9
REMARK VINA RESULT:       4.1      1.665      3.812
REMARK  0 active torsions:
REMARK  status: ('A' for Active; 'I' for Inactive)
ROOT
HETATM    1  C1  UNL     1     -33.522   6.293   2.411  1.00 20.00    -0.028 C 
HETATM    2  C2  UNL     1     -32.698   6.428   1.365  1.00 20.00    -0.014 C 
HETATM    3  C3  UNL     1     -33.238   7.319   3.466  1.00 20.00     0.043 C 
HETATM    4  C4  UNL     1     -32.462   9.418  -0.339  1.00 20.00     0.084 C 
HETATM    5  C5  UNL     1     -32.735  10.418   0.767  1.00 20.00     0.084 C 
HETATM    6  C6  UNL     1     -31.726   7.542   1.608  1.00 20.00     0.083 C 
HETATM    7  C7  UNL     1     -32.440   8.385   2.683  1.00 20.00     0.068 C 
HETATM    8  S8  UNL     1     -31.104   8.305   0.093  1.00 20.00    -0.158 SA
HETATM    9  S9  UNL     1     -33.650   9.651   2.124  1.00 20.00    -0.162 SA
ENDROOT
TORSDOF 0
ENDMDL
