MODEL 1
REMARK VINA RESULT:       0.7      0.000      0.000
REMARK  2 active torsions:
REMARK  status: ('A' for Active; 'I' for Inactive)
REMARK    1  A    between atoms: C7_7  and  C9_9 
REMARK    2  A    between atoms: C8_8  and  C10_10 
ROOT
HETATM    1  C1  UNL     1     -31.293   6.762   1.950  1.00 20.00     0.005 C 
HETATM    2  C2  UNL     1     -32.434   6.017   1.203  1.00 20.00     0.005 C 
HETATM    3  C3  UNL     1     -32.846   8.067   3.385  1.00 20.00     0.005 C 
HETATM    4  C4  UNL     1     -33.867   6.963   2.999  1.00 20.00     0.005 C 
HETATM    5  C7  UNL     1     -31.770   8.204   2.286  1.00 20.00    -0.010 C 
HETATM    6  C8  UNL     1     -33.785   6.715   1.464  1.00 20.00    -0.010 C 
ENDROOT
BRANCH   5   7
HETATM    7  C9  UNL     1     -32.365   8.708   0.965  1.00 20.00    -0.006 C 
HETATM    8  C5  UNL     1     -31.987   9.067  -0.500  1.00 20.00     0.006 C 
HETATM    9  C6  UNL     1     -33.123  10.169  -0.335  1.00 20.00     0.006 C 
HETATM   10  C10 UNL     1     -32.582  10.259   1.120  1.00 20.00    -0.006 C 
ENDBRANCH   5   7
TORSDOF 2
ENDMDL
MODEL 2
REMARK VINA RESULT:       1.9      1.510      3.766
REMARK  2 active torsions:
REMARK  status: ('A' for Active; 'I' for Inactive)
REMARK    1  A    between atoms: C7_7  and  C9_9 
REMARK    2  A    between atoms: C8_8  and  C10_10 
ROOT
HETATM    1  C1  UNL     1     -31.751   7.642   1.743  1.00 20.00     0.005 C 
HETATM    2  C2  UNL     1     -32.888   7.908   0.718  1.00 20.00     0.005 C 
HETATM    3  C3  UNL     1     -32.070   5.178   1.724  1.00 20.00     0.005 C 
HETATM    4  C4  UNL     1     -32.793   5.448   0.377  1.00 20.00     0.005 C 
HETATM    5  C7  UNL     1     -32.147   6.426   2.630  1.00 20.00    -0.010 C 
HETATM    6  C8  UNL     1     -33.767   6.649   0.561  1.00 20.00    -0.010 C 
ENDROOT
BRANCH   5   7
HETATM    7  C9  UNL     1     -33.590   6.737   3.051  1.00 20.00    -0.006 C 
HETATM    8  C5  UNL     1     -34.425   7.509   4.110  1.00 20.00     0.006 C 
HETATM    9  C6  UNL     1     -35.441   6.296   3.932  1.00 20.00     0.006 C 
HETATM   10  C10 UNL     1     -34.141   5.456   3.780  1.00 20.00    -0.006 C 
ENDBRANCH   5   7
TORSDOF 2
ENDMDL
MODEL 3
REMARK VINA RESULT:       2.4      2.397      4.888
REMARK  2 active torsions:
REMARK  status: ('A' for Active; 'I' for Inactive)
REMARK    1  A    between atoms: C7_7  and  C9_9 
REMARK    2  A    between atoms: C8_8  and  C10_10 
ROOT
HETATM    1  C1  UNL     1     -33.587   6.525   1.856  1.00 20.00     0.005 C 
HETATM    2  C2  UNL     1     -32.490   7.243   2.689  1.00 20.00     0.005 C 
HETATM    3  C3  UNL     1     -35.274   6.608   3.679  1.00 20.00     0.005 C 
HETATM    4  C4  UNL     1     -34.366   7.734   4.244  1.00 20.00     0.005 C 
HETATM    5  C7  UNL     1     -34.443   5.641   2.808  1.00 20.00    -0.010 C 
HETATM    6  C8  UNL     1     -32.883   7.264   4.182  1.00 20.00    -0.010 C 
ENDROOT
BRANCH   5   7
HETATM    7  C9  UNL     1     -33.399   4.881   3.637  1.00 20.00    -0.006 C 
HETATM    8  C5  UNL     1     -32.323   3.763   3.539  1.00 20.00     0.006 C 
HETATM    9  C6  UNL     1     -32.767   3.452   5.035  1.00 20.00     0.006 C 
HETATM   10  C10 UNL     1     -34.181   3.833   4.512  1.00 20.00    -0.006 C 
ENDBRANCH   5   7
TORSDOF 2
ENDMDL
MODEL 4
REMARK VINA RESULT:       2.7      2.078      4.654
REMARK  2 active torsions:
REMARK  status: ('A' for Active; 'I' for Inactive)
REMARK    1  A    between atoms: C7_7  and  C9_9 
REMARK    2  A    between atoms: C8_8  and  C10_10 
ROOT
HETATM    1  C1  UNL     1     -34.259   6.127   1.355  1.00 20.00     0.005 C 
HETATM    2  C2  UNL     1     -32.807   5.722   0.977  1.00 20.00     0.005 C 
HETATM    3  C3  UNL     1     -33.548   7.605   3.221  1.00 20.00     0.005 C 
HETATM    4  C4  UNL     1     -32.175   7.584   2.497  1.00 20.00     0.005 C 
HETATM    5  C7  UNL     1     -34.342   6.321   2.896  1.00 20.00    -0.010 C 
HETATM    6  C8  UNL     1     -31.834   6.115   2.108  1.00 20.00    -0.010 C 
ENDROOT
BRANCH   5   7
HETATM    7  C9  UNL     1     -33.656   5.069   3.458  1.00 20.00    -0.006 C 
HETATM    8  C5  UNL     1     -33.458   3.549   3.196  1.00 20.00     0.006 C 
HETATM    9  C6  UNL     1     -33.448   3.458   4.785  1.00 20.00     0.006 C 
HETATM   10  C10 UNL     1     -34.516   4.583   4.683  1.00 20.00    -0.006 C 
ENDBRANCH   5   7
TORSDOF 2
ENDMDL
MODEL 5
REMARK VINA RESULT:       2.8      1.200      3.647
REMARK  2 active torsions:
REMARK  status: ('A' for Active; 'I' for Inactive)
REMARK    1  A    between atoms: C7_7  and  C9_9 
REMARK    2  A    between atoms: C8_8  and  C10_10 
ROOT
HETATM    1  C1  UNL     1     -31.453   6.351   1.704  1.00 20.00     0.005 C 
HETATM    2  C2  UNL     1     -31.201   7.884   1.697  1.00 20.00     0.005 C 
HETATM    3  C3  UNL     1     -33.521   6.507   0.337  1.00 20.00     0.005 C 
HETATM    4  C4  UNL     1     -32.954   7.897  -0.063  1.00 20.00     0.005 C 
HETATM    5  C7  UNL     1     -32.987   6.093   1.725  1.00 20.00    -0.010 C 
HETATM    6  C8  UNL     1     -32.466   8.629   1.220  1.00 20.00    -0.010 C 
ENDROOT
BRANCH   5   7
HETATM    7  C9  UNL     1     -33.498   7.024   2.833  1.00 20.00    -0.006 C 
HETATM    8  C5  UNL     1     -33.136   7.581   4.238  1.00 20.00     0.006 C 
HETATM    9  C6  UNL     1     -34.711   7.538   4.464  1.00 20.00     0.006 C 
HETATM   10  C10 UNL     1     -34.624   6.244   3.606  1.00 20.00    -0.006 C 
ENDBRANCH   5   7
TORSDOF 2
ENDMDL
MODEL 6
REMARK VINA RESULT:       2.9      1.850      3.590
REMARK  2 active torsions:
REMARK  status: ('A' for Active; 'I' for Inactive)
REMARK    1  A    between atoms: C7_7  and  C9_9 
REMARK    2  A    between atoms: C8_8  and  C10_10 
ROOT
HETATM    1  C1  UNL     1     -33.569   6.829   0.404  1.00 20.00     0.005 C 
HETATM    2  C2  UNL     1     -33.428   5.304   0.665  1.00 20.00     0.005 C 
HETATM    3  C3  UNL     1     -31.603   7.430   1.798  1.00 20.00     0.005 C 
HETATM    4  C4  UNL     1     -31.214   5.939   1.600  1.00 20.00     0.005 C 
HETATM    5  C7  UNL     1     -33.133   7.602   1.682  1.00 20.00    -0.010 C 
HETATM    6  C8  UNL     1     -32.470   5.055   1.850  1.00 20.00    -0.010 C 
ENDROOT
BRANCH   5   7
HETATM    7  C9  UNL     1     -33.875   6.881   2.814  1.00 20.00    -0.006 C 
HETATM    8  C5  UNL     1     -35.301   6.553   3.340  1.00 20.00     0.006 C 
HETATM    9  C6  UNL     1     -34.609   6.678   4.768  1.00 20.00     0.006 C 
HETATM   10  C10 UNL     1     -33.794   7.810   4.082  1.00 20.00    -0.006 C 
ENDBRANCH   5   7
TORSDOF 2
ENDMDL
MODEL 7
REMARK VINA RESULT:       2.9      1.097      3.745
REMARK  2 active torsions:
REMARK  status: ('A' for Active; 'I' for Inactive)
REMARK    1  A    between atoms: C7_7  and  C9_9 
REMARK    2  A    between atoms: C8_8  and  C10_10 
ROOT
HETATM    1  C1  UNL     1     -31.062   8.030   2.608  1.00 20.00     0.005 C 
HETATM    2  C2  UNL     1     -31.737   9.428   2.686  1.00 20.00     0.005 C 
HETATM    3  C3  UNL     1     -32.195   7.406   0.487  1.00 20.00     0.005 C 
HETATM    4  C4  UNL     1     -32.414   8.937   0.346  1.00 20.00     0.005 C 
HETATM    5  C7  UNL     1     -32.065   7.022   1.977  1.00 20.00    -0.010 C 
HETATM    6  C8  UNL     1     -32.925   9.500   1.704  1.00 20.00    -0.010 C 
ENDROOT
BRANCH   5   7
HETATM    7  C9  UNL     1     -33.368   7.273   2.747  1.00 20.00    -0.006 C 
HETATM    8  C5  UNL     1     -33.916   7.664   4.148  1.00 20.00     0.006 C 
HETATM    9  C6  UNL     1     -35.114   6.694   3.753  1.00 20.00     0.006 C 
HETATM   10  C10 UNL     1     -33.989   5.865   3.072  1.00 20.00    -0.006 C 
ENDBRANCH   5   7
TORSDOF 2
ENDMDL
MODEL 8
REMARK VINA RESULT:       3.2      2.079      3.497
REMARK  2 active torsions:
REMARK  status: ('A' for Active; 'I' for Inactive)
REMARK    1  A    between atoms: C7_7  and  C9_9 
REMARK    2  A    between atoms: C8_8  and  C10_10 
ROOT
HETATM    1  C1  UNL     1     -34.086   8.359   4.071  1.00 20.00     0.005 C 
HETATM    2  C2  UNL     1     -33.382   7.350   5.020  1.00 20.00     0.005 C 
HETATM    3  C3  UNL     1     -35.549   6.638   3.038  1.00 20.00     0.005 C 
HETATM    4  C4  UNL     1     -35.207   5.819   4.313  1.00 20.00     0.005 C 
HETATM    5  C7  UNL     1     -34.418   7.643   2.731  1.00 20.00    -0.010 C 
HETATM    6  C8  UNL     1     -33.674   5.903   4.569  1.00 20.00    -0.010 C 
ENDROOT
BRANCH   5   7
HETATM    7  C9  UNL     1     -33.108   6.932   2.364  1.00 20.00    -0.006 C 
HETATM    8  C5  UNL     1     -31.760   7.140   1.618  1.00 20.00     0.006 C 
HETATM    9  C6  UNL     1     -31.922   5.596   1.265  1.00 20.00     0.006 C 
HETATM   10  C10 UNL     1     -33.433   5.954   1.175  1.00 20.00    -0.006 C 
ENDBRANCH   5   7
TORSDOF 2
ENDMDL
MODEL 9
REMARK VINA RESULT:       3.4      1.610      2.970
REMARK  2 active torsions:
REMARK  status: ('A' for Active; 'I' for Inactive)
REMARK    1  A    between atoms: C7_7  and  C9_9 
REMARK    2  A    between atoms: C8_8  and  C10_10 
ROOT
HETATM    1  C1  UNL     1     -34.503   5.575   4.082  1.00 20.00     0.005 C 
HETATM    2  C2  UNL     1     -35.585   6.511   3.474  1.00 20.00     0.005 C 
HETATM    3  C3  UNL     1     -33.048   7.447   4.823  1.00 20.00     0.005 C 
HETATM    4  C4  UNL     1     -34.344   8.292   4.684  1.00 20.00     0.005 C 
HETATM    5  C7  UNL     1     -33.105   6.226   3.880  1.00 20.00    -0.010 C 
HETATM    6  C8  UNL     1     -35.029   7.944   3.331  1.00 20.00    -0.010 C 
ENDROOT
BRANCH   5   7
HETATM    7  C9  UNL     1     -33.107   6.645   2.404  1.00 20.00    -0.006 C 
HETATM    8  C5  UNL     1     -32.727   6.147   0.981  1.00 20.00     0.006 C 
HETATM    9  C6  UNL     1     -32.388   7.682   0.729  1.00 20.00     0.006 C 
HETATM   10  C10 UNL     1     -31.903   7.638   2.206  1.00 20.00    -0.006 C 
ENDBRANCH   5   7
TORSDOF 2
ENDMDL
