MODEL 1
REMARK VINA RESULT:       3.4      0.000      0.000
REMARK  0 active torsions:
REMARK  status: ('A' for Active; 'I' for Inactive)
ROOT
HETATM    1  C1  UNL     1     -34.450   7.017   4.253  1.00 20.00     0.141 C 
HETATM    2  C2  UNL     1     -35.304   5.796   4.513  1.00 20.00     0.079 C 
HETATM    3  C3  UNL     1     -34.496   4.530   4.291  1.00 20.00     0.008 C 
HETATM    4  C4  UNL     1     -33.877   4.511   2.895  1.00 20.00     0.017 C 
HETATM    5  C5  UNL     1     -31.939   8.342   1.200  1.00 20.00     0.085 C 
HETATM    6  C6  UNL     1     -31.191   7.039   0.976  1.00 20.00     0.084 C 
HETATM    7  C7  UNL     1     -33.715   7.049   2.908  1.00 20.00     0.130 C 
HETATM    8  C8  UNL     1     -32.962   5.728   2.681  1.00 20.00     0.068 C 
HETATM    9  O9  UNL     1     -34.457   7.953   5.053  1.00 20.00    -0.297 OA
HETATM   10  S10 UNL     1     -32.585   8.488   2.889  1.00 20.00    -0.155 SA
HETATM   11  S11 UNL     1     -32.294   5.598   0.978  1.00 20.00    -0.162 SA
ENDROOT
TORSDOF 0
ENDMDL
MODEL 2
REMARK VINA RESULT:       4.3      1.550      2.706
REMARK  0 active torsions:
REMARK  status: ('A' for Active; 'I' for Inactive)
ROOT
HETATM    1  C1  UNL     1     -33.847   4.621   3.354  1.00 20.00     0.141 C 
HETATM    2  C2  UNL     1     -34.732   4.737   4.574  1.00 20.00     0.079 C 
HETATM    3  C3  UNL     1     -35.588   5.988   4.488  1.00 20.00     0.008 C 
HETATM    4  C4  UNL     1     -34.726   7.231   4.285  1.00 20.00     0.017 C 
HETATM    5  C5  UNL     1     -31.207   7.109   1.299  1.00 20.00     0.085 C 
HETATM    6  C6  UNL     1     -32.077   8.354   1.282  1.00 20.00     0.084 C 
HETATM    7  C7  UNL     1     -33.005   5.856   3.014  1.00 20.00     0.130 C 
HETATM    8  C8  UNL     1     -33.885   7.115   3.002  1.00 20.00     0.068 C 
HETATM    9  O9  UNL     1     -33.760   3.546   2.759  1.00 20.00    -0.297 OA
HETATM   10  S10 UNL     1     -32.184   5.583   1.402  1.00 20.00    -0.155 SA
HETATM   11  S11 UNL     1     -32.893   8.651   2.875  1.00 20.00    -0.162 SA
ENDROOT
TORSDOF 0
ENDMDL
MODEL 3
REMARK VINA RESULT:       4.6      1.864      3.798
REMARK  0 active torsions:
REMARK  status: ('A' for Active; 'I' for Inactive)
ROOT
HETATM    1  C1  UNL     1     -32.338   7.864   1.911  1.00 20.00     0.141 C 
HETATM    2  C2  UNL     1     -31.212   7.211   1.141  1.00 20.00     0.079 C 
HETATM    3  C3  UNL     1     -31.668   5.882   0.565  1.00 20.00     0.008 C 
HETATM    4  C4  UNL     1     -32.220   4.970   1.658  1.00 20.00     0.017 C 
HETATM    5  C5  UNL     1     -35.010   6.712   4.898  1.00 20.00     0.085 C 
HETATM    6  C6  UNL     1     -35.398   5.366   4.311  1.00 20.00     0.084 C 
HETATM    7  C7  UNL     1     -33.017   6.994   2.975  1.00 20.00     0.130 C 
HETATM    8  C8  UNL     1     -33.405   5.631   2.382  1.00 20.00     0.068 C 
HETATM    9  O9  UNL     1     -32.591   9.056   1.736  1.00 20.00    -0.297 OA
HETATM   10  S10 UNL     1     -34.472   7.892   3.628  1.00 20.00    -0.155 SA
HETATM   11  S11 UNL     1     -33.969   4.452   3.668  1.00 20.00    -0.162 SA
ENDROOT
TORSDOF 0
ENDMDL
MODEL 4
REMARK VINA RESULT:       4.8      2.238      4.556
REMARK  0 active torsions:
REMARK  status: ('A' for Active; 'I' for Inactive)
ROOT
HETATM    1  C1  UNL     1     -32.101   5.820   1.429  1.00 20.00     0.141 C 
HETATM    2  C2  UNL     1     -31.591   7.022   0.667  1.00 20.00     0.079 C 
HETATM    3  C3  UNL     1     -31.412   8.204   1.603  1.00 20.00     0.008 C 
HETATM    4  C4  UNL     1     -32.704   8.508   2.357  1.00 20.00     0.017 C 
HETATM    5  C5  UNL     1     -35.205   5.043   4.103  1.00 20.00     0.085 C 
HETATM    6  C6  UNL     1     -35.023   6.267   4.983  1.00 20.00     0.084 C 
HETATM    7  C7  UNL     1     -33.350   6.050   2.289  1.00 20.00     0.130 C 
HETATM    8  C8  UNL     1     -33.165   7.291   3.176  1.00 20.00     0.068 C 
HETATM    9  O9  UNL     1     -31.579   4.718   1.259  1.00 20.00    -0.297 OA
HETATM   10  S10 UNL     1     -33.665   4.545   3.281  1.00 20.00    -0.155 SA
HETATM   11  S11 UNL     1     -34.720   7.775   4.019  1.00 20.00    -0.162 SA
ENDROOT
TORSDOF 0
ENDMDL
MODEL 5
REMARK VINA RESULT:       6.0      2.236      4.386
REMARK  0 active torsions:
REMARK  status: ('A' for Active; 'I' for Inactive)
ROOT
HETATM    1  C1  UNL     1     -32.047   6.963   1.480  1.00 20.00     0.141 C 
HETATM    2  C2  UNL     1     -32.326   8.422   1.196  1.00 20.00     0.079 C 
HETATM    3  C3  UNL     1     -32.754   9.134   2.467  1.00 20.00     0.008 C 
HETATM    4  C4  UNL     1     -33.949   8.436   3.112  1.00 20.00     0.017 C 
HETATM    5  C5  UNL     1     -34.038   3.829   3.377  1.00 20.00     0.085 C 
HETATM    6  C6  UNL     1     -34.490   4.594   4.608  1.00 20.00     0.084 C 
HETATM    7  C7  UNL     1     -33.157   6.196   2.208  1.00 20.00     0.130 C 
HETATM    8  C8  UNL     1     -33.617   6.974   3.450  1.00 20.00     0.068 C 
HETATM    9  O9  UNL     1     -31.023   6.437   1.044  1.00 20.00    -0.297 OA
HETATM   10  S10 UNL     1     -32.535   4.529   2.639  1.00 20.00    -0.155 SA
HETATM   11  S11 UNL     1     -35.122   6.246   4.203  1.00 20.00    -0.162 SA
ENDROOT
TORSDOF 0
ENDMDL
MODEL 6
REMARK VINA RESULT:       6.0      1.161      1.349
REMARK  0 active torsions:
REMARK  status: ('A' for Active; 'I' for Inactive)
ROOT
HETATM    1  C1  UNL     1     -34.917   5.604   4.316  1.00 20.00     0.141 C 
HETATM    2  C2  UNL     1     -35.026   4.095   4.335  1.00 20.00     0.079 C 
HETATM    3  C3  UNL     1     -33.645   3.467   4.270  1.00 20.00     0.008 C 
HETATM    4  C4  UNL     1     -32.868   3.971   3.057  1.00 20.00     0.017 C 
HETATM    5  C5  UNL     1     -32.981   8.457   1.972  1.00 20.00     0.085 C 
HETATM    6  C6  UNL     1     -31.631   7.767   1.891  1.00 20.00     0.084 C 
HETATM    7  C7  UNL     1     -34.079   6.204   3.181  1.00 20.00     0.130 C 
HETATM    8  C8  UNL     1     -32.715   5.501   3.097  1.00 20.00     0.068 C 
HETATM    9  O9  UNL     1     -35.565   6.276   5.120  1.00 20.00    -0.297 OA
HETATM   10  S10 UNL     1     -33.902   8.002   3.468  1.00 20.00    -0.155 SA
HETATM   11  S11 UNL     1     -31.781   5.983   1.595  1.00 20.00    -0.162 SA
ENDROOT
TORSDOF 0
ENDMDL
MODEL 7
REMARK VINA RESULT:       6.0      1.628      3.650
REMARK  0 active torsions:
REMARK  status: ('A' for Active; 'I' for Inactive)
ROOT
HETATM    1  C1  UNL     1     -33.636   8.240   2.989  1.00 20.00     0.141 C 
HETATM    2  C2  UNL     1     -32.474   8.867   2.252  1.00 20.00     0.079 C 
HETATM    3  C3  UNL     1     -32.037   7.977   1.102  1.00 20.00     0.008 C 
HETATM    4  C4  UNL     1     -31.714   6.567   1.590  1.00 20.00     0.017 C 
HETATM    5  C5  UNL     1     -34.491   4.513   4.652  1.00 20.00     0.085 C 
HETATM    6  C6  UNL     1     -33.994   3.660   3.499  1.00 20.00     0.084 C 
HETATM    7  C7  UNL     1     -33.439   6.789   3.445  1.00 20.00     0.130 C 
HETATM    8  C8  UNL     1     -32.932   5.928   2.277  1.00 20.00     0.068 C 
HETATM    9  O9  UNL     1     -34.620   8.921   3.278  1.00 20.00    -0.297 OA
HETATM   10  S10 UNL     1     -35.022   6.163   4.115  1.00 20.00    -0.155 SA
HETATM   11  S11 UNL     1     -32.418   4.256   2.825  1.00 20.00    -0.162 SA
ENDROOT
TORSDOF 0
ENDMDL
