MODEL 1
REMARK VINA RESULT:      -1.6      0.000      0.000
REMARK  1 active torsions:
REMARK  status: ('A' for Active; 'I' for Inactive)
REMARK    1  A    between atoms: C2_2  and  C6_6 
ROOT
HETATM    1  C3  UNL     1     -33.255   7.770   3.383  1.00 20.00     0.181 C 
HETATM    2  C4  UNL     1     -32.932   5.894   1.761  1.00 20.00     0.181 C 
HETATM    3  C5  UNL     1     -31.991   8.020   1.418  1.00 20.00     0.337 C 
HETATM    4  C6  UNL     1     -33.156   6.249   3.235  1.00 20.00     0.061 C 
HETATM    5  O8  UNL     1     -32.117   8.397   2.788  1.00 20.00    -0.366 OA
HETATM    6  O9  UNL     1     -31.811   6.616   1.248  1.00 20.00    -0.366 OA
ENDROOT
BRANCH   4   7
HETATM    7  C2  UNL     1     -34.358   5.559   3.792  1.00 20.00    -0.085 C 
HETATM    8  C1  UNL     1     -35.528   6.195   3.961  1.00 20.00     0.014 C 
HETATM    9  C7  UNL     1     -34.183   4.114   4.153  1.00 20.00     0.043 C 
ENDBRANCH   4   7
TORSDOF 1
ENDMDL
MODEL 2
REMARK VINA RESULT:      -1.2      0.527      1.703
REMARK  1 active torsions:
REMARK  status: ('A' for Active; 'I' for Inactive)
REMARK    1  A    between atoms: C2_2  and  C6_6 
ROOT
HETATM    1  C3  UNL     1     -32.724   5.582   2.017  1.00 20.00     0.181 C 
HETATM    2  C4  UNL     1     -33.271   7.562   3.445  1.00 20.00     0.181 C 
HETATM    3  C5  UNL     1     -31.592   7.629   1.803  1.00 20.00     0.337 C 
HETATM    4  C6  UNL     1     -33.836   6.296   2.791  1.00 20.00     0.061 C 
HETATM    5  O8  UNL     1     -32.096   6.489   1.110  1.00 20.00    -0.366 OA
HETATM    6  O9  UNL     1     -32.615   8.369   2.465  1.00 20.00    -0.366 OA
ENDROOT
BRANCH   4   7
HETATM    7  C2  UNL     1     -34.479   5.396   3.795  1.00 20.00    -0.085 C 
HETATM    8  C1  UNL     1     -35.569   5.764   4.485  1.00 20.00     0.014 C 
HETATM    9  C7  UNL     1     -33.834   4.055   3.989  1.00 20.00     0.043 C 
ENDBRANCH   4   7
TORSDOF 1
ENDMDL
MODEL 3
REMARK VINA RESULT:      -1.0      2.214      4.001
REMARK  1 active torsions:
REMARK  status: ('A' for Active; 'I' for Inactive)
REMARK    1  A    between atoms: C2_2  and  C6_6 
ROOT
HETATM    1  C3  UNL     1     -33.704   4.630   3.194  1.00 20.00     0.181 C 
HETATM    2  C4  UNL     1     -34.469   7.007   3.336  1.00 20.00     0.181 C 
HETATM    3  C5  UNL     1     -35.566   5.270   4.476  1.00 20.00     0.337 C 
HETATM    4  C6  UNL     1     -33.254   6.093   3.146  1.00 20.00     0.061 C 
HETATM    5  O8  UNL     1     -34.451   4.384   4.386  1.00 20.00    -0.366 OA
HETATM    6  O9  UNL     1     -35.178   6.641   4.521  1.00 20.00    -0.366 OA
ENDROOT
BRANCH   4   7
HETATM    7  C2  UNL     1     -32.519   6.406   1.883  1.00 20.00    -0.085 C 
HETATM    8  C1  UNL     1     -32.290   5.474   0.946  1.00 20.00     0.014 C 
HETATM    9  C7  UNL     1     -32.053   7.823   1.723  1.00 20.00     0.043 C 
ENDBRANCH   4   7
TORSDOF 1
ENDMDL
MODEL 4
REMARK VINA RESULT:      -1.0      2.339      3.649
REMARK  1 active torsions:
REMARK  status: ('A' for Active; 'I' for Inactive)
REMARK    1  A    between atoms: C2_2  and  C6_6 
ROOT
HETATM    1  C3  UNL     1     -34.455   6.883   3.472  1.00 20.00     0.181 C 
HETATM    2  C4  UNL     1     -33.414   4.611   3.369  1.00 20.00     0.181 C 
HETATM    3  C5  UNL     1     -35.146   5.127   4.871  1.00 20.00     0.337 C 
HETATM    4  C6  UNL     1     -33.765   5.864   2.560  1.00 20.00     0.061 C 
HETATM    5  O8  UNL     1     -35.564   6.276   4.136  1.00 20.00    -0.366 OA
HETATM    6  O9  UNL     1     -34.576   4.119   4.040  1.00 20.00    -0.366 OA
ENDROOT
BRANCH   4   7
HETATM    7  C2  UNL     1     -32.561   6.445   1.892  1.00 20.00    -0.085 C 
HETATM    8  C1  UNL     1     -32.233   7.739   2.019  1.00 20.00     0.014 C 
HETATM    9  C7  UNL     1     -31.739   5.496   1.070  1.00 20.00     0.043 C 
ENDBRANCH   4   7
TORSDOF 1
ENDMDL
MODEL 5
REMARK VINA RESULT:      -0.9      1.337      2.190
REMARK  1 active torsions:
REMARK  status: ('A' for Active; 'I' for Inactive)
REMARK    1  A    between atoms: C2_2  and  C6_6 
ROOT
HETATM    1  C3  UNL     1     -33.268   5.555   2.332  1.00 20.00     0.181 C 
HETATM    2  C4  UNL     1     -32.384   7.881   2.582  1.00 20.00     0.181 C 
HETATM    3  C5  UNL     1     -31.423   6.330   1.102  1.00 20.00     0.337 C 
HETATM    4  C6  UNL     1     -33.638   7.004   2.660  1.00 20.00     0.061 C 
HETATM    5  O8  UNL     1     -32.578   5.495   1.082  1.00 20.00    -0.366 OA
HETATM    6  O9  UNL     1     -31.739   7.703   1.320  1.00 20.00    -0.366 OA
ENDROOT
BRANCH   4   7
HETATM    7  C2  UNL     1     -34.308   7.116   3.991  1.00 20.00    -0.085 C 
HETATM    8  C1  UNL     1     -33.919   8.015   4.908  1.00 20.00     0.014 C 
HETATM    9  C7  UNL     1     -35.441   6.166   4.243  1.00 20.00     0.043 C 
ENDBRANCH   4   7
TORSDOF 1
ENDMDL
MODEL 6
REMARK VINA RESULT:      -0.9      2.336      3.799
REMARK  1 active torsions:
REMARK  status: ('A' for Active; 'I' for Inactive)
REMARK    1  A    between atoms: C2_2  and  C6_6 
ROOT
HETATM    1  C3  UNL     1     -34.418   6.870   3.408  1.00 20.00     0.181 C 
HETATM    2  C4  UNL     1     -33.448   4.565   3.392  1.00 20.00     0.181 C 
HETATM    3  C5  UNL     1     -35.161   5.190   4.873  1.00 20.00     0.337 C 
HETATM    4  C6  UNL     1     -33.761   5.797   2.536  1.00 20.00     0.061 C 
HETATM    5  O8  UNL     1     -35.545   6.323   4.096  1.00 20.00    -0.366 OA
HETATM    6  O9  UNL     1     -34.624   4.134   4.080  1.00 20.00    -0.366 OA
ENDROOT
BRANCH   4   7
HETATM    7  C2  UNL     1     -32.541   6.314   1.846  1.00 20.00    -0.085 C 
HETATM    8  C1  UNL     1     -31.759   5.522   1.098  1.00 20.00     0.014 C 
HETATM    9  C7  UNL     1     -32.241   7.772   2.037  1.00 20.00     0.043 C 
ENDBRANCH   4   7
TORSDOF 1
ENDMDL
MODEL 7
REMARK VINA RESULT:      -0.9      2.128      3.837
REMARK  1 active torsions:
REMARK  status: ('A' for Active; 'I' for Inactive)
REMARK    1  A    between atoms: C2_2  and  C6_6 
ROOT
HETATM    1  C3  UNL     1     -33.653   4.861   3.073  1.00 20.00     0.181 C 
HETATM    2  C4  UNL     1     -34.337   7.249   3.370  1.00 20.00     0.181 C 
HETATM    3  C5  UNL     1     -35.495   5.479   4.395  1.00 20.00     0.337 C 
HETATM    4  C6  UNL     1     -33.153   6.308   3.122  1.00 20.00     0.061 C 
HETATM    5  O8  UNL     1     -34.411   4.564   4.247  1.00 20.00    -0.366 OA
HETATM    6  O9  UNL     1     -35.061   6.831   4.529  1.00 20.00    -0.366 OA
ENDROOT
BRANCH   4   7
HETATM    7  C2  UNL     1     -32.406   6.677   1.881  1.00 20.00    -0.085 C 
HETATM    8  C1  UNL     1     -32.003   7.934   1.643  1.00 20.00     0.014 C 
HETATM    9  C7  UNL     1     -32.132   5.561   0.917  1.00 20.00     0.043 C 
ENDBRANCH   4   7
TORSDOF 1
ENDMDL
MODEL 8
REMARK VINA RESULT:      -0.4      1.700      3.730
REMARK  1 active torsions:
REMARK  status: ('A' for Active; 'I' for Inactive)
REMARK    1  A    between atoms: C2_2  and  C6_6 
ROOT
HETATM    1  C3  UNL     1     -33.720   7.478   3.493  1.00 20.00     0.181 C 
HETATM    2  C4  UNL     1     -32.598   5.904   1.905  1.00 20.00     0.181 C 
HETATM    3  C5  UNL     1     -34.042   5.153   3.601  1.00 20.00     0.337 C 
HETATM    4  C6  UNL     1     -33.161   7.319   2.076  1.00 20.00     0.061 C 
HETATM    5  O8  UNL     1     -34.651   6.431   3.774  1.00 20.00    -0.366 OA
HETATM    6  O9  UNL     1     -33.585   4.936   2.267  1.00 20.00    -0.366 OA
ENDROOT
BRANCH   4   7
HETATM    7  C2  UNL     1     -32.137   8.362   1.764  1.00 20.00    -0.085 C 
HETATM    8  C1  UNL     1     -31.017   8.495   2.490  1.00 20.00     0.014 C 
HETATM    9  C7  UNL     1     -32.435   9.251   0.593  1.00 20.00     0.043 C 
ENDBRANCH   4   7
TORSDOF 1
ENDMDL
MODEL 9
REMARK VINA RESULT:      -0.2      1.525      4.257
REMARK  1 active torsions:
REMARK  status: ('A' for Active; 'I' for Inactive)
REMARK    1  A    between atoms: C2_2  and  C6_6 
ROOT
HETATM    1  C3  UNL     1     -32.847   6.493   1.508  1.00 20.00     0.181 C 
HETATM    2  C4  UNL     1     -33.425   8.408   3.009  1.00 20.00     0.181 C 
HETATM    3  C5  UNL     1     -34.194   6.225   3.414  1.00 20.00     0.337 C 
HETATM    4  C6  UNL     1     -32.369   7.841   2.055  1.00 20.00     0.061 C 
HETATM    5  O8  UNL     1     -33.202   5.623   2.584  1.00 20.00    -0.366 OA
HETATM    6  O9  UNL     1     -33.751   7.442   4.010  1.00 20.00    -0.366 OA
ENDROOT
BRANCH   4   7
HETATM    7  C2  UNL     1     -32.045   8.801   0.956  1.00 20.00    -0.085 C 
HETATM    8  C1  UNL     1     -31.144   8.513   0.004  1.00 20.00     0.014 C 
HETATM    9  C7  UNL     1     -32.785  10.105   0.978  1.00 20.00     0.043 C 
ENDBRANCH   4   7
TORSDOF 1
ENDMDL
