MODEL 1
REMARK VINA RESULT:      14.0      0.000      0.000
REMARK  0 active torsions:
REMARK  status: ('A' for Active; 'I' for Inactive)
ROOT
HETATM    1  C1  UNL     1     -33.979   6.536   3.731  1.00 20.00     0.175 C 
HETATM    2  C2  UNL     1     -34.275   7.014   0.997  1.00 20.00     0.175 C 
HETATM    3  C3  UNL     1     -32.421   5.131   1.891  1.00 20.00     0.175 C 
HETATM    4  C4  UNL     1     -31.963   7.851   2.318  1.00 20.00     0.175 C 
HETATM    5  S5  UNL     1     -35.262   6.941   2.516  1.00 20.00    -0.117 SA
HETATM    6  S6  UNL     1     -33.247   4.896   3.488  1.00 20.00    -0.117 SA
HETATM    7  S7  UNL     1     -33.569   5.416   0.518  1.00 20.00    -0.117 SA
HETATM    8  S8  UNL     1     -32.750   7.852   3.950  1.00 20.00    -0.117 SA
HETATM    9  S9  UNL     1     -33.072   8.370   0.980  1.00 20.00    -0.117 SA
HETATM   10  S10 UNL     1     -31.057   6.324   1.953  1.00 20.00    -0.117 SA
ENDROOT
TORSDOF 0
ENDMDL
MODEL 2
REMARK VINA RESULT:      14.0      0.021      3.236
REMARK  0 active torsions:
REMARK  status: ('A' for Active; 'I' for Inactive)
ROOT
HETATM    1  C1  UNL     1     -32.407   5.132   1.888  1.00 20.00     0.175 C 
HETATM    2  C2  UNL     1     -31.978   7.856   2.319  1.00 20.00     0.175 C 
HETATM    3  C3  UNL     1     -33.990   6.522   3.719  1.00 20.00     0.175 C 
HETATM    4  C4  UNL     1     -34.275   6.998   0.984  1.00 20.00     0.175 C 
HETATM    5  S5  UNL     1     -31.055   6.337   1.959  1.00 20.00    -0.117 SA
HETATM    6  S6  UNL     1     -33.242   4.888   3.479  1.00 20.00    -0.117 SA
HETATM    7  S7  UNL     1     -32.775   7.848   3.947  1.00 20.00    -0.117 SA
HETATM    8  S8  UNL     1     -33.550   5.407   0.507  1.00 20.00    -0.117 SA
HETATM    9  S9  UNL     1     -33.083   8.366   0.976  1.00 20.00    -0.117 SA
HETATM   10  S10 UNL     1     -35.269   6.916   2.496  1.00 20.00    -0.117 SA
ENDROOT
TORSDOF 0
ENDMDL
MODEL 3
REMARK VINA RESULT:      14.0      0.025      2.813
REMARK  0 active torsions:
REMARK  status: ('A' for Active; 'I' for Inactive)
ROOT
HETATM    1  C1  UNL     1     -32.398   5.148   1.888  1.00 20.00     0.175 C 
HETATM    2  C2  UNL     1     -34.272   7.011   0.988  1.00 20.00     0.175 C 
HETATM    3  C3  UNL     1     -31.979   7.873   2.324  1.00 20.00     0.175 C 
HETATM    4  C4  UNL     1     -33.985   6.527   3.723  1.00 20.00     0.175 C 
HETATM    5  S5  UNL     1     -33.541   5.423   0.508  1.00 20.00    -0.117 SA
HETATM    6  S6  UNL     1     -31.050   6.359   1.961  1.00 20.00    -0.117 SA
HETATM    7  S7  UNL     1     -33.087   8.382   0.983  1.00 20.00    -0.117 SA
HETATM    8  S8  UNL     1     -33.231   4.898   3.479  1.00 20.00    -0.117 SA
HETATM    9  S9  UNL     1     -35.267   6.921   2.501  1.00 20.00    -0.117 SA
HETATM   10  S10 UNL     1     -32.776   7.857   3.953  1.00 20.00    -0.117 SA
ENDROOT
TORSDOF 0
ENDMDL
MODEL 4
REMARK VINA RESULT:      14.0      0.017      3.236
REMARK  0 active torsions:
REMARK  status: ('A' for Active; 'I' for Inactive)
ROOT
HETATM    1  C1  UNL     1     -31.971   7.844   2.314  1.00 20.00     0.175 C 
HETATM    2  C2  UNL     1     -32.417   5.123   1.883  1.00 20.00     0.175 C 
HETATM    3  C3  UNL     1     -34.275   7.000   0.984  1.00 20.00     0.175 C 
HETATM    4  C4  UNL     1     -33.988   6.522   3.719  1.00 20.00     0.175 C 
HETATM    5  S5  UNL     1     -31.058   6.321   1.950  1.00 20.00    -0.117 SA
HETATM    6  S6  UNL     1     -33.077   8.361   0.974  1.00 20.00    -0.117 SA
HETATM    7  S7  UNL     1     -33.561   5.404   0.506  1.00 20.00    -0.117 SA
HETATM    8  S8  UNL     1     -32.764   7.839   3.945  1.00 20.00    -0.117 SA
HETATM    9  S9  UNL     1     -33.249   4.883   3.476  1.00 20.00    -0.117 SA
HETATM   10  S10 UNL     1     -35.267   6.924   2.500  1.00 20.00    -0.117 SA
ENDROOT
TORSDOF 0
ENDMDL
MODEL 5
REMARK VINA RESULT:      14.0      0.002      2.803
REMARK  0 active torsions:
REMARK  status: ('A' for Active; 'I' for Inactive)
ROOT
HETATM    1  C1  UNL     1     -33.980   6.534   3.731  1.00 20.00     0.175 C 
HETATM    2  C2  UNL     1     -32.420   5.130   1.891  1.00 20.00     0.175 C 
HETATM    3  C3  UNL     1     -31.964   7.849   2.317  1.00 20.00     0.175 C 
HETATM    4  C4  UNL     1     -34.276   7.013   0.997  1.00 20.00     0.175 C 
HETATM    5  S5  UNL     1     -33.246   4.895   3.488  1.00 20.00    -0.117 SA
HETATM    6  S6  UNL     1     -32.752   7.850   3.950  1.00 20.00    -0.117 SA
HETATM    7  S7  UNL     1     -31.057   6.323   1.952  1.00 20.00    -0.117 SA
HETATM    8  S8  UNL     1     -35.263   6.940   2.515  1.00 20.00    -0.117 SA
HETATM    9  S9  UNL     1     -33.569   5.413   0.517  1.00 20.00    -0.117 SA
HETATM   10  S10 UNL     1     -33.074   8.368   0.980  1.00 20.00    -0.117 SA
ENDROOT
TORSDOF 0
ENDMDL
MODEL 6
REMARK VINA RESULT:      14.0      0.003      2.801
REMARK  0 active torsions:
REMARK  status: ('A' for Active; 'I' for Inactive)
ROOT
HETATM    1  C1  UNL     1     -33.980   6.535   3.730  1.00 20.00     0.175 C 
HETATM    2  C2  UNL     1     -31.965   7.853   2.318  1.00 20.00     0.175 C 
HETATM    3  C3  UNL     1     -34.274   7.013   0.996  1.00 20.00     0.175 C 
HETATM    4  C4  UNL     1     -32.418   5.131   1.892  1.00 20.00     0.175 C 
HETATM    5  S5  UNL     1     -32.755   7.851   3.951  1.00 20.00    -0.117 SA
HETATM    6  S6  UNL     1     -35.263   6.938   2.514  1.00 20.00    -0.117 SA
HETATM    7  S7  UNL     1     -33.073   8.371   0.981  1.00 20.00    -0.117 SA
HETATM    8  S8  UNL     1     -33.244   4.895   3.487  1.00 20.00    -0.117 SA
HETATM    9  S9  UNL     1     -31.056   6.328   1.954  1.00 20.00    -0.117 SA
HETATM   10  S10 UNL     1     -33.565   5.415   0.517  1.00 20.00    -0.117 SA
ENDROOT
TORSDOF 0
ENDMDL
MODEL 7
REMARK VINA RESULT:      14.0      0.021      2.799
REMARK  0 active torsions:
REMARK  status: ('A' for Active; 'I' for Inactive)
ROOT
HETATM    1  C1  UNL     1     -32.407   5.129   1.888  1.00 20.00     0.175 C 
HETATM    2  C2  UNL     1     -33.990   6.520   3.718  1.00 20.00     0.175 C 
HETATM    3  C3  UNL     1     -34.275   6.996   0.984  1.00 20.00     0.175 C 
HETATM    4  C4  UNL     1     -31.978   7.854   2.317  1.00 20.00     0.175 C 
HETATM    5  S5  UNL     1     -33.241   4.887   3.479  1.00 20.00    -0.117 SA
HETATM    6  S6  UNL     1     -33.550   5.404   0.508  1.00 20.00    -0.117 SA
HETATM    7  S7  UNL     1     -35.270   6.914   2.497  1.00 20.00    -0.117 SA
HETATM    8  S8  UNL     1     -31.055   6.336   1.957  1.00 20.00    -0.117 SA
HETATM    9  S9  UNL     1     -32.775   7.846   3.946  1.00 20.00    -0.117 SA
HETATM   10  S10 UNL     1     -33.084   8.363   0.975  1.00 20.00    -0.117 SA
ENDROOT
TORSDOF 0
ENDMDL
MODEL 8
REMARK VINA RESULT:      14.0      0.028      2.805
REMARK  0 active torsions:
REMARK  status: ('A' for Active; 'I' for Inactive)
ROOT
HETATM    1  C1  UNL     1     -34.279   6.986   0.977  1.00 20.00     0.175 C 
HETATM    2  C2  UNL     1     -31.983   7.847   2.311  1.00 20.00     0.175 C 
HETATM    3  C3  UNL     1     -32.410   5.122   1.885  1.00 20.00     0.175 C 
HETATM    4  C4  UNL     1     -33.995   6.514   3.714  1.00 20.00     0.175 C 
HETATM    5  S5  UNL     1     -33.089   8.353   0.966  1.00 20.00    -0.117 SA
HETATM    6  S6  UNL     1     -33.554   5.393   0.505  1.00 20.00    -0.117 SA
HETATM    7  S7  UNL     1     -31.059   6.329   1.953  1.00 20.00    -0.117 SA
HETATM    8  S8  UNL     1     -35.274   6.906   2.492  1.00 20.00    -0.117 SA
HETATM    9  S9  UNL     1     -32.780   7.842   3.939  1.00 20.00    -0.117 SA
HETATM   10  S10 UNL     1     -33.245   4.881   3.477  1.00 20.00    -0.117 SA
ENDROOT
TORSDOF 0
ENDMDL
MODEL 9
REMARK VINA RESULT:      14.0      0.017      2.800
REMARK  0 active torsions:
REMARK  status: ('A' for Active; 'I' for Inactive)
ROOT
HETATM    1  C1  UNL     1     -31.971   7.843   2.313  1.00 20.00     0.175 C 
HETATM    2  C2  UNL     1     -33.988   6.520   3.718  1.00 20.00     0.175 C 
HETATM    3  C3  UNL     1     -32.418   5.121   1.884  1.00 20.00     0.175 C 
HETATM    4  C4  UNL     1     -34.275   7.000   0.983  1.00 20.00     0.175 C 
HETATM    5  S5  UNL     1     -32.763   7.838   3.943  1.00 20.00    -0.117 SA
HETATM    6  S6  UNL     1     -31.058   6.319   1.950  1.00 20.00    -0.117 SA
HETATM    7  S7  UNL     1     -33.250   4.883   3.477  1.00 20.00    -0.117 SA
HETATM    8  S8  UNL     1     -33.077   8.360   0.973  1.00 20.00    -0.117 SA
HETATM    9  S9  UNL     1     -35.268   6.924   2.500  1.00 20.00    -0.117 SA
HETATM   10  S10 UNL     1     -33.562   5.404   0.506  1.00 20.00    -0.117 SA
ENDROOT
TORSDOF 0
ENDMDL
