MODEL 1
REMARK VINA RESULT:      -1.6      0.000      0.000
REMARK  0 active torsions:
REMARK  status: ('A' for Active; 'I' for Inactive)
ROOT
HETATM    1  C1  UNL     1     -32.744   5.766   1.575  1.00 20.00     0.023 C 
HETATM    2  C2  UNL     1     -34.903   5.061   4.413  1.00 20.00     0.017 A 
HETATM    3  C3  UNL     1     -34.452   7.532   4.174  1.00 20.00     0.012 C 
HETATM    4  C4  UNL     1     -31.701   6.754   1.222  1.00 20.00     0.110 C 
HETATM    5  C5  UNL     1     -34.623   5.491   3.201  1.00 20.00     0.010 A 
HETATM    6  C6  UNL     1     -35.230   6.432   4.221  1.00 20.00    -0.008 A 
HETATM    7  C7  UNL     1     -33.408   6.084   2.686  1.00 20.00    -0.061 C 
HETATM    8  C8  UNL     1     -32.729   8.435   2.497  1.00 20.00     0.158 C 
HETATM    9  C9  UNL     1     -33.144   7.332   3.470  1.00 20.00     0.040 C 
HETATM   10  N10 UNL     1     -31.632   7.981   1.616  1.00 20.00    -0.301 NA
ENDROOT
TORSDOF 0
ENDMDL
MODEL 2
REMARK VINA RESULT:      -1.1      0.771      1.981
REMARK  0 active torsions:
REMARK  status: ('A' for Active; 'I' for Inactive)
ROOT
HETATM    1  C1  UNL     1     -32.908   8.290   2.831  1.00 20.00     0.023 C 
HETATM    2  C2  UNL     1     -35.622   6.256   4.137  1.00 20.00     0.017 A 
HETATM    3  C3  UNL     1     -33.825   4.842   3.070  1.00 20.00     0.012 C 
HETATM    4  C4  UNL     1     -31.955   8.235   1.700  1.00 20.00     0.110 C 
HETATM    5  C5  UNL     1     -34.408   6.764   4.123  1.00 20.00     0.010 A 
HETATM    6  C6  UNL     1     -34.605   5.262   4.086  1.00 20.00    -0.008 A 
HETATM    7  C7  UNL     1     -33.579   7.152   3.002  1.00 20.00    -0.061 C 
HETATM    8  C8  UNL     1     -31.888   5.889   1.749  1.00 20.00     0.158 C 
HETATM    9  C9  UNL     1     -33.360   5.936   2.157  1.00 20.00     0.040 C 
HETATM   10  N10 UNL     1     -31.460   7.174   1.156  1.00 20.00    -0.301 NA
ENDROOT
TORSDOF 0
ENDMDL
MODEL 3
REMARK VINA RESULT:      -1.0      1.945      3.927
REMARK  0 active torsions:
REMARK  status: ('A' for Active; 'I' for Inactive)
ROOT
HETATM    1  C1  UNL     1     -34.862   6.954   3.769  1.00 20.00     0.023 C 
HETATM    2  C2  UNL     1     -31.921   7.972   1.892  1.00 20.00     0.017 A 
HETATM    3  C3  UNL     1     -32.252   5.471   1.823  1.00 20.00     0.012 C 
HETATM    4  C4  UNL     1     -35.286   5.789   4.577  1.00 20.00     0.110 C 
HETATM    5  C5  UNL     1     -33.155   7.540   2.039  1.00 20.00     0.010 A 
HETATM    6  C6  UNL     1     -32.141   6.703   1.287  1.00 20.00    -0.008 A 
HETATM    7  C7  UNL     1     -33.736   6.734   3.091  1.00 20.00    -0.061 C 
HETATM    8  C8  UNL     1     -34.023   4.303   3.271  1.00 20.00     0.158 C 
HETATM    9  C9  UNL     1     -33.002   5.430   3.121  1.00 20.00     0.040 C 
HETATM   10  N10 UNL     1     -34.933   4.559   4.408  1.00 20.00    -0.301 NA
ENDROOT
TORSDOF 0
ENDMDL
MODEL 4
REMARK VINA RESULT:      -0.4      1.732      3.453
REMARK  0 active torsions:
REMARK  status: ('A' for Active; 'I' for Inactive)
ROOT
HETATM    1  C1  UNL     1     -34.080   4.673   3.527  1.00 20.00     0.023 C 
HETATM    2  C2  UNL     1     -32.029   5.566   0.662  1.00 20.00     0.017 A 
HETATM    3  C3  UNL     1     -32.575   7.579   2.083  1.00 20.00     0.012 C 
HETATM    4  C4  UNL     1     -35.147   5.301   4.337  1.00 20.00     0.110 C 
HETATM    5  C5  UNL     1     -32.270   5.337   1.935  1.00 20.00     0.010 A 
HETATM    6  C6  UNL     1     -31.754   6.690   1.490  1.00 20.00    -0.008 A 
HETATM    7  C7  UNL     1     -33.484   5.530   2.698  1.00 20.00    -0.061 C 
HETATM    8  C8  UNL     1     -34.255   7.448   4.021  1.00 20.00     0.158 C 
HETATM    9  C9  UNL     1     -33.839   6.983   2.627  1.00 20.00     0.040 C 
HETATM   10  N10 UNL     1     -35.288   6.558   4.592  1.00 20.00    -0.301 NA
ENDROOT
TORSDOF 0
ENDMDL
MODEL 5
REMARK VINA RESULT:       0.5      1.900      3.435
REMARK  0 active torsions:
REMARK  status: ('A' for Active; 'I' for Inactive)
ROOT
HETATM    1  C1  UNL     1     -33.134   4.656   2.973  1.00 20.00     0.023 C 
HETATM    2  C2  UNL     1     -31.967   7.477   1.000  1.00 20.00     0.017 A 
HETATM    3  C3  UNL     1     -33.415   8.222   2.928  1.00 20.00     0.012 C 
HETATM    4  C4  UNL     1     -34.337   4.305   3.761  1.00 20.00     0.110 C 
HETATM    5  C5  UNL     1     -32.000   6.684   2.049  1.00 20.00     0.010 A 
HETATM    6  C6  UNL     1     -32.277   8.164   2.207  1.00 20.00    -0.008 A 
HETATM    7  C7  UNL     1     -33.104   5.939   2.615  1.00 20.00    -0.061 C 
HETATM    8  C8  UNL     1     -34.700   6.539   4.381  1.00 20.00     0.158 C 
HETATM    9  C9  UNL     1     -34.162   6.925   3.004  1.00 20.00     0.040 C 
HETATM   10  N10 UNL     1     -35.097   5.116   4.416  1.00 20.00    -0.301 NA
ENDROOT
TORSDOF 0
ENDMDL
