MODEL 1
REMARK VINA RESULT:      -1.0      0.000      0.000
REMARK  0 active torsions:
REMARK  status: ('A' for Active; 'I' for Inactive)
ROOT
HETATM    1  C1  UNL     1     -32.071   7.306   1.659  1.00 20.00     0.128 C 
HETATM    2  C2  UNL     1     -32.689   5.949   1.660  1.00 20.00     0.234 C 
HETATM    3  N3  UNL     1     -32.429   8.151   2.562  1.00 20.00    -0.203 NA
HETATM    4  O4  UNL     1     -33.705   6.015   2.645  1.00 20.00    -0.295 OA
HETATM    5  S5  UNL     1     -33.568   7.413   3.544  1.00 20.00     0.137 SA
ENDROOT
TORSDOF 0
ENDMDL
MODEL 2
REMARK VINA RESULT:      -1.0      1.794      1.816
REMARK  0 active torsions:
REMARK  status: ('A' for Active; 'I' for Inactive)
ROOT
HETATM    1  C1  UNL     1     -32.636   8.059   2.779  1.00 20.00     0.128 C 
HETATM    2  C2  UNL     1     -33.728   7.390   3.542  1.00 20.00     0.234 C 
HETATM    3  N3  UNL     1     -32.091   7.430   1.795  1.00 20.00    -0.203 NA
HETATM    4  O4  UNL     1     -33.768   6.069   3.034  1.00 20.00    -0.295 OA
HETATM    5  S5  UNL     1     -32.834   5.934   1.659  1.00 20.00     0.137 SA
ENDROOT
TORSDOF 0
ENDMDL
MODEL 3
REMARK VINA RESULT:      -1.0      1.597      1.845
REMARK  0 active torsions:
REMARK  status: ('A' for Active; 'I' for Inactive)
ROOT
HETATM    1  C1  UNL     1     -32.423   6.319   1.511  1.00 20.00     0.128 C 
HETATM    2  C2  UNL     1     -32.084   7.735   1.832  1.00 20.00     0.234 C 
HETATM    3  N3  UNL     1     -33.334   5.727   2.202  1.00 20.00    -0.203 NA
HETATM    4  O4  UNL     1     -32.811   8.022   3.013  1.00 20.00    -0.295 OA
HETATM    5  S5  UNL     1     -33.912   6.814   3.339  1.00 20.00     0.137 SA
ENDROOT
TORSDOF 0
ENDMDL
MODEL 4
REMARK VINA RESULT:      -1.0      1.964      2.148
REMARK  0 active torsions:
REMARK  status: ('A' for Active; 'I' for Inactive)
ROOT
HETATM    1  C1  UNL     1     -33.448   5.717   2.303  1.00 20.00     0.128 C 
HETATM    2  C2  UNL     1     -33.913   6.566   3.437  1.00 20.00     0.234 C 
HETATM    3  N3  UNL     1     -32.558   6.188   1.500  1.00 20.00    -0.203 NA
HETATM    4  O4  UNL     1     -33.310   7.828   3.215  1.00 20.00    -0.295 OA
HETATM    5  S5  UNL     1     -32.157   7.731   2.015  1.00 20.00     0.137 SA
ENDROOT
TORSDOF 0
ENDMDL
MODEL 5
REMARK VINA RESULT:      -0.9      2.242      2.382
REMARK  0 active torsions:
REMARK  status: ('A' for Active; 'I' for Inactive)
ROOT
HETATM    1  C1  UNL     1     -33.466   7.457   3.401  1.00 20.00     0.128 C 
HETATM    2  C2  UNL     1     -32.368   8.148   2.666  1.00 20.00     0.234 C 
HETATM    3  N3  UNL     1     -33.809   6.272   3.032  1.00 20.00    -0.203 NA
HETATM    4  O4  UNL     1     -32.079   7.302   1.567  1.00 20.00    -0.295 OA
HETATM    5  S5  UNL     1     -32.840   5.829   1.738  1.00 20.00     0.137 SA
ENDROOT
TORSDOF 0
ENDMDL
MODEL 6
REMARK VINA RESULT:      -0.8      1.729      1.803
REMARK  0 active torsions:
REMARK  status: ('A' for Active; 'I' for Inactive)
ROOT
HETATM    1  C1  UNL     1     -33.610   6.394   2.897  1.00 20.00     0.128 C 
HETATM    2  C2  UNL     1     -32.967   5.688   1.752  1.00 20.00     0.234 C 
HETATM    3  N3  UNL     1     -33.246   7.601   3.164  1.00 20.00    -0.203 NA
HETATM    4  O4  UNL     1     -31.931   6.555   1.327  1.00 20.00    -0.295 OA
HETATM    5  S5  UNL     1     -32.072   8.048   2.055  1.00 20.00     0.137 SA
ENDROOT
TORSDOF 0
ENDMDL
MODEL 7
REMARK VINA RESULT:      -0.8      3.259      3.407
REMARK  0 active torsions:
REMARK  status: ('A' for Active; 'I' for Inactive)
ROOT
HETATM    1  C1  UNL     1     -35.318   6.154   4.157  1.00 20.00     0.128 C 
HETATM    2  C2  UNL     1     -34.144   6.620   3.365  1.00 20.00     0.234 C 
HETATM    3  N3  UNL     1     -35.357   4.927   4.546  1.00 20.00    -0.203 NA
HETATM    4  O4  UNL     1     -33.398   5.445   3.099  1.00 20.00    -0.295 OA
HETATM    5  S5  UNL     1     -33.965   4.166   4.005  1.00 20.00     0.137 SA
ENDROOT
TORSDOF 0
ENDMDL
MODEL 8
REMARK VINA RESULT:      -0.7      2.562      2.766
REMARK  0 active torsions:
REMARK  status: ('A' for Active; 'I' for Inactive)
ROOT
HETATM    1  C1  UNL     1     -33.366   5.078   3.207  1.00 20.00     0.128 C 
HETATM    2  C2  UNL     1     -34.006   4.082   4.112  1.00 20.00     0.234 C 
HETATM    3  N3  UNL     1     -33.894   6.248   3.100  1.00 20.00    -0.203 NA
HETATM    4  O4  UNL     1     -35.215   4.693   4.527  1.00 20.00    -0.295 OA
HETATM    5  S5  UNL     1     -35.245   6.302   4.090  1.00 20.00     0.137 SA
ENDROOT
TORSDOF 0
ENDMDL
MODEL 9
REMARK VINA RESULT:       0.9      2.936      2.947
REMARK  0 active torsions:
REMARK  status: ('A' for Active; 'I' for Inactive)
ROOT
HETATM    1  C1  UNL     1     -31.456   7.827   1.190  1.00 20.00     0.128 C 
HETATM    2  C2  UNL     1     -32.408   8.217   2.269  1.00 20.00     0.234 C 
HETATM    3  N3  UNL     1     -31.353   8.581   0.151  1.00 20.00    -0.203 NA
HETATM    4  O4  UNL     1     -33.116   9.326   1.744  1.00 20.00    -0.295 OA
HETATM    5  S5  UNL     1     -32.399   9.877   0.343  1.00 20.00     0.137 SA
ENDROOT
TORSDOF 0
ENDMDL
