MODEL 1
REMARK VINA RESULT:       3.4      0.000      0.000
REMARK  0 active torsions:
REMARK  status: ('A' for Active; 'I' for Inactive)
ROOT
HETATM    1  C1  UNL     1     -31.879   8.877   1.421  1.00 20.00     0.004 A 
HETATM    2  C2  UNL     1     -31.591   7.676   0.751  1.00 20.00     0.034 A 
HETATM    3  C3  UNL     1     -32.708   8.907   2.551  1.00 20.00     0.021 A 
HETATM    4  C4  UNL     1     -32.778   4.477   1.658  1.00 20.00     0.210 A 
HETATM    5  C5  UNL     1     -32.153   6.488   1.246  1.00 20.00     0.086 A 
HETATM    6  C6  UNL     1     -32.966   6.561   2.365  1.00 20.00     0.081 A 
HETATM    7  C7  UNL     1     -33.284   7.734   3.045  1.00 20.00     0.029 A 
HETATM    8  C8  UNL     1     -34.189   4.899   3.723  1.00 20.00     0.140 C 
HETATM    9  C9  UNL     1     -35.162   6.020   4.109  1.00 20.00     0.100 C 
HETATM   10  N10 UNL     1     -32.050   5.182   0.815  1.00 20.00    -0.242 NA
HETATM   11  N11 UNL     1     -33.344   5.269   2.607  1.00 20.00    -0.338 N 
HETATM   12  S12 UNL     1     -34.333   7.628   4.463  1.00 20.00    -0.126 SA
ENDROOT
TORSDOF 0
ENDMDL
MODEL 2
REMARK VINA RESULT:       3.5      2.008      2.952
REMARK  0 active torsions:
REMARK  status: ('A' for Active; 'I' for Inactive)
ROOT
HETATM    1  C1  UNL     1     -31.654   7.113   1.105  1.00 20.00     0.004 A 
HETATM    2  C2  UNL     1     -32.212   8.131   1.897  1.00 20.00     0.034 A 
HETATM    3  C3  UNL     1     -32.003   5.767   1.287  1.00 20.00     0.021 A 
HETATM    4  C4  UNL     1     -34.583   7.672   4.472  1.00 20.00     0.210 A 
HETATM    5  C5  UNL     1     -33.142   7.770   2.885  1.00 20.00     0.086 A 
HETATM    6  C6  UNL     1     -33.460   6.430   3.032  1.00 20.00     0.081 A 
HETATM    7  C7  UNL     1     -32.918   5.394   2.275  1.00 20.00     0.029 A 
HETATM    8  C8  UNL     1     -34.998   5.170   4.497  1.00 20.00     0.140 C 
HETATM    9  C9  UNL     1     -34.073   3.958   4.325  1.00 20.00     0.100 C 
HETATM   10  N10 UNL     1     -33.848   8.530   3.793  1.00 20.00    -0.242 NA
HETATM   11  N11 UNL     1     -34.380   6.398   4.042  1.00 20.00    -0.338 N 
HETATM   12  S12 UNL     1     -33.453   3.743   2.602  1.00 20.00    -0.126 SA
ENDROOT
TORSDOF 0
ENDMDL
MODEL 3
REMARK VINA RESULT:       4.0      2.013      4.393
REMARK  0 active torsions:
REMARK  status: ('A' for Active; 'I' for Inactive)
ROOT
HETATM    1  C1  UNL     1     -34.471   3.991   4.081  1.00 20.00     0.004 A 
HETATM    2  C2  UNL     1     -34.965   5.195   4.612  1.00 20.00     0.034 A 
HETATM    3  C3  UNL     1     -33.481   3.979   3.089  1.00 20.00     0.021 A 
HETATM    4  C4  UNL     1     -33.913   8.437   3.692  1.00 20.00     0.210 A 
HETATM    5  C5  UNL     1     -34.436   6.402   4.127  1.00 20.00     0.086 A 
HETATM    6  C6  UNL     1     -33.458   6.346   3.147  1.00 20.00     0.081 A 
HETATM    7  C7  UNL     1     -32.955   5.173   2.589  1.00 20.00     0.029 A 
HETATM    8  C8  UNL     1     -32.126   8.037   1.937  1.00 20.00     0.140 C 
HETATM    9  C9  UNL     1     -32.001   7.029   0.788  1.00 20.00     0.100 C 
HETATM   10  N10 UNL     1     -34.710   7.714   4.452  1.00 20.00    -0.242 NA
HETATM   11  N11 UNL     1     -33.141   7.651   2.894  1.00 20.00    -0.338 N 
HETATM   12  S12 UNL     1     -31.700   5.300   1.353  1.00 20.00    -0.126 SA
ENDROOT
TORSDOF 0
ENDMDL
MODEL 4
REMARK VINA RESULT:       4.2      1.114      3.309
REMARK  0 active torsions:
REMARK  status: ('A' for Active; 'I' for Inactive)
ROOT
HETATM    1  C1  UNL     1     -35.007   5.015   4.438  1.00 20.00     0.004 A 
HETATM    2  C2  UNL     1     -34.164   4.233   3.630  1.00 20.00     0.034 A 
HETATM    3  C3  UNL     1     -34.991   6.415   4.375  1.00 20.00     0.021 A 
HETATM    4  C4  UNL     1     -31.853   5.468   1.264  1.00 20.00     0.210 A 
HETATM    5  C5  UNL     1     -33.298   4.891   2.742  1.00 20.00     0.086 A 
HETATM    6  C6  UNL     1     -33.314   6.275   2.710  1.00 20.00     0.081 A 
HETATM    7  C7  UNL     1     -34.125   7.082   3.504  1.00 20.00     0.029 A 
HETATM    8  C8  UNL     1     -32.116   7.987   1.393  1.00 20.00     0.140 C 
HETATM    9  C9  UNL     1     -32.334   8.954   2.563  1.00 20.00     0.100 C 
HETATM   10  N10 UNL     1     -32.378   4.403   1.837  1.00 20.00    -0.242 NA
HETATM   11  N11 UNL     1     -32.391   6.614   1.760  1.00 20.00    -0.338 N 
HETATM   12  S12 UNL     1     -34.013   8.835   3.316  1.00 20.00    -0.126 SA
ENDROOT
TORSDOF 0
ENDMDL
MODEL 5
REMARK VINA RESULT:       4.4      1.902      2.924
REMARK  0 active torsions:
REMARK  status: ('A' for Active; 'I' for Inactive)
ROOT
HETATM    1  C1  UNL     1     -31.883   8.499   1.368  1.00 20.00     0.004 A 
HETATM    2  C2  UNL     1     -32.728   8.951   2.396  1.00 20.00     0.034 A 
HETATM    3  C3  UNL     1     -31.748   7.134   1.076  1.00 20.00     0.021 A 
HETATM    4  C4  UNL     1     -34.720   6.905   4.473  1.00 20.00     0.210 A 
HETATM    5  C5  UNL     1     -33.449   7.996   3.131  1.00 20.00     0.086 A 
HETATM    6  C6  UNL     1     -33.287   6.658   2.810  1.00 20.00     0.081 A 
HETATM    7  C7  UNL     1     -32.449   6.174   1.809  1.00 20.00     0.029 A 
HETATM    8  C8  UNL     1     -34.259   4.549   3.653  1.00 20.00     0.140 C 
HETATM    9  C9  UNL     1     -32.983   3.842   3.178  1.00 20.00     0.100 C 
HETATM   10  N10 UNL     1     -34.342   8.132   4.173  1.00 20.00    -0.242 NA
HETATM   11  N11 UNL     1     -34.110   5.989   3.674  1.00 20.00    -0.338 N 
HETATM   12  S12 UNL     1     -32.381   4.429   1.538  1.00 20.00    -0.126 SA
ENDROOT
TORSDOF 0
ENDMDL
MODEL 6
REMARK VINA RESULT:       4.9      1.605      2.970
REMARK  0 active torsions:
REMARK  status: ('A' for Active; 'I' for Inactive)
ROOT
HETATM    1  C1  UNL     1     -32.492   4.537   1.083  1.00 20.00     0.004 A 
HETATM    2  C2  UNL     1     -31.735   5.672   0.746  1.00 20.00     0.034 A 
HETATM    3  C3  UNL     1     -33.475   4.581   2.082  1.00 20.00     0.021 A 
HETATM    4  C4  UNL     1     -32.055   8.869   2.209  1.00 20.00     0.210 A 
HETATM    5  C5  UNL     1     -31.991   6.869   1.435  1.00 20.00     0.086 A 
HETATM    6  C6  UNL     1     -32.971   6.870   2.413  1.00 20.00     0.081 A 
HETATM    7  C7  UNL     1     -33.730   5.762   2.783  1.00 20.00     0.029 A 
HETATM    8  C8  UNL     1     -33.913   8.591   3.914  1.00 20.00     0.140 C 
HETATM    9  C9  UNL     1     -34.276   7.460   4.884  1.00 20.00     0.100 C 
HETATM   10  N10 UNL     1     -31.427   8.123   1.323  1.00 20.00    -0.242 NA
HETATM   11  N11 UNL     1     -32.994   8.153   2.884  1.00 20.00    -0.338 N 
HETATM   12  S12 UNL     1     -34.945   5.958   4.050  1.00 20.00    -0.126 SA
ENDROOT
TORSDOF 0
ENDMDL
MODEL 7
REMARK VINA RESULT:       4.9      1.887      3.518
REMARK  0 active torsions:
REMARK  status: ('A' for Active; 'I' for Inactive)
ROOT
HETATM    1  C1  UNL     1     -34.730   7.270   4.570  1.00 20.00     0.004 A 
HETATM    2  C2  UNL     1     -33.932   8.299   4.040  1.00 20.00     0.034 A 
HETATM    3  C3  UNL     1     -34.660   5.960   4.077  1.00 20.00     0.021 A 
HETATM    4  C4  UNL     1     -31.578   7.944   1.433  1.00 20.00     0.210 A 
HETATM    5  C5  UNL     1     -33.047   7.982   2.997  1.00 20.00     0.086 A 
HETATM    6  C6  UNL     1     -33.008   6.676   2.539  1.00 20.00     0.081 A 
HETATM    7  C7  UNL     1     -33.793   5.635   3.031  1.00 20.00     0.029 A 
HETATM    8  C8  UNL     1     -31.692   5.485   0.821  1.00 20.00     0.140 C 
HETATM    9  C9  UNL     1     -32.857   4.494   0.703  1.00 20.00     0.100 C 
HETATM   10  N10 UNL     1     -32.152   8.761   2.293  1.00 20.00    -0.242 NA
HETATM   11  N11 UNL     1     -32.064   6.679   1.551  1.00 20.00    -0.338 N 
HETATM   12  S12 UNL     1     -33.597   4.027   2.326  1.00 20.00    -0.126 SA
ENDROOT
TORSDOF 0
ENDMDL
MODEL 8
REMARK VINA RESULT:       5.4      1.699      3.281
REMARK  0 active torsions:
REMARK  status: ('A' for Active; 'I' for Inactive)
ROOT
HETATM    1  C1  UNL     1     -34.322   8.206   4.504  1.00 20.00     0.004 A 
HETATM    2  C2  UNL     1     -34.743   6.902   4.816  1.00 20.00     0.034 A 
HETATM    3  C3  UNL     1     -33.463   8.461   3.426  1.00 20.00     0.021 A 
HETATM    4  C4  UNL     1     -33.847   3.972   3.060  1.00 20.00     0.210 A 
HETATM    5  C5  UNL     1     -34.286   5.846   4.011  1.00 20.00     0.086 A 
HETATM    6  C6  UNL     1     -33.439   6.141   2.956  1.00 20.00     0.081 A 
HETATM    7  C7  UNL     1     -32.990   7.417   2.627  1.00 20.00     0.029 A 
HETATM    8  C8  UNL     1     -32.345   4.802   1.192  1.00 20.00     0.140 C 
HETATM    9  C9  UNL     1     -31.257   5.881   1.131  1.00 20.00     0.100 C 
HETATM   10  N10 UNL     1     -34.527   4.489   4.065  1.00 20.00    -0.242 NA
HETATM   11  N11 UNL     1     -33.181   4.934   2.367  1.00 20.00    -0.338 N 
HETATM   12  S12 UNL     1     -31.917   7.600   1.235  1.00 20.00    -0.126 SA
ENDROOT
TORSDOF 0
ENDMDL
MODEL 9
REMARK VINA RESULT:       5.4      1.956      3.340
REMARK  0 active torsions:
REMARK  status: ('A' for Active; 'I' for Inactive)
ROOT
HETATM    1  C1  UNL     1     -32.740   8.942   4.951  1.00 20.00     0.004 A 
HETATM    2  C2  UNL     1     -33.827   8.105   5.259  1.00 20.00     0.034 A 
HETATM    3  C3  UNL     1     -32.002   8.780   3.770  1.00 20.00     0.021 A 
HETATM    4  C4  UNL     1     -35.024   5.460   3.251  1.00 20.00     0.210 A 
HETATM    5  C5  UNL     1     -34.167   7.095   4.346  1.00 20.00     0.086 A 
HETATM    6  C6  UNL     1     -33.412   6.969   3.190  1.00 20.00     0.081 A 
HETATM    7  C7  UNL     1     -32.322   7.770   2.860  1.00 20.00     0.029 A 
HETATM    8  C8  UNL     1     -33.503   5.482   1.220  1.00 20.00     0.140 C 
HETATM    9  C9  UNL     1     -31.997   5.717   1.049  1.00 20.00     0.100 C 
HETATM   10  N10 UNL     1     -35.165   6.143   4.369  1.00 20.00    -0.242 NA
HETATM   11  N11 UNL     1     -33.982   5.928   2.512  1.00 20.00    -0.338 N 
HETATM   12  S12 UNL     1     -31.486   7.466   1.334  1.00 20.00    -0.126 SA
ENDROOT
TORSDOF 0
ENDMDL
