MODEL 1
REMARK VINA RESULT:      -3.0      0.000      0.000
REMARK  2 active torsions:
REMARK  status: ('A' for Active; 'I' for Inactive)
REMARK    1  A    between atoms: C1_1  and  C2_2 
REMARK    2  A    between atoms: C2_2  and  C3_3 
ROOT
HETATM    1  C2  UNL     1     -33.500   6.831   2.118  1.00 20.00     0.218 C 
HETATM    2 CL8  UNL     1     -32.171   8.016   2.274  1.00 20.00    -0.113 Cl
ENDROOT
BRANCH   1   3
HETATM    3  C1  UNL     1     -32.964   5.542   1.513  1.00 20.00     0.251 C 
HETATM    4  F4  UNL     1     -31.619   5.633   1.343  1.00 20.00    -0.254 F 
ENDBRANCH   1   3
BRANCH   1   5
HETATM    5  C3  UNL     1     -34.140   6.607   3.475  1.00 20.00     0.406 C 
HETATM    6  F5  UNL     1     -35.483   6.744   3.400  1.00 20.00    -0.169 F 
HETATM    7  F6  UNL     1     -33.691   7.483   4.399  1.00 20.00    -0.169 F 
HETATM    8  F7  UNL     1     -33.891   5.359   3.932  1.00 20.00    -0.169 F 
ENDBRANCH   1   5
TORSDOF 2
ENDMDL
MODEL 2
REMARK VINA RESULT:      -3.0      2.085      3.478
REMARK  2 active torsions:
REMARK  status: ('A' for Active; 'I' for Inactive)
REMARK    1  A    between atoms: C1_1  and  C2_2 
REMARK    2  A    between atoms: C2_2  and  C3_3 
ROOT
HETATM    1  C2  UNL     1     -33.325   7.226   2.249  1.00 20.00     0.218 C 
HETATM    2 CL8  UNL     1     -32.984   5.535   1.779  1.00 20.00    -0.113 Cl
ENDROOT
BRANCH   1   3
HETATM    3  C1  UNL     1     -33.814   7.266   3.690  1.00 20.00     0.251 C 
HETATM    4  F4  UNL     1     -35.005   6.619   3.793  1.00 20.00    -0.254 F 
ENDBRANCH   1   3
BRANCH   1   5
HETATM    5  C3  UNL     1     -32.082   8.070   2.040  1.00 20.00     0.406 C 
HETATM    6  F5  UNL     1     -31.109   7.351   1.436  1.00 20.00    -0.169 F 
HETATM    7  F6  UNL     1     -31.582   8.534   3.206  1.00 20.00    -0.169 F 
HETATM    8  F7  UNL     1     -32.343   9.134   1.249  1.00 20.00    -0.169 F 
ENDBRANCH   1   5
TORSDOF 2
ENDMDL
MODEL 3
REMARK VINA RESULT:      -3.0      1.928      2.835
REMARK  2 active torsions:
REMARK  status: ('A' for Active; 'I' for Inactive)
REMARK    1  A    between atoms: C1_1  and  C2_2 
REMARK    2  A    between atoms: C2_2  and  C3_3 
ROOT
HETATM    1  C2  UNL     1     -33.133   7.252   2.039  1.00 20.00     0.218 C 
HETATM    2 CL8  UNL     1     -33.779   7.331   3.704  1.00 20.00    -0.113 Cl
ENDROOT
BRANCH   1   3
HETATM    3  C1  UNL     1     -31.879   8.107   1.937  1.00 20.00     0.251 C 
HETATM    4  F4  UNL     1     -31.882   8.799   0.767  1.00 20.00    -0.254 F 
ENDBRANCH   1   3
BRANCH   1   5
HETATM    5  C3  UNL     1     -32.874   5.805   1.664  1.00 20.00     0.406 C 
HETATM    6  F5  UNL     1     -33.565   5.467   0.551  1.00 20.00    -0.169 F 
HETATM    7  F6  UNL     1     -33.240   4.953   2.646  1.00 20.00    -0.169 F 
HETATM    8  F7  UNL     1     -31.565   5.596   1.400  1.00 20.00    -0.169 F 
ENDBRANCH   1   5
TORSDOF 2
ENDMDL
MODEL 4
REMARK VINA RESULT:      -2.8      2.021      2.378
REMARK  2 active torsions:
REMARK  status: ('A' for Active; 'I' for Inactive)
REMARK    1  A    between atoms: C1_1  and  C2_2 
REMARK    2  A    between atoms: C2_2  and  C3_3 
ROOT
HETATM    1  C2  UNL     1     -33.656   5.645   3.517  1.00 20.00     0.218 C 
HETATM    2 CL8  UNL     1     -33.888   3.931   3.969  1.00 20.00    -0.113 Cl
ENDROOT
BRANCH   1   3
HETATM    3  C1  UNL     1     -33.362   5.744   2.027  1.00 20.00     0.251 C 
HETATM    4  F4  UNL     1     -32.618   6.853   1.774  1.00 20.00    -0.254 F 
ENDBRANCH   1   3
BRANCH   1   5
HETATM    5  C3  UNL     1     -34.882   6.445   3.916  1.00 20.00     0.406 C 
HETATM    6  F5  UNL     1     -35.652   5.744   4.778  1.00 20.00    -0.169 F 
HETATM    7  F6  UNL     1     -35.647   6.764   2.850  1.00 20.00    -0.169 F 
HETATM    8  F7  UNL     1     -34.534   7.595   4.535  1.00 20.00    -0.169 F 
ENDBRANCH   1   5
TORSDOF 2
ENDMDL
MODEL 5
REMARK VINA RESULT:      -2.8      2.016      2.081
REMARK  2 active torsions:
REMARK  status: ('A' for Active; 'I' for Inactive)
REMARK    1  A    between atoms: C1_1  and  C2_2 
REMARK    2  A    between atoms: C2_2  and  C3_3 
ROOT
HETATM    1  C2  UNL     1     -33.643   5.644   3.512  1.00 20.00     0.218 C 
HETATM    2 CL8  UNL     1     -33.888   3.933   3.967  1.00 20.00    -0.113 Cl
ENDROOT
BRANCH   1   3
HETATM    3  C1  UNL     1     -33.361   5.739   2.019  1.00 20.00     0.251 C 
HETATM    4  F4  UNL     1     -32.607   6.839   1.759  1.00 20.00    -0.254 F 
ENDBRANCH   1   3
BRANCH   1   5
HETATM    5  C3  UNL     1     -34.858   6.456   3.919  1.00 20.00     0.406 C 
HETATM    6  F5  UNL     1     -35.604   6.778   2.838  1.00 20.00    -0.169 F 
HETATM    7  F6  UNL     1     -34.515   7.606   4.537  1.00 20.00    -0.169 F 
HETATM    8  F7  UNL     1     -35.653   5.755   4.759  1.00 20.00    -0.169 F 
ENDBRANCH   1   5
TORSDOF 2
ENDMDL
MODEL 6
REMARK VINA RESULT:      -2.6      1.278      3.020
REMARK  2 active torsions:
REMARK  status: ('A' for Active; 'I' for Inactive)
REMARK    1  A    between atoms: C1_1  and  C2_2 
REMARK    2  A    between atoms: C2_2  and  C3_3 
ROOT
HETATM    1  C2  UNL     1     -32.575   7.173   2.515  1.00 20.00     0.218 C 
HETATM    2 CL8  UNL     1     -32.243   8.497   1.362  1.00 20.00    -0.113 Cl
ENDROOT
BRANCH   1   3
HETATM    3  C1  UNL     1     -33.805   7.515   3.344  1.00 20.00     0.251 C 
HETATM    4  F4  UNL     1     -33.434   7.861   4.604  1.00 20.00    -0.254 F 
ENDBRANCH   1   3
BRANCH   1   5
HETATM    5  C3  UNL     1     -32.737   5.869   1.757  1.00 20.00     0.406 C 
HETATM    6  F5  UNL     1     -33.279   4.917   2.550  1.00 20.00    -0.169 F 
HETATM    7  F6  UNL     1     -31.557   5.397   1.301  1.00 20.00    -0.169 F 
HETATM    8  F7  UNL     1     -33.561   6.021   0.696  1.00 20.00    -0.169 F 
ENDBRANCH   1   5
TORSDOF 2
ENDMDL
MODEL 7
REMARK VINA RESULT:      -2.5      1.876      3.448
REMARK  2 active torsions:
REMARK  status: ('A' for Active; 'I' for Inactive)
REMARK    1  A    between atoms: C1_1  and  C2_2 
REMARK    2  A    between atoms: C2_2  and  C3_3 
ROOT
HETATM    1  C2  UNL     1     -33.896   6.085   2.800  1.00 20.00     0.218 C 
HETATM    2 CL8  UNL     1     -33.769   4.569   3.738  1.00 20.00    -0.113 Cl
ENDROOT
BRANCH   1   3
HETATM    3  C1  UNL     1     -33.705   7.276   3.728  1.00 20.00     0.251 C 
HETATM    4  F4  UNL     1     -34.777   7.398   4.554  1.00 20.00    -0.254 F 
ENDBRANCH   1   3
BRANCH   1   5
HETATM    5  C3  UNL     1     -32.885   6.069   1.670  1.00 20.00     0.406 C 
HETATM    6  F5  UNL     1     -33.491   5.813   0.488  1.00 20.00    -0.169 F 
HETATM    7  F6  UNL     1     -31.935   5.128   1.853  1.00 20.00    -0.169 F 
HETATM    8  F7  UNL     1     -32.267   7.265   1.551  1.00 20.00    -0.169 F 
ENDBRANCH   1   5
TORSDOF 2
ENDMDL
MODEL 8
REMARK VINA RESULT:      -2.5      2.049      2.460
REMARK  2 active torsions:
REMARK  status: ('A' for Active; 'I' for Inactive)
REMARK    1  A    between atoms: C1_1  and  C2_2 
REMARK    2  A    between atoms: C2_2  and  C3_3 
ROOT
HETATM    1  C2  UNL     1     -34.131   5.560   3.062  1.00 20.00     0.218 C 
HETATM    2 CL8  UNL     1     -33.011   6.719   2.290  1.00 20.00    -0.113 Cl
ENDROOT
BRANCH   1   3
HETATM    3  C1  UNL     1     -33.338   4.554   3.882  1.00 20.00     0.251 C 
HETATM    4  F4  UNL     1     -34.048   3.402   4.017  1.00 20.00    -0.254 F 
ENDBRANCH   1   3
BRANCH   1   5
HETATM    5  C3  UNL     1     -35.144   6.315   3.901  1.00 20.00     0.406 C 
HETATM    6  F5  UNL     1     -35.616   5.535   4.900  1.00 20.00    -0.169 F 
HETATM    7  F6  UNL     1     -36.201   6.728   3.170  1.00 20.00    -0.169 F 
HETATM    8  F7  UNL     1     -34.586   7.405   4.475  1.00 20.00    -0.169 F 
ENDBRANCH   1   5
TORSDOF 2
ENDMDL
MODEL 9
REMARK VINA RESULT:      -2.5      1.687      2.315
REMARK  2 active torsions:
REMARK  status: ('A' for Active; 'I' for Inactive)
REMARK    1  A    between atoms: C1_1  and  C2_2 
REMARK    2  A    between atoms: C2_2  and  C3_3 
ROOT
HETATM    1  C2  UNL     1     -32.655   7.135   2.704  1.00 20.00     0.218 C 
HETATM    2 CL8  UNL     1     -33.030   5.761   1.624  1.00 20.00    -0.113 Cl
ENDROOT
BRANCH   1   3
HETATM    3  C1  UNL     1     -32.351   8.371   1.869  1.00 20.00     0.251 C 
HETATM    4  F4  UNL     1     -31.351   8.102   0.990  1.00 20.00    -0.254 F 
ENDBRANCH   1   3
BRANCH   1   5
HETATM    5  C3  UNL     1     -33.811   7.358   3.661  1.00 20.00     0.406 C 
HETATM    6  F5  UNL     1     -33.365   7.813   4.854  1.00 20.00    -0.169 F 
HETATM    7  F6  UNL     1     -34.505   6.223   3.890  1.00 20.00    -0.169 F 
HETATM    8  F7  UNL     1     -34.673   8.280   3.179  1.00 20.00    -0.169 F 
ENDBRANCH   1   5
TORSDOF 2
ENDMDL
