MODEL 1
REMARK VINA RESULT:      -0.4      0.000      0.000
REMARK  2 active torsions:
REMARK  status: ('A' for Active; 'I' for Inactive)
REMARK    1  A    between atoms: C1_1  and  C2_2 
REMARK    2  A    between atoms: C1_1  and  C3_3 
ROOT
HETATM    1  C2  UNL     1     -31.973   7.504   1.797  1.00 20.00     0.043 A 
HETATM    2  C4  UNL     1     -32.772   6.933   2.860  1.00 20.00     0.013 A 
HETATM    3  C5  UNL     1     -32.601   6.215   1.525  1.00 20.00    -0.023 A 
HETATM    4  C8  UNL     1     -34.074   7.500   3.313  1.00 20.00     0.012 C 
HETATM    5  C9  UNL     1     -31.689   5.010   1.502  1.00 20.00     0.017 C 
HETATM    6  C10 UNL     1     -33.763   6.104   0.569  1.00 20.00     0.017 C 
ENDROOT
BRANCH   1   7
HETATM    7  C1  UNL     1     -32.241   8.608   1.177  1.00 20.00    -0.159 C 
BRANCH   7   8
HETATM    8  C3  UNL     1     -32.511   9.722   0.551  1.00 20.00     0.022 C 
HETATM    9  C6  UNL     1     -32.667   9.785  -0.942  1.00 20.00     0.029 C 
HETATM   10  C7  UNL     1     -32.693  11.026   1.274  1.00 20.00     0.029 C 
ENDBRANCH   7   8
ENDBRANCH   1   7
TORSDOF 2
ENDMDL
MODEL 2
REMARK VINA RESULT:       0.9      1.957      3.796
REMARK  2 active torsions:
REMARK  status: ('A' for Active; 'I' for Inactive)
REMARK    1  A    between atoms: C1_1  and  C2_2 
REMARK    2  A    between atoms: C1_1  and  C3_3 
ROOT
HETATM    1  C2  UNL     1     -33.396   6.163   1.494  1.00 20.00     0.043 A 
HETATM    2  C4  UNL     1     -32.229   6.834   0.965  1.00 20.00     0.013 A 
HETATM    3  C5  UNL     1     -32.225   5.333   1.230  1.00 20.00    -0.023 A 
HETATM    4  C8  UNL     1     -31.402   7.798   1.747  1.00 20.00     0.012 C 
HETATM    5  C9  UNL     1     -32.300   4.419   0.030  1.00 20.00     0.017 C 
HETATM    6  C10 UNL     1     -31.405   4.765   2.363  1.00 20.00     0.017 C 
ENDROOT
BRANCH   1   7
HETATM    7  C1  UNL     1     -33.909   6.376   2.663  1.00 20.00    -0.159 C 
BRANCH   7   8
HETATM    8  C3  UNL     1     -34.428   6.590   3.843  1.00 20.00     0.022 C 
HETATM    9  C6  UNL     1     -35.445   5.667   4.451  1.00 20.00     0.029 C 
HETATM   10  C7  UNL     1     -34.045   7.772   4.686  1.00 20.00     0.029 C 
ENDBRANCH   7   8
ENDBRANCH   1   7
TORSDOF 2
ENDMDL
MODEL 3
REMARK VINA RESULT:       1.0      2.105      4.805
REMARK  2 active torsions:
REMARK  status: ('A' for Active; 'I' for Inactive)
REMARK    1  A    between atoms: C1_1  and  C2_2 
REMARK    2  A    between atoms: C1_1  and  C3_3 
ROOT
HETATM    1  C2  UNL     1     -32.397   5.579   2.267  1.00 20.00     0.043 A 
HETATM    2  C4  UNL     1     -32.788   5.837   0.899  1.00 20.00     0.013 A 
HETATM    3  C5  UNL     1     -32.587   6.976   1.892  1.00 20.00    -0.023 A 
HETATM    4  C8  UNL     1     -34.121   5.477   0.336  1.00 20.00     0.012 C 
HETATM    5  C9  UNL     1     -31.338   7.812   1.741  1.00 20.00     0.017 C 
HETATM    6  C10 UNL     1     -33.774   7.760   2.397  1.00 20.00     0.017 C 
ENDROOT
BRANCH   1   7
HETATM    7  C1  UNL     1     -33.110   4.937   3.135  1.00 20.00    -0.159 C 
BRANCH   7   8
HETATM    8  C3  UNL     1     -33.831   4.290   4.012  1.00 20.00     0.022 C 
HETATM    9  C6  UNL     1     -33.404   2.968   4.584  1.00 20.00     0.029 C 
HETATM   10  C7  UNL     1     -35.142   4.818   4.519  1.00 20.00     0.029 C 
ENDBRANCH   7   8
ENDBRANCH   1   7
TORSDOF 2
ENDMDL
MODEL 4
REMARK VINA RESULT:       1.1      1.106      2.439
REMARK  2 active torsions:
REMARK  status: ('A' for Active; 'I' for Inactive)
REMARK    1  A    between atoms: C1_1  and  C2_2 
REMARK    2  A    between atoms: C1_1  and  C3_3 
ROOT
HETATM    1  C2  UNL     1     -33.624   7.358   1.686  1.00 20.00     0.043 A 
HETATM    2  C4  UNL     1     -33.097   6.055   2.027  1.00 20.00     0.013 A 
HETATM    3  C5  UNL     1     -33.576   7.021   3.105  1.00 20.00    -0.023 A 
HETATM    4  C8  UNL     1     -31.666   5.670   1.861  1.00 20.00     0.012 C 
HETATM    5  C9  UNL     1     -34.895   6.712   3.772  1.00 20.00     0.017 C 
HETATM    6  C10 UNL     1     -32.580   7.683   4.027  1.00 20.00     0.017 C 
ENDROOT
BRANCH   1   7
HETATM    7  C1  UNL     1     -32.949   8.308   1.123  1.00 20.00    -0.159 C 
BRANCH   7   8
HETATM    8  C3  UNL     1     -32.268   9.267   0.554  1.00 20.00     0.022 C 
HETATM    9  C6  UNL     1     -30.960   9.019  -0.141  1.00 20.00     0.029 C 
HETATM   10  C7  UNL     1     -32.743  10.692   0.546  1.00 20.00     0.029 C 
ENDBRANCH   7   8
ENDBRANCH   1   7
TORSDOF 2
ENDMDL
MODEL 5
REMARK VINA RESULT:       1.3      1.330      3.636
REMARK  2 active torsions:
REMARK  status: ('A' for Active; 'I' for Inactive)
REMARK    1  A    between atoms: C1_1  and  C2_2 
REMARK    2  A    between atoms: C1_1  and  C3_3 
ROOT
HETATM    1  C2  UNL     1     -31.939   7.610   2.308  1.00 20.00     0.043 A 
HETATM    2  C4  UNL     1     -31.780   6.708   1.188  1.00 20.00     0.013 A 
HETATM    3  C5  UNL     1     -32.022   8.199   0.975  1.00 20.00    -0.023 A 
HETATM    4  C8  UNL     1     -32.776   5.664   0.816  1.00 20.00     0.012 C 
HETATM    5  C9  UNL     1     -30.844   9.034   0.531  1.00 20.00     0.017 C 
HETATM    6  C10 UNL     1     -33.341   8.681   0.420  1.00 20.00     0.017 C 
ENDROOT
BRANCH   1   7
HETATM    7  C1  UNL     1     -32.909   7.566   3.164  1.00 20.00    -0.159 C 
BRANCH   7   8
HETATM    8  C3  UNL     1     -33.887   7.523   4.029  1.00 20.00     0.022 C 
HETATM    9  C6  UNL     1     -35.083   6.633   3.844  1.00 20.00     0.029 C 
HETATM   10  C7  UNL     1     -33.892   8.357   5.278  1.00 20.00     0.029 C 
ENDBRANCH   7   8
ENDBRANCH   1   7
TORSDOF 2
ENDMDL
MODEL 6
REMARK VINA RESULT:       1.5      1.771      3.573
REMARK  2 active torsions:
REMARK  status: ('A' for Active; 'I' for Inactive)
REMARK    1  A    between atoms: C1_1  and  C2_2 
REMARK    2  A    between atoms: C1_1  and  C3_3 
ROOT
HETATM    1  C2  UNL     1     -33.667   6.034   3.748  1.00 20.00     0.043 A 
HETATM    2  C4  UNL     1     -34.073   7.055   4.689  1.00 20.00     0.013 A 
HETATM    3  C5  UNL     1     -35.102   6.202   3.954  1.00 20.00    -0.023 A 
HETATM    4  C8  UNL     1     -33.910   8.517   4.446  1.00 20.00     0.012 C 
HETATM    5  C9  UNL     1     -35.801   5.126   4.750  1.00 20.00     0.017 C 
HETATM    6  C10 UNL     1     -35.972   6.817   2.885  1.00 20.00     0.017 C 
ENDROOT
BRANCH   1   7
HETATM    7  C1  UNL     1     -33.043   6.254   2.636  1.00 20.00    -0.159 C 
BRANCH   7   8
HETATM    8  C3  UNL     1     -32.413   6.476   1.513  1.00 20.00     0.022 C 
HETATM    9  C6  UNL     1     -31.956   7.848   1.106  1.00 20.00     0.029 C 
HETATM   10  C7  UNL     1     -32.092   5.376   0.542  1.00 20.00     0.029 C 
ENDBRANCH   7   8
ENDBRANCH   1   7
TORSDOF 2
ENDMDL
MODEL 7
REMARK VINA RESULT:       1.6      1.537      2.296
REMARK  2 active torsions:
REMARK  status: ('A' for Active; 'I' for Inactive)
REMARK    1  A    between atoms: C1_1  and  C2_2 
REMARK    2  A    between atoms: C1_1  and  C3_3 
ROOT
HETATM    1  C2  UNL     1     -32.766   6.972   2.941  1.00 20.00     0.043 A 
HETATM    2  C4  UNL     1     -33.055   7.228   4.335  1.00 20.00     0.013 A 
HETATM    3  C5  UNL     1     -34.081   6.564   3.424  1.00 20.00    -0.023 A 
HETATM    4  C8  UNL     1     -33.240   8.593   4.905  1.00 20.00     0.012 C 
HETATM    5  C9  UNL     1     -34.306   5.081   3.602  1.00 20.00     0.017 C 
HETATM    6  C10 UNL     1     -35.326   7.313   3.011  1.00 20.00     0.017 C 
ENDROOT
BRANCH   1   7
HETATM    7  C1  UNL     1     -32.550   7.883   2.047  1.00 20.00    -0.159 C 
BRANCH   7   8
HETATM    8  C3  UNL     1     -32.331   8.801   1.145  1.00 20.00     0.022 C 
HETATM    9  C6  UNL     1     -32.998  10.147   1.191  1.00 20.00     0.029 C 
HETATM   10  C7  UNL     1     -31.392   8.587  -0.008  1.00 20.00     0.029 C 
ENDBRANCH   7   8
ENDBRANCH   1   7
TORSDOF 2
ENDMDL
MODEL 8
REMARK VINA RESULT:       1.8      2.136      3.919
REMARK  2 active torsions:
REMARK  status: ('A' for Active; 'I' for Inactive)
REMARK    1  A    between atoms: C1_1  and  C2_2 
REMARK    2  A    between atoms: C1_1  and  C3_3 
ROOT
HETATM    1  C2  UNL     1     -34.284   5.584   2.570  1.00 20.00     0.043 A 
HETATM    2  C4  UNL     1     -34.464   4.794   3.768  1.00 20.00     0.013 A 
HETATM    3  C5  UNL     1     -34.756   6.290   3.757  1.00 20.00    -0.023 A 
HETATM    4  C8  UNL     1     -33.339   4.193   4.541  1.00 20.00     0.012 C 
HETATM    5  C9  UNL     1     -36.206   6.711   3.761  1.00 20.00     0.017 C 
HETATM    6  C10 UNL     1     -33.854   7.244   4.502  1.00 20.00     0.017 C 
ENDROOT
BRANCH   1   7
HETATM    7  C1  UNL     1     -33.150   5.793   1.981  1.00 20.00    -0.159 C 
BRANCH   7   8
HETATM    8  C3  UNL     1     -32.006   6.004   1.387  1.00 20.00     0.022 C 
HETATM    9  C6  UNL     1     -31.235   4.903   0.715  1.00 20.00     0.029 C 
HETATM   10  C7  UNL     1     -31.374   7.365   1.324  1.00 20.00     0.029 C 
ENDBRANCH   7   8
ENDBRANCH   1   7
TORSDOF 2
ENDMDL
MODEL 9
REMARK VINA RESULT:       1.9      2.136      3.838
REMARK  2 active torsions:
REMARK  status: ('A' for Active; 'I' for Inactive)
REMARK    1  A    between atoms: C1_1  and  C2_2 
REMARK    2  A    between atoms: C1_1  and  C3_3 
ROOT
HETATM    1  C2  UNL     1     -33.125   5.121   2.042  1.00 20.00     0.043 A 
HETATM    2  C4  UNL     1     -33.350   5.148   0.613  1.00 20.00     0.013 A 
HETATM    3  C5  UNL     1     -32.035   5.631   1.216  1.00 20.00    -0.023 A 
HETATM    4  C8  UNL     1     -34.319   6.063  -0.056  1.00 20.00     0.012 C 
HETATM    5  C9  UNL     1     -30.831   4.734   1.056  1.00 20.00     0.017 C 
HETATM    6  C10 UNL     1     -31.692   7.101   1.208  1.00 20.00     0.017 C 
ENDROOT
BRANCH   1   7
HETATM    7  C1  UNL     1     -33.788   5.813   2.911  1.00 20.00    -0.159 C 
BRANCH   7   8
HETATM    8  C3  UNL     1     -34.456   6.512   3.790  1.00 20.00     0.022 C 
HETATM    9  C6  UNL     1     -35.707   5.996   4.443  1.00 20.00     0.029 C 
HETATM   10  C7  UNL     1     -34.025   7.885   4.219  1.00 20.00     0.029 C 
ENDBRANCH   7   8
ENDBRANCH   1   7
TORSDOF 2
ENDMDL
