MODEL 1
REMARK VINA RESULT:       0.2      0.000      0.000
REMARK  1 active torsions:
REMARK  status: ('A' for Active; 'I' for Inactive)
REMARK    1  A    between atoms: C1_1  and  C5_5 
ROOT
HETATM    1  C3  UNL     1     -31.741   6.464   1.654  1.00 20.00     0.207 C 
HETATM    2  C4  UNL     1     -34.086   5.946   1.706  1.00 20.00     0.208 C 
HETATM    3  C5  UNL     1     -32.172   7.667   2.501  1.00 20.00     0.267 C 
HETATM    4  C6  UNL     1     -34.012   6.174   3.224  1.00 20.00     0.172 C 
HETATM    5  C8  UNL     1     -35.406   6.554   3.748  1.00 20.00     0.051 C 
HETATM    6  C9  UNL     1     -33.552   4.892   3.944  1.00 20.00     0.051 C 
HETATM    7  N10 UNL     1     -33.108   7.287   3.561  1.00 20.00     0.104 N 
HETATM    8  O11 UNL     1     -32.813   5.689   1.120  1.00 20.00    -0.386 OA
HETATM    9  H28 UNL     1     -32.586   7.055   4.415  1.00 20.00     0.318 HD
ENDROOT
BRANCH   3  10
HETATM   10  C1  UNL     1     -32.707   8.792   1.663  1.00 20.00     0.006 C 
HETATM   11  C2  UNL     1     -32.140   9.209   0.522  1.00 20.00    -0.033 C 
HETATM   12  C7  UNL     1     -32.673  10.327  -0.311  1.00 20.00     0.036 C 
ENDBRANCH   3  10
TORSDOF 1
ENDMDL
MODEL 2
REMARK VINA RESULT:       1.3      1.014      4.392
REMARK  1 active torsions:
REMARK  status: ('A' for Active; 'I' for Inactive)
REMARK    1  A    between atoms: C1_1  and  C5_5 
ROOT
HETATM    1  C3  UNL     1     -33.512   5.573   1.317  1.00 20.00     0.207 C 
HETATM    2  C4  UNL     1     -31.435   6.642   1.875  1.00 20.00     0.208 C 
HETATM    3  C5  UNL     1     -33.934   6.073   2.703  1.00 20.00     0.267 C 
HETATM    4  C6  UNL     1     -32.274   7.863   2.281  1.00 20.00     0.172 C 
HETATM    5  C8  UNL     1     -31.488   8.702   3.301  1.00 20.00     0.051 C 
HETATM    6  C9  UNL     1     -32.580   8.744   1.055  1.00 20.00     0.051 C 
HETATM    7  N10 UNL     1     -33.533   7.463   2.934  1.00 20.00     0.104 N 
HETATM    8  O11 UNL     1     -32.131   5.752   1.008  1.00 20.00    -0.386 OA
HETATM    9  H28 UNL     1     -34.287   8.093   2.634  1.00 20.00     0.318 HD
ENDROOT
BRANCH   3  10
HETATM   10  C1  UNL     1     -33.462   5.169   3.805  1.00 20.00     0.006 C 
HETATM   11  C2  UNL     1     -33.709   3.851   3.847  1.00 20.00    -0.033 C 
HETATM   12  C7  UNL     1     -33.238   2.952   4.942  1.00 20.00     0.036 C 
ENDBRANCH   3  10
TORSDOF 1
ENDMDL
MODEL 3
REMARK VINA RESULT:       2.2      1.970      4.382
REMARK  1 active torsions:
REMARK  status: ('A' for Active; 'I' for Inactive)
REMARK    1  A    between atoms: C1_1  and  C5_5 
ROOT
HETATM    1  C3  UNL     1     -33.401   6.141   1.527  1.00 20.00     0.207 C 
HETATM    2  C4  UNL     1     -32.288   7.527   3.143  1.00 20.00     0.208 C 
HETATM    3  C5  UNL     1     -34.097   5.567   2.766  1.00 20.00     0.267 C 
HETATM    4  C6  UNL     1     -33.681   7.813   3.725  1.00 20.00     0.172 C 
HETATM    5  C8  UNL     1     -33.541   8.214   5.202  1.00 20.00     0.051 C 
HETATM    6  C9  UNL     1     -34.360   8.970   2.966  1.00 20.00     0.051 C 
HETATM    7  N10 UNL     1     -34.541   6.618   3.685  1.00 20.00     0.104 N 
HETATM    8  O11 UNL     1     -32.334   7.047   1.803  1.00 20.00    -0.386 OA
HETATM    9  H28 UNL     1     -35.502   6.897   3.451  1.00 20.00     0.318 HD
ENDROOT
BRANCH   3  10
HETATM   10  C1  UNL     1     -33.260   4.535   3.465  1.00 20.00     0.006 C 
HETATM   11  C2  UNL     1     -33.743   3.667   4.366  1.00 20.00    -0.033 C 
HETATM   12  C7  UNL     1     -32.910   2.640   5.059  1.00 20.00     0.036 C 
ENDBRANCH   3  10
TORSDOF 1
ENDMDL
