MODEL 1
REMARK VINA RESULT:      -1.8      0.000      0.000
REMARK  0 active torsions:
REMARK  status: ('A' for Active; 'I' for Inactive)
ROOT
HETATM    1  C1  UNL     1     -31.486   7.947   1.853  1.00 20.00     0.010 A 
HETATM    2  C2  UNL     1     -32.798   8.492   1.356  1.00 20.00     0.010 A 
HETATM    3  C3  UNL     1     -35.673   6.803   3.292  1.00 20.00     0.010 A 
HETATM    4  C4  UNL     1     -35.090   5.829   4.281  1.00 20.00     0.010 A 
HETATM    5  C5  UNL     1     -33.301   6.081   2.344  1.00 20.00     0.019 C 
HETATM    6  C6  UNL     1     -33.216   7.647   3.836  1.00 20.00     0.019 C 
HETATM    7  C7  UNL     1     -32.772   7.458   2.439  1.00 20.00    -0.038 A 
HETATM    8  C8  UNL     1     -34.188   6.625   3.394  1.00 20.00    -0.038 A 
ENDROOT
TORSDOF 0
ENDMDL
MODEL 2
REMARK VINA RESULT:      -1.8      0.022      3.411
REMARK  0 active torsions:
REMARK  status: ('A' for Active; 'I' for Inactive)
ROOT
HETATM    1  C1  UNL     1     -35.065   5.821   4.287  1.00 20.00     0.010 A 
HETATM    2  C2  UNL     1     -35.653   6.798   3.304  1.00 20.00     0.010 A 
HETATM    3  C3  UNL     1     -32.788   8.505   1.368  1.00 20.00     0.010 A 
HETATM    4  C4  UNL     1     -31.474   7.961   1.859  1.00 20.00     0.010 A 
HETATM    5  C5  UNL     1     -33.197   7.647   3.845  1.00 20.00     0.019 C 
HETATM    6  C6  UNL     1     -33.282   6.088   2.347  1.00 20.00     0.019 C 
HETATM    7  C7  UNL     1     -34.168   6.625   3.401  1.00 20.00    -0.038 A 
HETATM    8  C8  UNL     1     -32.756   7.466   2.447  1.00 20.00    -0.038 A 
ENDROOT
TORSDOF 0
ENDMDL
MODEL 3
REMARK VINA RESULT:      -1.0      0.751      1.587
REMARK  0 active torsions:
REMARK  status: ('A' for Active; 'I' for Inactive)
ROOT
HETATM    1  C1  UNL     1     -32.128   8.366   1.539  1.00 20.00     0.010 A 
HETATM    2  C2  UNL     1     -31.569   7.014   1.893  1.00 20.00     0.010 A 
HETATM    3  C3  UNL     1     -34.162   5.101   4.012  1.00 20.00     0.010 A 
HETATM    4  C4  UNL     1     -35.378   5.967   4.195  1.00 20.00     0.010 A 
HETATM    5  C5  UNL     1     -33.350   7.615   3.767  1.00 20.00     0.019 C 
HETATM    6  C6  UNL     1     -34.212   6.787   1.963  1.00 20.00     0.019 C 
HETATM    7  C7  UNL     1     -32.935   7.413   2.363  1.00 20.00    -0.038 A 
HETATM    8  C8  UNL     1     -34.212   6.470   3.407  1.00 20.00    -0.038 A 
ENDROOT
TORSDOF 0
ENDMDL
MODEL 4
REMARK VINA RESULT:      -1.0      0.745      3.448
REMARK  0 active torsions:
REMARK  status: ('A' for Active; 'I' for Inactive)
ROOT
HETATM    1  C1  UNL     1     -35.364   6.001   4.168  1.00 20.00     0.010 A 
HETATM    2  C2  UNL     1     -34.139   5.145   3.993  1.00 20.00     0.010 A 
HETATM    3  C3  UNL     1     -31.556   7.074   1.876  1.00 20.00     0.010 A 
HETATM    4  C4  UNL     1     -32.126   8.418   1.514  1.00 20.00     0.010 A 
HETATM    5  C5  UNL     1     -34.197   6.822   1.936  1.00 20.00     0.019 C 
HETATM    6  C6  UNL     1     -33.349   7.666   3.740  1.00 20.00     0.019 C 
HETATM    7  C7  UNL     1     -34.200   6.512   3.381  1.00 20.00    -0.038 A 
HETATM    8  C8  UNL     1     -32.927   7.462   2.338  1.00 20.00    -0.038 A 
ENDROOT
TORSDOF 0
ENDMDL
MODEL 5
REMARK VINA RESULT:      -0.9      1.248      3.176
REMARK  0 active torsions:
REMARK  status: ('A' for Active; 'I' for Inactive)
ROOT
HETATM    1  C1  UNL     1     -34.386   7.303   4.526  1.00 20.00     0.010 A 
HETATM    2  C2  UNL     1     -35.336   6.925   3.422  1.00 20.00     0.010 A 
HETATM    3  C3  UNL     1     -33.343   5.279   0.561  1.00 20.00     0.010 A 
HETATM    4  C4  UNL     1     -31.887   5.239   0.940  1.00 20.00     0.010 A 
HETATM    5  C5  UNL     1     -32.953   7.246   2.299  1.00 20.00     0.019 C 
HETATM    6  C6  UNL     1     -33.244   5.306   3.213  1.00 20.00     0.019 C 
HETATM    7  C7  UNL     1     -33.871   6.642   3.288  1.00 20.00    -0.038 A 
HETATM    8  C8  UNL     1     -32.889   5.831   1.878  1.00 20.00    -0.038 A 
ENDROOT
TORSDOF 0
ENDMDL
MODEL 6
REMARK VINA RESULT:      -0.9      1.255      1.943
REMARK  0 active torsions:
REMARK  status: ('A' for Active; 'I' for Inactive)
ROOT
HETATM    1  C1  UNL     1     -31.903   5.199   0.928  1.00 20.00     0.010 A 
HETATM    2  C2  UNL     1     -33.360   5.274   0.559  1.00 20.00     0.010 A 
HETATM    3  C3  UNL     1     -35.292   6.987   3.424  1.00 20.00     0.010 A 
HETATM    4  C4  UNL     1     -34.324   7.346   4.519  1.00 20.00     0.010 A 
HETATM    5  C5  UNL     1     -33.243   5.314   3.210  1.00 20.00     0.019 C 
HETATM    6  C6  UNL     1     -32.909   7.241   2.283  1.00 20.00     0.019 C 
HETATM    7  C7  UNL     1     -32.883   5.822   1.870  1.00 20.00    -0.038 A 
HETATM    8  C8  UNL     1     -33.835   6.666   3.282  1.00 20.00    -0.038 A 
ENDROOT
TORSDOF 0
ENDMDL
MODEL 7
REMARK VINA RESULT:      -0.8      2.121      3.481
REMARK  0 active torsions:
REMARK  status: ('A' for Active; 'I' for Inactive)
ROOT
HETATM    1  C1  UNL     1     -35.126   7.058   3.339  1.00 20.00     0.010 A 
HETATM    2  C2  UNL     1     -34.075   7.168   4.410  1.00 20.00     0.010 A 
HETATM    3  C3  UNL     1     -32.744   3.642   5.227  1.00 20.00     0.010 A 
HETATM    4  C4  UNL     1     -33.459   2.637   4.364  1.00 20.00     0.010 A 
HETATM    5  C5  UNL     1     -35.082   4.718   4.581  1.00 20.00     0.019 C 
HETATM    6  C6  UNL     1     -33.558   4.941   3.061  1.00 20.00     0.019 C 
HETATM    7  C7  UNL     1     -34.442   5.829   3.846  1.00 20.00    -0.038 A 
HETATM    8  C8  UNL     1     -33.786   4.091   4.249  1.00 20.00    -0.038 A 
ENDROOT
TORSDOF 0
ENDMDL
MODEL 8
REMARK VINA RESULT:      -0.8      2.130      3.779
REMARK  0 active torsions:
REMARK  status: ('A' for Active; 'I' for Inactive)
ROOT
HETATM    1  C1  UNL     1     -33.480   2.634   4.355  1.00 20.00     0.010 A 
HETATM    2  C2  UNL     1     -32.749   3.639   5.205  1.00 20.00     0.010 A 
HETATM    3  C3  UNL     1     -34.088   7.166   4.408  1.00 20.00     0.010 A 
HETATM    4  C4  UNL     1     -35.158   7.057   3.356  1.00 20.00     0.010 A 
HETATM    5  C5  UNL     1     -33.598   4.938   3.052  1.00 20.00     0.019 C 
HETATM    6  C6  UNL     1     -35.096   4.719   4.598  1.00 20.00     0.019 C 
HETATM    7  C7  UNL     1     -33.807   4.089   4.244  1.00 20.00    -0.038 A 
HETATM    8  C8  UNL     1     -34.466   5.828   3.851  1.00 20.00    -0.038 A 
ENDROOT
TORSDOF 0
ENDMDL
MODEL 9
REMARK VINA RESULT:      -0.3      1.258      3.398
REMARK  0 active torsions:
REMARK  status: ('A' for Active; 'I' for Inactive)
ROOT
HETATM    1  C1  UNL     1     -35.389   6.349   4.193  1.00 20.00     0.010 A 
HETATM    2  C2  UNL     1     -34.331   7.417   4.242  1.00 20.00     0.010 A 
HETATM    3  C3  UNL     1     -31.644   6.643   1.586  1.00 20.00     0.010 A 
HETATM    4  C4  UNL     1     -32.021   5.378   0.864  1.00 20.00     0.010 A 
HETATM    5  C5  UNL     1     -33.175   5.247   3.244  1.00 20.00     0.019 C 
HETATM    6  C6  UNL     1     -34.279   6.407   1.789  1.00 20.00     0.019 C 
HETATM    7  C7  UNL     1     -34.221   6.290   3.261  1.00 20.00    -0.038 A 
HETATM    8  C8  UNL     1     -32.897   5.909   1.952  1.00 20.00    -0.038 A 
ENDROOT
TORSDOF 0
ENDMDL
