MODEL 1
REMARK VINA RESULT:      -2.2      0.000      0.000
REMARK  4 active torsions:
REMARK  status: ('A' for Active; 'I' for Inactive)
REMARK    1  A    between atoms: C1_1  and  C7_7 
REMARK    2  A    between atoms: C1_1  and  C8_8 
REMARK    3  A    between atoms: C5_5  and  C6_6 
REMARK    4  A    between atoms: C6_6  and  C8_8 
ROOT
HETATM    1  C1  UNL     1     -33.306   6.288   2.607  1.00 20.00     0.148 C 
HETATM    2  O9  UNL     1     -33.001   5.571   1.653  1.00 20.00    -0.296 OA
ENDROOT
BRANCH   1   3
HETATM    3  C7  UNL     1     -34.025   5.734   3.836  1.00 20.00     0.049 C 
HETATM    4  C3  UNL     1     -33.955   4.210   3.874  1.00 20.00     0.017 C 
HETATM    5  C4  UNL     1     -35.474   6.210   3.847  1.00 20.00     0.017 C 
ENDBRANCH   1   3
BRANCH   1   6
HETATM    6  C8  UNL     1     -32.992   7.777   2.611  1.00 20.00     0.152 C 
HETATM    7 CL10 UNL     1     -32.749   8.242   4.318  1.00 20.00    -0.117 Cl
BRANCH   6   8
HETATM    8  C6  UNL     1     -31.741   8.101   1.794  1.00 20.00     0.027 C 
BRANCH   8   9
HETATM    9  C5  UNL     1     -32.085   8.695   0.425  1.00 20.00    -0.003 C 
HETATM   10  C2  UNL     1     -32.555  10.136   0.547  1.00 20.00     0.005 C 
ENDBRANCH   8   9
ENDBRANCH   6   8
ENDBRANCH   1   6
TORSDOF 4
ENDMDL
MODEL 2
REMARK VINA RESULT:      -1.8      1.885      2.150
REMARK  4 active torsions:
REMARK  status: ('A' for Active; 'I' for Inactive)
REMARK    1  A    between atoms: C1_1  and  C7_7 
REMARK    2  A    between atoms: C1_1  and  C8_8 
REMARK    3  A    between atoms: C5_5  and  C6_6 
REMARK    4  A    between atoms: C6_6  and  C8_8 
ROOT
HETATM    1  C1  UNL     1     -33.361   5.997   2.942  1.00 20.00     0.148 C 
HETATM    2  O9  UNL     1     -33.381   4.803   3.246  1.00 20.00    -0.296 OA
ENDROOT
BRANCH   1   3
HETATM    3  C7  UNL     1     -34.372   6.992   3.511  1.00 20.00     0.049 C 
HETATM    4  C3  UNL     1     -33.725   7.896   4.557  1.00 20.00     0.017 C 
HETATM    5  C4  UNL     1     -35.560   6.243   4.103  1.00 20.00     0.017 C 
ENDBRANCH   1   3
BRANCH   1   6
HETATM    6  C8  UNL     1     -32.330   6.549   1.968  1.00 20.00     0.152 C 
HETATM    7 CL10 UNL     1     -31.831   5.185   0.930  1.00 20.00    -0.117 Cl
BRANCH   6   8
HETATM    8  C6  UNL     1     -32.900   7.680   1.112  1.00 20.00     0.027 C 
BRANCH   8   9
HETATM    9  C5  UNL     1     -31.982   8.907   1.096  1.00 20.00    -0.003 C 
HETATM   10  C2  UNL     1     -32.466   9.949   0.100  1.00 20.00     0.005 C 
ENDBRANCH   8   9
ENDBRANCH   6   8
ENDBRANCH   1   6
TORSDOF 4
ENDMDL
MODEL 3
REMARK VINA RESULT:      -1.8      1.779      2.093
REMARK  4 active torsions:
REMARK  status: ('A' for Active; 'I' for Inactive)
REMARK    1  A    between atoms: C1_1  and  C7_7 
REMARK    2  A    between atoms: C1_1  and  C8_8 
REMARK    3  A    between atoms: C5_5  and  C6_6 
REMARK    4  A    between atoms: C6_6  and  C8_8 
ROOT
HETATM    1  C1  UNL     1     -33.418   6.934   3.348  1.00 20.00     0.148 C 
HETATM    2  O9  UNL     1     -33.486   7.849   4.170  1.00 20.00    -0.296 OA
ENDROOT
BRANCH   1   3
HETATM    3  C7  UNL     1     -34.403   5.765   3.356  1.00 20.00     0.049 C 
HETATM    4  C3  UNL     1     -35.638   6.094   4.191  1.00 20.00     0.017 C 
HETATM    5  C4  UNL     1     -33.713   4.510   3.878  1.00 20.00     0.017 C 
ENDBRANCH   1   3
BRANCH   1   6
HETATM    6  C8  UNL     1     -32.334   6.908   2.280  1.00 20.00     0.152 C 
HETATM    7 CL10 UNL     1     -33.028   6.056   0.872  1.00 20.00    -0.117 Cl
BRANCH   6   8
HETATM    8  C6  UNL     1     -31.893   8.316   1.878  1.00 20.00     0.027 C 
BRANCH   8   9
HETATM    9  C5  UNL     1     -32.328   8.670   0.452  1.00 20.00    -0.003 C 
HETATM   10  C2  UNL     1     -32.497  10.171   0.279  1.00 20.00     0.005 C 
ENDBRANCH   8   9
ENDBRANCH   6   8
ENDBRANCH   1   6
TORSDOF 4
ENDMDL
MODEL 4
REMARK VINA RESULT:      -1.8      1.813      4.670
REMARK  4 active torsions:
REMARK  status: ('A' for Active; 'I' for Inactive)
REMARK    1  A    between atoms: C1_1  and  C7_7 
REMARK    2  A    between atoms: C1_1  and  C8_8 
REMARK    3  A    between atoms: C5_5  and  C6_6 
REMARK    4  A    between atoms: C6_6  and  C8_8 
ROOT
HETATM    1  C1  UNL     1     -32.237   8.226   1.831  1.00 20.00     0.148 C 
HETATM    2  O9  UNL     1     -31.323   8.441   2.629  1.00 20.00    -0.296 OA
ENDROOT
BRANCH   1   3
HETATM    3  C7  UNL     1     -32.353   8.989   0.512  1.00 20.00     0.049 C 
HETATM    4  C3  UNL     1     -31.053   8.910  -0.285  1.00 20.00     0.017 C 
HETATM    5  C4  UNL     1     -32.735  10.439   0.784  1.00 20.00     0.017 C 
ENDBRANCH   1   3
BRANCH   1   6
HETATM    6  C8  UNL     1     -33.315   7.192   2.121  1.00 20.00     0.152 C 
HETATM    7 CL10 UNL     1     -32.656   5.613   1.608  1.00 20.00    -0.117 Cl
BRANCH   6   8
HETATM    8  C6  UNL     1     -33.685   7.151   3.604  1.00 20.00     0.027 C 
BRANCH   8   9
HETATM    9  C5  UNL     1     -35.076   6.551   3.833  1.00 20.00    -0.003 C 
HETATM   10  C2  UNL     1     -34.987   5.124   4.351  1.00 20.00     0.005 C 
ENDBRANCH   8   9
ENDBRANCH   6   8
ENDBRANCH   1   6
TORSDOF 4
ENDMDL
MODEL 5
REMARK VINA RESULT:      -1.4      1.496      4.668
REMARK  4 active torsions:
REMARK  status: ('A' for Active; 'I' for Inactive)
REMARK    1  A    between atoms: C1_1  and  C7_7 
REMARK    2  A    between atoms: C1_1  and  C8_8 
REMARK    3  A    between atoms: C5_5  and  C6_6 
REMARK    4  A    between atoms: C6_6  and  C8_8 
ROOT
HETATM    1  C1  UNL     1     -33.300   6.278   2.567  1.00 20.00     0.148 C 
HETATM    2  O9  UNL     1     -32.977   5.567   1.615  1.00 20.00    -0.296 OA
ENDROOT
BRANCH   1   3
HETATM    3  C7  UNL     1     -32.983   7.773   2.603  1.00 20.00     0.049 C 
HETATM    4  C3  UNL     1     -31.821   8.110   1.673  1.00 20.00     0.017 C 
HETATM    5  C4  UNL     1     -32.675   8.203   4.033  1.00 20.00     0.017 C 
ENDBRANCH   1   3
BRANCH   1   6
HETATM    6  C8  UNL     1     -34.028   5.703   3.774  1.00 20.00     0.152 C 
HETATM    7 CL10 UNL     1     -35.661   6.426   3.775  1.00 20.00    -0.117 Cl
BRANCH   6   8
HETATM    8  C6  UNL     1     -34.127   4.179   3.710  1.00 20.00     0.027 C 
BRANCH   8   9
HETATM    9  C5  UNL     1     -33.415   3.506   4.888  1.00 20.00    -0.003 C 
HETATM   10  C2  UNL     1     -33.154   2.034   4.611  1.00 20.00     0.005 C 
ENDBRANCH   8   9
ENDBRANCH   6   8
ENDBRANCH   1   6
TORSDOF 4
ENDMDL
MODEL 6
REMARK VINA RESULT:      -1.1      2.431      4.267
REMARK  4 active torsions:
REMARK  status: ('A' for Active; 'I' for Inactive)
REMARK    1  A    between atoms: C1_1  and  C7_7 
REMARK    2  A    between atoms: C1_1  and  C8_8 
REMARK    3  A    between atoms: C5_5  and  C6_6 
REMARK    4  A    between atoms: C6_6  and  C8_8 
ROOT
HETATM    1  C1  UNL     1     -33.249   7.023   2.693  1.00 20.00     0.148 C 
HETATM    2  O9  UNL     1     -32.351   7.709   2.202  1.00 20.00    -0.296 OA
ENDROOT
BRANCH   1   3
HETATM    3  C7  UNL     1     -34.229   7.589   3.719  1.00 20.00     0.049 C 
HETATM    4  C3  UNL     1     -33.512   7.969   5.012  1.00 20.00     0.017 C 
HETATM    5  C4  UNL     1     -35.336   6.577   3.991  1.00 20.00     0.017 C 
ENDBRANCH   1   3
BRANCH   1   6
HETATM    6  C8  UNL     1     -33.425   5.560   2.311  1.00 20.00     0.152 C 
HETATM    7 CL10 UNL     1     -32.682   5.362   0.699  1.00 20.00    -0.117 Cl
BRANCH   6   8
HETATM    8  C6  UNL     1     -32.758   4.621   3.317  1.00 20.00     0.027 C 
BRANCH   8   9
HETATM    9  C5  UNL     1     -33.781   3.763   4.069  1.00 20.00    -0.003 C 
HETATM   10  C2  UNL     1     -33.098   2.750   4.973  1.00 20.00     0.005 C 
ENDBRANCH   8   9
ENDBRANCH   6   8
ENDBRANCH   1   6
TORSDOF 4
ENDMDL
MODEL 7
REMARK VINA RESULT:      -1.0      1.647      4.086
REMARK  4 active torsions:
REMARK  status: ('A' for Active; 'I' for Inactive)
REMARK    1  A    between atoms: C1_1  and  C7_7 
REMARK    2  A    between atoms: C1_1  and  C8_8 
REMARK    3  A    between atoms: C5_5  and  C6_6 
REMARK    4  A    between atoms: C6_6  and  C8_8 
ROOT
HETATM    1  C1  UNL     1     -32.407   7.869   2.981  1.00 20.00     0.148 C 
HETATM    2  O9  UNL     1     -31.588   8.740   3.278  1.00 20.00    -0.296 OA
ENDROOT
BRANCH   1   3
HETATM    3  C7  UNL     1     -32.598   7.396   1.541  1.00 20.00     0.049 C 
HETATM    4  C3  UNL     1     -32.106   5.963   1.363  1.00 20.00     0.017 C 
HETATM    5  C4  UNL     1     -31.876   8.340   0.586  1.00 20.00     0.017 C 
ENDBRANCH   1   3
BRANCH   1   6
HETATM    6  C8  UNL     1     -33.290   7.220   4.038  1.00 20.00     0.152 C 
HETATM    7 CL10 UNL     1     -33.306   8.328   5.438  1.00 20.00    -0.117 Cl
BRANCH   6   8
HETATM    8  C6  UNL     1     -34.714   6.990   3.532  1.00 20.00     0.027 C 
BRANCH   8   9
HETATM    9  C5  UNL     1     -35.354   5.748   4.159  1.00 20.00    -0.003 C 
HETATM   10  C2  UNL     1     -34.394   4.569   4.161  1.00 20.00     0.005 C 
ENDBRANCH   8   9
ENDBRANCH   6   8
ENDBRANCH   1   6
TORSDOF 4
ENDMDL
MODEL 8
REMARK VINA RESULT:      -0.9      0.895      4.369
REMARK  4 active torsions:
REMARK  status: ('A' for Active; 'I' for Inactive)
REMARK    1  A    between atoms: C1_1  and  C7_7 
REMARK    2  A    between atoms: C1_1  and  C8_8 
REMARK    3  A    between atoms: C5_5  and  C6_6 
REMARK    4  A    between atoms: C6_6  and  C8_8 
ROOT
HETATM    1  C1  UNL     1     -33.001   7.012   2.362  1.00 20.00     0.148 C 
HETATM    2  O9  UNL     1     -33.035   6.163   1.469  1.00 20.00    -0.296 OA
ENDROOT
BRANCH   1   3
HETATM    3  C7  UNL     1     -32.360   8.383   2.149  1.00 20.00     0.049 C 
HETATM    4  C3  UNL     1     -32.426   8.798   0.682  1.00 20.00     0.017 C 
HETATM    5  C4  UNL     1     -30.918   8.363   2.642  1.00 20.00     0.017 C 
ENDBRANCH   1   3
BRANCH   1   6
HETATM    6  C8  UNL     1     -33.589   6.737   3.738  1.00 20.00     0.152 C 
HETATM    7 CL10 UNL     1     -33.707   8.316   4.565  1.00 20.00    -0.117 Cl
BRANCH   6   8
HETATM    8  C6  UNL     1     -34.968   6.083   3.652  1.00 20.00     0.027 C 
BRANCH   8   9
HETATM    9  C5  UNL     1     -35.058   4.814   4.505  1.00 20.00    -0.003 C 
HETATM   10  C2  UNL     1     -33.893   3.877   4.231  1.00 20.00     0.005 C 
ENDBRANCH   8   9
ENDBRANCH   6   8
ENDBRANCH   1   6
TORSDOF 4
ENDMDL
MODEL 9
REMARK VINA RESULT:      -0.8      1.949      4.709
REMARK  4 active torsions:
REMARK  status: ('A' for Active; 'I' for Inactive)
REMARK    1  A    between atoms: C1_1  and  C7_7 
REMARK    2  A    between atoms: C1_1  and  C8_8 
REMARK    3  A    between atoms: C5_5  and  C6_6 
REMARK    4  A    between atoms: C6_6  and  C8_8 
ROOT
HETATM    1  C1  UNL     1     -33.401   7.334   3.136  1.00 20.00     0.148 C 
HETATM    2  O9  UNL     1     -33.955   7.976   4.030  1.00 20.00    -0.296 OA
ENDROOT
BRANCH   1   3
HETATM    3  C7  UNL     1     -32.177   7.871   2.396  1.00 20.00     0.049 C 
HETATM    4  C3  UNL     1     -31.313   8.731   3.314  1.00 20.00     0.017 C 
HETATM    5  C4  UNL     1     -32.619   8.662   1.170  1.00 20.00     0.017 C 
ENDBRANCH   1   3
BRANCH   1   6
HETATM    6  C8  UNL     1     -33.915   5.967   2.708  1.00 20.00     0.152 C 
HETATM    7 CL10 UNL     1     -32.649   5.249   1.673  1.00 20.00    -0.117 Cl
BRANCH   6   8
HETATM    8  C6  UNL     1     -34.194   5.059   3.906  1.00 20.00     0.027 C 
BRANCH   8   9
HETATM    9  C5  UNL     1     -33.650   3.643   3.693  1.00 20.00    -0.003 C 
HETATM   10  C2  UNL     1     -33.133   3.045   4.991  1.00 20.00     0.005 C 
ENDBRANCH   8   9
ENDBRANCH   6   8
ENDBRANCH   1   6
TORSDOF 4
ENDMDL
