MODEL 1
REMARK VINA RESULT:      -1.5      0.000      0.000
REMARK  5 active torsions:
REMARK  status: ('A' for Active; 'I' for Inactive)
REMARK    1  A    between atoms: C1_1  and  C5_5 
REMARK    2  A    between atoms: C1_1  and  S10_10 
REMARK    3  A    between atoms: C5_5  and  C8_8 
REMARK    4  A    between atoms: C6_6  and  C7_7 
REMARK    5  A    between atoms: C7_7  and  S10_10 
ROOT
HETATM    1  C1  UNL     1     -32.435   6.316   1.701  1.00 20.00     0.186 C 
HETATM    2  O9  UNL     1     -31.549   5.588   1.270  1.00 20.00    -0.286 OA
ENDROOT
BRANCH   1   3
HETATM    3  C5  UNL     1     -33.823   5.837   2.082  1.00 20.00     0.094 C 
BRANCH   3   4
HETATM    4  C8  UNL     1     -34.019   5.697   3.601  1.00 20.00    -0.015 C 
HETATM    5  C3  UNL     1     -35.327   6.367   4.025  1.00 20.00     0.010 C 
HETATM    6  C4  UNL     1     -34.026   4.228   4.030  1.00 20.00     0.010 C 
ENDBRANCH   3   4
ENDBRANCH   1   3
BRANCH   1   7
HETATM    7  S10 UNL     1     -32.189   8.043   1.988  1.00 20.00    -0.093 SA
BRANCH   7   8
HETATM    8  C7  UNL     1     -31.556   8.559   0.378  1.00 20.00     0.082 C 
BRANCH   8   9
HETATM    9  C6  UNL     1     -32.477   9.601  -0.249  1.00 20.00     0.006 C 
HETATM   10  C2  UNL     1     -32.775  10.727   0.730  1.00 20.00     0.006 C 
ENDBRANCH   8   9
ENDBRANCH   7   8
ENDBRANCH   1   7
TORSDOF 5
ENDMDL
MODEL 2
REMARK VINA RESULT:      -1.4      1.314      5.105
REMARK  5 active torsions:
REMARK  status: ('A' for Active; 'I' for Inactive)
REMARK    1  A    between atoms: C1_1  and  C5_5 
REMARK    2  A    between atoms: C1_1  and  S10_10 
REMARK    3  A    between atoms: C5_5  and  C8_8 
REMARK    4  A    between atoms: C6_6  and  C7_7 
REMARK    5  A    between atoms: C7_7  and  S10_10 
ROOT
HETATM    1  C1  UNL     1     -32.866   7.192   2.373  1.00 20.00     0.186 C 
HETATM    2  O9  UNL     1     -32.989   6.194   1.674  1.00 20.00    -0.286 OA
ENDROOT
BRANCH   1   3
HETATM    3  C5  UNL     1     -32.001   8.386   2.011  1.00 20.00     0.094 C 
BRANCH   3   4
HETATM    4  C8  UNL     1     -32.319   8.964   0.621  1.00 20.00    -0.015 C 
HETATM    5  C3  UNL     1     -32.729  10.433   0.746  1.00 20.00     0.010 C 
HETATM    6  C4  UNL     1     -31.122   8.839  -0.323  1.00 20.00     0.010 C 
ENDBRANCH   3   4
ENDBRANCH   1   3
BRANCH   1   7
HETATM    7  S10 UNL     1     -33.738   7.400   3.897  1.00 20.00    -0.093 SA
BRANCH   7   8
HETATM    8  C7  UNL     1     -35.160   6.323   3.612  1.00 20.00     0.082 C 
BRANCH   8   9
HETATM    9  C6  UNL     1     -35.119   5.125   4.554  1.00 20.00     0.006 C 
HETATM   10  C2  UNL     1     -34.037   4.138   4.138  1.00 20.00     0.006 C 
ENDBRANCH   8   9
ENDBRANCH   7   8
ENDBRANCH   1   7
TORSDOF 5
ENDMDL
MODEL 3
REMARK VINA RESULT:      -1.4      2.391      5.364
REMARK  5 active torsions:
REMARK  status: ('A' for Active; 'I' for Inactive)
REMARK    1  A    between atoms: C1_1  and  C5_5 
REMARK    2  A    between atoms: C1_1  and  S10_10 
REMARK    3  A    between atoms: C5_5  and  C8_8 
REMARK    4  A    between atoms: C6_6  and  C7_7 
REMARK    5  A    between atoms: C7_7  and  S10_10 
ROOT
HETATM    1  C1  UNL     1     -34.029   7.359   3.915  1.00 20.00     0.186 C 
HETATM    2  O9  UNL     1     -33.487   7.922   4.858  1.00 20.00    -0.286 OA
ENDROOT
BRANCH   1   3
HETATM    3  C5  UNL     1     -33.741   7.667   2.457  1.00 20.00     0.094 C 
BRANCH   3   4
HETATM    4  C8  UNL     1     -32.255   7.514   2.088  1.00 20.00    -0.015 C 
HETATM    5  C3  UNL     1     -32.016   6.151   1.436  1.00 20.00     0.010 C 
HETATM    6  C4  UNL     1     -31.796   8.627   1.144  1.00 20.00     0.010 C 
ENDBRANCH   3   4
ENDBRANCH   1   3
BRANCH   1   7
HETATM    7  S10 UNL     1     -35.200   6.053   4.134  1.00 20.00    -0.093 SA
BRANCH   7   8
HETATM    8  C7  UNL     1     -34.191   4.626   3.684  1.00 20.00     0.082 C 
BRANCH   8   9
HETATM    9  C6  UNL     1     -33.848   3.803   4.921  1.00 20.00     0.006 C 
HETATM   10  C2  UNL     1     -33.047   2.563   4.550  1.00 20.00     0.006 C 
ENDBRANCH   8   9
ENDBRANCH   7   8
ENDBRANCH   1   7
TORSDOF 5
ENDMDL
MODEL 4
REMARK VINA RESULT:      -1.3      2.455      5.194
REMARK  5 active torsions:
REMARK  status: ('A' for Active; 'I' for Inactive)
REMARK    1  A    between atoms: C1_1  and  C5_5 
REMARK    2  A    between atoms: C1_1  and  S10_10 
REMARK    3  A    between atoms: C5_5  and  C8_8 
REMARK    4  A    between atoms: C6_6  and  C7_7 
REMARK    5  A    between atoms: C7_7  and  S10_10 
ROOT
HETATM    1  C1  UNL     1     -33.919   7.475   4.177  1.00 20.00     0.186 C 
HETATM    2  O9  UNL     1     -34.101   8.158   5.177  1.00 20.00    -0.286 OA
ENDROOT
BRANCH   1   3
HETATM    3  C5  UNL     1     -32.625   7.449   3.386  1.00 20.00     0.094 C 
BRANCH   3   4
HETATM    4  C8  UNL     1     -32.846   7.314   1.869  1.00 20.00    -0.015 C 
HETATM    5  C3  UNL     1     -32.190   8.487   1.138  1.00 20.00     0.010 C 
HETATM    6  C4  UNL     1     -32.284   5.994   1.338  1.00 20.00     0.010 C 
ENDBRANCH   3   4
ENDBRANCH   1   3
BRANCH   1   7
HETATM    7  S10 UNL     1     -35.147   6.371   3.544  1.00 20.00    -0.093 SA
BRANCH   7   8
HETATM    8  C7  UNL     1     -34.838   4.914   4.566  1.00 20.00     0.082 C 
BRANCH   8   9
HETATM    9  C6  UNL     1     -33.886   3.958   3.857  1.00 20.00     0.006 C 
HETATM   10  C2  UNL     1     -33.221   3.012   4.847  1.00 20.00     0.006 C 
ENDBRANCH   8   9
ENDBRANCH   7   8
ENDBRANCH   1   7
TORSDOF 5
ENDMDL
MODEL 5
REMARK VINA RESULT:      -1.0      1.520      1.576
REMARK  5 active torsions:
REMARK  status: ('A' for Active; 'I' for Inactive)
REMARK    1  A    between atoms: C1_1  and  C5_5 
REMARK    2  A    between atoms: C1_1  and  S10_10 
REMARK    3  A    between atoms: C5_5  and  C8_8 
REMARK    4  A    between atoms: C6_6  and  C7_7 
REMARK    5  A    between atoms: C7_7  and  S10_10 
ROOT
HETATM    1  C1  UNL     1     -33.255   6.605   2.744  1.00 20.00     0.186 C 
HETATM    2  O9  UNL     1     -33.680   7.502   3.460  1.00 20.00    -0.286 OA
ENDROOT
BRANCH   1   3
HETATM    3  C5  UNL     1     -33.691   5.154   2.842  1.00 20.00     0.094 C 
BRANCH   3   4
HETATM    4  C8  UNL     1     -33.958   4.700   4.287  1.00 20.00    -0.015 C 
HETATM    5  C3  UNL     1     -35.427   4.934   4.646  1.00 20.00     0.010 C 
HETATM    6  C4  UNL     1     -33.607   3.223   4.482  1.00 20.00     0.010 C 
ENDBRANCH   3   4
ENDBRANCH   1   3
BRANCH   1   7
HETATM    7  S10 UNL     1     -32.094   6.898   1.442  1.00 20.00    -0.093 SA
BRANCH   7   8
HETATM    8  C7  UNL     1     -31.986   8.700   1.497  1.00 20.00     0.082 C 
BRANCH   8   9
HETATM    9  C6  UNL     1     -32.235   9.291   0.113  1.00 20.00     0.006 C 
HETATM   10  C2  UNL     1     -32.675  10.744   0.210  1.00 20.00     0.006 C 
ENDBRANCH   8   9
ENDBRANCH   7   8
ENDBRANCH   1   7
TORSDOF 5
ENDMDL
MODEL 6
REMARK VINA RESULT:      -0.8      1.666      5.162
REMARK  5 active torsions:
REMARK  status: ('A' for Active; 'I' for Inactive)
REMARK    1  A    between atoms: C1_1  and  C5_5 
REMARK    2  A    between atoms: C1_1  and  S10_10 
REMARK    3  A    between atoms: C5_5  and  C8_8 
REMARK    4  A    between atoms: C6_6  and  C7_7 
REMARK    5  A    between atoms: C7_7  and  S10_10 
ROOT
HETATM    1  C1  UNL     1     -32.093   8.042   2.369  1.00 20.00     0.186 C 
HETATM    2  O9  UNL     1     -31.619   8.496   3.403  1.00 20.00    -0.286 OA
ENDROOT
BRANCH   1   3
HETATM    3  C5  UNL     1     -31.749   8.546   0.979  1.00 20.00     0.094 C 
BRANCH   3   4
HETATM    4  C8  UNL     1     -32.753   9.583   0.446  1.00 20.00    -0.015 C 
HETATM    5  C3  UNL     1     -32.611  10.895   1.220  1.00 20.00     0.010 C 
HETATM    6  C4  UNL     1     -32.551   9.840  -1.049  1.00 20.00     0.010 C 
ENDBRANCH   3   4
ENDBRANCH   1   3
BRANCH   1   7
HETATM    7  S10 UNL     1     -33.222   6.681   2.358  1.00 20.00    -0.093 SA
BRANCH   7   8
HETATM    8  C7  UNL     1     -34.283   7.121   3.751  1.00 20.00     0.082 C 
BRANCH   8   9
HETATM    9  C6  UNL     1     -35.236   5.977   4.078  1.00 20.00     0.006 C 
HETATM   10  C2  UNL     1     -34.488   4.657   4.195  1.00 20.00     0.006 C 
ENDBRANCH   8   9
ENDBRANCH   7   8
ENDBRANCH   1   7
TORSDOF 5
ENDMDL
MODEL 7
REMARK VINA RESULT:      -0.7      1.158      1.758
REMARK  5 active torsions:
REMARK  status: ('A' for Active; 'I' for Inactive)
REMARK    1  A    between atoms: C1_1  and  C5_5 
REMARK    2  A    between atoms: C1_1  and  S10_10 
REMARK    3  A    between atoms: C5_5  and  C8_8 
REMARK    4  A    between atoms: C6_6  and  C7_7 
REMARK    5  A    between atoms: C7_7  and  S10_10 
ROOT
HETATM    1  C1  UNL     1     -33.050   5.949   2.020  1.00 20.00     0.186 C 
HETATM    2  O9  UNL     1     -33.301   5.609   0.871  1.00 20.00    -0.286 OA
ENDROOT
BRANCH   1   3
HETATM    3  C5  UNL     1     -32.724   4.983   3.144  1.00 20.00     0.094 C 
BRANCH   3   4
HETATM    4  C8  UNL     1     -33.955   4.217   3.659  1.00 20.00    -0.015 C 
HETATM    5  C3  UNL     1     -33.520   3.119   4.631  1.00 20.00     0.010 C 
HETATM    6  C4  UNL     1     -34.949   5.155   4.348  1.00 20.00     0.010 C 
ENDBRANCH   3   4
ENDBRANCH   1   3
BRANCH   1   7
HETATM    7  S10 UNL     1     -32.982   7.645   2.516  1.00 20.00    -0.093 SA
BRANCH   7   8
HETATM    8  C7  UNL     1     -31.871   8.312   1.258  1.00 20.00     0.082 C 
BRANCH   8   9
HETATM    9  C6  UNL     1     -32.262   9.743   0.905  1.00 20.00     0.006 C 
HETATM   10  C2  UNL     1     -32.692   9.850  -0.551  1.00 20.00     0.006 C 
ENDBRANCH   8   9
ENDBRANCH   7   8
ENDBRANCH   1   7
TORSDOF 5
ENDMDL
MODEL 8
REMARK VINA RESULT:      -0.4      1.640      2.041
REMARK  5 active torsions:
REMARK  status: ('A' for Active; 'I' for Inactive)
REMARK    1  A    between atoms: C1_1  and  C5_5 
REMARK    2  A    between atoms: C1_1  and  S10_10 
REMARK    3  A    between atoms: C5_5  and  C8_8 
REMARK    4  A    between atoms: C6_6  and  C7_7 
REMARK    5  A    between atoms: C7_7  and  S10_10 
ROOT
HETATM    1  C1  UNL     1     -32.504   7.956   3.248  1.00 20.00     0.186 C 
HETATM    2  O9  UNL     1     -31.687   8.779   3.642  1.00 20.00    -0.286 OA
ENDROOT
BRANCH   1   3
HETATM    3  C5  UNL     1     -33.650   7.423   4.088  1.00 20.00     0.094 C 
BRANCH   3   4
HETATM    4  C8  UNL     1     -34.416   6.275   3.406  1.00 20.00    -0.015 C 
HETATM    5  C3  UNL     1     -33.994   4.934   4.008  1.00 20.00     0.010 C 
HETATM    6  C4  UNL     1     -35.929   6.452   3.547  1.00 20.00     0.010 C 
ENDBRANCH   3   4
ENDBRANCH   1   3
BRANCH   1   7
HETATM    7  S10 UNL     1     -32.484   7.310   1.603  1.00 20.00    -0.093 SA
BRANCH   7   8
HETATM    8  C7  UNL     1     -31.550   8.601   0.753  1.00 20.00     0.082 C 
BRANCH   8   9
HETATM    9  C6  UNL     1     -32.480   9.460  -0.097  1.00 20.00     0.006 C 
HETATM   10  C2  UNL     1     -32.765  10.793   0.580  1.00 20.00     0.006 C 
ENDBRANCH   8   9
ENDBRANCH   7   8
ENDBRANCH   1   7
TORSDOF 5
ENDMDL
MODEL 9
REMARK VINA RESULT:      -0.3      2.385      3.540
REMARK  5 active torsions:
REMARK  status: ('A' for Active; 'I' for Inactive)
REMARK    1  A    between atoms: C1_1  and  C5_5 
REMARK    2  A    between atoms: C1_1  and  S10_10 
REMARK    3  A    between atoms: C5_5  and  C8_8 
REMARK    4  A    between atoms: C6_6  and  C7_7 
REMARK    5  A    between atoms: C7_7  and  S10_10 
ROOT
HETATM    1  C1  UNL     1     -34.547   5.151   4.015  1.00 20.00     0.186 C 
HETATM    2  O9  UNL     1     -35.615   5.083   4.610  1.00 20.00    -0.286 OA
ENDROOT
BRANCH   1   3
HETATM    3  C5  UNL     1     -33.633   3.966   3.763  1.00 20.00     0.094 C 
BRANCH   3   4
HETATM    4  C8  UNL     1     -33.529   3.016   4.969  1.00 20.00    -0.015 C 
HETATM    5  C3  UNL     1     -33.294   1.583   4.488  1.00 20.00     0.010 C 
HETATM    6  C4  UNL     1     -32.401   3.436   5.914  1.00 20.00     0.010 C 
ENDBRANCH   3   4
ENDBRANCH   1   3
BRANCH   1   7
HETATM    7  S10 UNL     1     -33.945   6.658   3.314  1.00 20.00    -0.093 SA
BRANCH   7   8
HETATM    8  C7  UNL     1     -33.116   6.027   1.839  1.00 20.00     0.082 C 
BRANCH   8   9
HETATM    9  C6  UNL     1     -31.881   6.862   1.522  1.00 20.00     0.006 C 
HETATM   10  C2  UNL     1     -32.080   8.313   1.933  1.00 20.00     0.006 C 
ENDBRANCH   8   9
ENDBRANCH   7   8
ENDBRANCH   1   7
TORSDOF 5
ENDMDL
