MODEL 1
REMARK VINA RESULT:      -2.8      0.000      0.000
REMARK  1 active torsions:
REMARK  status: ('A' for Active; 'I' for Inactive)
REMARK    1  A    between atoms: C2_2  and  C4_4 
ROOT
HETATM    1  C1  UNL     1     -33.672   7.466   3.331  1.00 20.00    -0.010 C 
HETATM    2  C2  UNL     1     -32.830   7.218   2.314  1.00 20.00     0.021 C 
HETATM    3  C3  UNL     1     -34.750   6.565   3.843  1.00 20.00     0.037 C 
HETATM    4 CL5  UNL     1     -32.925   5.678   1.509  1.00 20.00    -0.088 Cl
ENDROOT
BRANCH   2   5
HETATM    5  C4  UNL     1     -31.752   8.120   1.803  1.00 20.00     0.165 C 
HETATM    6 CL6  UNL     1     -32.430   9.329   0.689  1.00 20.00    -0.125 Cl
ENDBRANCH   2   5
TORSDOF 1
ENDMDL
MODEL 2
REMARK VINA RESULT:      -2.4      2.333      4.016
REMARK  1 active torsions:
REMARK  status: ('A' for Active; 'I' for Inactive)
REMARK    1  A    between atoms: C2_2  and  C4_4 
ROOT
HETATM    1  C1  UNL     1     -33.176   6.412   2.356  1.00 20.00    -0.010 C 
HETATM    2  C2  UNL     1     -33.955   6.480   3.448  1.00 20.00     0.021 C 
HETATM    3  C3  UNL     1     -32.283   7.486   1.822  1.00 20.00     0.037 C 
HETATM    4 CL5  UNL     1     -33.915   7.929   4.412  1.00 20.00    -0.088 Cl
ENDROOT
BRANCH   2   5
HETATM    5  C4  UNL     1     -34.848   5.404   3.981  1.00 20.00     0.165 C 
HETATM    6 CL6  UNL     1     -33.935   3.896   4.207  1.00 20.00    -0.125 Cl
ENDBRANCH   2   5
TORSDOF 1
ENDMDL
MODEL 3
REMARK VINA RESULT:      -2.3      2.027      3.352
REMARK  1 active torsions:
REMARK  status: ('A' for Active; 'I' for Inactive)
REMARK    1  A    between atoms: C2_2  and  C4_4 
ROOT
HETATM    1  C1  UNL     1     -33.109   5.740   2.104  1.00 20.00    -0.010 C 
HETATM    2  C2  UNL     1     -33.162   6.968   2.647  1.00 20.00     0.021 C 
HETATM    3  C3  UNL     1     -32.231   5.293   0.979  1.00 20.00     0.037 C 
HETATM    4 CL5  UNL     1     -32.075   8.190   2.051  1.00 20.00    -0.088 Cl
ENDROOT
BRANCH   2   5
HETATM    5  C4  UNL     1     -34.041   7.413   3.772  1.00 20.00     0.165 C 
HETATM    6 CL6  UNL     1     -35.358   6.247   4.030  1.00 20.00    -0.125 Cl
ENDBRANCH   2   5
TORSDOF 1
ENDMDL
MODEL 4
REMARK VINA RESULT:      -2.1      1.758      3.296
REMARK  1 active torsions:
REMARK  status: ('A' for Active; 'I' for Inactive)
REMARK    1  A    between atoms: C2_2  and  C4_4 
ROOT
HETATM    1  C1  UNL     1     -32.418   8.230   2.390  1.00 20.00    -0.010 C 
HETATM    2  C2  UNL     1     -33.215   7.273   2.893  1.00 20.00     0.021 C 
HETATM    3  C3  UNL     1     -31.514   8.113   1.205  1.00 20.00     0.037 C 
HETATM    4 CL5  UNL     1     -33.283   5.733   2.084  1.00 20.00    -0.088 Cl
ENDROOT
BRANCH   2   5
HETATM    5  C4  UNL     1     -34.120   7.391   4.078  1.00 20.00     0.165 C 
HETATM    6 CL6  UNL     1     -35.376   6.133   4.027  1.00 20.00    -0.125 Cl
ENDBRANCH   2   5
TORSDOF 1
ENDMDL
MODEL 5
REMARK VINA RESULT:      -2.0      1.871      3.167
REMARK  1 active torsions:
REMARK  status: ('A' for Active; 'I' for Inactive)
REMARK    1  A    between atoms: C2_2  and  C4_4 
ROOT
HETATM    1  C1  UNL     1     -32.794   7.571   2.415  1.00 20.00    -0.010 C 
HETATM    2  C2  UNL     1     -33.069   6.257   2.384  1.00 20.00     0.021 C 
HETATM    3  C3  UNL     1     -31.908   8.325   1.476  1.00 20.00     0.037 C 
HETATM    4 CL5  UNL     1     -32.393   5.293   1.101  1.00 20.00    -0.088 Cl
ENDROOT
BRANCH   2   5
HETATM    5  C4  UNL     1     -33.957   5.504   3.324  1.00 20.00     0.165 C 
HETATM    6 CL6  UNL     1     -35.234   6.566   3.956  1.00 20.00    -0.125 Cl
ENDBRANCH   2   5
TORSDOF 1
ENDMDL
MODEL 6
REMARK VINA RESULT:      -2.0      1.913      2.327
REMARK  1 active torsions:
REMARK  status: ('A' for Active; 'I' for Inactive)
REMARK    1  A    between atoms: C2_2  and  C4_4 
ROOT
HETATM    1  C1  UNL     1     -34.344   6.390   3.266  1.00 20.00    -0.010 C 
HETATM    2  C2  UNL     1     -33.414   7.346   3.421  1.00 20.00     0.021 C 
HETATM    3  C3  UNL     1     -35.358   5.952   4.275  1.00 20.00     0.037 C 
HETATM    4 CL5  UNL     1     -33.378   8.241   4.914  1.00 20.00    -0.088 Cl
ENDROOT
BRANCH   2   5
HETATM    5  C4  UNL     1     -32.401   7.784   2.411  1.00 20.00     0.165 C 
HETATM    6 CL6  UNL     1     -31.954   6.426   1.353  1.00 20.00    -0.125 Cl
ENDBRANCH   2   5
TORSDOF 1
ENDMDL
MODEL 7
REMARK VINA RESULT:      -2.0      2.834      3.494
REMARK  1 active torsions:
REMARK  status: ('A' for Active; 'I' for Inactive)
REMARK    1  A    between atoms: C2_2  and  C4_4 
ROOT
HETATM    1  C1  UNL     1     -34.140   4.129   4.523  1.00 20.00    -0.010 C 
HETATM    2  C2  UNL     1     -34.203   5.198   3.711  1.00 20.00     0.021 C 
HETATM    3  C3  UNL     1     -33.248   2.939   4.373  1.00 20.00     0.037 C 
HETATM    4 CL5  UNL     1     -33.113   5.281   2.356  1.00 20.00    -0.088 Cl
ENDROOT
BRANCH   2   5
HETATM    5  C4  UNL     1     -35.096   6.388   3.862  1.00 20.00     0.165 C 
HETATM    6 CL6  UNL     1     -34.136   7.843   4.212  1.00 20.00    -0.125 Cl
ENDBRANCH   2   5
TORSDOF 1
ENDMDL
MODEL 8
REMARK VINA RESULT:      -1.9      1.774      3.491
REMARK  1 active torsions:
REMARK  status: ('A' for Active; 'I' for Inactive)
REMARK    1  A    between atoms: C2_2  and  C4_4 
ROOT
HETATM    1  C1  UNL     1     -32.862   7.709   2.692  1.00 20.00    -0.010 C 
HETATM    2  C2  UNL     1     -33.401   6.478   2.698  1.00 20.00     0.021 C 
HETATM    3  C3  UNL     1     -31.808   8.222   1.765  1.00 20.00     0.037 C 
HETATM    4 CL5  UNL     1     -32.893   5.340   1.484  1.00 20.00    -0.088 Cl
ENDROOT
BRANCH   2   5
HETATM    5  C4  UNL     1     -34.456   5.966   3.627  1.00 20.00     0.165 C 
HETATM    6 CL6  UNL     1     -34.116   4.281   4.082  1.00 20.00    -0.125 Cl
ENDBRANCH   2   5
TORSDOF 1
ENDMDL
MODEL 9
REMARK VINA RESULT:      -1.9      2.492      3.287
REMARK  1 active torsions:
REMARK  status: ('A' for Active; 'I' for Inactive)
REMARK    1  A    between atoms: C2_2  and  C4_4 
ROOT
HETATM    1  C1  UNL     1     -33.205   6.189   2.102  1.00 20.00    -0.010 C 
HETATM    2  C2  UNL     1     -33.909   5.866   3.199  1.00 20.00     0.021 C 
HETATM    3  C3  UNL     1     -32.329   5.282   1.299  1.00 20.00     0.037 C 
HETATM    4 CL5  UNL     1     -33.879   4.217   3.755  1.00 20.00    -0.088 Cl
ENDROOT
BRANCH   2   5
HETATM    5  C4  UNL     1     -34.786   6.775   4.002  1.00 20.00     0.165 C 
HETATM    6 CL6  UNL     1     -33.825   8.086   4.722  1.00 20.00    -0.125 Cl
ENDBRANCH   2   5
TORSDOF 1
ENDMDL
