MODEL 1
REMARK VINA RESULT:       0.0      0.000      0.000
REMARK  0 active torsions:
REMARK  status: ('A' for Active; 'I' for Inactive)
ROOT
HETATM    1  C1  UNL     1     -31.997   8.576   3.108  1.00 20.00     0.027 C 
HETATM    2  C2  UNL     1     -32.817   7.952   4.242  1.00 20.00     0.012 C 
HETATM    3  C3  UNL     1     -32.160   7.928   1.736  1.00 20.00     0.167 C 
HETATM    4  C4  UNL     1     -33.168   5.755   1.663  1.00 20.00     0.177 C 
HETATM    5  C5  UNL     1     -34.293   7.769   3.903  1.00 20.00     0.074 C 
HETATM    6  C6  UNL     1     -33.578   5.148   2.998  1.00 20.00     0.100 C 
HETATM    7  O7  UNL     1     -31.974   6.523   1.802  1.00 20.00    -0.390 OA
HETATM    8  S8  UNL     1     -34.884   6.044   3.911  1.00 20.00    -0.167 SA
ENDROOT
TORSDOF 0
ENDMDL
MODEL 2
REMARK VINA RESULT:       0.1      1.341      2.600
REMARK  0 active torsions:
REMARK  status: ('A' for Active; 'I' for Inactive)
ROOT
HETATM    1  C1  UNL     1     -32.215   7.032   1.458  1.00 20.00     0.027 C 
HETATM    2  C2  UNL     1     -33.018   5.730   1.528  1.00 20.00     0.012 C 
HETATM    3  C3  UNL     1     -32.309   7.938   2.681  1.00 20.00     0.167 C 
HETATM    4  C4  UNL     1     -34.090   7.509   4.227  1.00 20.00     0.177 C 
HETATM    5  C5  UNL     1     -32.787   4.934   2.810  1.00 20.00     0.074 C 
HETATM    6  C6  UNL     1     -35.025   6.358   3.888  1.00 20.00     0.100 C 
HETATM    7  O7  UNL     1     -33.660   8.179   3.044  1.00 20.00    -0.390 OA
HETATM    8  S8  UNL     1     -34.263   4.697   3.854  1.00 20.00    -0.167 SA
ENDROOT
TORSDOF 0
ENDMDL
MODEL 3
REMARK VINA RESULT:       0.2      1.729      2.791
REMARK  0 active torsions:
REMARK  status: ('A' for Active; 'I' for Inactive)
ROOT
HETATM    1  C1  UNL     1     -34.758   6.139   3.897  1.00 20.00     0.027 C 
HETATM    2  C2  UNL     1     -34.394   7.627   3.911  1.00 20.00     0.012 C 
HETATM    3  C3  UNL     1     -33.754   5.216   3.212  1.00 20.00     0.167 C 
HETATM    4  C4  UNL     1     -32.115   6.240   1.794  1.00 20.00     0.177 C 
HETATM    5  C5  UNL     1     -32.978   7.908   4.405  1.00 20.00     0.074 C 
HETATM    6  C6  UNL     1     -32.181   7.755   1.658  1.00 20.00     0.100 C 
HETATM    7  O7  UNL     1     -33.423   5.684   1.913  1.00 20.00    -0.390 OA
HETATM    8  S8  UNL     1     -31.876   8.705   3.190  1.00 20.00    -0.167 SA
ENDROOT
TORSDOF 0
ENDMDL
MODEL 4
REMARK VINA RESULT:       0.4      1.947      3.051
REMARK  0 active torsions:
REMARK  status: ('A' for Active; 'I' for Inactive)
ROOT
HETATM    1  C1  UNL     1     -35.212   5.412   4.390  1.00 20.00     0.027 C 
HETATM    2  C2  UNL     1     -35.102   6.778   3.707  1.00 20.00     0.012 C 
HETATM    3  C3  UNL     1     -34.035   4.465   4.176  1.00 20.00     0.167 C 
HETATM    4  C4  UNL     1     -32.517   4.988   2.397  1.00 20.00     0.177 C 
HETATM    5  C5  UNL     1     -33.779   7.492   3.971  1.00 20.00     0.074 C 
HETATM    6  C6  UNL     1     -32.827   6.235   1.581  1.00 20.00     0.100 C 
HETATM    7  O7  UNL     1     -33.719   4.334   2.799  1.00 20.00    -0.390 OA
HETATM    8  S8  UNL     1     -32.763   7.818   2.492  1.00 20.00    -0.167 SA
ENDROOT
TORSDOF 0
ENDMDL
MODEL 5
REMARK VINA RESULT:       0.5      2.042      3.618
REMARK  0 active torsions:
REMARK  status: ('A' for Active; 'I' for Inactive)
ROOT
HETATM    1  C1  UNL     1     -34.430   4.946   3.788  1.00 20.00     0.027 C 
HETATM    2  C2  UNL     1     -33.081   5.011   3.065  1.00 20.00     0.012 C 
HETATM    3  C3  UNL     1     -35.173   6.271   3.930  1.00 20.00     0.167 C 
HETATM    4  C4  UNL     1     -33.917   8.277   3.553  1.00 20.00     0.177 C 
HETATM    5  C5  UNL     1     -33.136   5.747   1.729  1.00 20.00     0.074 C 
HETATM    6  C6  UNL     1     -32.447   8.105   3.200  1.00 20.00     0.100 C 
HETATM    7  O7  UNL     1     -34.336   7.277   4.480  1.00 20.00    -0.390 OA
HETATM    8  S8  UNL     1     -32.102   7.245   1.624  1.00 20.00    -0.167 SA
ENDROOT
TORSDOF 0
ENDMDL
MODEL 6
REMARK VINA RESULT:       1.4      1.920      3.276
REMARK  0 active torsions:
REMARK  status: ('A' for Active; 'I' for Inactive)
ROOT
HETATM    1  C1  UNL     1     -34.546   5.890   4.104  1.00 20.00     0.027 C 
HETATM    2  C2  UNL     1     -33.555   5.049   3.294  1.00 20.00     0.012 C 
HETATM    3  C3  UNL     1     -34.587   7.378   3.766  1.00 20.00     0.167 C 
HETATM    4  C4  UNL     1     -32.759   8.262   2.493  1.00 20.00     0.177 C 
HETATM    5  C5  UNL     1     -33.662   5.258   1.786  1.00 20.00     0.074 C 
HETATM    6  C6  UNL     1     -31.661   7.282   2.104  1.00 20.00     0.100 C 
HETATM    7  O7  UNL     1     -33.287   7.947   3.779  1.00 20.00    -0.390 OA
HETATM    8  S8  UNL     1     -32.165   5.926   0.986  1.00 20.00    -0.167 SA
ENDROOT
TORSDOF 0
ENDMDL
MODEL 7
REMARK VINA RESULT:       1.9      1.915      3.255
REMARK  0 active torsions:
REMARK  status: ('A' for Active; 'I' for Inactive)
ROOT
HETATM    1  C1  UNL     1     -32.745   5.488   1.441  1.00 20.00     0.027 C 
HETATM    2  C2  UNL     1     -31.644   6.499   1.772  1.00 20.00     0.012 C 
HETATM    3  C3  UNL     1     -34.107   5.757   2.074  1.00 20.00     0.167 C 
HETATM    4  C4  UNL     1     -34.179   7.316   3.894  1.00 20.00     0.177 C 
HETATM    5  C5  UNL     1     -32.060   7.952   1.560  1.00 20.00     0.074 C 
HETATM    6  C6  UNL     1     -32.855   7.938   4.312  1.00 20.00     0.100 C 
HETATM    7  O7  UNL     1     -33.994   5.965   3.474  1.00 20.00    -0.390 OA
HETATM    8  S8  UNL     1     -32.040   8.991   3.059  1.00 20.00    -0.167 SA
ENDROOT
TORSDOF 0
ENDMDL
MODEL 8
REMARK VINA RESULT:       2.1      1.855      2.617
REMARK  0 active torsions:
REMARK  status: ('A' for Active; 'I' for Inactive)
ROOT
HETATM    1  C1  UNL     1     -32.052   8.823   3.176  1.00 20.00     0.027 C 
HETATM    2  C2  UNL     1     -32.125   8.140   1.808  1.00 20.00     0.012 C 
HETATM    3  C3  UNL     1     -32.715   8.074   4.329  1.00 20.00     0.167 C 
HETATM    4  C4  UNL     1     -34.227   6.304   3.760  1.00 20.00     0.177 C 
HETATM    5  C5  UNL     1     -31.685   6.678   1.827  1.00 20.00     0.074 C 
HETATM    6  C6  UNL     1     -34.440   6.040   2.277  1.00 20.00     0.100 C 
HETATM    7  O7  UNL     1     -34.044   7.697   4.005  1.00 20.00    -0.390 OA
HETATM    8  S8  UNL     1     -32.969   5.474   1.350  1.00 20.00    -0.167 SA
ENDROOT
TORSDOF 0
ENDMDL
MODEL 9
REMARK VINA RESULT:       2.3      1.972      2.711
REMARK  0 active torsions:
REMARK  status: ('A' for Active; 'I' for Inactive)
ROOT
HETATM    1  C1  UNL     1     -33.878   8.636   3.556  1.00 20.00     0.027 C 
HETATM    2  C2  UNL     1     -33.218   8.433   2.189  1.00 20.00     0.012 C 
HETATM    3  C3  UNL     1     -34.043   7.381   4.407  1.00 20.00     0.167 C 
HETATM    4  C4  UNL     1     -33.807   5.268   3.301  1.00 20.00     0.177 C 
HETATM    5  C5  UNL     1     -31.913   7.644   2.248  1.00 20.00     0.074 C 
HETATM    6  C6  UNL     1     -33.512   5.309   1.808  1.00 20.00     0.100 C 
HETATM    7  O7  UNL     1     -34.671   6.339   3.676  1.00 20.00    -0.390 OA
HETATM    8  S8  UNL     1     -31.918   6.066   1.333  1.00 20.00    -0.167 SA
ENDROOT
TORSDOF 0
ENDMDL
