MODEL 1
REMARK VINA RESULT:      -0.8      0.000      0.000
REMARK  0 active torsions:
REMARK  status: ('A' for Active; 'I' for Inactive)
ROOT
HETATM    1  C1  UNL     1     -32.295   8.484   1.434  1.00 20.00    -0.064 A 
HETATM    2  C2  UNL     1     -32.397   9.414   0.512  1.00 20.00    -0.084 C 
HETATM    3  C3  UNL     1     -33.691   6.048   2.866  1.00 20.00     0.002 C 
HETATM    4  C4  UNL     1     -32.833   6.003   1.593  1.00 20.00     0.010 C 
HETATM    5  C5  UNL     1     -33.828   7.537   3.217  1.00 20.00     0.014 C 
HETATM    6  C6  UNL     1     -31.900   7.166   1.734  1.00 20.00     0.028 A 
HETATM    7  C7  UNL     1     -32.511   8.140   2.791  1.00 20.00    -0.013 A 
HETATM    8  C8  UNL     1     -32.959  10.791   0.795  1.00 20.00     0.043 C 
HETATM    9  C9  UNL     1     -31.963   9.197  -0.922  1.00 20.00     0.043 C 
HETATM   10  C10 UNL     1     -31.634   8.707   3.859  1.00 20.00     0.021 C 
ENDROOT
TORSDOF 0
ENDMDL
MODEL 2
REMARK VINA RESULT:      -0.3      1.206      3.903
REMARK  0 active torsions:
REMARK  status: ('A' for Active; 'I' for Inactive)
ROOT
HETATM    1  C1  UNL     1     -33.011   7.370   2.808  1.00 20.00    -0.064 A 
HETATM    2  C2  UNL     1     -33.882   7.296   3.790  1.00 20.00    -0.084 C 
HETATM    3  C3  UNL     1     -32.220   8.786   0.107  1.00 20.00     0.002 C 
HETATM    4  C4  UNL     1     -31.857   9.240   1.528  1.00 20.00     0.010 C 
HETATM    5  C5  UNL     1     -33.151   7.577   0.286  1.00 20.00     0.014 C 
HETATM    6  C6  UNL     1     -31.834   7.973   2.327  1.00 20.00     0.028 A 
HETATM    7  C7  UNL     1     -32.633   6.894   1.529  1.00 20.00    -0.013 A 
HETATM    8  C8  UNL     1     -35.079   6.371   3.756  1.00 20.00     0.043 C 
HETATM    9  C9  UNL     1     -33.770   8.131   5.048  1.00 20.00     0.043 C 
HETATM   10  C10 UNL     1     -32.062   5.522   1.376  1.00 20.00     0.021 C 
ENDROOT
TORSDOF 0
ENDMDL
MODEL 3
REMARK VINA RESULT:      -0.1      1.401      3.560
REMARK  0 active torsions:
REMARK  status: ('A' for Active; 'I' for Inactive)
ROOT
HETATM    1  C1  UNL     1     -33.536   7.037   2.616  1.00 20.00    -0.064 A 
HETATM    2  C2  UNL     1     -34.121   7.156   3.786  1.00 20.00    -0.084 C 
HETATM    3  C3  UNL     1     -31.374   5.505   0.910  1.00 20.00     0.002 C 
HETATM    4  C4  UNL     1     -32.844   5.109   1.107  1.00 20.00     0.010 C 
HETATM    5  C5  UNL     1     -31.151   6.725   1.817  1.00 20.00     0.014 C 
HETATM    6  C6  UNL     1     -33.547   6.409   1.356  1.00 20.00     0.028 A 
HETATM    7  C7  UNL     1     -32.470   7.457   1.783  1.00 20.00    -0.013 A 
HETATM    8  C8  UNL     1     -33.612   8.084   4.867  1.00 20.00     0.043 C 
HETATM    9  C9  UNL     1     -35.362   6.374   4.164  1.00 20.00     0.043 C 
HETATM   10  C10 UNL     1     -32.489   8.818   1.168  1.00 20.00     0.021 C 
ENDROOT
TORSDOF 0
ENDMDL
MODEL 4
REMARK VINA RESULT:       0.3      1.527      2.667
REMARK  0 active torsions:
REMARK  status: ('A' for Active; 'I' for Inactive)
ROOT
HETATM    1  C1  UNL     1     -33.027   6.603   2.816  1.00 20.00    -0.064 A 
HETATM    2  C2  UNL     1     -32.426   6.812   1.667  1.00 20.00    -0.084 C 
HETATM    3  C3  UNL     1     -35.664   5.661   4.262  1.00 20.00     0.002 C 
HETATM    4  C4  UNL     1     -34.497   4.776   3.802  1.00 20.00     0.010 C 
HETATM    5  C5  UNL     1     -35.334   7.073   3.756  1.00 20.00     0.014 C 
HETATM    6  C6  UNL     1     -33.305   5.683   3.845  1.00 20.00     0.028 A 
HETATM    7  C7  UNL     1     -33.829   7.154   3.845  1.00 20.00    -0.013 A 
HETATM    8  C8  UNL     1     -32.475   8.142   0.946  1.00 20.00     0.043 C 
HETATM    9  C9  UNL     1     -31.627   5.742   0.954  1.00 20.00     0.043 C 
HETATM   10  C10 UNL     1     -33.246   8.140   4.805  1.00 20.00     0.021 C 
ENDROOT
TORSDOF 0
ENDMDL
MODEL 5
REMARK VINA RESULT:       1.4      2.098      4.988
REMARK  0 active torsions:
REMARK  status: ('A' for Active; 'I' for Inactive)
ROOT
HETATM    1  C1  UNL     1     -33.787   4.882   3.589  1.00 20.00    -0.064 A 
HETATM    2  C2  UNL     1     -33.538   3.844   4.355  1.00 20.00    -0.084 C 
HETATM    3  C3  UNL     1     -32.643   7.515   2.289  1.00 20.00     0.002 C 
HETATM    4  C4  UNL     1     -32.578   6.095   1.708  1.00 20.00     0.010 C 
HETATM    5  C5  UNL     1     -33.265   7.360   3.685  1.00 20.00     0.014 C 
HETATM    6  C6  UNL     1     -33.778   5.405   2.282  1.00 20.00     0.028 A 
HETATM    7  C7  UNL     1     -34.243   6.221   3.530  1.00 20.00    -0.013 A 
HETATM    8  C8  UNL     1     -33.762   3.858   5.853  1.00 20.00     0.043 C 
HETATM    9  C9  UNL     1     -33.004   2.535   3.813  1.00 20.00     0.043 C 
HETATM   10  C10 UNL     1     -35.695   6.529   3.705  1.00 20.00     0.021 C 
ENDROOT
TORSDOF 0
ENDMDL
MODEL 6
REMARK VINA RESULT:       1.9      1.096      4.043
REMARK  0 active torsions:
REMARK  status: ('A' for Active; 'I' for Inactive)
ROOT
HETATM    1  C1  UNL     1     -32.384   8.237   1.523  1.00 20.00    -0.064 A 
HETATM    2  C2  UNL     1     -32.882   7.202   2.159  1.00 20.00    -0.084 C 
HETATM    3  C3  UNL     1     -32.979  10.691  -0.362  1.00 20.00     0.002 C 
HETATM    4  C4  UNL     1     -33.060  10.664   1.170  1.00 20.00     0.010 C 
HETATM    5  C5  UNL     1     -32.673   9.246  -0.784  1.00 20.00     0.014 C 
HETATM    6  C6  UNL     1     -32.075   9.610   1.575  1.00 20.00     0.028 A 
HETATM    7  C7  UNL     1     -31.798   8.715   0.325  1.00 20.00    -0.013 A 
HETATM    8  C8  UNL     1     -32.969   5.823   1.541  1.00 20.00     0.043 C 
HETATM    9  C9  UNL     1     -33.418   7.290   3.573  1.00 20.00     0.043 C 
HETATM   10  C10 UNL     1     -30.390   8.352  -0.020  1.00 20.00     0.021 C 
ENDROOT
TORSDOF 0
ENDMDL
