MODEL 1
REMARK VINA RESULT:      -1.0      0.000      0.000
REMARK  1 active torsions:
REMARK  status: ('A' for Active; 'I' for Inactive)
REMARK    1  A    between atoms: C9_9  and  O10_10 
ROOT
HETATM    1  C1  UNL     1     -32.575   7.959   2.391  1.00 20.00     0.053 A 
HETATM    2  C2  UNL     1     -33.034   5.195   2.007  1.00 20.00     0.055 A 
HETATM    3  C3  UNL     1     -33.542   7.288   3.120  1.00 20.00    -0.046 A 
HETATM    4  C4  UNL     1     -33.770   5.919   2.932  1.00 20.00    -0.020 A 
HETATM    5  C5  UNL     1     -31.820   7.234   1.468  1.00 20.00     0.155 A 
HETATM    6  C6  UNL     1     -32.048   5.862   1.277  1.00 20.00     0.155 A 
HETATM    7  C7  UNL     1     -34.489   7.855   4.131  1.00 20.00     0.042 C 
HETATM    8  C8  UNL     1     -34.957   6.577   4.843  1.00 20.00     0.041 C 
HETATM    9  C9  UNL     1     -34.899   5.450   3.800  1.00 20.00     0.152 C 
HETATM   10  F11 UNL     1     -30.873   7.854   0.749  1.00 20.00    -0.203 F 
HETATM   11  F12 UNL     1     -31.317   5.188   0.378  1.00 20.00    -0.203 F 
ENDROOT
BRANCH   9  12
HETATM   12  O10 UNL     1     -34.617   4.207   4.412  1.00 20.00    -0.391 OA
HETATM   13  H20 UNL     1     -34.546   3.547   3.701  1.00 20.00     0.210 HD
ENDBRANCH   9  12
TORSDOF 1
ENDMDL
MODEL 2
REMARK VINA RESULT:      -0.7      1.083      1.371
REMARK  1 active torsions:
REMARK  status: ('A' for Active; 'I' for Inactive)
REMARK    1  A    between atoms: C9_9  and  O10_10 
ROOT
HETATM    1  C1  UNL     1     -33.796   7.827   2.909  1.00 20.00     0.053 A 
HETATM    2  C2  UNL     1     -32.503   5.425   2.162  1.00 20.00     0.055 A 
HETATM    3  C3  UNL     1     -34.220   6.605   3.402  1.00 20.00    -0.046 A 
HETATM    4  C4  UNL     1     -33.580   5.414   3.034  1.00 20.00    -0.020 A 
HETATM    5  C5  UNL     1     -32.703   7.848   2.042  1.00 20.00     0.155 A 
HETATM    6  C6  UNL     1     -32.061   6.655   1.670  1.00 20.00     0.155 A 
HETATM    7  C7  UNL     1     -35.380   6.331   4.309  1.00 20.00     0.042 C 
HETATM    8  C8  UNL     1     -35.043   4.915   4.797  1.00 20.00     0.041 C 
HETATM    9  C9  UNL     1     -34.263   4.235   3.660  1.00 20.00     0.152 C 
HETATM   10  F11 UNL     1     -32.265   9.015   1.550  1.00 20.00    -0.203 F 
HETATM   11  F12 UNL     1     -31.019   6.698   0.829  1.00 20.00    -0.203 F 
ENDROOT
BRANCH   9  12
HETATM   12  O10 UNL     1     -33.339   3.295   4.170  1.00 20.00    -0.391 OA
HETATM   13  H20 UNL     1     -32.537   3.354   3.622  1.00 20.00     0.210 HD
ENDBRANCH   9  12
TORSDOF 1
ENDMDL
MODEL 3
REMARK VINA RESULT:       0.2      3.124      4.549
REMARK  1 active torsions:
REMARK  status: ('A' for Active; 'I' for Inactive)
REMARK    1  A    between atoms: C9_9  and  O10_10 
ROOT
HETATM    1  C1  UNL     1     -33.363   4.690   2.915  1.00 20.00     0.053 A 
HETATM    2  C2  UNL     1     -34.219   7.338   3.415  1.00 20.00     0.055 A 
HETATM    3  C3  UNL     1     -32.832   5.757   2.211  1.00 20.00    -0.046 A 
HETATM    4  C4  UNL     1     -33.254   7.070   2.458  1.00 20.00    -0.020 A 
HETATM    5  C5  UNL     1     -34.326   4.954   3.890  1.00 20.00     0.155 A 
HETATM    6  C6  UNL     1     -34.751   6.269   4.139  1.00 20.00     0.155 A 
HETATM    7  C7  UNL     1     -31.824   5.718   1.104  1.00 20.00     0.042 C 
HETATM    8  C8  UNL     1     -31.365   7.182   1.074  1.00 20.00     0.041 C 
HETATM    9  C9  UNL     1     -32.566   8.026   1.530  1.00 20.00     0.152 C 
HETATM   10  F11 UNL     1     -34.857   3.943   4.592  1.00 20.00    -0.203 F 
HETATM   11  F12 UNL     1     -35.684   6.498   5.074  1.00 20.00    -0.203 F 
ENDROOT
BRANCH   9  12
HETATM   12  O10 UNL     1     -32.139   9.198   2.196  1.00 20.00    -0.391 OA
HETATM   13  H20 UNL     1     -32.463   9.141   3.111  1.00 20.00     0.210 HD
ENDBRANCH   9  12
TORSDOF 1
ENDMDL
MODEL 4
REMARK VINA RESULT:       0.2      2.973      3.999
REMARK  1 active torsions:
REMARK  status: ('A' for Active; 'I' for Inactive)
REMARK    1  A    between atoms: C9_9  and  O10_10 
ROOT
HETATM    1  C1  UNL     1     -34.149   7.502   3.682  1.00 20.00     0.053 A 
HETATM    2  C2  UNL     1     -33.428   4.854   2.997  1.00 20.00     0.055 A 
HETATM    3  C3  UNL     1     -33.155   7.250   2.751  1.00 20.00    -0.046 A 
HETATM    4  C4  UNL     1     -32.797   5.939   2.410  1.00 20.00    -0.020 A 
HETATM    5  C5  UNL     1     -34.798   6.414   4.267  1.00 20.00     0.155 A 
HETATM    6  C6  UNL     1     -34.440   5.099   3.927  1.00 20.00     0.155 A 
HETATM    7  C7  UNL     1     -32.303   8.244   2.024  1.00 20.00     0.042 C 
HETATM    8  C8  UNL     1     -31.751   7.378   0.883  1.00 20.00     0.041 C 
HETATM    9  C9  UNL     1     -31.666   5.943   1.426  1.00 20.00     0.152 C 
HETATM   10  F11 UNL     1     -35.768   6.624   5.168  1.00 20.00    -0.203 F 
HETATM   11  F12 UNL     1     -35.071   4.070   4.509  1.00 20.00    -0.203 F 
ENDROOT
BRANCH   9  12
HETATM   12  O10 UNL     1     -31.858   4.997   0.393  1.00 20.00    -0.391 OA
HETATM   13  H20 UNL     1     -31.279   4.240   0.586  1.00 20.00     0.210 HD
ENDBRANCH   9  12
TORSDOF 1
ENDMDL
MODEL 5
REMARK VINA RESULT:       0.4      1.353      2.462
REMARK  1 active torsions:
REMARK  status: ('A' for Active; 'I' for Inactive)
REMARK    1  A    between atoms: C9_9  and  O10_10 
ROOT
HETATM    1  C1  UNL     1     -32.835   4.971   1.921  1.00 20.00     0.053 A 
HETATM    2  C2  UNL     1     -32.515   7.750   2.340  1.00 20.00     0.055 A 
HETATM    3  C3  UNL     1     -33.570   5.637   2.888  1.00 20.00    -0.046 A 
HETATM    4  C4  UNL     1     -33.414   7.014   3.096  1.00 20.00    -0.020 A 
HETATM    5  C5  UNL     1     -31.938   5.709   1.147  1.00 20.00     0.155 A 
HETATM    6  C6  UNL     1     -31.779   7.089   1.355  1.00 20.00     0.155 A 
HETATM    7  C7  UNL     1     -34.557   5.058   3.854  1.00 20.00     0.042 C 
HETATM    8  C8  UNL     1     -35.295   6.323   4.312  1.00 20.00     0.041 C 
HETATM    9  C9  UNL     1     -34.282   7.476   4.228  1.00 20.00     0.152 C 
HETATM   10  F11 UNL     1     -31.214   5.095   0.201  1.00 20.00    -0.203 F 
HETATM   11  F12 UNL     1     -30.905   7.775   0.606  1.00 20.00    -0.203 F 
ENDROOT
BRANCH   9  12
HETATM   12  O10 UNL     1     -34.927   8.699   3.937  1.00 20.00    -0.391 OA
HETATM   13  H20 UNL     1     -35.864   8.593   4.175  1.00 20.00     0.210 HD
ENDBRANCH   9  12
TORSDOF 1
ENDMDL
MODEL 6
REMARK VINA RESULT:       0.9      1.289      2.522
REMARK  1 active torsions:
REMARK  status: ('A' for Active; 'I' for Inactive)
REMARK    1  A    between atoms: C9_9  and  O10_10 
ROOT
HETATM    1  C1  UNL     1     -31.879   6.106   1.628  1.00 20.00     0.053 A 
HETATM    2  C2  UNL     1     -33.654   7.935   2.855  1.00 20.00     0.055 A 
HETATM    3  C3  UNL     1     -32.802   5.684   2.571  1.00 20.00    -0.046 A 
HETATM    4  C4  UNL     1     -33.682   6.588   3.179  1.00 20.00    -0.020 A 
HETATM    5  C5  UNL     1     -31.855   7.459   1.287  1.00 20.00     0.155 A 
HETATM    6  C6  UNL     1     -32.736   8.368   1.896  1.00 20.00     0.155 A 
HETATM    7  C7  UNL     1     -32.990   4.303   3.118  1.00 20.00     0.042 C 
HETATM    8  C8  UNL     1     -34.385   4.425   3.749  1.00 20.00     0.041 C 
HETATM    9  C9  UNL     1     -34.536   5.889   4.194  1.00 20.00     0.152 C 
HETATM   10  F11 UNL     1     -30.976   7.899   0.375  1.00 20.00    -0.203 F 
HETATM   11  F12 UNL     1     -32.688   9.664   1.559  1.00 20.00    -0.203 F 
ENDROOT
BRANCH   9  12
HETATM   12  O10 UNL     1     -35.886   6.302   4.128  1.00 20.00    -0.391 OA
HETATM   13  H20 UNL     1     -36.111   6.399   3.186  1.00 20.00     0.210 HD
ENDBRANCH   9  12
TORSDOF 1
ENDMDL
MODEL 7
REMARK VINA RESULT:       1.9      1.091      1.340
REMARK  1 active torsions:
REMARK  status: ('A' for Active; 'I' for Inactive)
REMARK    1  A    between atoms: C9_9  and  O10_10 
ROOT
HETATM    1  C1  UNL     1     -31.821   7.068   2.147  1.00 20.00     0.053 A 
HETATM    2  C2  UNL     1     -34.060   5.357   1.907  1.00 20.00     0.055 A 
HETATM    3  C3  UNL     1     -32.908   7.191   2.996  1.00 20.00    -0.046 A 
HETATM    4  C4  UNL     1     -34.018   6.344   2.879  1.00 20.00    -0.020 A 
HETATM    5  C5  UNL     1     -31.850   6.067   1.175  1.00 20.00     0.155 A 
HETATM    6  C6  UNL     1     -32.962   5.218   1.055  1.00 20.00     0.155 A 
HETATM    7  C7  UNL     1     -33.118   8.201   4.081  1.00 20.00     0.042 C 
HETATM    8  C8  UNL     1     -34.251   7.542   4.880  1.00 20.00     0.041 C 
HETATM    9  C9  UNL     1     -35.073   6.719   3.876  1.00 20.00     0.152 C 
HETATM   10  F11 UNL     1     -30.812   5.919   0.341  1.00 20.00    -0.203 F 
HETATM   11  F12 UNL     1     -32.973   4.270   0.107  1.00 20.00    -0.203 F 
ENDROOT
BRANCH   9  12
HETATM   12  O10 UNL     1     -35.645   5.585   4.496  1.00 20.00    -0.391 OA
HETATM   13  H20 UNL     1     -34.929   5.123   4.965  1.00 20.00     0.210 HD
ENDBRANCH   9  12
TORSDOF 1
ENDMDL
