MODEL 1
REMARK VINA RESULT:      -0.8      0.000      0.000
REMARK  2 active torsions:
REMARK  status: ('A' for Active; 'I' for Inactive)
REMARK    1  A    between atoms: C1_1  and  C2_2 
REMARK    2  A    between atoms: C2_2  and  C3_3 
ROOT
HETATM    1  C2  UNL     1     -32.805   6.317   1.786  1.00 20.00     0.205 C 
HETATM    2 CL7  UNL     1     -34.012   6.424   0.441  1.00 20.00    -0.092 Cl
HETATM    3 CL8  UNL     1     -31.561   5.117   1.249  1.00 20.00    -0.092 Cl
ENDROOT
BRANCH   1   4
HETATM    4  C1  UNL     1     -33.535   5.769   3.023  1.00 20.00     0.164 C 
HETATM    5 CL6  UNL     1     -34.859   6.810   3.607  1.00 20.00    -0.127 Cl
ENDBRANCH   1   4
BRANCH   1   6
HETATM    6  C3  UNL     1     -32.120   7.684   1.962  1.00 20.00     0.355 C 
HETATM    7  F4  UNL     1     -32.306   8.149   3.225  1.00 20.00    -0.184 F 
HETATM    8  F5  UNL     1     -30.774   7.546   1.814  1.00 20.00    -0.184 F 
HETATM    9 CL9  UNL     1     -32.689   8.923   0.820  1.00 20.00    -0.045 Cl
ENDBRANCH   1   6
TORSDOF 2
ENDMDL
MODEL 2
REMARK VINA RESULT:      -0.7      1.887      3.209
REMARK  2 active torsions:
REMARK  status: ('A' for Active; 'I' for Inactive)
REMARK    1  A    between atoms: C1_1  and  C2_2 
REMARK    2  A    between atoms: C2_2  and  C3_3 
ROOT
HETATM    1  C2  UNL     1     -32.893   6.585   1.901  1.00 20.00     0.205 C 
HETATM    2 CL7  UNL     1     -31.830   5.122   1.822  1.00 20.00    -0.092 Cl
HETATM    3 CL8  UNL     1     -33.869   6.578   0.377  1.00 20.00    -0.092 Cl
ENDROOT
BRANCH   1   4
HETATM    4  C1  UNL     1     -31.982   7.823   1.911  1.00 20.00     0.164 C 
HETATM    5 CL6  UNL     1     -32.460   9.086   0.747  1.00 20.00    -0.127 Cl
ENDBRANCH   1   4
BRANCH   1   6
HETATM    6  C3  UNL     1     -33.854   6.450   3.095  1.00 20.00     0.355 C 
HETATM    7  F4  UNL     1     -35.145   6.486   2.673  1.00 20.00    -0.184 F 
HETATM    8  F5  UNL     1     -33.692   5.232   3.680  1.00 20.00    -0.184 F 
HETATM    9 CL9  UNL     1     -33.636   7.705   4.337  1.00 20.00    -0.045 Cl
ENDBRANCH   1   6
TORSDOF 2
ENDMDL
MODEL 3
REMARK VINA RESULT:      -0.7      1.768      3.318
REMARK  2 active torsions:
REMARK  status: ('A' for Active; 'I' for Inactive)
REMARK    1  A    between atoms: C1_1  and  C2_2 
REMARK    2  A    between atoms: C2_2  and  C3_3 
ROOT
HETATM    1  C2  UNL     1     -32.540   7.628   2.160  1.00 20.00     0.205 C 
HETATM    2 CL7  UNL     1     -31.001   8.424   2.686  1.00 20.00    -0.092 Cl
HETATM    3 CL8  UNL     1     -32.091   5.946   1.668  1.00 20.00    -0.092 Cl
ENDROOT
BRANCH   1   4
HETATM    4  C1  UNL     1     -33.063   8.391   0.932  1.00 20.00     0.164 C 
HETATM    5 CL6  UNL     1     -32.313   9.991   0.697  1.00 20.00    -0.127 Cl
ENDBRANCH   1   4
BRANCH   1   6
HETATM    6  C3  UNL     1     -33.503   7.545   3.358  1.00 20.00     0.355 C 
HETATM    7  F4  UNL     1     -32.855   7.857   4.511  1.00 20.00    -0.184 F 
HETATM    8  F5  UNL     1     -34.486   8.476   3.223  1.00 20.00    -0.184 F 
HETATM    9 CL9  UNL     1     -34.261   5.948   3.557  1.00 20.00    -0.045 Cl
ENDBRANCH   1   6
TORSDOF 2
ENDMDL
MODEL 4
REMARK VINA RESULT:      -0.5      2.263      2.727
REMARK  2 active torsions:
REMARK  status: ('A' for Active; 'I' for Inactive)
REMARK    1  A    between atoms: C1_1  and  C2_2 
REMARK    2  A    between atoms: C2_2  and  C3_3 
ROOT
HETATM    1  C2  UNL     1     -34.339   6.289   3.446  1.00 20.00     0.205 C 
HETATM    2 CL7  UNL     1     -36.072   6.571   3.008  1.00 20.00    -0.092 Cl
HETATM    3 CL8  UNL     1     -33.561   5.575   1.976  1.00 20.00    -0.092 Cl
ENDROOT
BRANCH   1   4
HETATM    4  C1  UNL     1     -34.308   5.257   4.585  1.00 20.00     0.164 C 
HETATM    5 CL6  UNL     1     -33.739   3.643   4.088  1.00 20.00    -0.127 Cl
ENDBRANCH   1   4
BRANCH   1   6
HETATM    6  C3  UNL     1     -33.665   7.640   3.746  1.00 20.00     0.355 C 
HETATM    7  F4  UNL     1     -34.578   8.645   3.704  1.00 20.00    -0.184 F 
HETATM    8  F5  UNL     1     -33.176   7.638   5.016  1.00 20.00    -0.184 F 
HETATM    9 CL9  UNL     1     -32.338   8.041   2.631  1.00 20.00    -0.045 Cl
ENDBRANCH   1   6
TORSDOF 2
ENDMDL
MODEL 5
REMARK VINA RESULT:      -0.5      2.060      2.865
REMARK  2 active torsions:
REMARK  status: ('A' for Active; 'I' for Inactive)
REMARK    1  A    between atoms: C1_1  and  C2_2 
REMARK    2  A    between atoms: C2_2  and  C3_3 
ROOT
HETATM    1  C2  UNL     1     -33.766   6.413   3.147  1.00 20.00     0.205 C 
HETATM    2 CL7  UNL     1     -33.108   7.654   4.290  1.00 20.00    -0.092 Cl
HETATM    3 CL8  UNL     1     -35.471   6.909   2.798  1.00 20.00    -0.092 Cl
ENDROOT
BRANCH   1   4
HETATM    4  C1  UNL     1     -33.773   5.062   3.881  1.00 20.00     0.164 C 
HETATM    5 CL6  UNL     1     -35.299   4.706   4.731  1.00 20.00    -0.127 Cl
ENDBRANCH   1   4
BRANCH   1   6
HETATM    6  C3  UNL     1     -32.967   6.459   1.833  1.00 20.00     0.355 C 
HETATM    7  F4  UNL     1     -32.127   5.393   1.751  1.00 20.00    -0.184 F 
HETATM    8  F5  UNL     1     -33.814   6.342   0.775  1.00 20.00    -0.184 F 
HETATM    9 CL9  UNL     1     -32.009   7.944   1.628  1.00 20.00    -0.045 Cl
ENDBRANCH   1   6
TORSDOF 2
ENDMDL
MODEL 6
REMARK VINA RESULT:      -0.5      1.998      2.560
REMARK  2 active torsions:
REMARK  status: ('A' for Active; 'I' for Inactive)
REMARK    1  A    between atoms: C1_1  and  C2_2 
REMARK    2  A    between atoms: C2_2  and  C3_3 
ROOT
HETATM    1  C2  UNL     1     -33.280   7.696   3.180  1.00 20.00     0.205 C 
HETATM    2 CL7  UNL     1     -32.729   8.013   4.875  1.00 20.00    -0.092 Cl
HETATM    3 CL8  UNL     1     -34.605   8.885   2.853  1.00 20.00    -0.092 Cl
ENDROOT
BRANCH   1   4
HETATM    4  C1  UNL     1     -33.858   6.272   3.137  1.00 20.00     0.164 C 
HETATM    5 CL6  UNL     1     -35.355   6.067   4.082  1.00 20.00    -0.127 Cl
ENDBRANCH   1   4
BRANCH   1   6
HETATM    6  C3  UNL     1     -32.121   7.979   2.208  1.00 20.00     0.355 C 
HETATM    7  F4  UNL     1     -31.019   8.388   2.890  1.00 20.00    -0.184 F 
HETATM    8  F5  UNL     1     -31.758   6.830   1.577  1.00 20.00    -0.184 F 
HETATM    9 CL9  UNL     1     -32.502   9.203   0.975  1.00 20.00    -0.045 Cl
ENDBRANCH   1   6
TORSDOF 2
ENDMDL
MODEL 7
REMARK VINA RESULT:      -0.4      1.993      2.530
REMARK  2 active torsions:
REMARK  status: ('A' for Active; 'I' for Inactive)
REMARK    1  A    between atoms: C1_1  and  C2_2 
REMARK    2  A    between atoms: C2_2  and  C3_3 
ROOT
HETATM    1  C2  UNL     1     -32.272   8.002   1.901  1.00 20.00     0.205 C 
HETATM    2 CL7  UNL     1     -31.968   6.282   1.422  1.00 20.00    -0.092 Cl
HETATM    3 CL8  UNL     1     -30.888   8.476   2.966  1.00 20.00    -0.092 Cl
ENDROOT
BRANCH   1   4
HETATM    4  C1  UNL     1     -33.573   8.034   2.719  1.00 20.00     0.164 C 
HETATM    5 CL6  UNL     1     -34.050   6.453   3.389  1.00 20.00    -0.127 Cl
ENDBRANCH   1   4
BRANCH   1   6
HETATM    6  C3  UNL     1     -32.246   8.890   0.644  1.00 20.00     0.355 C 
HETATM    7  F4  UNL     1     -31.009   8.882   0.082  1.00 20.00    -0.184 F 
HETATM    8  F5  UNL     1     -33.083   8.378  -0.298  1.00 20.00    -0.184 F 
HETATM    9 CL9  UNL     1     -32.710  10.580   0.952  1.00 20.00    -0.045 Cl
ENDBRANCH   1   6
TORSDOF 2
ENDMDL
MODEL 8
REMARK VINA RESULT:      -0.3      2.004      3.401
REMARK  2 active torsions:
REMARK  status: ('A' for Active; 'I' for Inactive)
REMARK    1  A    between atoms: C1_1  and  C2_2 
REMARK    2  A    between atoms: C2_2  and  C3_3 
ROOT
HETATM    1  C2  UNL     1     -32.677   7.620   2.159  1.00 20.00     0.205 C 
HETATM    2 CL7  UNL     1     -33.593   7.862   3.702  1.00 20.00    -0.092 Cl
HETATM    3 CL8  UNL     1     -30.950   8.010   2.535  1.00 20.00    -0.092 Cl
ENDROOT
BRANCH   1   4
HETATM    4  C1  UNL     1     -33.212   8.636   1.136  1.00 20.00     0.164 C 
HETATM    5 CL6  UNL     1     -31.939   9.496   0.233  1.00 20.00    -0.127 Cl
ENDBRANCH   1   4
BRANCH   1   6
HETATM    6  C3  UNL     1     -32.763   6.141   1.744  1.00 20.00     0.355 C 
HETATM    7  F4  UNL     1     -33.509   6.007   0.616  1.00 20.00    -0.184 F 
HETATM    8  F5  UNL     1     -31.524   5.680   1.423  1.00 20.00    -0.184 F 
HETATM    9 CL9  UNL     1     -33.452   5.084   2.998  1.00 20.00    -0.045 Cl
ENDBRANCH   1   6
TORSDOF 2
ENDMDL
MODEL 9
REMARK VINA RESULT:      -0.2      2.107      3.176
REMARK  2 active torsions:
REMARK  status: ('A' for Active; 'I' for Inactive)
REMARK    1  A    between atoms: C1_1  and  C2_2 
REMARK    2  A    between atoms: C2_2  and  C3_3 
ROOT
HETATM    1  C2  UNL     1     -33.030   6.397   1.966  1.00 20.00     0.205 C 
HETATM    2 CL7  UNL     1     -34.007   6.230   0.451  1.00 20.00    -0.092 Cl
HETATM    3 CL8  UNL     1     -32.208   8.006   1.857  1.00 20.00    -0.092 Cl
ENDROOT
BRANCH   1   4
HETATM    4  C1  UNL     1     -31.968   5.286   1.960  1.00 20.00     0.164 C 
HETATM    5 CL6  UNL     1     -31.691   4.555   0.359  1.00 20.00    -0.127 Cl
ENDBRANCH   1   4
BRANCH   1   6
HETATM    6  C3  UNL     1     -33.976   6.415   3.180  1.00 20.00     0.355 C 
HETATM    7  F4  UNL     1     -35.268   6.517   2.773  1.00 20.00    -0.184 F 
HETATM    8  F5  UNL     1     -33.891   5.232   3.847  1.00 20.00    -0.184 F 
HETATM    9 CL9  UNL     1     -33.645   7.734   4.327  1.00 20.00    -0.045 Cl
ENDBRANCH   1   6
TORSDOF 2
ENDMDL
