MODEL 1
REMARK VINA RESULT:      -1.9      0.000      0.000
REMARK  5 active torsions:
REMARK  status: ('A' for Active; 'I' for Inactive)
REMARK    1  A    between atoms: C1_1  and  O9_9 
REMARK    2  A    between atoms: C5_5  and  C6_6 
REMARK    3  A    between atoms: C6_6  and  C7_7 
REMARK    4  A    between atoms: C7_7  and  C8_8 
REMARK    5  A    between atoms: C8_8  and  O9_9 
ROOT
HETATM    1  C4  UNL     1     -33.891   7.970   4.897  1.00 20.00     0.040 C 
HETATM    2  C8  UNL     1     -34.203   7.213   3.615  1.00 20.00     0.125 C 
ENDROOT
BRANCH   2   3
HETATM    3  C7  UNL     1     -35.292   6.148   3.776  1.00 20.00     0.032 C 
BRANCH   3   4
HETATM    4  C6  UNL     1     -34.875   4.981   4.673  1.00 20.00     0.002 C 
BRANCH   4   5
HETATM    5  C5  UNL     1     -34.047   3.956   3.898  1.00 20.00    -0.004 C 
HETATM    6  C3  UNL     1     -33.235   3.074   4.834  1.00 20.00     0.005 C 
ENDBRANCH   4   5
ENDBRANCH   3   4
ENDBRANCH   2   3
BRANCH   2   7
HETATM    7  O9  UNL     1     -33.008   6.569   3.169  1.00 20.00    -0.340 OA
BRANCH   7   8
HETATM    8  C1  UNL     1     -32.558   6.732   1.906  1.00 20.00     0.109 C 
HETATM    9  C2  UNL     1     -32.561   5.570   0.965  1.00 20.00     0.089 C 
HETATM   10  S10 UNL     1     -32.020   8.253   1.490  1.00 20.00    -0.058 SA
ENDBRANCH   7   8
ENDBRANCH   2   7
TORSDOF 5
ENDMDL
MODEL 2
REMARK VINA RESULT:      -1.7      2.572      5.105
REMARK  5 active torsions:
REMARK  status: ('A' for Active; 'I' for Inactive)
REMARK    1  A    between atoms: C1_1  and  O9_9 
REMARK    2  A    between atoms: C5_5  and  C6_6 
REMARK    3  A    between atoms: C6_6  and  C7_7 
REMARK    4  A    between atoms: C7_7  and  C8_8 
REMARK    5  A    between atoms: C8_8  and  O9_9 
ROOT
HETATM    1  C4  UNL     1     -32.410   5.701   1.199  1.00 20.00     0.040 C 
HETATM    2  C8  UNL     1     -32.999   6.894   1.938  1.00 20.00     0.125 C 
ENDROOT
BRANCH   2   3
HETATM    3  C7  UNL     1     -32.124   8.151   1.878  1.00 20.00     0.032 C 
BRANCH   3   4
HETATM    4  C6  UNL     1     -31.610   8.469   0.473  1.00 20.00     0.002 C 
BRANCH   4   5
HETATM    5  C5  UNL     1     -32.459   9.553  -0.194  1.00 20.00    -0.004 C 
HETATM    6  C3  UNL     1     -32.782  10.681   0.774  1.00 20.00     0.005 C 
ENDBRANCH   4   5
ENDBRANCH   3   4
ENDBRANCH   2   3
BRANCH   2   7
HETATM    7  O9  UNL     1     -33.173   6.533   3.309  1.00 20.00    -0.340 OA
BRANCH   7   8
HETATM    8  C1  UNL     1     -34.253   5.831   3.713  1.00 20.00     0.109 C 
HETATM    9  C2  UNL     1     -35.585   6.507   3.796  1.00 20.00     0.089 C 
HETATM   10  S10 UNL     1     -34.007   4.228   4.097  1.00 20.00    -0.058 SA
ENDBRANCH   7   8
ENDBRANCH   2   7
TORSDOF 5
ENDMDL
MODEL 3
REMARK VINA RESULT:      -1.6      1.067      1.290
REMARK  5 active torsions:
REMARK  status: ('A' for Active; 'I' for Inactive)
REMARK    1  A    between atoms: C1_1  and  O9_9 
REMARK    2  A    between atoms: C5_5  and  C6_6 
REMARK    3  A    between atoms: C6_6  and  C7_7 
REMARK    4  A    between atoms: C7_7  and  C8_8 
REMARK    5  A    between atoms: C8_8  and  O9_9 
ROOT
HETATM    1  C4  UNL     1     -33.879   7.993   5.140  1.00 20.00     0.040 C 
HETATM    2  C8  UNL     1     -34.038   7.498   3.710  1.00 20.00     0.125 C 
ENDROOT
BRANCH   2   3
HETATM    3  C7  UNL     1     -34.968   6.288   3.576  1.00 20.00     0.032 C 
BRANCH   3   4
HETATM    4  C6  UNL     1     -34.646   5.159   4.557  1.00 20.00     0.002 C 
BRANCH   4   5
HETATM    5  C5  UNL     1     -33.997   3.973   3.843  1.00 20.00    -0.004 C 
HETATM    6  C3  UNL     1     -33.250   3.077   4.819  1.00 20.00     0.005 C 
ENDBRANCH   4   5
ENDBRANCH   3   4
ENDBRANCH   2   3
BRANCH   2   7
HETATM    7  O9  UNL     1     -32.750   7.131   3.214  1.00 20.00    -0.340 OA
BRANCH   7   8
HETATM    8  C1  UNL     1     -32.463   7.206   1.896  1.00 20.00     0.109 C 
HETATM    9  C2  UNL     1     -32.193   8.540   1.275  1.00 20.00     0.089 C 
HETATM   10  S10 UNL     1     -32.433   5.772   1.051  1.00 20.00    -0.058 SA
ENDBRANCH   7   8
ENDBRANCH   2   7
TORSDOF 5
ENDMDL
MODEL 4
REMARK VINA RESULT:      -1.6      2.309      4.967
REMARK  5 active torsions:
REMARK  status: ('A' for Active; 'I' for Inactive)
REMARK    1  A    between atoms: C1_1  and  O9_9 
REMARK    2  A    between atoms: C5_5  and  C6_6 
REMARK    3  A    between atoms: C6_6  and  C7_7 
REMARK    4  A    between atoms: C7_7  and  C8_8 
REMARK    5  A    between atoms: C8_8  and  O9_9 
ROOT
HETATM    1  C4  UNL     1     -33.227   5.338   0.381  1.00 20.00     0.040 C 
HETATM    2  C8  UNL     1     -33.036   6.123   1.671  1.00 20.00     0.125 C 
ENDROOT
BRANCH   2   3
HETATM    3  C7  UNL     1     -31.815   7.048   1.656  1.00 20.00     0.032 C 
BRANCH   3   4
HETATM    4  C6  UNL     1     -32.176   8.534   1.689  1.00 20.00     0.002 C 
BRANCH   4   5
HETATM    5  C5  UNL     1     -31.940   9.192   0.329  1.00 20.00    -0.004 C 
HETATM    6  C3  UNL     1     -32.714  10.494   0.199  1.00 20.00     0.005 C 
ENDBRANCH   4   5
ENDBRANCH   3   4
ENDBRANCH   2   3
BRANCH   2   7
HETATM    7  O9  UNL     1     -32.882   5.194   2.745  1.00 20.00    -0.340 OA
BRANCH   7   8
HETATM    8  C1  UNL     1     -33.861   5.015   3.658  1.00 20.00     0.109 C 
HETATM    9  C2  UNL     1     -33.946   3.722   4.405  1.00 20.00     0.089 C 
HETATM   10  S10 UNL     1     -34.921   6.280   3.882  1.00 20.00    -0.058 SA
ENDBRANCH   7   8
ENDBRANCH   2   7
TORSDOF 5
ENDMDL
MODEL 5
REMARK VINA RESULT:      -1.4      2.574      4.819
REMARK  5 active torsions:
REMARK  status: ('A' for Active; 'I' for Inactive)
REMARK    1  A    between atoms: C1_1  and  O9_9 
REMARK    2  A    between atoms: C5_5  and  C6_6 
REMARK    3  A    between atoms: C6_6  and  C7_7 
REMARK    4  A    between atoms: C7_7  and  C8_8 
REMARK    5  A    between atoms: C8_8  and  O9_9 
ROOT
HETATM    1  C4  UNL     1     -34.073   7.581   3.647  1.00 20.00     0.040 C 
HETATM    2  C8  UNL     1     -33.125   6.527   3.093  1.00 20.00     0.125 C 
ENDROOT
BRANCH   2   3
HETATM    3  C7  UNL     1     -32.498   6.906   1.748  1.00 20.00     0.032 C 
BRANCH   3   4
HETATM    4  C6  UNL     1     -31.941   8.330   1.714  1.00 20.00     0.002 C 
BRANCH   4   5
HETATM    5  C5  UNL     1     -31.970   8.902   0.296  1.00 20.00    -0.004 C 
HETATM    6  C3  UNL     1     -32.589  10.291   0.269  1.00 20.00     0.005 C 
ENDBRANCH   4   5
ENDBRANCH   3   4
ENDBRANCH   2   3
BRANCH   2   7
HETATM    7  O9  UNL     1     -33.854   5.311   2.922  1.00 20.00    -0.340 OA
BRANCH   7   8
HETATM    8  C1  UNL     1     -34.265   4.589   3.988  1.00 20.00     0.109 C 
HETATM    9  C2  UNL     1     -35.495   5.004   4.730  1.00 20.00     0.089 C 
HETATM   10  S10 UNL     1     -33.344   3.263   4.397  1.00 20.00    -0.058 SA
ENDBRANCH   7   8
ENDBRANCH   2   7
TORSDOF 5
ENDMDL
MODEL 6
REMARK VINA RESULT:      -1.0      1.556      2.697
REMARK  5 active torsions:
REMARK  status: ('A' for Active; 'I' for Inactive)
REMARK    1  A    between atoms: C1_1  and  O9_9 
REMARK    2  A    between atoms: C5_5  and  C6_6 
REMARK    3  A    between atoms: C6_6  and  C7_7 
REMARK    4  A    between atoms: C7_7  and  C8_8 
REMARK    5  A    between atoms: C8_8  and  O9_9 
ROOT
HETATM    1  C4  UNL     1     -32.045   4.976   1.166  1.00 20.00     0.040 C 
HETATM    2  C8  UNL     1     -32.541   6.247   1.841  1.00 20.00     0.125 C 
ENDROOT
BRANCH   2   3
HETATM    3  C7  UNL     1     -34.026   6.209   2.213  1.00 20.00     0.032 C 
BRANCH   3   4
HETATM    4  C6  UNL     1     -34.284   6.380   3.711  1.00 20.00     0.002 C 
BRANCH   4   5
HETATM    5  C5  UNL     1     -34.946   5.135   4.304  1.00 20.00    -0.004 C 
HETATM    6  C3  UNL     1     -33.993   3.950   4.315  1.00 20.00     0.005 C 
ENDBRANCH   4   5
ENDBRANCH   3   4
ENDBRANCH   2   3
BRANCH   2   7
HETATM    7  O9  UNL     1     -32.329   7.343   0.950  1.00 20.00    -0.340 OA
BRANCH   7   8
HETATM    8  C1  UNL     1     -32.078   8.584   1.419  1.00 20.00     0.109 C 
HETATM    9  C2  UNL     1     -31.540   8.755   2.804  1.00 20.00     0.089 C 
HETATM   10  S10 UNL     1     -32.397   9.855   0.390  1.00 20.00    -0.058 SA
ENDBRANCH   7   8
ENDBRANCH   2   7
TORSDOF 5
ENDMDL
MODEL 7
REMARK VINA RESULT:      -0.8      1.761      2.603
REMARK  5 active torsions:
REMARK  status: ('A' for Active; 'I' for Inactive)
REMARK    1  A    between atoms: C1_1  and  O9_9 
REMARK    2  A    between atoms: C5_5  and  C6_6 
REMARK    3  A    between atoms: C6_6  and  C7_7 
REMARK    4  A    between atoms: C7_7  and  C8_8 
REMARK    5  A    between atoms: C8_8  and  O9_9 
ROOT
HETATM    1  C4  UNL     1     -32.829   6.063   1.517  1.00 20.00     0.040 C 
HETATM    2  C8  UNL     1     -32.683   7.308   2.379  1.00 20.00     0.125 C 
ENDROOT
BRANCH   2   3
HETATM    3  C7  UNL     1     -33.511   7.268   3.667  1.00 20.00     0.032 C 
BRANCH   3   4
HETATM    4  C6  UNL     1     -34.909   6.677   3.475  1.00 20.00     0.002 C 
BRANCH   4   5
HETATM    5  C5  UNL     1     -35.164   5.528   4.452  1.00 20.00    -0.004 C 
HETATM    6  C3  UNL     1     -34.240   4.351   4.179  1.00 20.00     0.005 C 
ENDBRANCH   4   5
ENDBRANCH   3   4
ENDBRANCH   2   3
BRANCH   2   7
HETATM    7  O9  UNL     1     -33.100   8.438   1.612  1.00 20.00    -0.340 OA
BRANCH   7   8
HETATM    8  C1  UNL     1     -32.234   9.094   0.809  1.00 20.00     0.109 C 
HETATM    9  C2  UNL     1     -30.894   8.493   0.522  1.00 20.00     0.089 C 
HETATM   10  S10 UNL     1     -32.742  10.554   0.190  1.00 20.00    -0.058 SA
ENDBRANCH   7   8
ENDBRANCH   2   7
TORSDOF 5
ENDMDL
MODEL 8
REMARK VINA RESULT:      -0.7      1.256      2.032
REMARK  5 active torsions:
REMARK  status: ('A' for Active; 'I' for Inactive)
REMARK    1  A    between atoms: C1_1  and  O9_9 
REMARK    2  A    between atoms: C5_5  and  C6_6 
REMARK    3  A    between atoms: C6_6  and  C7_7 
REMARK    4  A    between atoms: C7_7  and  C8_8 
REMARK    5  A    between atoms: C8_8  and  O9_9 
ROOT
HETATM    1  C4  UNL     1     -32.965   5.683   1.480  1.00 20.00     0.040 C 
HETATM    2  C8  UNL     1     -33.284   6.404   2.781  1.00 20.00     0.125 C 
ENDROOT
BRANCH   2   3
HETATM    3  C7  UNL     1     -34.639   6.021   3.384  1.00 20.00     0.032 C 
BRANCH   3   4
HETATM    4  C6  UNL     1     -34.545   4.930   4.451  1.00 20.00     0.002 C 
BRANCH   4   5
HETATM    5  C5  UNL     1     -33.808   3.699   3.920  1.00 20.00    -0.004 C 
HETATM    6  C3  UNL     1     -33.065   2.974   5.031  1.00 20.00     0.005 C 
ENDBRANCH   4   5
ENDBRANCH   3   4
ENDBRANCH   2   3
BRANCH   2   7
HETATM    7  O9  UNL     1     -33.286   7.810   2.528  1.00 20.00    -0.340 OA
BRANCH   7   8
HETATM    8  C1  UNL     1     -32.206   8.425   2.000  1.00 20.00     0.109 C 
HETATM    9  C2  UNL     1     -30.882   8.310   2.686  1.00 20.00     0.089 C 
HETATM   10  S10 UNL     1     -32.444   9.286   0.593  1.00 20.00    -0.058 SA
ENDBRANCH   7   8
ENDBRANCH   2   7
TORSDOF 5
ENDMDL
MODEL 9
REMARK VINA RESULT:      -0.5      1.694      2.725
REMARK  5 active torsions:
REMARK  status: ('A' for Active; 'I' for Inactive)
REMARK    1  A    between atoms: C1_1  and  O9_9 
REMARK    2  A    between atoms: C5_5  and  C6_6 
REMARK    3  A    between atoms: C6_6  and  C7_7 
REMARK    4  A    between atoms: C7_7  and  C8_8 
REMARK    5  A    between atoms: C8_8  and  O9_9 
ROOT
HETATM    1  C4  UNL     1     -31.726   5.188   1.069  1.00 20.00     0.040 C 
HETATM    2  C8  UNL     1     -32.549   6.244   1.791  1.00 20.00     0.125 C 
ENDROOT
BRANCH   2   3
HETATM    3  C7  UNL     1     -33.947   5.767   2.195  1.00 20.00     0.032 C 
BRANCH   3   4
HETATM    4  C6  UNL     1     -34.346   6.181   3.613  1.00 20.00     0.002 C 
BRANCH   4   5
HETATM    5  C5  UNL     1     -34.856   4.984   4.417  1.00 20.00    -0.004 C 
HETATM    6  C3  UNL     1     -33.898   3.806   4.328  1.00 20.00     0.005 C 
ENDBRANCH   4   5
ENDBRANCH   3   4
ENDBRANCH   2   3
BRANCH   2   7
HETATM    7  O9  UNL     1     -32.692   7.372   0.927  1.00 20.00    -0.340 OA
BRANCH   7   8
HETATM    8  C1  UNL     1     -32.226   8.589   1.286  1.00 20.00     0.109 C 
HETATM    9  C2  UNL     1     -32.320   9.728   0.321  1.00 20.00     0.089 C 
HETATM   10  S10 UNL     1     -31.569   8.723   2.810  1.00 20.00    -0.058 SA
ENDBRANCH   7   8
ENDBRANCH   2   7
TORSDOF 5
ENDMDL
