MODEL 1
REMARK VINA RESULT:      -2.0      0.000      0.000
REMARK  4 active torsions:
REMARK  status: ('A' for Active; 'I' for Inactive)
REMARK    1  A    between atoms: C1_1  and  O8_8 
REMARK    2  A    between atoms: C5_5  and  C6_6 
REMARK    3  A    between atoms: C6_6  and  C7_7 
REMARK    4  A    between atoms: C7_7  and  O8_8 
ROOT
HETATM    1  C4  UNL     1     -32.492   5.791   1.407  1.00 20.00     0.040 C 
HETATM    2  C7  UNL     1     -32.304   7.147   2.074  1.00 20.00     0.125 C 
ENDROOT
BRANCH   2   3
HETATM    3  C6  UNL     1     -31.699   8.170   1.107  1.00 20.00     0.032 C 
BRANCH   3   4
HETATM    4  C5  UNL     1     -32.518   9.461   1.048  1.00 20.00    -0.002 C 
HETATM    5  C3  UNL     1     -32.616   9.994  -0.374  1.00 20.00     0.005 C 
ENDBRANCH   3   4
ENDBRANCH   2   3
BRANCH   2   6
HETATM    6  O8  UNL     1     -33.570   7.606   2.542  1.00 20.00    -0.340 OA
BRANCH   6   7
HETATM    7  C1  UNL     1     -33.972   7.371   3.810  1.00 20.00     0.109 C 
HETATM    8  C2  UNL     1     -33.321   8.106   4.939  1.00 20.00     0.089 C 
HETATM    9  S9  UNL     1     -35.189   6.251   4.020  1.00 20.00    -0.058 SA
ENDBRANCH   6   7
ENDBRANCH   2   6
TORSDOF 4
ENDMDL
MODEL 2
REMARK VINA RESULT:      -1.9      2.670      5.004
REMARK  4 active torsions:
REMARK  status: ('A' for Active; 'I' for Inactive)
REMARK    1  A    between atoms: C1_1  and  O8_8 
REMARK    2  A    between atoms: C5_5  and  C6_6 
REMARK    3  A    between atoms: C6_6  and  C7_7 
REMARK    4  A    between atoms: C7_7  and  O8_8 
ROOT
HETATM    1  C4  UNL     1     -34.584   7.418   4.163  1.00 20.00     0.040 C 
HETATM    2  C7  UNL     1     -33.842   6.158   3.734  1.00 20.00     0.125 C 
ENDROOT
BRANCH   2   3
HETATM    3  C6  UNL     1     -34.551   4.893   4.229  1.00 20.00     0.032 C 
BRANCH   3   4
HETATM    4  C5  UNL     1     -33.777   3.622   3.871  1.00 20.00    -0.002 C 
HETATM    5  C3  UNL     1     -33.054   3.052   5.082  1.00 20.00     0.005 C 
ENDBRANCH   3   4
ENDBRANCH   2   3
BRANCH   2   6
HETATM    6  O8  UNL     1     -33.751   6.143   2.312  1.00 20.00    -0.340 OA
BRANCH   6   7
HETATM    7  C1  UNL     1     -32.570   6.337   1.685  1.00 20.00     0.109 C 
HETATM    8  C2  UNL     1     -31.897   5.184   1.009  1.00 20.00     0.089 C 
HETATM    9  S9  UNL     1     -31.942   7.880   1.720  1.00 20.00    -0.058 SA
ENDBRANCH   6   7
ENDBRANCH   2   6
TORSDOF 4
ENDMDL
MODEL 3
REMARK VINA RESULT:      -1.7      1.112      1.340
REMARK  4 active torsions:
REMARK  status: ('A' for Active; 'I' for Inactive)
REMARK    1  A    between atoms: C1_1  and  O8_8 
REMARK    2  A    between atoms: C5_5  and  C6_6 
REMARK    3  A    between atoms: C6_6  and  C7_7 
REMARK    4  A    between atoms: C7_7  and  O8_8 
ROOT
HETATM    1  C4  UNL     1     -32.387   5.609   1.236  1.00 20.00     0.040 C 
HETATM    2  C7  UNL     1     -32.362   6.891   2.058  1.00 20.00     0.125 C 
ENDROOT
BRANCH   2   3
HETATM    3  C6  UNL     1     -31.719   8.045   1.281  1.00 20.00     0.032 C 
BRANCH   3   4
HETATM    4  C5  UNL     1     -32.657   9.247   1.154  1.00 20.00    -0.002 C 
HETATM    5  C3  UNL     1     -32.452   9.975  -0.165  1.00 20.00     0.005 C 
ENDBRANCH   3   4
ENDBRANCH   2   3
BRANCH   2   6
HETATM    6  O8  UNL     1     -33.698   7.230   2.419  1.00 20.00    -0.340 OA
BRANCH   6   7
HETATM    7  C1  UNL     1     -34.123   7.132   3.698  1.00 20.00     0.109 C 
HETATM    8  C2  UNL     1     -35.221   6.176   4.040  1.00 20.00     0.089 C 
HETATM    9  S9  UNL     1     -33.371   8.111   4.819  1.00 20.00    -0.058 SA
ENDBRANCH   6   7
ENDBRANCH   2   6
TORSDOF 4
ENDMDL
MODEL 4
REMARK VINA RESULT:      -1.6      2.294      4.645
REMARK  4 active torsions:
REMARK  status: ('A' for Active; 'I' for Inactive)
REMARK    1  A    between atoms: C1_1  and  O8_8 
REMARK    2  A    between atoms: C5_5  and  C6_6 
REMARK    3  A    between atoms: C6_6  and  C7_7 
REMARK    4  A    between atoms: C7_7  and  O8_8 
ROOT
HETATM    1  C4  UNL     1     -33.609   7.972   4.937  1.00 20.00     0.040 C 
HETATM    2  C7  UNL     1     -33.823   6.954   3.824  1.00 20.00     0.125 C 
ENDROOT
BRANCH   2   3
HETATM    3  C6  UNL     1     -35.224   6.337   3.888  1.00 20.00     0.032 C 
BRANCH   3   4
HETATM    4  C5  UNL     1     -35.221   4.973   4.583  1.00 20.00    -0.002 C 
HETATM    5  C3  UNL     1     -34.027   4.134   4.157  1.00 20.00     0.005 C 
ENDBRANCH   3   4
ENDBRANCH   2   3
BRANCH   2   6
HETATM    6  O8  UNL     1     -33.632   7.602   2.568  1.00 20.00    -0.340 OA
BRANCH   6   7
HETATM    7  C1  UNL     1     -32.582   7.293   1.776  1.00 20.00     0.109 C 
HETATM    8  C2  UNL     1     -32.295   5.859   1.460  1.00 20.00     0.089 C 
HETATM    9  S9  UNL     1     -31.670   8.564   1.203  1.00 20.00    -0.058 SA
ENDBRANCH   6   7
ENDBRANCH   2   6
TORSDOF 4
ENDMDL
MODEL 5
REMARK VINA RESULT:      -1.1      1.444      1.954
REMARK  4 active torsions:
REMARK  status: ('A' for Active; 'I' for Inactive)
REMARK    1  A    between atoms: C1_1  and  O8_8 
REMARK    2  A    between atoms: C5_5  and  C6_6 
REMARK    3  A    between atoms: C6_6  and  C7_7 
REMARK    4  A    between atoms: C7_7  and  O8_8 
ROOT
HETATM    1  C4  UNL     1     -32.745   7.989   3.970  1.00 20.00     0.040 C 
HETATM    2  C7  UNL     1     -33.143   7.517   2.578  1.00 20.00     0.125 C 
ENDROOT
BRANCH   2   3
HETATM    3  C6  UNL     1     -32.052   7.826   1.547  1.00 20.00     0.032 C 
BRANCH   3   4
HETATM    4  C5  UNL     1     -31.972   9.320   1.224  1.00 20.00    -0.002 C 
HETATM    5  C3  UNL     1     -32.567   9.626  -0.142  1.00 20.00     0.005 C 
ENDBRANCH   3   4
ENDBRANCH   2   3
BRANCH   2   6
HETATM    6  O8  UNL     1     -33.388   6.114   2.624  1.00 20.00    -0.340 OA
BRANCH   6   7
HETATM    7  C1  UNL     1     -34.237   5.582   3.531  1.00 20.00     0.109 C 
HETATM    8  C2  UNL     1     -35.460   6.346   3.932  1.00 20.00     0.089 C 
HETATM    9  S9  UNL     1     -33.842   4.085   4.147  1.00 20.00    -0.058 SA
ENDBRANCH   6   7
ENDBRANCH   2   6
TORSDOF 4
ENDMDL
MODEL 6
REMARK VINA RESULT:      -0.9      2.281      4.287
REMARK  4 active torsions:
REMARK  status: ('A' for Active; 'I' for Inactive)
REMARK    1  A    between atoms: C1_1  and  O8_8 
REMARK    2  A    between atoms: C5_5  and  C6_6 
REMARK    3  A    between atoms: C6_6  and  C7_7 
REMARK    4  A    between atoms: C7_7  and  O8_8 
ROOT
HETATM    1  C4  UNL     1     -32.679   5.933   1.644  1.00 20.00     0.040 C 
HETATM    2  C7  UNL     1     -33.146   7.297   2.135  1.00 20.00     0.125 C 
ENDROOT
BRANCH   2   3
HETATM    3  C6  UNL     1     -33.588   7.246   3.601  1.00 20.00     0.032 C 
BRANCH   3   4
HETATM    4  C5  UNL     1     -35.023   6.737   3.752  1.00 20.00    -0.002 C 
HETATM    5  C3  UNL     1     -35.056   5.324   4.315  1.00 20.00     0.005 C 
ENDBRANCH   3   4
ENDBRANCH   2   3
BRANCH   2   6
HETATM    6  O8  UNL     1     -32.078   8.229   1.979  1.00 20.00    -0.340 OA
BRANCH   6   7
HETATM    7  C1  UNL     1     -31.972   8.989   0.867  1.00 20.00     0.109 C 
HETATM    8  C2  UNL     1     -31.084   8.540  -0.250  1.00 20.00     0.089 C 
HETATM    9  S9  UNL     1     -32.857  10.401   0.831  1.00 20.00    -0.058 SA
ENDBRANCH   6   7
ENDBRANCH   2   6
TORSDOF 4
ENDMDL
MODEL 7
REMARK VINA RESULT:      -0.9      2.837      4.635
REMARK  4 active torsions:
REMARK  status: ('A' for Active; 'I' for Inactive)
REMARK    1  A    between atoms: C1_1  and  O8_8 
REMARK    2  A    between atoms: C5_5  and  C6_6 
REMARK    3  A    between atoms: C6_6  and  C7_7 
REMARK    4  A    between atoms: C7_7  and  O8_8 
ROOT
HETATM    1  C4  UNL     1     -35.078   6.683   3.671  1.00 20.00     0.040 C 
HETATM    2  C7  UNL     1     -33.642   6.290   3.348  1.00 20.00     0.125 C 
ENDROOT
BRANCH   2   3
HETATM    3  C6  UNL     1     -33.501   4.775   3.165  1.00 20.00     0.032 C 
BRANCH   3   4
HETATM    4  C5  UNL     1     -34.049   3.997   4.364  1.00 20.00    -0.002 C 
HETATM    5  C3  UNL     1     -33.121   2.859   4.759  1.00 20.00     0.005 C 
ENDBRANCH   3   4
ENDBRANCH   2   3
BRANCH   2   6
HETATM    6  O8  UNL     1     -33.240   6.965   2.159  1.00 20.00    -0.340 OA
BRANCH   6   7
HETATM    7  C1  UNL     1     -32.434   8.049   2.209  1.00 20.00     0.109 C 
HETATM    8  C2  UNL     1     -31.869   8.486   3.524  1.00 20.00     0.089 C 
HETATM    9  S9  UNL     1     -32.130   8.830   0.769  1.00 20.00    -0.058 SA
ENDBRANCH   6   7
ENDBRANCH   2   6
TORSDOF 4
ENDMDL
MODEL 8
REMARK VINA RESULT:      -0.8      2.407      4.032
REMARK  4 active torsions:
REMARK  status: ('A' for Active; 'I' for Inactive)
REMARK    1  A    between atoms: C1_1  and  O8_8 
REMARK    2  A    between atoms: C5_5  and  C6_6 
REMARK    3  A    between atoms: C6_6  and  C7_7 
REMARK    4  A    between atoms: C7_7  and  O8_8 
ROOT
HETATM    1  C4  UNL     1     -32.441   5.989   1.493  1.00 20.00     0.040 C 
HETATM    2  C7  UNL     1     -32.911   7.349   1.991  1.00 20.00     0.125 C 
ENDROOT
BRANCH   2   3
HETATM    3  C6  UNL     1     -33.064   7.368   3.516  1.00 20.00     0.032 C 
BRANCH   3   4
HETATM    4  C5  UNL     1     -34.525   7.516   3.946  1.00 20.00    -0.002 C 
HETATM    5  C3  UNL     1     -35.230   6.169   3.997  1.00 20.00     0.005 C 
ENDBRANCH   3   4
ENDBRANCH   2   3
BRANCH   2   6
HETATM    6  O8  UNL     1     -31.967   8.337   1.583  1.00 20.00    -0.340 OA
BRANCH   6   7
HETATM    7  C1  UNL     1     -32.319   9.335   0.744  1.00 20.00     0.109 C 
HETATM    8  C2  UNL     1     -32.807  10.633   1.306  1.00 20.00     0.089 C 
HETATM    9  S9  UNL     1     -32.181   9.032  -0.889  1.00 20.00    -0.058 SA
ENDBRANCH   6   7
ENDBRANCH   2   6
TORSDOF 4
ENDMDL
MODEL 9
REMARK VINA RESULT:      -0.7      1.601      2.070
REMARK  4 active torsions:
REMARK  status: ('A' for Active; 'I' for Inactive)
REMARK    1  A    between atoms: C1_1  and  O8_8 
REMARK    2  A    between atoms: C5_5  and  C6_6 
REMARK    3  A    between atoms: C6_6  and  C7_7 
REMARK    4  A    between atoms: C7_7  and  O8_8 
ROOT
HETATM    1  C4  UNL     1     -32.791   7.897   3.867  1.00 20.00     0.040 C 
HETATM    2  C7  UNL     1     -33.163   7.285   2.523  1.00 20.00     0.125 C 
ENDROOT
BRANCH   2   3
HETATM    3  C6  UNL     1     -32.135   7.634   1.442  1.00 20.00     0.032 C 
BRANCH   3   4
HETATM    4  C5  UNL     1     -31.953   9.145   1.287  1.00 20.00    -0.002 C 
HETATM    5  C3  UNL     1     -32.492   9.637  -0.047  1.00 20.00     0.005 C 
ENDBRANCH   3   4
ENDBRANCH   2   3
BRANCH   2   6
HETATM    6  O8  UNL     1     -33.253   5.870   2.674  1.00 20.00    -0.340 OA
BRANCH   6   7
HETATM    7  C1  UNL     1     -34.105   5.315   3.563  1.00 20.00     0.109 C 
HETATM    8  C2  UNL     1     -33.821   3.948   4.102  1.00 20.00     0.089 C 
HETATM    9  S9  UNL     1     -35.436   6.219   3.998  1.00 20.00    -0.058 SA
ENDBRANCH   6   7
ENDBRANCH   2   6
TORSDOF 4
ENDMDL
