MODEL 1
REMARK VINA RESULT:      -1.1      0.000      0.000
REMARK  0 active torsions:
REMARK  status: ('A' for Active; 'I' for Inactive)
ROOT
HETATM    1  C1  UNL     1     -32.904   5.848   1.762  1.00 20.00     0.043 C 
HETATM    2  C2  UNL     1     -34.404   7.618   3.963  1.00 20.00     0.019 C 
HETATM    3  C3  UNL     1     -34.962   6.406   3.852  1.00 20.00     0.114 C 
HETATM    4  C4  UNL     1     -32.505   7.130   1.735  1.00 20.00     0.136 C 
HETATM    5  C5  UNL     1     -33.392   5.023   2.900  1.00 20.00     0.118 C 
HETATM    6  C6  UNL     1     -32.924   7.824   3.991  1.00 20.00     0.203 C 
HETATM    7  N7  UNL     1     -34.290   5.217   3.812  1.00 20.00    -0.273 NA
HETATM    8  O8  UNL     1     -32.447   8.111   2.682  1.00 20.00    -0.359 OA
ENDROOT
TORSDOF 0
ENDMDL
MODEL 2
REMARK VINA RESULT:      -1.0      1.982      2.755
REMARK  0 active torsions:
REMARK  status: ('A' for Active; 'I' for Inactive)
ROOT
HETATM    1  C1  UNL     1     -33.199   4.516   3.068  1.00 20.00     0.043 C 
HETATM    2  C2  UNL     1     -34.391   7.255   4.212  1.00 20.00     0.019 C 
HETATM    3  C3  UNL     1     -33.331   7.478   3.424  1.00 20.00     0.114 C 
HETATM    4  C4  UNL     1     -34.116   4.306   4.026  1.00 20.00     0.136 C 
HETATM    5  C5  UNL     1     -33.082   5.627   2.085  1.00 20.00     0.118 C 
HETATM    6  C6  UNL     1     -35.466   6.280   3.858  1.00 20.00     0.203 C 
HETATM    7  N7  UNL     1     -33.113   6.915   2.198  1.00 20.00    -0.273 NA
HETATM    8  O8  UNL     1     -35.197   5.018   4.458  1.00 20.00    -0.359 OA
ENDROOT
TORSDOF 0
ENDMDL
MODEL 3
REMARK VINA RESULT:      -0.8      1.827      3.297
REMARK  0 active torsions:
REMARK  status: ('A' for Active; 'I' for Inactive)
ROOT
HETATM    1  C1  UNL     1     -34.259   7.641   3.949  1.00 20.00     0.043 C 
HETATM    2  C2  UNL     1     -33.042   5.714   1.705  1.00 20.00     0.019 C 
HETATM    3  C3  UNL     1     -32.643   6.980   1.526  1.00 20.00     0.114 C 
HETATM    4  C4  UNL     1     -34.816   6.420   3.978  1.00 20.00     0.136 C 
HETATM    5  C5  UNL     1     -32.889   8.058   3.541  1.00 20.00     0.118 C 
HETATM    6  C6  UNL     1     -33.072   5.061   3.049  1.00 20.00     0.203 C 
HETATM    7  N7  UNL     1     -32.164   7.812   2.499  1.00 20.00    -0.273 NA
HETATM    8  O8  UNL     1     -34.370   5.181   3.620  1.00 20.00    -0.359 OA
ENDROOT
TORSDOF 0
ENDMDL
MODEL 4
REMARK VINA RESULT:      -0.6      0.951      2.450
REMARK  0 active torsions:
REMARK  status: ('A' for Active; 'I' for Inactive)
ROOT
HETATM    1  C1  UNL     1     -34.229   7.418   4.039  1.00 20.00     0.043 C 
HETATM    2  C2  UNL     1     -33.083   4.625   2.982  1.00 20.00     0.019 C 
HETATM    3  C3  UNL     1     -33.941   4.446   3.993  1.00 20.00     0.114 C 
HETATM    4  C4  UNL     1     -33.211   7.584   3.181  1.00 20.00     0.136 C 
HETATM    5  C5  UNL     1     -35.246   6.334   4.117  1.00 20.00     0.118 C 
HETATM    6  C6  UNL     1     -33.342   5.584   1.865  1.00 20.00     0.203 C 
HETATM    7  N7  UNL     1     -35.164   5.043   4.120  1.00 20.00    -0.273 NA
HETATM    8  O8  UNL     1     -32.729   6.837   2.146  1.00 20.00    -0.359 OA
ENDROOT
TORSDOF 0
ENDMDL
MODEL 5
REMARK VINA RESULT:      -0.4      0.869      2.340
REMARK  0 active torsions:
REMARK  status: ('A' for Active; 'I' for Inactive)
ROOT
HETATM    1  C1  UNL     1     -33.163   8.079   3.851  1.00 20.00     0.043 C 
HETATM    2  C2  UNL     1     -33.004   5.279   2.314  1.00 20.00     0.019 C 
HETATM    3  C3  UNL     1     -33.777   5.191   3.404  1.00 20.00     0.114 C 
HETATM    4  C4  UNL     1     -32.228   8.086   2.888  1.00 20.00     0.136 C 
HETATM    5  C5  UNL     1     -34.444   7.326   3.934  1.00 20.00     0.118 C 
HETATM    6  C6  UNL     1     -33.072   6.434   1.369  1.00 20.00     0.203 C 
HETATM    7  N7  UNL     1     -34.749   6.080   3.768  1.00 20.00    -0.273 NA
HETATM    8  O8  UNL     1     -32.091   7.405   1.713  1.00 20.00    -0.359 OA
ENDROOT
TORSDOF 0
ENDMDL
MODEL 6
REMARK VINA RESULT:      -0.3      0.886      1.078
REMARK  0 active torsions:
REMARK  status: ('A' for Active; 'I' for Inactive)
ROOT
HETATM    1  C1  UNL     1     -33.472   4.721   2.354  1.00 20.00     0.043 C 
HETATM    2  C2  UNL     1     -34.974   7.118   3.847  1.00 20.00     0.019 C 
HETATM    3  C3  UNL     1     -35.503   5.933   4.178  1.00 20.00     0.114 C 
HETATM    4  C4  UNL     1     -33.108   5.921   1.874  1.00 20.00     0.136 C 
HETATM    5  C5  UNL     1     -33.917   4.333   3.720  1.00 20.00     0.118 C 
HETATM    6  C6  UNL     1     -33.500   7.347   3.761  1.00 20.00     0.203 C 
HETATM    7  N7  UNL     1     -34.801   4.815   4.532  1.00 20.00    -0.273 NA
HETATM    8  O8  UNL     1     -33.057   7.170   2.421  1.00 20.00    -0.359 OA
ENDROOT
TORSDOF 0
ENDMDL
MODEL 7
REMARK VINA RESULT:       0.4      2.089      3.481
REMARK  0 active torsions:
REMARK  status: ('A' for Active; 'I' for Inactive)
ROOT
HETATM    1  C1  UNL     1     -35.246   6.397   3.878  1.00 20.00     0.043 C 
HETATM    2  C2  UNL     1     -33.144   4.494   2.399  1.00 20.00     0.019 C 
HETATM    3  C3  UNL     1     -33.187   5.705   1.829  1.00 20.00     0.114 C 
HETATM    4  C4  UNL     1     -35.345   5.122   4.289  1.00 20.00     0.136 C 
HETATM    5  C5  UNL     1     -34.064   7.153   3.384  1.00 20.00     0.118 C 
HETATM    6  C6  UNL     1     -33.130   4.300   3.880  1.00 20.00     0.203 C 
HETATM    7  N7  UNL     1     -33.163   6.901   2.491  1.00 20.00    -0.273 NA
HETATM    8  O8  UNL     1     -34.454   4.091   4.357  1.00 20.00    -0.359 OA
ENDROOT
TORSDOF 0
ENDMDL
MODEL 8
REMARK VINA RESULT:       1.1      1.860      2.978
REMARK  0 active torsions:
REMARK  status: ('A' for Active; 'I' for Inactive)
ROOT
HETATM    1  C1  UNL     1     -32.740   8.204   2.710  1.00 20.00     0.043 C 
HETATM    2  C2  UNL     1     -33.778   5.277   1.945  1.00 20.00     0.019 C 
HETATM    3  C3  UNL     1     -32.908   5.736   1.036  1.00 20.00     0.114 C 
HETATM    4  C4  UNL     1     -33.769   7.817   3.480  1.00 20.00     0.136 C 
HETATM    5  C5  UNL     1     -31.680   7.392   2.053  1.00 20.00     0.118 C 
HETATM    6  C6  UNL     1     -33.563   5.429   3.415  1.00 20.00     0.203 C 
HETATM    7  N7  UNL     1     -31.710   6.335   1.308  1.00 20.00    -0.273 NA
HETATM    8  O8  UNL     1     -34.225   6.597   3.887  1.00 20.00    -0.359 OA
ENDROOT
TORSDOF 0
ENDMDL
MODEL 9
REMARK VINA RESULT:       1.3      1.859      2.590
REMARK  0 active torsions:
REMARK  status: ('A' for Active; 'I' for Inactive)
ROOT
HETATM    1  C1  UNL     1     -31.669   7.613   1.834  1.00 20.00     0.043 C 
HETATM    2  C2  UNL     1     -33.956   6.050   3.433  1.00 20.00     0.019 C 
HETATM    3  C3  UNL     1     -33.780   7.285   3.921  1.00 20.00     0.114 C 
HETATM    4  C4  UNL     1     -31.711   6.311   1.510  1.00 20.00     0.136 C 
HETATM    5  C5  UNL     1     -32.760   8.524   2.275  1.00 20.00     0.118 C 
HETATM    6  C6  UNL     1     -34.000   5.762   1.967  1.00 20.00     0.203 C 
HETATM    7  N7  UNL     1     -33.678   8.430   3.182  1.00 20.00    -0.273 NA
HETATM    8  O8  UNL     1     -32.709   5.380   1.507  1.00 20.00    -0.359 OA
ENDROOT
TORSDOF 0
ENDMDL
