MODEL 1
REMARK VINA RESULT:      -3.4      0.000      0.000
REMARK  2 active torsions:
REMARK  status: ('A' for Active; 'I' for Inactive)
REMARK    1  A    between atoms: C1_1  and  C2_2 
REMARK    2  A    between atoms: C1_1  and  C3_3 
ROOT
HETATM    1  C1  UNL     1     -33.419   7.112   2.282  1.00 20.00     0.346 C 
HETATM    2  F4  UNL     1     -33.061   5.792   2.264  1.00 20.00    -0.234 F 
ENDROOT
BRANCH   1   3
HETATM    3  C2  UNL     1     -34.043   7.406   3.639  1.00 20.00     0.357 C 
HETATM    4  F5  UNL     1     -34.641   8.622   3.639  1.00 20.00    -0.184 F 
HETATM    5  F6  UNL     1     -33.081   7.439   4.595  1.00 20.00    -0.184 F 
HETATM    6 CL9  UNL     1     -35.248   6.177   4.072  1.00 20.00    -0.045 Cl
ENDBRANCH   1   3
BRANCH   1   7
HETATM    7  C3  UNL     1     -32.159   7.907   1.966  1.00 20.00     0.357 C 
HETATM    8  F7  UNL     1     -31.218   7.054   1.479  1.00 20.00    -0.184 F 
HETATM    9  F8  UNL     1     -31.647   8.433   3.107  1.00 20.00    -0.184 F 
HETATM   10 CL10 UNL     1     -32.418   9.198   0.781  1.00 20.00    -0.045 Cl
ENDBRANCH   1   7
TORSDOF 2
ENDMDL
MODEL 2
REMARK VINA RESULT:      -3.0      2.114      3.653
REMARK  2 active torsions:
REMARK  status: ('A' for Active; 'I' for Inactive)
REMARK    1  A    between atoms: C1_1  and  C2_2 
REMARK    2  A    between atoms: C1_1  and  C3_3 
ROOT
HETATM    1  C1  UNL     1     -33.266   5.695   3.183  1.00 20.00     0.346 C 
HETATM    2  F4  UNL     1     -33.679   4.393   3.119  1.00 20.00    -0.234 F 
ENDROOT
BRANCH   1   3
HETATM    3  C2  UNL     1     -32.765   6.092   1.801  1.00 20.00     0.357 C 
HETATM    4  F5  UNL     1     -33.737   5.928   0.872  1.00 20.00    -0.184 F 
HETATM    5  F6  UNL     1     -31.730   5.295   1.436  1.00 20.00    -0.184 F 
HETATM    6 CL9  UNL     1     -32.230   7.785   1.774  1.00 20.00    -0.045 Cl
ENDBRANCH   1   3
BRANCH   1   7
HETATM    7  C3  UNL     1     -34.452   6.502   3.695  1.00 20.00     0.357 C 
HETATM    8  F7  UNL     1     -35.241   5.685   4.443  1.00 20.00    -0.184 F 
HETATM    9  F8  UNL     1     -35.211   6.920   2.651  1.00 20.00    -0.184 F 
HETATM   10 CL10 UNL     1     -33.983   7.893   4.685  1.00 20.00    -0.045 Cl
ENDBRANCH   1   7
TORSDOF 2
ENDMDL
MODEL 3
REMARK VINA RESULT:      -2.9      0.511      3.383
REMARK  2 active torsions:
REMARK  status: ('A' for Active; 'I' for Inactive)
REMARK    1  A    between atoms: C1_1  and  C2_2 
REMARK    2  A    between atoms: C1_1  and  C3_3 
ROOT
HETATM    1  C1  UNL     1     -32.960   6.868   2.676  1.00 20.00     0.346 C 
HETATM    2  F4  UNL     1     -33.660   6.403   1.597  1.00 20.00    -0.234 F 
ENDROOT
BRANCH   1   3
HETATM    3  C2  UNL     1     -31.965   7.904   2.175  1.00 20.00     0.357 C 
HETATM    4  F5  UNL     1     -30.892   7.304   1.604  1.00 20.00    -0.184 F 
HETATM    5  F6  UNL     1     -31.498   8.640   3.215  1.00 20.00    -0.184 F 
HETATM    6 CL9  UNL     1     -32.711   8.990   0.986  1.00 20.00    -0.045 Cl
ENDBRANCH   1   3
BRANCH   1   7
HETATM    7  C3  UNL     1     -33.991   7.391   3.668  1.00 20.00     0.357 C 
HETATM    8  F7  UNL     1     -34.552   8.519   3.157  1.00 20.00    -0.184 F 
HETATM    9  F8  UNL     1     -33.377   7.756   4.822  1.00 20.00    -0.184 F 
HETATM   10 CL10 UNL     1     -35.281   6.230   4.023  1.00 20.00    -0.045 Cl
ENDBRANCH   1   7
TORSDOF 2
ENDMDL
MODEL 4
REMARK VINA RESULT:      -2.9      1.466      3.461
REMARK  2 active torsions:
REMARK  status: ('A' for Active; 'I' for Inactive)
REMARK    1  A    between atoms: C1_1  and  C2_2 
REMARK    2  A    between atoms: C1_1  and  C3_3 
ROOT
HETATM    1  C1  UNL     1     -33.040   6.057   3.157  1.00 20.00     0.346 C 
HETATM    2  F4  UNL     1     -33.602   4.811   3.209  1.00 20.00    -0.234 F 
ENDROOT
BRANCH   1   3
HETATM    3  C2  UNL     1     -32.603   6.311   1.722  1.00 20.00     0.357 C 
HETATM    4  F5  UNL     1     -33.658   6.229   0.876  1.00 20.00    -0.184 F 
HETATM    5  F6  UNL     1     -31.712   5.364   1.333  1.00 20.00    -0.184 F 
HETATM    6 CL9  UNL     1     -31.857   7.913   1.551  1.00 20.00    -0.045 Cl
ENDBRANCH   1   3
BRANCH   1   7
HETATM    7  C3  UNL     1     -34.085   7.026   3.694  1.00 20.00     0.357 C 
HETATM    8  F7  UNL     1     -34.304   7.990   2.760  1.00 20.00    -0.184 F 
HETATM    9  F8  UNL     1     -33.605   7.659   4.794  1.00 20.00    -0.184 F 
HETATM   10 CL10 UNL     1     -35.631   6.254   4.081  1.00 20.00    -0.045 Cl
ENDBRANCH   1   7
TORSDOF 2
ENDMDL
MODEL 5
REMARK VINA RESULT:      -2.8      1.257      1.630
REMARK  2 active torsions:
REMARK  status: ('A' for Active; 'I' for Inactive)
REMARK    1  A    between atoms: C1_1  and  C2_2 
REMARK    2  A    between atoms: C1_1  and  C3_3 
ROOT
HETATM    1  C1  UNL     1     -33.440   6.783   2.012  1.00 20.00     0.346 C 
HETATM    2  F4  UNL     1     -32.947   5.560   1.649  1.00 20.00    -0.234 F 
ENDROOT
BRANCH   1   3
HETATM    3  C2  UNL     1     -34.124   6.627   3.363  1.00 20.00     0.357 C 
HETATM    4  F5  UNL     1     -33.783   5.451   3.942  1.00 20.00    -0.184 F 
HETATM    5  F6  UNL     1     -35.471   6.613   3.202  1.00 20.00    -0.184 F 
HETATM    6 CL9  UNL     1     -33.685   7.951   4.461  1.00 20.00    -0.045 Cl
ENDBRANCH   1   3
BRANCH   1   7
HETATM    7  C3  UNL     1     -32.262   7.749   1.993  1.00 20.00     0.357 C 
HETATM    8  F7  UNL     1     -31.164   7.084   1.545  1.00 20.00    -0.184 F 
HETATM    9  F8  UNL     1     -31.977   8.154   3.256  1.00 20.00    -0.184 F 
HETATM   10 CL10 UNL     1     -32.526   9.163   0.960  1.00 20.00    -0.045 Cl
ENDBRANCH   1   7
TORSDOF 2
ENDMDL
MODEL 6
REMARK VINA RESULT:      -2.5      0.948      3.538
REMARK  2 active torsions:
REMARK  status: ('A' for Active; 'I' for Inactive)
REMARK    1  A    between atoms: C1_1  and  C2_2 
REMARK    2  A    between atoms: C1_1  and  C3_3 
ROOT
HETATM    1  C1  UNL     1     -33.287   7.747   3.118  1.00 20.00     0.346 C 
HETATM    2  F4  UNL     1     -32.854   7.901   4.406  1.00 20.00    -0.234 F 
ENDROOT
BRANCH   1   3
HETATM    3  C2  UNL     1     -32.091   7.943   2.197  1.00 20.00     0.357 C 
HETATM    4  F5  UNL     1     -31.707   6.765   1.650  1.00 20.00    -0.184 F 
HETATM    5  F6  UNL     1     -31.033   8.414   2.905  1.00 20.00    -0.184 F 
HETATM    6 CL9  UNL     1     -32.466   9.084   0.890  1.00 20.00    -0.045 Cl
ENDBRANCH   1   3
BRANCH   1   7
HETATM    7  C3  UNL     1     -33.941   6.374   3.042  1.00 20.00     0.357 C 
HETATM    8  F7  UNL     1     -33.120   5.469   3.638  1.00 20.00    -0.184 F 
HETATM    9  F8  UNL     1     -34.059   5.991   1.746  1.00 20.00    -0.184 F 
HETATM   10 CL10 UNL     1     -35.526   6.302   3.830  1.00 20.00    -0.045 Cl
ENDBRANCH   1   7
TORSDOF 2
ENDMDL
MODEL 7
REMARK VINA RESULT:      -2.5      1.292      3.522
REMARK  2 active torsions:
REMARK  status: ('A' for Active; 'I' for Inactive)
REMARK    1  A    between atoms: C1_1  and  C2_2 
REMARK    2  A    between atoms: C1_1  and  C3_3 
ROOT
HETATM    1  C1  UNL     1     -33.171   7.307   2.035  1.00 20.00     0.346 C 
HETATM    2  F4  UNL     1     -33.475   7.485   3.357  1.00 20.00    -0.234 F 
ENDROOT
BRANCH   1   3
HETATM    3  C2  UNL     1     -31.966   8.179   1.713  1.00 20.00     0.357 C 
HETATM    4  F5  UNL     1     -31.058   7.492   0.978  1.00 20.00    -0.184 F 
HETATM    5  F6  UNL     1     -31.343   8.553   2.859  1.00 20.00    -0.184 F 
HETATM    6 CL9  UNL     1     -32.446   9.632   0.814  1.00 20.00    -0.045 Cl
ENDBRANCH   1   3
BRANCH   1   7
HETATM    7  C3  UNL     1     -32.957   5.812   1.837  1.00 20.00     0.357 C 
HETATM    8  F7  UNL     1     -31.621   5.575   1.734  1.00 20.00    -0.184 F 
HETATM    9  F8  UNL     1     -33.508   5.419   0.661  1.00 20.00    -0.184 F 
HETATM   10 CL10 UNL     1     -33.605   4.825   3.157  1.00 20.00    -0.045 Cl
ENDBRANCH   1   7
TORSDOF 2
ENDMDL
MODEL 8
REMARK VINA RESULT:      -2.5      0.823      1.647
REMARK  2 active torsions:
REMARK  status: ('A' for Active; 'I' for Inactive)
REMARK    1  A    between atoms: C1_1  and  C2_2 
REMARK    2  A    between atoms: C1_1  and  C3_3 
ROOT
HETATM    1  C1  UNL     1     -32.493   7.479   3.311  1.00 20.00     0.346 C 
HETATM    2  F4  UNL     1     -31.771   8.584   3.669  1.00 20.00    -0.234 F 
ENDROOT
BRANCH   1   3
HETATM    3  C2  UNL     1     -33.903   7.645   3.861  1.00 20.00     0.357 C 
HETATM    4  F5  UNL     1     -34.599   8.551   3.134  1.00 20.00    -0.184 F 
HETATM    5  F6  UNL     1     -33.852   8.115   5.133  1.00 20.00    -0.184 F 
HETATM    6 CL9  UNL     1     -34.783   6.104   3.848  1.00 20.00    -0.045 Cl
ENDBRANCH   1   3
BRANCH   1   7
HETATM    7  C3  UNL     1     -32.401   7.373   1.794  1.00 20.00     0.357 C 
HETATM    8  F7  UNL     1     -33.462   6.650   1.345  1.00 20.00    -0.184 F 
HETATM    9  F8  UNL     1     -31.288   6.679   1.448  1.00 20.00    -0.184 F 
HETATM   10 CL10 UNL     1     -32.401   8.944   0.976  1.00 20.00    -0.045 Cl
ENDBRANCH   1   7
TORSDOF 2
ENDMDL
MODEL 9
REMARK VINA RESULT:      -2.4      1.123      1.311
REMARK  2 active torsions:
REMARK  status: ('A' for Active; 'I' for Inactive)
REMARK    1  A    between atoms: C1_1  and  C2_2 
REMARK    2  A    between atoms: C1_1  and  C3_3 
ROOT
HETATM    1  C1  UNL     1     -33.458   7.010   2.312  1.00 20.00     0.346 C 
HETATM    2  F4  UNL     1     -33.085   5.694   2.323  1.00 20.00    -0.234 F 
ENDROOT
BRANCH   1   3
HETATM    3  C2  UNL     1     -34.096   7.326   3.657  1.00 20.00     0.357 C 
HETATM    4  F5  UNL     1     -34.660   8.557   3.644  1.00 20.00    -0.184 F 
HETATM    5  F6  UNL     1     -33.149   7.335   4.629  1.00 20.00    -0.184 F 
HETATM    6 CL9  UNL     1     -35.341   6.131   4.073  1.00 20.00    -0.045 Cl
ENDBRANCH   1   3
BRANCH   1   7
HETATM    7  C3  UNL     1     -32.204   7.813   1.989  1.00 20.00     0.357 C 
HETATM    8  F7  UNL     1     -32.499   8.698   0.998  1.00 20.00    -0.184 F 
HETATM    9  F8  UNL     1     -31.244   6.991   1.496  1.00 20.00    -0.184 F 
HETATM   10 CL10 UNL     1     -31.564   8.711   3.375  1.00 20.00    -0.045 Cl
ENDBRANCH   1   7
TORSDOF 2
ENDMDL
