MODEL 1
REMARK VINA RESULT:      -1.6      0.000      0.000
REMARK  2 active torsions:
REMARK  status: ('A' for Active; 'I' for Inactive)
REMARK    1  A    between atoms: C7_7  and  C9_9 
REMARK    2  A    between atoms: C8_8  and  C10_10 
ROOT
HETATM    1  C1  UNL     1     -33.118   2.783   5.114  1.00 20.00     0.012 C 
HETATM    2  C2  UNL     1     -33.602   3.606   4.387  1.00 20.00    -0.112 C 
HETATM    3  C6  UNL     1     -34.181   4.590   3.517  1.00 20.00     0.074 A 
HETATM    4  C9  UNL     1     -33.435   5.892   3.322  1.00 20.00     0.015 A 
HETATM    5  C10 UNL     1     -34.718   5.861   4.140  1.00 20.00     0.015 A 
ENDROOT
BRANCH   4   6
HETATM    6  C7  UNL     1     -33.731   6.937   2.235  1.00 20.00     0.014 C 
HETATM    7  C3  UNL     1     -32.650   7.997   2.140  1.00 20.00    -0.025 C 
HETATM    8  C4  UNL     1     -31.538   7.387   1.694  1.00 20.00    -0.025 C 
HETATM    9  C8  UNL     1     -31.883   5.924   1.492  1.00 20.00     0.014 C 
HETATM   10  C5  UNL     1     -33.324   6.135   0.980  1.00 20.00     0.018 C 
ENDBRANCH   4   6
TORSDOF 2
ENDMDL
MODEL 2
REMARK VINA RESULT:      -0.7      1.792      3.040
REMARK  2 active torsions:
REMARK  status: ('A' for Active; 'I' for Inactive)
REMARK    1  A    between atoms: C7_7  and  C9_9 
REMARK    2  A    between atoms: C8_8  and  C10_10 
ROOT
HETATM    1  C1  UNL     1     -35.522   6.139   4.062  1.00 20.00     0.012 C 
HETATM    2  C2  UNL     1     -34.437   6.235   3.558  1.00 20.00    -0.112 C 
HETATM    3  C6  UNL     1     -33.139   6.350   2.955  1.00 20.00     0.074 A 
HETATM    4  C9  UNL     1     -32.994   7.251   1.748  1.00 20.00     0.015 A 
HETATM    5  C10 UNL     1     -32.936   5.739   1.585  1.00 20.00     0.015 A 
ENDROOT
BRANCH   4   6
HETATM    6  C7  UNL     1     -31.665   7.726   1.143  1.00 20.00     0.014 C 
HETATM    7  C3  UNL     1     -31.864   8.607  -0.075  1.00 20.00    -0.025 C 
HETATM    8  C4  UNL     1     -32.438   9.745   0.351  1.00 20.00    -0.025 C 
HETATM    9  C8  UNL     1     -32.619   9.618   1.851  1.00 20.00     0.014 C 
HETATM   10  C5  UNL     1     -31.309   8.852   2.138  1.00 20.00     0.018 C 
ENDBRANCH   4   6
TORSDOF 2
ENDMDL
MODEL 3
REMARK VINA RESULT:       0.1      1.906      4.697
REMARK  2 active torsions:
REMARK  status: ('A' for Active; 'I' for Inactive)
REMARK    1  A    between atoms: C7_7  and  C9_9 
REMARK    2  A    between atoms: C8_8  and  C10_10 
ROOT
HETATM    1  C1  UNL     1     -32.521   9.973  -0.364  1.00 20.00     0.012 C 
HETATM    2  C2  UNL     1     -32.294   9.176   0.505  1.00 20.00    -0.112 C 
HETATM    3  C6  UNL     1     -32.023   8.223   1.543  1.00 20.00     0.074 A 
HETATM    4  C9  UNL     1     -33.015   8.109   2.680  1.00 20.00     0.015 A 
HETATM    5  C10 UNL     1     -31.654   8.750   2.913  1.00 20.00     0.015 A 
ENDROOT
BRANCH   4   6
HETATM    6  C7  UNL     1     -33.058   6.978   3.718  1.00 20.00     0.014 C 
HETATM    7  C3  UNL     1     -34.319   7.012   4.560  1.00 20.00    -0.025 C 
HETATM    8  C4  UNL     1     -35.347   6.726   3.742  1.00 20.00    -0.025 C 
HETATM    9  C8  UNL     1     -34.767   6.502   2.359  1.00 20.00     0.014 C 
HETATM   10  C5  UNL     1     -33.467   5.799   2.808  1.00 20.00     0.018 C 
ENDBRANCH   4   6
TORSDOF 2
ENDMDL
MODEL 4
REMARK VINA RESULT:       1.0      1.742      4.785
REMARK  2 active torsions:
REMARK  status: ('A' for Active; 'I' for Inactive)
REMARK    1  A    between atoms: C7_7  and  C9_9 
REMARK    2  A    between atoms: C8_8  and  C10_10 
ROOT
HETATM    1  C1  UNL     1     -32.824  10.526  -0.440  1.00 20.00     0.012 C 
HETATM    2  C2  UNL     1     -32.279   9.685   0.222  1.00 20.00    -0.112 C 
HETATM    3  C6  UNL     1     -31.627   8.680   1.013  1.00 20.00     0.074 A 
HETATM    4  C9  UNL     1     -32.465   7.535   1.538  1.00 20.00     0.015 A 
HETATM    5  C10 UNL     1     -31.959   8.611   2.488  1.00 20.00     0.015 A 
ENDROOT
BRANCH   4   6
HETATM    6  C7  UNL     1     -31.921   6.235   2.148  1.00 20.00     0.014 C 
HETATM    7  C3  UNL     1     -32.963   5.497   2.966  1.00 20.00    -0.025 C 
HETATM    8  C4  UNL     1     -33.906   5.069   2.109  1.00 20.00    -0.025 C 
HETATM    9  C8  UNL     1     -33.488   5.523   0.724  1.00 20.00     0.014 C 
HETATM   10  C5  UNL     1     -31.968   5.319   0.905  1.00 20.00     0.018 C 
ENDBRANCH   4   6
TORSDOF 2
ENDMDL
