MODEL 1
REMARK VINA RESULT:      -1.0      0.000      0.000
REMARK  0 active torsions:
REMARK  status: ('A' for Active; 'I' for Inactive)
ROOT
HETATM    1  C1  UNL     1     -33.477   7.541   4.299  1.00 20.00     0.177 A 
HETATM    2  C2  UNL     1     -33.575   7.622   2.818  1.00 20.00     0.218 A 
HETATM    3  O3  UNL     1     -33.555   5.022   3.644  1.00 20.00    -0.226 OA
HETATM    4  O4  UNL     1     -35.762   6.374   3.834  1.00 20.00    -0.226 OA
HETATM    5  S5  UNL     1     -34.393   6.176   3.429  1.00 20.00     0.165 S 
HETATM    6 CL6  UNL     1     -32.140   7.416   1.848  1.00 20.00    -0.107 Cl
ENDROOT
TORSDOF 0
ENDMDL
MODEL 2
REMARK VINA RESULT:      -1.0      2.741      2.824
REMARK  0 active torsions:
REMARK  status: ('A' for Active; 'I' for Inactive)
ROOT
HETATM    1  C1  UNL     1     -35.534   6.074   3.647  1.00 20.00     0.177 A 
HETATM    2  C2  UNL     1     -34.505   5.395   4.476  1.00 20.00     0.218 A 
HETATM    3  O3  UNL     1     -33.374   6.526   2.265  1.00 20.00    -0.226 OA
HETATM    4  O4  UNL     1     -33.954   8.047   4.285  1.00 20.00    -0.226 OA
HETATM    5  S5  UNL     1     -33.813   6.779   3.615  1.00 20.00     0.165 S 
HETATM    6 CL6  UNL     1     -33.966   3.794   4.039  1.00 20.00    -0.107 Cl
ENDROOT
TORSDOF 0
ENDMDL
MODEL 3
REMARK VINA RESULT:      -1.0      3.323      3.564
REMARK  0 active torsions:
REMARK  status: ('A' for Active; 'I' for Inactive)
ROOT
HETATM    1  C1  UNL     1     -31.989   6.285   1.613  1.00 20.00     0.177 A 
HETATM    2  C2  UNL     1     -33.372   6.731   1.926  1.00 20.00     0.218 A 
HETATM    3  O3  UNL     1     -31.538   8.364   3.115  1.00 20.00    -0.226 OA
HETATM    4  O4  UNL     1     -32.038   8.681   0.588  1.00 20.00    -0.226 OA
HETATM    5  S5  UNL     1     -32.256   8.104   1.891  1.00 20.00     0.165 S 
HETATM    6 CL6  UNL     1     -34.096   6.288   3.451  1.00 20.00    -0.107 Cl
ENDROOT
TORSDOF 0
ENDMDL
MODEL 4
REMARK VINA RESULT:      -0.5      1.537      2.216
REMARK  0 active torsions:
REMARK  status: ('A' for Active; 'I' for Inactive)
ROOT
HETATM    1  C1  UNL     1     -33.567   5.739   1.355  1.00 20.00     0.177 A 
HETATM    2  C2  UNL     1     -32.396   6.333   2.052  1.00 20.00     0.218 A 
HETATM    3  O3  UNL     1     -34.701   6.857   3.415  1.00 20.00    -0.226 OA
HETATM    4  O4  UNL     1     -33.616   4.511   3.654  1.00 20.00    -0.226 OA
HETATM    5  S5  UNL     1     -33.659   5.881   3.207  1.00 20.00     0.165 S 
HETATM    6 CL6  UNL     1     -32.034   8.026   1.839  1.00 20.00    -0.107 Cl
ENDROOT
TORSDOF 0
ENDMDL
MODEL 5
REMARK VINA RESULT:      -0.5      2.475      2.533
REMARK  0 active torsions:
REMARK  status: ('A' for Active; 'I' for Inactive)
ROOT
HETATM    1  C1  UNL     1     -31.404   8.193   2.271  1.00 20.00     0.177 A 
HETATM    2  C2  UNL     1     -32.482   8.899   1.530  1.00 20.00     0.218 A 
HETATM    3  O3  UNL     1     -32.784   6.195   1.333  1.00 20.00    -0.226 OA
HETATM    4  O4  UNL     1     -33.547   7.379   3.512  1.00 20.00    -0.226 OA
HETATM    5  S5  UNL     1     -33.056   7.346   2.157  1.00 20.00     0.165 S 
HETATM    6 CL6  UNL     1     -32.351   9.098  -0.199  1.00 20.00    -0.107 Cl
ENDROOT
TORSDOF 0
ENDMDL
MODEL 6
REMARK VINA RESULT:      -0.3      3.245      3.453
REMARK  0 active torsions:
REMARK  status: ('A' for Active; 'I' for Inactive)
ROOT
HETATM    1  C1  UNL     1     -33.534   7.340   2.740  1.00 20.00     0.177 A 
HETATM    2  C2  UNL     1     -32.602   6.357   2.126  1.00 20.00     0.218 A 
HETATM    3  O3  UNL     1     -32.493   8.746   0.811  1.00 20.00    -0.226 OA
HETATM    4  O4  UNL     1     -31.221   8.501   3.059  1.00 20.00    -0.226 OA
HETATM    5  S5  UNL     1     -31.991   8.009   1.944  1.00 20.00     0.165 S 
HETATM    6 CL6  UNL     1     -33.088   5.491   0.691  1.00 20.00    -0.107 Cl
ENDROOT
TORSDOF 0
ENDMDL
MODEL 7
REMARK VINA RESULT:      -0.3      2.773      2.892
REMARK  0 active torsions:
REMARK  status: ('A' for Active; 'I' for Inactive)
ROOT
HETATM    1  C1  UNL     1     -33.119   5.269   3.245  1.00 20.00     0.177 A 
HETATM    2  C2  UNL     1     -34.163   6.314   3.085  1.00 20.00     0.218 A 
HETATM    3  O3  UNL     1     -31.818   7.106   1.939  1.00 20.00    -0.226 OA
HETATM    4  O4  UNL     1     -33.333   5.438   0.653  1.00 20.00    -0.226 OA
HETATM    5  S5  UNL     1     -33.024   6.344   1.731  1.00 20.00     0.165 S 
HETATM    6 CL6  UNL     1     -34.192   7.677   4.175  1.00 20.00    -0.107 Cl
ENDROOT
TORSDOF 0
ENDMDL
MODEL 8
REMARK VINA RESULT:      -0.3      2.579      3.102
REMARK  0 active torsions:
REMARK  status: ('A' for Active; 'I' for Inactive)
ROOT
HETATM    1  C1  UNL     1     -32.317   7.804   1.831  1.00 20.00     0.177 A 
HETATM    2  C2  UNL     1     -32.791   7.083   3.042  1.00 20.00     0.218 A 
HETATM    3  O3  UNL     1     -33.869   5.994   0.784  1.00 20.00    -0.226 OA
HETATM    4  O4  UNL     1     -31.426   5.389   1.416  1.00 20.00    -0.226 OA
HETATM    5  S5  UNL     1     -32.713   5.996   1.646  1.00 20.00     0.165 S 
HETATM    6 CL6  UNL     1     -34.357   7.461   3.711  1.00 20.00    -0.107 Cl
ENDROOT
TORSDOF 0
ENDMDL
MODEL 9
REMARK VINA RESULT:      -0.2      4.679      4.902
REMARK  0 active torsions:
REMARK  status: ('A' for Active; 'I' for Inactive)
ROOT
HETATM    1  C1  UNL     1     -31.078   8.958   0.379  1.00 20.00     0.177 A 
HETATM    2  C2  UNL     1     -32.255   8.339   1.043  1.00 20.00     0.218 A 
HETATM    3  O3  UNL     1     -32.431  11.062   1.103  1.00 20.00    -0.226 OA
HETATM    4  O4  UNL     1     -33.052   9.820  -1.089  1.00 20.00    -0.226 OA
HETATM    5  S5  UNL     1     -32.686   9.889   0.304  1.00 20.00     0.165 S 
HETATM    6 CL6  UNL     1     -32.295   8.212   2.783  1.00 20.00    -0.107 Cl
ENDROOT
TORSDOF 0
ENDMDL
