MODEL 1
REMARK VINA RESULT:      -1.0      0.000      0.000
REMARK  0 active torsions:
REMARK  status: ('A' for Active; 'I' for Inactive)
ROOT
HETATM    1  C1  UNL     1     -34.097   6.376   1.520  1.00 20.00     0.036 A 
HETATM    2  C2  UNL     1     -32.633   6.463   1.893  1.00 20.00    -0.025 A 
HETATM    3  C3  UNL     1     -33.703   6.245   2.973  1.00 20.00     0.041 A 
HETATM    4  C4  UNL     1     -31.952   7.808   1.791  1.00 20.00     0.016 C 
HETATM    5  C5  UNL     1     -31.737   5.320   1.476  1.00 20.00     0.016 C 
HETATM    6  C6  UNL     1     -34.083   7.344   3.924  1.00 20.00     0.033 C 
HETATM    7 CL7  UNL     1     -33.857   4.621   3.699  1.00 20.00    -0.119 Cl
ENDROOT
TORSDOF 0
ENDMDL
MODEL 2
REMARK VINA RESULT:      -0.6      1.753      3.181
REMARK  0 active torsions:
REMARK  status: ('A' for Active; 'I' for Inactive)
ROOT
HETATM    1  C1  UNL     1     -34.157   6.374   1.530  1.00 20.00     0.036 A 
HETATM    2  C2  UNL     1     -33.759   6.213   2.980  1.00 20.00    -0.025 A 
HETATM    3  C3  UNL     1     -32.690   6.404   1.894  1.00 20.00     0.041 A 
HETATM    4  C4  UNL     1     -33.928   4.853   3.616  1.00 20.00     0.016 C 
HETATM    5  C5  UNL     1     -34.087   7.345   3.925  1.00 20.00     0.016 C 
HETATM    6  C6  UNL     1     -31.816   5.263   1.454  1.00 20.00     0.033 C 
HETATM    7 CL7  UNL     1     -31.870   7.985   1.779  1.00 20.00    -0.119 Cl
ENDROOT
TORSDOF 0
ENDMDL
MODEL 3
REMARK VINA RESULT:      -0.2      1.601      2.903
REMARK  0 active torsions:
REMARK  status: ('A' for Active; 'I' for Inactive)
ROOT
HETATM    1  C1  UNL     1     -33.107   5.585   3.341  1.00 20.00     0.036 A 
HETATM    2  C2  UNL     1     -34.092   6.727   3.449  1.00 20.00    -0.025 A 
HETATM    3  C3  UNL     1     -33.239   6.550   2.185  1.00 20.00     0.041 A 
HETATM    4  C4  UNL     1     -33.772   7.855   4.402  1.00 20.00     0.016 C 
HETATM    5  C5  UNL     1     -35.564   6.387   3.421  1.00 20.00     0.016 C 
HETATM    6  C6  UNL     1     -32.093   7.474   1.884  1.00 20.00     0.033 C 
HETATM    7 CL7  UNL     1     -34.027   5.927   0.709  1.00 20.00    -0.119 Cl
ENDROOT
TORSDOF 0
ENDMDL
MODEL 4
REMARK VINA RESULT:      -0.2      1.737      2.474
REMARK  0 active torsions:
REMARK  status: ('A' for Active; 'I' for Inactive)
ROOT
HETATM    1  C1  UNL     1     -34.867   7.110   2.922  1.00 20.00     0.036 A 
HETATM    2  C2  UNL     1     -33.538   7.445   3.562  1.00 20.00    -0.025 A 
HETATM    3  C3  UNL     1     -33.859   6.005   3.137  1.00 20.00     0.041 A 
HETATM    4  C4  UNL     1     -33.524   7.795   5.032  1.00 20.00     0.016 C 
HETATM    5  C5  UNL     1     -32.562   8.271   2.756  1.00 20.00     0.016 C 
HETATM    6  C6  UNL     1     -34.161   4.943   4.156  1.00 20.00     0.033 C 
HETATM    7 CL7  UNL     1     -33.064   5.353   1.678  1.00 20.00    -0.119 Cl
ENDROOT
TORSDOF 0
ENDMDL
MODEL 5
REMARK VINA RESULT:      -0.1      1.875      3.212
REMARK  0 active torsions:
REMARK  status: ('A' for Active; 'I' for Inactive)
ROOT
HETATM    1  C1  UNL     1     -31.243   8.327   2.216  1.00 20.00     0.036 A 
HETATM    2  C2  UNL     1     -32.217   8.821   1.170  1.00 20.00    -0.025 A 
HETATM    3  C3  UNL     1     -32.532   7.567   1.998  1.00 20.00     0.041 A 
HETATM    4  C4  UNL     1     -31.837   8.667  -0.285  1.00 20.00     0.016 C 
HETATM    5  C5  UNL     1     -32.947  10.114   1.449  1.00 20.00     0.016 C 
HETATM    6  C6  UNL     1     -32.464   6.195   1.389  1.00 20.00     0.033 C 
HETATM    7 CL7  UNL     1     -33.759   7.688   3.288  1.00 20.00    -0.119 Cl
ENDROOT
TORSDOF 0
ENDMDL
MODEL 6
REMARK VINA RESULT:      -0.0      1.628      2.205
REMARK  0 active torsions:
REMARK  status: ('A' for Active; 'I' for Inactive)
ROOT
HETATM    1  C1  UNL     1     -33.055   5.526   3.348  1.00 20.00     0.036 A 
HETATM    2  C2  UNL     1     -33.215   6.488   2.193  1.00 20.00    -0.025 A 
HETATM    3  C3  UNL     1     -34.043   6.662   3.475  1.00 20.00     0.041 A 
HETATM    4  C4  UNL     1     -33.894   5.988   0.939  1.00 20.00     0.016 C 
HETATM    5  C5  UNL     1     -32.068   7.428   1.901  1.00 20.00     0.016 C 
HETATM    6  C6  UNL     1     -35.511   6.341   3.502  1.00 20.00     0.033 C 
HETATM    7 CL7  UNL     1     -33.605   7.981   4.595  1.00 20.00    -0.119 Cl
ENDROOT
TORSDOF 0
ENDMDL
MODEL 7
REMARK VINA RESULT:      -0.0      1.716      2.534
REMARK  0 active torsions:
REMARK  status: ('A' for Active; 'I' for Inactive)
ROOT
HETATM    1  C1  UNL     1     -34.685   7.248   2.776  1.00 20.00     0.036 A 
HETATM    2  C2  UNL     1     -33.741   6.082   2.971  1.00 20.00    -0.025 A 
HETATM    3  C3  UNL     1     -33.327   7.501   3.390  1.00 20.00     0.041 A 
HETATM    4  C4  UNL     1     -33.112   5.464   1.744  1.00 20.00     0.016 C 
HETATM    5  C5  UNL     1     -34.101   5.059   4.023  1.00 20.00     0.016 C 
HETATM    6  C6  UNL     1     -32.314   8.281   2.601  1.00 20.00     0.033 C 
HETATM    7 CL7  UNL     1     -33.298   7.897   5.131  1.00 20.00    -0.119 Cl
ENDROOT
TORSDOF 0
ENDMDL
MODEL 8
REMARK VINA RESULT:       0.2      1.492      2.253
REMARK  0 active torsions:
REMARK  status: ('A' for Active; 'I' for Inactive)
ROOT
HETATM    1  C1  UNL     1     -33.985   6.544   1.509  1.00 20.00     0.036 A 
HETATM    2  C2  UNL     1     -33.070   7.194   2.522  1.00 20.00    -0.025 A 
HETATM    3  C3  UNL     1     -33.017   5.678   2.283  1.00 20.00     0.041 A 
HETATM    4  C4  UNL     1     -33.683   7.717   3.801  1.00 20.00     0.016 C 
HETATM    5  C5  UNL     1     -31.964   8.081   1.999  1.00 20.00     0.016 C 
HETATM    6  C6  UNL     1     -33.566   4.711   3.293  1.00 20.00     0.033 C 
HETATM    7 CL7  UNL     1     -31.635   5.011   1.370  1.00 20.00    -0.119 Cl
ENDROOT
TORSDOF 0
ENDMDL
MODEL 9
REMARK VINA RESULT:       0.2      2.687      3.524
REMARK  0 active torsions:
REMARK  status: ('A' for Active; 'I' for Inactive)
ROOT
HETATM    1  C1  UNL     1     -31.260   8.384   2.399  1.00 20.00     0.036 A 
HETATM    2  C2  UNL     1     -32.407   7.509   1.945  1.00 20.00    -0.025 A 
HETATM    3  C3  UNL     1     -32.013   8.758   1.143  1.00 20.00     0.041 A 
HETATM    4  C4  UNL     1     -33.680   7.528   2.759  1.00 20.00     0.016 C 
HETATM    5  C5  UNL     1     -32.071   6.135   1.416  1.00 20.00     0.016 C 
HETATM    6  C6  UNL     1     -32.868   9.994   1.157  1.00 20.00     0.033 C 
HETATM    7 CL7  UNL     1     -31.148   8.537  -0.403  1.00 20.00    -0.119 Cl
ENDROOT
TORSDOF 0
ENDMDL
