MODEL 1
REMARK VINA RESULT:      -0.4      0.000      0.000
REMARK  2 active torsions:
REMARK  status: ('A' for Active; 'I' for Inactive)
REMARK    1  A    between atoms: C1_1  and  C2_2 
REMARK    2  A    between atoms: C1_1  and  C3_3 
ROOT
HETATM    1  C2  UNL     1     -33.295   7.500   1.654  1.00 20.00     0.043 A 
HETATM    2  C4  UNL     1     -32.306   6.662   1.014  1.00 20.00     0.013 A 
HETATM    3  C5  UNL     1     -31.990   8.102   1.402  1.00 20.00    -0.023 A 
HETATM    4  C8  UNL     1     -31.664   5.488   1.673  1.00 20.00     0.012 C 
HETATM    5  C9  UNL     1     -31.036   8.392   2.535  1.00 20.00     0.017 C 
HETATM    6  C10 UNL     1     -31.917   9.116   0.285  1.00 20.00     0.017 C 
ENDROOT
BRANCH   1   7
HETATM    7  C1  UNL     1     -33.804   7.288   2.826  1.00 20.00    -0.159 C 
BRANCH   7   8
HETATM    8  C3  UNL     1     -34.317   7.075   4.007  1.00 20.00     0.022 C 
HETATM    9  C6  UNL     1     -33.936   7.894   5.207  1.00 20.00     0.029 C 
HETATM   10  C7  UNL     1     -35.333   5.997   4.258  1.00 20.00     0.029 C 
ENDBRANCH   7   8
ENDBRANCH   1   7
TORSDOF 2
ENDMDL
MODEL 2
REMARK VINA RESULT:      -0.1      1.101      1.316
REMARK  2 active torsions:
REMARK  status: ('A' for Active; 'I' for Inactive)
REMARK    1  A    between atoms: C1_1  and  C2_2 
REMARK    2  A    between atoms: C1_1  and  C3_3 
ROOT
HETATM    1  C2  UNL     1     -33.292   6.746   1.600  1.00 20.00     0.043 A 
HETATM    2  C4  UNL     1     -32.037   6.363   0.991  1.00 20.00     0.013 A 
HETATM    3  C5  UNL     1     -32.202   7.713   1.681  1.00 20.00    -0.023 A 
HETATM    4  C8  UNL     1     -31.153   5.286   1.521  1.00 20.00     0.012 C 
HETATM    5  C9  UNL     1     -31.502   7.987   2.990  1.00 20.00     0.017 C 
HETATM    6  C10 UNL     1     -32.312   8.930   0.795  1.00 20.00     0.017 C 
ENDROOT
BRANCH   1   7
HETATM    7  C1  UNL     1     -33.838   6.152   2.613  1.00 20.00    -0.159 C 
BRANCH   7   8
HETATM    8  C3  UNL     1     -34.389   5.554   3.634  1.00 20.00     0.022 C 
HETATM    9  C6  UNL     1     -35.497   6.183   4.431  1.00 20.00     0.029 C 
HETATM   10  C7  UNL     1     -33.961   4.189   4.091  1.00 20.00     0.029 C 
ENDBRANCH   7   8
ENDBRANCH   1   7
TORSDOF 2
ENDMDL
MODEL 3
REMARK VINA RESULT:       0.1      1.039      2.690
REMARK  2 active torsions:
REMARK  status: ('A' for Active; 'I' for Inactive)
REMARK    1  A    between atoms: C1_1  and  C2_2 
REMARK    2  A    between atoms: C1_1  and  C3_3 
ROOT
HETATM    1  C2  UNL     1     -32.336   6.259   2.325  1.00 20.00     0.043 A 
HETATM    2  C4  UNL     1     -31.754   7.095   1.299  1.00 20.00     0.013 A 
HETATM    3  C5  UNL     1     -32.527   5.829   0.944  1.00 20.00    -0.023 A 
HETATM    4  C8  UNL     1     -32.246   8.462   0.967  1.00 20.00     0.012 C 
HETATM    5  C9  UNL     1     -33.880   5.926   0.281  1.00 20.00     0.017 C 
HETATM    6  C10 UNL     1     -31.723   4.635   0.490  1.00 20.00     0.017 C 
ENDROOT
BRANCH   1   7
HETATM    7  C1  UNL     1     -33.283   6.621   3.131  1.00 20.00    -0.159 C 
BRANCH   7   8
HETATM    8  C3  UNL     1     -34.238   6.986   3.943  1.00 20.00     0.022 C 
HETATM    9  C6  UNL     1     -35.567   6.287   3.987  1.00 20.00     0.029 C 
HETATM   10  C7  UNL     1     -34.081   8.132   4.902  1.00 20.00     0.029 C 
ENDBRANCH   7   8
ENDBRANCH   1   7
TORSDOF 2
ENDMDL
MODEL 4
REMARK VINA RESULT:       0.5      1.126      4.211
REMARK  2 active torsions:
REMARK  status: ('A' for Active; 'I' for Inactive)
REMARK    1  A    between atoms: C1_1  and  C2_2 
REMARK    2  A    between atoms: C1_1  and  C3_3 
ROOT
HETATM    1  C2  UNL     1     -34.237   7.815   3.067  1.00 20.00     0.043 A 
HETATM    2  C4  UNL     1     -34.118   7.801   4.508  1.00 20.00     0.013 A 
HETATM    3  C5  UNL     1     -34.420   6.526   3.728  1.00 20.00    -0.023 A 
HETATM    4  C8  UNL     1     -32.836   8.019   5.235  1.00 20.00     0.012 C 
HETATM    5  C9  UNL     1     -33.377   5.441   3.614  1.00 20.00     0.017 C 
HETATM    6  C10 UNL     1     -35.832   5.995   3.795  1.00 20.00     0.017 C 
ENDROOT
BRANCH   1   7
HETATM    7  C1  UNL     1     -33.279   8.101   2.244  1.00 20.00    -0.159 C 
BRANCH   7   8
HETATM    8  C3  UNL     1     -32.314   8.391   1.415  1.00 20.00     0.022 C 
HETATM    9  C6  UNL     1     -32.374   9.577   0.495  1.00 20.00     0.029 C 
HETATM   10  C7  UNL     1     -31.064   7.563   1.318  1.00 20.00     0.029 C 
ENDBRANCH   7   8
ENDBRANCH   1   7
TORSDOF 2
ENDMDL
MODEL 5
REMARK VINA RESULT:       0.5      1.132      4.237
REMARK  2 active torsions:
REMARK  status: ('A' for Active; 'I' for Inactive)
REMARK    1  A    between atoms: C1_1  and  C2_2 
REMARK    2  A    between atoms: C1_1  and  C3_3 
ROOT
HETATM    1  C2  UNL     1     -34.237   7.820   3.063  1.00 20.00     0.043 A 
HETATM    2  C4  UNL     1     -34.121   7.801   4.504  1.00 20.00     0.013 A 
HETATM    3  C5  UNL     1     -34.422   6.529   3.718  1.00 20.00    -0.023 A 
HETATM    4  C8  UNL     1     -32.840   8.016   5.235  1.00 20.00     0.012 C 
HETATM    5  C9  UNL     1     -33.380   5.443   3.603  1.00 20.00     0.017 C 
HETATM    6  C10 UNL     1     -35.835   5.999   3.780  1.00 20.00     0.017 C 
ENDROOT
BRANCH   1   7
HETATM    7  C1  UNL     1     -33.277   8.109   2.243  1.00 20.00    -0.159 C 
BRANCH   7   8
HETATM    8  C3  UNL     1     -32.309   8.400   1.417  1.00 20.00     0.022 C 
HETATM    9  C6  UNL     1     -31.051   7.583   1.335  1.00 20.00     0.029 C 
HETATM   10  C7  UNL     1     -32.378   9.573   0.481  1.00 20.00     0.029 C 
ENDBRANCH   7   8
ENDBRANCH   1   7
TORSDOF 2
ENDMDL
MODEL 6
REMARK VINA RESULT:       0.7      1.278      4.085
REMARK  2 active torsions:
REMARK  status: ('A' for Active; 'I' for Inactive)
REMARK    1  A    between atoms: C1_1  and  C2_2 
REMARK    2  A    between atoms: C1_1  and  C3_3 
ROOT
HETATM    1  C2  UNL     1     -32.227   8.003   2.561  1.00 20.00     0.043 A 
HETATM    2  C4  UNL     1     -32.469   6.578   2.587  1.00 20.00     0.013 A 
HETATM    3  C5  UNL     1     -33.335   7.542   3.392  1.00 20.00    -0.023 A 
HETATM    4  C8  UNL     1     -32.988   5.805   1.423  1.00 20.00     0.012 C 
HETATM    5  C9  UNL     1     -34.767   7.796   2.987  1.00 20.00     0.017 C 
HETATM    6  C10 UNL     1     -33.120   7.577   4.886  1.00 20.00     0.017 C 
ENDROOT
BRANCH   1   7
HETATM    7  C1  UNL     1     -32.344   8.759   1.516  1.00 20.00    -0.159 C 
BRANCH   7   8
HETATM    8  C3  UNL     1     -32.461   9.521   0.463  1.00 20.00     0.022 C 
HETATM    9  C6  UNL     1     -32.302   8.990  -0.934  1.00 20.00     0.029 C 
HETATM   10  C7  UNL     1     -32.768  10.988   0.563  1.00 20.00     0.029 C 
ENDBRANCH   7   8
ENDBRANCH   1   7
TORSDOF 2
ENDMDL
MODEL 7
REMARK VINA RESULT:       0.8      0.986      1.592
REMARK  2 active torsions:
REMARK  status: ('A' for Active; 'I' for Inactive)
REMARK    1  A    between atoms: C1_1  and  C2_2 
REMARK    2  A    between atoms: C1_1  and  C3_3 
ROOT
HETATM    1  C2  UNL     1     -32.713   7.633   1.561  1.00 20.00     0.043 A 
HETATM    2  C4  UNL     1     -31.333   8.064   1.520  1.00 20.00     0.013 A 
HETATM    3  C5  UNL     1     -32.446   8.919   0.925  1.00 20.00    -0.023 A 
HETATM    4  C8  UNL     1     -30.557   8.471   2.725  1.00 20.00     0.012 C 
HETATM    5  C9  UNL     1     -32.849  10.212   1.591  1.00 20.00     0.017 C 
HETATM    6  C10 UNL     1     -32.551   8.963  -0.581  1.00 20.00     0.017 C 
ENDROOT
BRANCH   1   7
HETATM    7  C1  UNL     1     -33.408   7.465   2.641  1.00 20.00    -0.159 C 
BRANCH   7   8
HETATM    8  C3  UNL     1     -34.108   7.296   3.729  1.00 20.00     0.022 C 
HETATM    9  C6  UNL     1     -33.829   8.062   4.991  1.00 20.00     0.029 C 
HETATM   10  C7  UNL     1     -35.252   6.325   3.804  1.00 20.00     0.029 C 
ENDBRANCH   7   8
ENDBRANCH   1   7
TORSDOF 2
ENDMDL
MODEL 8
REMARK VINA RESULT:       0.8      0.986      1.952
REMARK  2 active torsions:
REMARK  status: ('A' for Active; 'I' for Inactive)
REMARK    1  A    between atoms: C1_1  and  C2_2 
REMARK    2  A    between atoms: C1_1  and  C3_3 
ROOT
HETATM    1  C2  UNL     1     -32.714   7.631   1.564  1.00 20.00     0.043 A 
HETATM    2  C4  UNL     1     -31.334   8.061   1.522  1.00 20.00     0.013 A 
HETATM    3  C5  UNL     1     -32.446   8.916   0.927  1.00 20.00    -0.023 A 
HETATM    4  C8  UNL     1     -30.557   8.469   2.727  1.00 20.00     0.012 C 
HETATM    5  C9  UNL     1     -32.847  10.211   1.591  1.00 20.00     0.017 C 
HETATM    6  C10 UNL     1     -32.552   8.959  -0.579  1.00 20.00     0.017 C 
ENDROOT
BRANCH   1   7
HETATM    7  C1  UNL     1     -33.409   7.465   2.644  1.00 20.00    -0.159 C 
BRANCH   7   8
HETATM    8  C3  UNL     1     -34.110   7.297   3.732  1.00 20.00     0.022 C 
HETATM    9  C6  UNL     1     -35.253   6.326   3.809  1.00 20.00     0.029 C 
HETATM   10  C7  UNL     1     -33.825   8.059   4.995  1.00 20.00     0.029 C 
ENDBRANCH   7   8
ENDBRANCH   1   7
TORSDOF 2
ENDMDL
MODEL 9
REMARK VINA RESULT:       1.2      1.594      2.351
REMARK  2 active torsions:
REMARK  status: ('A' for Active; 'I' for Inactive)
REMARK    1  A    between atoms: C1_1  and  C2_2 
REMARK    2  A    between atoms: C1_1  and  C3_3 
ROOT
HETATM    1  C2  UNL     1     -33.504   6.543   2.265  1.00 20.00     0.043 A 
HETATM    2  C4  UNL     1     -33.545   6.375   0.829  1.00 20.00     0.013 A 
HETATM    3  C5  UNL     1     -32.220   6.511   1.572  1.00 20.00    -0.023 A 
HETATM    4  C8  UNL     1     -33.968   5.115   0.154  1.00 20.00     0.012 C 
HETATM    5  C9  UNL     1     -31.297   5.324   1.702  1.00 20.00     0.017 C 
HETATM    6  C10 UNL     1     -31.489   7.826   1.442  1.00 20.00     0.017 C 
ENDROOT
BRANCH   1   7
HETATM    7  C1  UNL     1     -33.907   5.666   3.128  1.00 20.00    -0.159 C 
BRANCH   7   8
HETATM    8  C3  UNL     1     -34.314   4.782   3.998  1.00 20.00     0.022 C 
HETATM    9  C6  UNL     1     -35.549   4.982   4.830  1.00 20.00     0.029 C 
HETATM   10  C7  UNL     1     -33.582   3.491   4.233  1.00 20.00     0.029 C 
ENDBRANCH   7   8
ENDBRANCH   1   7
TORSDOF 2
ENDMDL
