MODEL 1
REMARK VINA RESULT:      -2.2      0.000      0.000
REMARK  2 active torsions:
REMARK  status: ('A' for Active; 'I' for Inactive)
REMARK    1  A    between atoms: C2_2  and  C5_5 
REMARK    2  A    between atoms: C5_5  and  C6_6 
ROOT
HETATM    1  C5  UNL     1     -33.015   8.137   2.981  1.00 20.00     0.042 C 
ENDROOT
BRANCH   1   2
HETATM    2  C2  UNL     1     -33.671   6.828   3.327  1.00 20.00    -0.030 C 
HETATM    3  C1  UNL     1     -34.810   6.725   4.025  1.00 20.00    -0.035 C 
HETATM    4  C3  UNL     1     -35.458   5.425   4.371  1.00 20.00     0.036 C 
ENDBRANCH   1   2
BRANCH   1   5
HETATM    5  C6  UNL     1     -31.976   8.005   1.864  1.00 20.00     0.057 C 
HETATM    6  C4  UNL     1     -32.039   6.639   1.194  1.00 20.00     0.022 C 
HETATM    7 BR7  UNL     1     -32.299   9.369   0.488  1.00 20.00    -0.091 Br
ENDBRANCH   1   5
TORSDOF 2
ENDMDL
MODEL 2
REMARK VINA RESULT:      -2.1      2.589      4.198
REMARK  2 active torsions:
REMARK  status: ('A' for Active; 'I' for Inactive)
REMARK    1  A    between atoms: C2_2  and  C5_5 
REMARK    2  A    between atoms: C5_5  and  C6_6 
ROOT
HETATM    1  C5  UNL     1     -31.986   7.763   2.174  1.00 20.00     0.042 C 
ENDROOT
BRANCH   1   2
HETATM    2  C2  UNL     1     -31.777   8.721   1.033  1.00 20.00    -0.030 C 
HETATM    3  C1  UNL     1     -32.673   9.646   0.660  1.00 20.00    -0.035 C 
HETATM    4  C3  UNL     1     -32.467  10.593  -0.475  1.00 20.00     0.036 C 
ENDBRANCH   1   2
BRANCH   1   5
HETATM    5  C6  UNL     1     -33.151   6.799   1.936  1.00 20.00     0.057 C 
HETATM    6  C4  UNL     1     -32.662   5.406   1.564  1.00 20.00     0.022 C 
HETATM    7 BR7  UNL     1     -34.234   6.645   3.567  1.00 20.00    -0.091 Br
ENDBRANCH   1   5
TORSDOF 2
ENDMDL
MODEL 3
REMARK VINA RESULT:      -2.1      2.232      3.204
REMARK  2 active torsions:
REMARK  status: ('A' for Active; 'I' for Inactive)
REMARK    1  A    between atoms: C2_2  and  C5_5 
REMARK    2  A    between atoms: C5_5  and  C6_6 
ROOT
HETATM    1  C5  UNL     1     -34.997   6.030   4.052  1.00 20.00     0.042 C 
ENDROOT
BRANCH   1   2
HETATM    2  C2  UNL     1     -34.261   4.744   3.797  1.00 20.00    -0.030 C 
HETATM    3  C1  UNL     1     -33.902   3.884   4.761  1.00 20.00    -0.035 C 
HETATM    4  C3  UNL     1     -33.167   2.610   4.507  1.00 20.00     0.036 C 
ENDBRANCH   1   2
BRANCH   1   5
HETATM    5  C6  UNL     1     -34.242   7.260   3.539  1.00 20.00     0.057 C 
HETATM    6  C4  UNL     1     -33.506   7.977   4.661  1.00 20.00     0.022 C 
HETATM    7 BR7  UNL     1     -32.917   6.716   2.195  1.00 20.00    -0.091 Br
ENDBRANCH   1   5
TORSDOF 2
ENDMDL
MODEL 4
REMARK VINA RESULT:      -1.8      2.093      4.075
REMARK  2 active torsions:
REMARK  status: ('A' for Active; 'I' for Inactive)
REMARK    1  A    between atoms: C2_2  and  C5_5 
REMARK    2  A    between atoms: C5_5  and  C6_6 
ROOT
HETATM    1  C5  UNL     1     -32.387   8.128   2.845  1.00 20.00     0.042 C 
ENDROOT
BRANCH   1   2
HETATM    2  C2  UNL     1     -32.228   8.460   1.387  1.00 20.00    -0.030 C 
HETATM    3  C1  UNL     1     -32.649   9.606   0.831  1.00 20.00    -0.035 C 
HETATM    4  C3  UNL     1     -32.494   9.933  -0.617  1.00 20.00     0.036 C 
ENDBRANCH   1   2
BRANCH   1   5
HETATM    5  C6  UNL     1     -33.015   6.751   3.076  1.00 20.00     0.057 C 
HETATM    6  C4  UNL     1     -34.462   6.862   3.536  1.00 20.00     0.022 C 
HETATM    7 BR7  UNL     1     -32.990   5.717   1.406  1.00 20.00    -0.091 Br
ENDBRANCH   1   5
TORSDOF 2
ENDMDL
MODEL 5
REMARK VINA RESULT:      -1.7      2.322      4.130
REMARK  2 active torsions:
REMARK  status: ('A' for Active; 'I' for Inactive)
REMARK    1  A    between atoms: C2_2  and  C5_5 
REMARK    2  A    between atoms: C5_5  and  C6_6 
ROOT
HETATM    1  C5  UNL     1     -32.754   5.589   2.345  1.00 20.00     0.042 C 
ENDROOT
BRANCH   1   2
HETATM    2  C2  UNL     1     -32.815   6.840   1.512  1.00 20.00    -0.030 C 
HETATM    3  C1  UNL     1     -31.974   7.874   1.654  1.00 20.00    -0.035 C 
HETATM    4  C3  UNL     1     -32.038   9.116   0.829  1.00 20.00     0.036 C 
ENDBRANCH   1   2
BRANCH   1   5
HETATM    5  C6  UNL     1     -34.063   5.305   3.088  1.00 20.00     0.057 C 
HETATM    6  C4  UNL     1     -33.911   4.160   4.080  1.00 20.00     0.022 C 
HETATM    7 BR7  UNL     1     -34.623   6.900   4.087  1.00 20.00    -0.091 Br
ENDBRANCH   1   5
TORSDOF 2
ENDMDL
MODEL 6
REMARK VINA RESULT:      -1.6      2.818      4.412
REMARK  2 active torsions:
REMARK  status: ('A' for Active; 'I' for Inactive)
REMARK    1  A    between atoms: C2_2  and  C5_5 
REMARK    2  A    between atoms: C5_5  and  C6_6 
ROOT
HETATM    1  C5  UNL     1     -33.147   5.589   2.155  1.00 20.00     0.042 C 
ENDROOT
BRANCH   1   2
HETATM    2  C2  UNL     1     -33.053   6.931   1.483  1.00 20.00    -0.030 C 
HETATM    3  C1  UNL     1     -32.042   7.791   1.671  1.00 20.00    -0.035 C 
HETATM    4  C3  UNL     1     -31.951   9.125   1.007  1.00 20.00     0.036 C 
ENDBRANCH   1   2
BRANCH   1   5
HETATM    5  C6  UNL     1     -33.636   5.681   3.603  1.00 20.00     0.057 C 
HETATM    6  C4  UNL     1     -34.971   6.405   3.702  1.00 20.00     0.022 C 
HETATM    7 BR7  UNL     1     -33.870   3.878   4.345  1.00 20.00    -0.091 Br
ENDBRANCH   1   5
TORSDOF 2
ENDMDL
MODEL 7
REMARK VINA RESULT:      -1.5      1.547      1.662
REMARK  2 active torsions:
REMARK  status: ('A' for Active; 'I' for Inactive)
REMARK    1  A    between atoms: C2_2  and  C5_5 
REMARK    2  A    between atoms: C5_5  and  C6_6 
ROOT
HETATM    1  C5  UNL     1     -32.613   8.085   3.172  1.00 20.00     0.042 C 
ENDROOT
BRANCH   1   2
HETATM    2  C2  UNL     1     -33.786   7.520   3.924  1.00 20.00    -0.030 C 
HETATM    3  C1  UNL     1     -34.404   6.377   3.595  1.00 20.00    -0.035 C 
HETATM    4  C3  UNL     1     -35.571   5.819   4.341  1.00 20.00     0.036 C 
ENDBRANCH   1   2
BRANCH   1   5
HETATM    5  C6  UNL     1     -32.658   7.769   1.674  1.00 20.00     0.057 C 
HETATM    6  C4  UNL     1     -31.762   8.702   0.874  1.00 20.00     0.022 C 
HETATM    7 BR7  UNL     1     -32.048   5.928   1.362  1.00 20.00    -0.091 Br
ENDBRANCH   1   5
TORSDOF 2
ENDMDL
MODEL 8
REMARK VINA RESULT:      -1.3      2.068      2.445
REMARK  2 active torsions:
REMARK  status: ('A' for Active; 'I' for Inactive)
REMARK    1  A    between atoms: C2_2  and  C5_5 
REMARK    2  A    between atoms: C5_5  and  C6_6 
ROOT
HETATM    1  C5  UNL     1     -34.040   6.171   3.092  1.00 20.00     0.042 C 
ENDROOT
BRANCH   1   2
HETATM    2  C2  UNL     1     -34.190   4.918   3.911  1.00 20.00    -0.030 C 
HETATM    3  C1  UNL     1     -33.258   3.957   3.984  1.00 20.00    -0.035 C 
HETATM    4  C3  UNL     1     -33.409   2.712   4.793  1.00 20.00     0.036 C 
ENDBRANCH   1   2
BRANCH   1   5
HETATM    5  C6  UNL     1     -32.821   6.133   2.165  1.00 20.00     0.057 C 
HETATM    6  C4  UNL     1     -33.162   5.529   0.811  1.00 20.00     0.022 C 
HETATM    7 BR7  UNL     1     -32.156   7.957   1.864  1.00 20.00    -0.091 Br
ENDBRANCH   1   5
TORSDOF 2
ENDMDL
MODEL 9
REMARK VINA RESULT:      -0.9      2.409      3.792
REMARK  2 active torsions:
REMARK  status: ('A' for Active; 'I' for Inactive)
REMARK    1  A    between atoms: C2_2  and  C5_5 
REMARK    2  A    between atoms: C5_5  and  C6_6 
ROOT
HETATM    1  C5  UNL     1     -33.071   7.835   2.496  1.00 20.00     0.042 C 
ENDROOT
BRANCH   1   2
HETATM    2  C2  UNL     1     -32.256   6.918   1.626  1.00 20.00    -0.030 C 
HETATM    3  C1  UNL     1     -32.544   5.624   1.427  1.00 20.00    -0.035 C 
HETATM    4  C3  UNL     1     -31.732   4.714   0.566  1.00 20.00     0.036 C 
ENDBRANCH   1   2
BRANCH   1   5
HETATM    5  C6  UNL     1     -33.399   7.223   3.861  1.00 20.00     0.057 C 
HETATM    6  C4  UNL     1     -33.381   8.268   4.966  1.00 20.00     0.022 C 
HETATM    7 BR7  UNL     1     -35.191   6.419   3.818  1.00 20.00    -0.091 Br
ENDBRANCH   1   5
TORSDOF 2
ENDMDL
