MODEL 1
REMARK VINA RESULT:      -1.6      0.000      0.000
REMARK  1 active torsions:
REMARK  status: ('A' for Active; 'I' for Inactive)
REMARK    1  A    between atoms: C4_4  and  C9_9 
ROOT
HETATM    1  C1  UNL     1     -32.040   8.206   1.344  1.00 20.00    -0.089 C 
HETATM    2  C2  UNL     1     -32.014   9.287   0.550  1.00 20.00     0.014 C 
HETATM    3  C5  UNL     1     -31.339   6.923   0.985  1.00 20.00     0.033 C 
HETATM    4  C6  UNL     1     -32.791   8.180   2.651  1.00 20.00     0.042 C 
HETATM    5  C7  UNL     1     -32.310   5.745   1.035  1.00 20.00     0.005 C 
HETATM    6  C8  UNL     1     -33.052   5.672   2.372  1.00 20.00     0.009 C 
HETATM    7  C9  UNL     1     -33.769   6.993   2.692  1.00 20.00     0.017 C 
ENDROOT
BRANCH   7   8
HETATM    8  C4  UNL     1     -34.453   6.908   4.022  1.00 20.00    -0.089 C 
HETATM    9  C3  UNL     1     -35.409   6.002   4.271  1.00 20.00     0.014 C 
HETATM   10  C10 UNL     1     -34.006   7.894   5.060  1.00 20.00     0.043 C 
ENDBRANCH   7   8
TORSDOF 1
ENDMDL
MODEL 2
REMARK VINA RESULT:      -1.2      0.975      1.362
REMARK  1 active torsions:
REMARK  status: ('A' for Active; 'I' for Inactive)
REMARK    1  A    between atoms: C4_4  and  C9_9 
ROOT
HETATM    1  C1  UNL     1     -32.286   8.089   1.700  1.00 20.00    -0.089 C 
HETATM    2  C2  UNL     1     -32.485   9.292   1.141  1.00 20.00     0.014 C 
HETATM    3  C5  UNL     1     -31.221   7.139   1.215  1.00 20.00     0.033 C 
HETATM    4  C6  UNL     1     -33.124   7.579   2.844  1.00 20.00     0.042 C 
HETATM    5  C7  UNL     1     -31.825   5.775   0.886  1.00 20.00     0.005 C 
HETATM    6  C8  UNL     1     -32.644   5.216   2.053  1.00 20.00     0.009 C 
HETATM    7  C9  UNL     1     -33.730   6.207   2.504  1.00 20.00     0.017 C 
ENDROOT
BRANCH   7   8
HETATM    8  C4  UNL     1     -34.489   5.653   3.670  1.00 20.00    -0.089 C 
HETATM    9  C3  UNL     1     -35.470   6.343   4.271  1.00 20.00     0.014 C 
HETATM   10  C10 UNL     1     -34.091   4.280   4.128  1.00 20.00     0.043 C 
ENDBRANCH   7   8
TORSDOF 1
ENDMDL
MODEL 3
REMARK VINA RESULT:      -0.7      0.923      3.896
REMARK  1 active torsions:
REMARK  status: ('A' for Active; 'I' for Inactive)
REMARK    1  A    between atoms: C4_4  and  C9_9 
ROOT
HETATM    1  C1  UNL     1     -33.757   7.562   3.780  1.00 20.00    -0.089 C 
HETATM    2  C2  UNL     1     -33.767   7.892   5.079  1.00 20.00     0.014 C 
HETATM    3  C5  UNL     1     -34.106   6.179   3.295  1.00 20.00     0.033 C 
HETATM    4  C6  UNL     1     -33.373   8.540   2.698  1.00 20.00     0.042 C 
HETATM    5  C7  UNL     1     -32.989   5.616   2.419  1.00 20.00     0.005 C 
HETATM    6  C8  UNL     1     -32.614   6.574   1.285  1.00 20.00     0.009 C 
HETATM    7  C9  UNL     1     -32.246   7.967   1.822  1.00 20.00     0.017 C 
ENDROOT
BRANCH   7   8
HETATM    8  C4  UNL     1     -31.923   8.894   0.692  1.00 20.00    -0.089 C 
HETATM    9  C3  UNL     1     -30.990   8.596  -0.226  1.00 20.00     0.014 C 
HETATM   10  C10 UNL     1     -32.702  10.175   0.643  1.00 20.00     0.043 C 
ENDBRANCH   7   8
TORSDOF 1
ENDMDL
MODEL 4
REMARK VINA RESULT:      -0.3      1.102      2.435
REMARK  1 active torsions:
REMARK  status: ('A' for Active; 'I' for Inactive)
REMARK    1  A    between atoms: C4_4  and  C9_9 
ROOT
HETATM    1  C1  UNL     1     -32.170   6.038   1.334  1.00 20.00    -0.089 C 
HETATM    2  C2  UNL     1     -31.315   5.102   0.895  1.00 20.00     0.014 C 
HETATM    3  C5  UNL     1     -31.834   7.506   1.324  1.00 20.00     0.033 C 
HETATM    4  C6  UNL     1     -33.527   5.696   1.893  1.00 20.00     0.042 C 
HETATM    5  C7  UNL     1     -32.022   8.112   2.713  1.00 20.00     0.005 C 
HETATM    6  C8  UNL     1     -33.412   7.817   3.282  1.00 20.00     0.009 C 
HETATM    7  C9  UNL     1     -33.707   6.308   3.293  1.00 20.00     0.017 C 
ENDROOT
BRANCH   7   8
HETATM    8  C4  UNL     1     -35.086   6.050   3.817  1.00 20.00    -0.089 C 
HETATM    9  C3  UNL     1     -36.136   6.803   3.456  1.00 20.00     0.014 C 
HETATM   10  C10 UNL     1     -35.228   4.899   4.769  1.00 20.00     0.043 C 
ENDBRANCH   7   8
TORSDOF 1
ENDMDL
MODEL 5
REMARK VINA RESULT:      -0.1      1.200      4.197
REMARK  1 active torsions:
REMARK  status: ('A' for Active; 'I' for Inactive)
REMARK    1  A    between atoms: C4_4  and  C9_9 
ROOT
HETATM    1  C1  UNL     1     -34.222   6.529   3.623  1.00 20.00    -0.089 C 
HETATM    2  C2  UNL     1     -35.478   6.512   4.095  1.00 20.00     0.014 C 
HETATM    3  C5  UNL     1     -33.281   7.679   3.873  1.00 20.00     0.033 C 
HETATM    4  C6  UNL     1     -33.657   5.410   2.787  1.00 20.00     0.042 C 
HETATM    5  C7  UNL     1     -32.718   8.210   2.556  1.00 20.00     0.005 C 
HETATM    6  C8  UNL     1     -32.096   7.096   1.709  1.00 20.00     0.009 C 
HETATM    7  C9  UNL     1     -33.094   5.953   1.462  1.00 20.00     0.017 C 
ENDROOT
BRANCH   7   8
HETATM    8  C4  UNL     1     -32.449   4.861   0.666  1.00 20.00    -0.089 C 
HETATM    9  C3  UNL     1     -31.155   4.541   0.817  1.00 20.00     0.014 C 
HETATM   10  C10 UNL     1     -33.333   4.143  -0.311  1.00 20.00     0.043 C 
ENDBRANCH   7   8
TORSDOF 1
ENDMDL
MODEL 6
REMARK VINA RESULT:       0.2      0.868      3.864
REMARK  1 active torsions:
REMARK  status: ('A' for Active; 'I' for Inactive)
REMARK    1  A    between atoms: C4_4  and  C9_9 
ROOT
HETATM    1  C1  UNL     1     -34.217   7.458   4.243  1.00 20.00    -0.089 C 
HETATM    2  C2  UNL     1     -34.016   8.308   5.261  1.00 20.00     0.014 C 
HETATM    3  C5  UNL     1     -35.235   6.350   4.306  1.00 20.00     0.033 C 
HETATM    4  C6  UNL     1     -33.426   7.528   2.962  1.00 20.00     0.042 C 
HETATM    5  C7  UNL     1     -34.587   5.003   3.988  1.00 20.00     0.005 C 
HETATM    6  C8  UNL     1     -33.815   5.038   2.666  1.00 20.00     0.009 C 
HETATM    7  C9  UNL     1     -32.775   6.170   2.651  1.00 20.00     0.017 C 
ENDROOT
BRANCH   7   8
HETATM    8  C4  UNL     1     -32.063   6.206   1.334  1.00 20.00    -0.089 C 
HETATM    9  C3  UNL     1     -31.845   5.096   0.613  1.00 20.00     0.014 C 
HETATM   10  C10 UNL     1     -31.607   7.557   0.864  1.00 20.00     0.043 C 
ENDBRANCH   7   8
TORSDOF 1
ENDMDL
MODEL 7
REMARK VINA RESULT:       0.4      0.930      4.014
REMARK  1 active torsions:
REMARK  status: ('A' for Active; 'I' for Inactive)
REMARK    1  A    between atoms: C4_4  and  C9_9 
ROOT
HETATM    1  C1  UNL     1     -34.253   7.433   4.255  1.00 20.00    -0.089 C 
HETATM    2  C2  UNL     1     -34.076   8.299   5.263  1.00 20.00     0.014 C 
HETATM    3  C5  UNL     1     -35.240   6.297   4.330  1.00 20.00     0.033 C 
HETATM    4  C6  UNL     1     -33.465   7.511   2.973  1.00 20.00     0.042 C 
HETATM    5  C7  UNL     1     -34.554   4.966   4.027  1.00 20.00     0.005 C 
HETATM    6  C8  UNL     1     -33.784   5.008   2.704  1.00 20.00     0.009 C 
HETATM    7  C9  UNL     1     -32.775   6.168   2.676  1.00 20.00     0.017 C 
ENDROOT
BRANCH   7   8
HETATM    8  C4  UNL     1     -32.065   6.210   1.358  1.00 20.00    -0.089 C 
HETATM    9  C3  UNL     1     -31.480   7.328   0.902  1.00 20.00     0.014 C 
HETATM   10  C10 UNL     1     -32.045   4.930   0.576  1.00 20.00     0.043 C 
ENDBRANCH   7   8
TORSDOF 1
ENDMDL
MODEL 8
REMARK VINA RESULT:       0.6      1.338      2.630
REMARK  1 active torsions:
REMARK  status: ('A' for Active; 'I' for Inactive)
REMARK    1  A    between atoms: C4_4  and  C9_9 
ROOT
HETATM    1  C1  UNL     1     -32.429   7.202   1.791  1.00 20.00    -0.089 C 
HETATM    2  C2  UNL     1     -31.263   7.185   1.130  1.00 20.00     0.014 C 
HETATM    3  C5  UNL     1     -33.109   8.483   2.198  1.00 20.00     0.033 C 
HETATM    4  C6  UNL     1     -33.146   5.940   2.202  1.00 20.00     0.042 C 
HETATM    5  C7  UNL     1     -33.406   8.484   3.697  1.00 20.00     0.005 C 
HETATM    6  C8  UNL     1     -34.174   7.232   4.128  1.00 20.00     0.009 C 
HETATM    7  C9  UNL     1     -33.438   5.948   3.712  1.00 20.00     0.017 C 
ENDROOT
BRANCH   7   8
HETATM    8  C4  UNL     1     -34.229   4.741   4.111  1.00 20.00    -0.089 C 
HETATM    9  C3  UNL     1     -33.708   3.505   4.071  1.00 20.00     0.014 C 
HETATM   10  C10 UNL     1     -35.639   4.992   4.558  1.00 20.00     0.043 C 
ENDBRANCH   7   8
TORSDOF 1
ENDMDL
MODEL 9
REMARK VINA RESULT:       0.7      1.765      4.697
REMARK  1 active torsions:
REMARK  status: ('A' for Active; 'I' for Inactive)
REMARK    1  A    between atoms: C4_4  and  C9_9 
ROOT
HETATM    1  C1  UNL     1     -33.662   3.815   4.335  1.00 20.00    -0.089 C 
HETATM    2  C2  UNL     1     -33.619   2.475   4.370  1.00 20.00     0.014 C 
HETATM    3  C5  UNL     1     -34.675   4.611   5.115  1.00 20.00     0.033 C 
HETATM    4  C6  UNL     1     -32.714   4.634   3.497  1.00 20.00     0.042 C 
HETATM    5  C7  UNL     1     -35.440   5.561   4.195  1.00 20.00     0.005 C 
HETATM    6  C8  UNL     1     -34.495   6.436   3.366  1.00 20.00     0.009 C 
HETATM    7  C9  UNL     1     -33.491   5.586   2.571  1.00 20.00     0.017 C 
ENDROOT
BRANCH   7   8
HETATM    8  C4  UNL     1     -32.556   6.466   1.801  1.00 20.00    -0.089 C 
HETATM    9  C3  UNL     1     -32.459   7.782   2.042  1.00 20.00     0.014 C 
HETATM   10  C10 UNL     1     -31.732   5.792   0.744  1.00 20.00     0.043 C 
ENDBRANCH   7   8
TORSDOF 1
ENDMDL
