MODEL 1
REMARK VINA RESULT:      -2.8      0.000      0.000
REMARK  2 active torsions:
REMARK  status: ('A' for Active; 'I' for Inactive)
REMARK    1  A    between atoms: C1_1  and  C2_2 
REMARK    2  A    between atoms: C1_1  and  C3_3 
ROOT
HETATM    1  C1  UNL     1     -32.955   6.841   2.790  1.00 20.00     0.348 C 
HETATM    2  F4  UNL     1     -33.560   6.184   1.754  1.00 20.00    -0.234 F 
ENDROOT
BRANCH   1   3
HETATM    3  C2  UNL     1     -32.056   7.891   2.168  1.00 20.00     0.423 C 
HETATM    4  F5  UNL     1     -32.745   8.765   1.407  1.00 20.00    -0.168 F 
HETATM    5  F6  UNL     1     -31.390   8.592   3.109  1.00 20.00    -0.168 F 
HETATM    6  F7  UNL     1     -31.137   7.304   1.369  1.00 20.00    -0.168 F 
ENDBRANCH   1   3
BRANCH   1   7
HETATM    7  C3  UNL     1     -34.055   7.389   3.700  1.00 20.00     0.294 C 
HETATM    8  F8  UNL     1     -34.665   8.434   3.075  1.00 20.00    -0.204 F 
HETATM    9 CL9  UNL     1     -33.347   7.993   5.224  1.00 20.00    -0.062 Cl
HETATM   10 CL10 UNL     1     -35.285   6.161   4.088  1.00 20.00    -0.062 Cl
ENDBRANCH   1   7
TORSDOF 2
ENDMDL
MODEL 2
REMARK VINA RESULT:      -2.5      1.458      1.884
REMARK  2 active torsions:
REMARK  status: ('A' for Active; 'I' for Inactive)
REMARK    1  A    between atoms: C1_1  and  C2_2 
REMARK    2  A    between atoms: C1_1  and  C3_3 
ROOT
HETATM    1  C1  UNL     1     -33.192   5.670   3.100  1.00 20.00     0.348 C 
HETATM    2  F4  UNL     1     -33.502   4.338   3.054  1.00 20.00    -0.234 F 
ENDROOT
BRANCH   1   3
HETATM    3  C2  UNL     1     -32.746   6.056   1.704  1.00 20.00     0.423 C 
HETATM    4  F5  UNL     1     -33.667   5.744   0.770  1.00 20.00    -0.168 F 
HETATM    5  F6  UNL     1     -32.492   7.378   1.614  1.00 20.00    -0.168 F 
HETATM    6  F7  UNL     1     -31.609   5.399   1.378  1.00 20.00    -0.168 F 
ENDBRANCH   1   3
BRANCH   1   7
HETATM    7  C3  UNL     1     -34.421   6.417   3.616  1.00 20.00     0.294 C 
HETATM    8  F8  UNL     1     -35.133   6.882   2.553  1.00 20.00    -0.204 F 
HETATM    9 CL9  UNL     1     -33.918   7.820   4.600  1.00 20.00    -0.062 Cl
HETATM   10 CL10 UNL     1     -35.481   5.378   4.600  1.00 20.00    -0.062 Cl
ENDBRANCH   1   7
TORSDOF 2
ENDMDL
MODEL 3
REMARK VINA RESULT:      -2.2      2.004      3.317
REMARK  2 active torsions:
REMARK  status: ('A' for Active; 'I' for Inactive)
REMARK    1  A    between atoms: C1_1  and  C2_2 
REMARK    2  A    between atoms: C1_1  and  C3_3 
ROOT
HETATM    1  C1  UNL     1     -33.446   6.874   2.001  1.00 20.00     0.348 C 
HETATM    2  F4  UNL     1     -33.020   5.644   1.583  1.00 20.00    -0.234 F 
ENDROOT
BRANCH   1   3
HETATM    3  C2  UNL     1     -34.072   6.671   3.367  1.00 20.00     0.423 C 
HETATM    4  F5  UNL     1     -33.672   7.605   4.254  1.00 20.00    -0.168 F 
HETATM    5  F6  UNL     1     -35.419   6.705   3.304  1.00 20.00    -0.168 F 
HETATM    6  F7  UNL     1     -33.716   5.466   3.869  1.00 20.00    -0.168 F 
ENDBRANCH   1   3
BRANCH   1   7
HETATM    7  C3  UNL     1     -32.244   7.818   1.975  1.00 20.00     0.294 C 
HETATM    8  F8  UNL     1     -31.140   7.116   1.600  1.00 20.00    -0.204 F 
HETATM    9 CL9  UNL     1     -31.950   8.483   3.605  1.00 20.00    -0.062 Cl
HETATM   10 CL10 UNL     1     -32.472   9.170   0.838  1.00 20.00    -0.062 Cl
ENDBRANCH   1   7
TORSDOF 2
ENDMDL
MODEL 4
REMARK VINA RESULT:      -2.1      2.460      3.798
REMARK  2 active torsions:
REMARK  status: ('A' for Active; 'I' for Inactive)
REMARK    1  A    between atoms: C1_1  and  C2_2 
REMARK    2  A    between atoms: C1_1  and  C3_3 
ROOT
HETATM    1  C1  UNL     1     -34.011   5.436   2.886  1.00 20.00     0.348 C 
HETATM    2  F4  UNL     1     -33.191   4.776   3.758  1.00 20.00    -0.234 F 
ENDROOT
BRANCH   1   3
HETATM    3  C2  UNL     1     -34.891   6.342   3.723  1.00 20.00     0.423 C 
HETATM    4  F5  UNL     1     -34.180   7.294   4.362  1.00 20.00    -0.168 F 
HETATM    5  F6  UNL     1     -35.827   6.956   2.970  1.00 20.00    -0.168 F 
HETATM    6  F7  UNL     1     -35.534   5.622   4.671  1.00 20.00    -0.168 F 
ENDBRANCH   1   3
BRANCH   1   7
HETATM    7  C3  UNL     1     -33.126   6.155   1.868  1.00 20.00     0.294 C 
HETATM    8  F8  UNL     1     -33.839   6.352   0.725  1.00 20.00    -0.204 F 
HETATM    9 CL9  UNL     1     -31.707   5.148   1.468  1.00 20.00    -0.062 Cl
HETATM   10 CL10 UNL     1     -32.556   7.734   2.463  1.00 20.00    -0.062 Cl
ENDBRANCH   1   7
TORSDOF 2
ENDMDL
MODEL 5
REMARK VINA RESULT:      -2.0      0.972      2.192
REMARK  2 active torsions:
REMARK  status: ('A' for Active; 'I' for Inactive)
REMARK    1  A    between atoms: C1_1  and  C2_2 
REMARK    2  A    between atoms: C1_1  and  C3_3 
ROOT
HETATM    1  C1  UNL     1     -33.085   7.483   2.304  1.00 20.00     0.348 C 
HETATM    2  F4  UNL     1     -31.858   8.011   2.594  1.00 20.00    -0.234 F 
ENDROOT
BRANCH   1   3
HETATM    3  C2  UNL     1     -32.843   6.064   1.829  1.00 20.00     0.423 C 
HETATM    4  F5  UNL     1     -33.068   5.156   2.800  1.00 20.00    -0.168 F 
HETATM    5  F6  UNL     1     -33.629   5.754   0.777  1.00 20.00    -0.168 F 
HETATM    6  F7  UNL     1     -31.557   5.917   1.436  1.00 20.00    -0.168 F 
ENDBRANCH   1   3
BRANCH   1   7
HETATM    7  C3  UNL     1     -33.953   7.605   3.556  1.00 20.00     0.294 C 
HETATM    8  F8  UNL     1     -34.778   8.679   3.419  1.00 20.00    -0.204 F 
HETATM    9 CL9  UNL     1     -32.926   7.877   4.991  1.00 20.00    -0.062 Cl
HETATM   10 CL10 UNL     1     -34.949   6.155   3.833  1.00 20.00    -0.062 Cl
ENDBRANCH   1   7
TORSDOF 2
ENDMDL
MODEL 6
REMARK VINA RESULT:      -2.0      1.403      2.818
REMARK  2 active torsions:
REMARK  status: ('A' for Active; 'I' for Inactive)
REMARK    1  A    between atoms: C1_1  and  C2_2 
REMARK    2  A    between atoms: C1_1  and  C3_3 
ROOT
HETATM    1  C1  UNL     1     -33.452   7.013   2.285  1.00 20.00     0.348 C 
HETATM    2  F4  UNL     1     -32.413   7.860   2.556  1.00 20.00    -0.234 F 
ENDROOT
BRANCH   1   3
HETATM    3  C2  UNL     1     -32.855   5.808   1.587  1.00 20.00     0.423 C 
HETATM    4  F5  UNL     1     -32.933   4.692   2.340  1.00 20.00    -0.168 F 
HETATM    5  F6  UNL     1     -33.470   5.562   0.412  1.00 20.00    -0.168 F 
HETATM    6  F7  UNL     1     -31.545   6.021   1.327  1.00 20.00    -0.168 F 
ENDBRANCH   1   3
BRANCH   1   7
HETATM    7  C3  UNL     1     -34.162   6.710   3.605  1.00 20.00     0.294 C 
HETATM    8  F8  UNL     1     -33.785   5.474   4.035  1.00 20.00    -0.204 F 
HETATM    9 CL9  UNL     1     -35.931   6.694   3.360  1.00 20.00    -0.062 Cl
HETATM   10 CL10 UNL     1     -33.771   7.898   4.872  1.00 20.00    -0.062 Cl
ENDBRANCH   1   7
TORSDOF 2
ENDMDL
MODEL 7
REMARK VINA RESULT:      -2.0      0.977      2.142
REMARK  2 active torsions:
REMARK  status: ('A' for Active; 'I' for Inactive)
REMARK    1  A    between atoms: C1_1  and  C2_2 
REMARK    2  A    between atoms: C1_1  and  C3_3 
ROOT
HETATM    1  C1  UNL     1     -33.081   7.477   2.301  1.00 20.00     0.348 C 
HETATM    2  F4  UNL     1     -31.855   8.009   2.591  1.00 20.00    -0.234 F 
ENDROOT
BRANCH   1   3
HETATM    3  C2  UNL     1     -32.834   6.057   1.833  1.00 20.00     0.423 C 
HETATM    4  F5  UNL     1     -31.563   5.869   1.423  1.00 20.00    -0.168 F 
HETATM    5  F6  UNL     1     -33.093   5.162   2.808  1.00 20.00    -0.168 F 
HETATM    6  F7  UNL     1     -33.638   5.764   0.785  1.00 20.00    -0.168 F 
ENDBRANCH   1   3
BRANCH   1   7
HETATM    7  C3  UNL     1     -33.951   7.602   3.552  1.00 20.00     0.294 C 
HETATM    8  F8  UNL     1     -34.771   8.680   3.413  1.00 20.00    -0.204 F 
HETATM    9 CL9  UNL     1     -32.926   7.870   4.989  1.00 20.00    -0.062 Cl
HETATM   10 CL10 UNL     1     -34.953   6.156   3.826  1.00 20.00    -0.062 Cl
ENDBRANCH   1   7
TORSDOF 2
ENDMDL
MODEL 8
REMARK VINA RESULT:      -1.9      1.825      2.869
REMARK  2 active torsions:
REMARK  status: ('A' for Active; 'I' for Inactive)
REMARK    1  A    between atoms: C1_1  and  C2_2 
REMARK    2  A    between atoms: C1_1  and  C3_3 
ROOT
HETATM    1  C1  UNL     1     -33.190   7.280   2.018  1.00 20.00     0.348 C 
HETATM    2  F4  UNL     1     -33.531   7.492   3.326  1.00 20.00    -0.234 F 
ENDROOT
BRANCH   1   3
HETATM    3  C2  UNL     1     -32.027   8.205   1.720  1.00 20.00     0.423 C 
HETATM    4  F5  UNL     1     -31.179   7.681   0.812  1.00 20.00    -0.168 F 
HETATM    5  F6  UNL     1     -32.452   9.398   1.255  1.00 20.00    -0.168 F 
HETATM    6  F7  UNL     1     -31.313   8.435   2.846  1.00 20.00    -0.168 F 
ENDBRANCH   1   3
BRANCH   1   7
HETATM    7  C3  UNL     1     -32.890   5.790   1.851  1.00 20.00     0.294 C 
HETATM    8  F8  UNL     1     -31.541   5.615   1.796  1.00 20.00    -0.204 F 
HETATM    9 CL9  UNL     1     -33.588   5.191   0.320  1.00 20.00    -0.062 Cl
HETATM   10 CL10 UNL     1     -33.536   4.815   3.194  1.00 20.00    -0.062 Cl
ENDBRANCH   1   7
TORSDOF 2
ENDMDL
MODEL 9
REMARK VINA RESULT:      -1.8      2.184      3.591
REMARK  2 active torsions:
REMARK  status: ('A' for Active; 'I' for Inactive)
REMARK    1  A    between atoms: C1_1  and  C2_2 
REMARK    2  A    between atoms: C1_1  and  C3_3 
ROOT
HETATM    1  C1  UNL     1     -34.115   6.322   2.949  1.00 20.00     0.348 C 
HETATM    2  F4  UNL     1     -33.242   5.307   3.225  1.00 20.00    -0.234 F 
ENDROOT
BRANCH   1   3
HETATM    3  C2  UNL     1     -35.256   6.191   3.938  1.00 20.00     0.423 C 
HETATM    4  F5  UNL     1     -35.355   4.943   4.439  1.00 20.00    -0.168 F 
HETATM    5  F6  UNL     1     -35.114   7.046   4.972  1.00 20.00    -0.168 F 
HETATM    6  F7  UNL     1     -36.433   6.472   3.333  1.00 20.00    -0.168 F 
ENDBRANCH   1   3
BRANCH   1   7
HETATM    7  C3  UNL     1     -33.340   7.637   3.027  1.00 20.00     0.294 C 
HETATM    8  F8  UNL     1     -34.175   8.662   2.701  1.00 20.00    -0.204 F 
HETATM    9 CL9  UNL     1     -31.993   7.627   1.854  1.00 20.00    -0.062 Cl
HETATM   10 CL10 UNL     1     -32.679   7.937   4.654  1.00 20.00    -0.062 Cl
ENDBRANCH   1   7
TORSDOF 2
ENDMDL
