MODEL 1
REMARK VINA RESULT:      -1.2      0.000      0.000
REMARK  0 active torsions:
REMARK  status: ('A' for Active; 'I' for Inactive)
ROOT
HETATM    1  C1  UNL     1     -31.476   8.172   2.497  1.00 20.00     0.062 A 
HETATM    2  C2  UNL     1     -32.536   8.807   1.645  1.00 20.00     0.119 A 
HETATM    3  C3  UNL     1     -32.769   7.439   2.231  1.00 20.00     0.112 A 
HETATM    4 CL4  UNL     1     -32.227   9.053  -0.054  1.00 20.00    -0.122 Cl
HETATM    5 CL5  UNL     1     -32.694   6.001   1.216  1.00 20.00    -0.105 Cl
HETATM    6 BR6  UNL     1     -34.024   7.305   3.676  1.00 20.00    -0.066 Br
ENDROOT
TORSDOF 0
ENDMDL
MODEL 2
REMARK VINA RESULT:      -1.1      2.720      4.076
REMARK  0 active torsions:
REMARK  status: ('A' for Active; 'I' for Inactive)
ROOT
HETATM    1  C1  UNL     1     -35.455   6.038   3.655  1.00 20.00     0.062 A 
HETATM    2  C2  UNL     1     -34.368   5.370   4.444  1.00 20.00     0.119 A 
HETATM    3  C3  UNL     1     -34.028   6.508   3.519  1.00 20.00     0.112 A 
HETATM    4 CL4  UNL     1     -33.947   3.716   4.082  1.00 20.00    -0.122 Cl
HETATM    5 CL5  UNL     1     -33.215   6.208   1.985  1.00 20.00    -0.105 Cl
HETATM    6 BR6  UNL     1     -33.568   8.188   4.325  1.00 20.00    -0.066 Br
ENDROOT
TORSDOF 0
ENDMDL
MODEL 3
REMARK VINA RESULT:      -1.0      2.583      3.193
REMARK  0 active torsions:
REMARK  status: ('A' for Active; 'I' for Inactive)
ROOT
HETATM    1  C1  UNL     1     -31.934   6.607   1.563  1.00 20.00     0.062 A 
HETATM    2  C2  UNL     1     -33.327   7.019   1.938  1.00 20.00     0.119 A 
HETATM    3  C3  UNL     1     -32.226   8.046   1.908  1.00 20.00     0.112 A 
HETATM    4 CL4  UNL     1     -34.015   6.434   3.431  1.00 20.00    -0.122 Cl
HETATM    5 CL5  UNL     1     -31.544   8.679   3.404  1.00 20.00    -0.105 Cl
HETATM    6 BR6  UNL     1     -32.247   9.314   0.468  1.00 20.00    -0.066 Br
ENDROOT
TORSDOF 0
ENDMDL
MODEL 4
REMARK VINA RESULT:      -0.7      2.419      2.879
REMARK  0 active torsions:
REMARK  status: ('A' for Active; 'I' for Inactive)
ROOT
HETATM    1  C1  UNL     1     -33.700   5.711   1.375  1.00 20.00     0.062 A 
HETATM    2  C2  UNL     1     -32.397   6.084   2.019  1.00 20.00     0.119 A 
HETATM    3  C3  UNL     1     -33.600   5.795   2.878  1.00 20.00     0.112 A 
HETATM    4 CL4  UNL     1     -31.773   7.699   1.802  1.00 20.00    -0.122 Cl
HETATM    5 CL5  UNL     1     -34.468   7.103   3.679  1.00 20.00    -0.105 Cl
HETATM    6 BR6  UNL     1     -33.602   4.147   3.860  1.00 20.00    -0.066 Br
ENDROOT
TORSDOF 0
ENDMDL
MODEL 5
REMARK VINA RESULT:      -0.3      1.688      2.835
REMARK  0 active torsions:
REMARK  status: ('A' for Active; 'I' for Inactive)
ROOT
HETATM    1  C1  UNL     1     -33.708   6.268   0.946  1.00 20.00     0.062 A 
HETATM    2  C2  UNL     1     -32.788   5.421   1.774  1.00 20.00     0.119 A 
HETATM    3  C3  UNL     1     -33.024   6.858   2.155  1.00 20.00     0.112 A 
HETATM    4 CL4  UNL     1     -31.281   4.875   1.084  1.00 20.00    -0.122 Cl
HETATM    5 CL5  UNL     1     -31.785   8.079   1.873  1.00 20.00    -0.105 Cl
HETATM    6 BR6  UNL     1     -34.102   7.190   3.707  1.00 20.00    -0.066 Br
ENDROOT
TORSDOF 0
ENDMDL
MODEL 6
REMARK VINA RESULT:      -0.2      3.137      3.655
REMARK  0 active torsions:
REMARK  status: ('A' for Active; 'I' for Inactive)
ROOT
HETATM    1  C1  UNL     1     -33.068   5.734   3.224  1.00 20.00     0.062 A 
HETATM    2  C2  UNL     1     -34.331   6.462   2.871  1.00 20.00     0.119 A 
HETATM    3  C3  UNL     1     -33.086   7.242   3.201  1.00 20.00     0.112 A 
HETATM    4 CL4  UNL     1     -35.693   6.379   3.958  1.00 20.00    -0.122 Cl
HETATM    5 CL5  UNL     1     -32.931   8.081   4.742  1.00 20.00    -0.105 Cl
HETATM    6 BR6  UNL     1     -32.187   8.116   1.748  1.00 20.00    -0.066 Br
ENDROOT
TORSDOF 0
ENDMDL
MODEL 7
REMARK VINA RESULT:      -0.1      3.420      3.619
REMARK  0 active torsions:
REMARK  status: ('A' for Active; 'I' for Inactive)
ROOT
HETATM    1  C1  UNL     1     -35.014   7.060   3.097  1.00 20.00     0.062 A 
HETATM    2  C2  UNL     1     -33.689   7.495   3.652  1.00 20.00     0.119 A 
HETATM    3  C3  UNL     1     -33.860   6.089   3.139  1.00 20.00     0.112 A 
HETATM    4 CL4  UNL     1     -33.557   7.857   5.353  1.00 20.00    -0.122 Cl
HETATM    5 CL5  UNL     1     -33.979   4.732   4.257  1.00 20.00    -0.105 Cl
HETATM    6 BR6  UNL     1     -33.010   5.652   1.475  1.00 20.00    -0.066 Br
ENDROOT
TORSDOF 0
ENDMDL
MODEL 8
REMARK VINA RESULT:      -0.0      2.430      2.576
REMARK  0 active torsions:
REMARK  status: ('A' for Active; 'I' for Inactive)
ROOT
HETATM    1  C1  UNL     1     -32.708   8.290   1.295  1.00 20.00     0.062 A 
HETATM    2  C2  UNL     1     -31.637   7.967   2.295  1.00 20.00     0.119 A 
HETATM    3  C3  UNL     1     -32.765   6.996   2.068  1.00 20.00     0.112 A 
HETATM    4 CL4  UNL     1     -31.511   8.927   3.747  1.00 20.00    -0.122 Cl
HETATM    5 CL5  UNL     1     -34.051   6.816   3.259  1.00 20.00    -0.105 Cl
HETATM    6 BR6  UNL     1     -32.355   5.379   1.120  1.00 20.00    -0.066 Br
ENDROOT
TORSDOF 0
ENDMDL
MODEL 9
REMARK VINA RESULT:       0.1      2.221      2.691
REMARK  0 active torsions:
REMARK  status: ('A' for Active; 'I' for Inactive)
ROOT
HETATM    1  C1  UNL     1     -32.866   7.039   3.302  1.00 20.00     0.062 A 
HETATM    2  C2  UNL     1     -33.302   6.443   1.996  1.00 20.00     0.119 A 
HETATM    3  C3  UNL     1     -33.940   5.979   3.278  1.00 20.00     0.112 A 
HETATM    4 CL4  UNL     1     -32.184   5.450   1.098  1.00 20.00    -0.122 Cl
HETATM    5 CL5  UNL     1     -33.543   4.405   3.962  1.00 20.00    -0.105 Cl
HETATM    6 BR6  UNL     1     -35.744   6.539   3.616  1.00 20.00    -0.066 Br
ENDROOT
TORSDOF 0
ENDMDL
