MODEL 1
REMARK VINA RESULT:      -0.9      0.000      0.000
REMARK  0 active torsions:
REMARK  status: ('A' for Active; 'I' for Inactive)
ROOT
HETATM    1  C1  UNL     1     -33.521   8.182   3.732  1.00 20.00     0.011 A 
HETATM    2  C2  UNL     1     -34.415   7.329   4.385  1.00 20.00     0.024 A 
HETATM    3  C3  UNL     1     -33.883   5.518   2.848  1.00 20.00     0.031 A 
HETATM    4  C4  UNL     1     -32.816   7.688   2.646  1.00 20.00    -0.033 A 
HETATM    5  C5  UNL     1     -32.991   6.366   2.214  1.00 20.00    -0.049 A 
HETATM    6  C6  UNL     1     -34.595   6.008   3.946  1.00 20.00     0.034 A 
HETATM    7  C7  UNL     1     -32.148   6.082   1.010  1.00 20.00     0.041 C 
HETATM    8  C8  UNL     1     -31.123   7.224   1.094  1.00 20.00     0.030 C 
HETATM    9  C9  UNL     1     -31.832   8.408   1.777  1.00 20.00     0.116 C 
HETATM   10 CL10 UNL     1     -35.709   4.983   4.767  1.00 20.00    -0.084 Cl
HETATM   11 CL11 UNL     1     -32.685   9.422   0.595  1.00 20.00    -0.120 Cl
ENDROOT
TORSDOF 0
ENDMDL
MODEL 2
REMARK VINA RESULT:      -0.2      2.145      3.818
REMARK  0 active torsions:
REMARK  status: ('A' for Active; 'I' for Inactive)
ROOT
HETATM    1  C1  UNL     1     -32.448   7.687   2.039  1.00 20.00     0.011 A 
HETATM    2  C2  UNL     1     -31.790   6.818   1.167  1.00 20.00     0.024 A 
HETATM    3  C3  UNL     1     -33.001   4.912   2.077  1.00 20.00     0.031 A 
HETATM    4  C4  UNL     1     -33.380   7.157   2.918  1.00 20.00    -0.033 A 
HETATM    5  C5  UNL     1     -33.657   5.783   2.931  1.00 20.00    -0.049 A 
HETATM    6  C6  UNL     1     -32.064   5.441   1.186  1.00 20.00     0.034 A 
HETATM    7  C7  UNL     1     -34.668   5.453   3.984  1.00 20.00     0.041 C 
HETATM    8  C8  UNL     1     -35.286   6.837   4.241  1.00 20.00     0.030 C 
HETATM    9  C9  UNL     1     -34.186   7.875   3.956  1.00 20.00     0.116 C 
HETATM   10 CL10 UNL     1     -31.231   4.392   0.102  1.00 20.00    -0.084 Cl
HETATM   11 CL11 UNL     1     -33.195   8.183   5.397  1.00 20.00    -0.120 Cl
ENDROOT
TORSDOF 0
ENDMDL
MODEL 3
REMARK VINA RESULT:       1.5      1.083      4.415
REMARK  0 active torsions:
REMARK  status: ('A' for Active; 'I' for Inactive)
ROOT
HETATM    1  C1  UNL     1     -33.100   5.769   1.837  1.00 20.00     0.011 A 
HETATM    2  C2  UNL     1     -32.217   6.386   0.948  1.00 20.00     0.024 A 
HETATM    3  C3  UNL     1     -32.284   8.449   2.239  1.00 20.00     0.031 A 
HETATM    4  C4  UNL     1     -33.561   6.501   2.920  1.00 20.00    -0.033 A 
HETATM    5  C5  UNL     1     -33.150   7.826   3.121  1.00 20.00    -0.049 A 
HETATM    6  C6  UNL     1     -31.812   7.715   1.147  1.00 20.00     0.034 A 
HETATM    7  C7  UNL     1     -33.807   8.411   4.332  1.00 20.00     0.041 C 
HETATM    8  C8  UNL     1     -34.258   7.136   5.065  1.00 20.00     0.030 C 
HETATM    9  C9  UNL     1     -34.525   6.073   3.983  1.00 20.00     0.116 C 
HETATM   10 CL10 UNL     1     -30.726   8.451   0.030  1.00 20.00    -0.084 Cl
HETATM   11 CL11 UNL     1     -36.190   6.170   3.376  1.00 20.00    -0.120 Cl
ENDROOT
TORSDOF 0
ENDMDL
