MODEL 1
REMARK VINA RESULT:       2.1      0.000      0.000
REMARK  0 active torsions:
REMARK  status: ('A' for Active; 'I' for Inactive)
ROOT
HETATM    1  C1  UNL     1     -34.090   4.731   3.957  1.00 20.00     0.141 C 
HETATM    2  C2  UNL     1     -35.391   5.283   4.508  1.00 20.00     0.079 C 
HETATM    3  C3  UNL     1     -35.865   6.464   3.675  1.00 20.00     0.008 C 
HETATM    4  C4  UNL     1     -34.839   7.602   3.612  1.00 20.00     0.017 C 
HETATM    5  C5  UNL     1     -31.838   6.765   1.151  1.00 20.00     0.085 C 
HETATM    6  C6  UNL     1     -32.195   8.173   1.596  1.00 20.00     0.084 C 
HETATM    7  C7  UNL     1     -33.085   5.726   3.392  1.00 20.00     0.130 C 
HETATM    8  C8  UNL     1     -33.404   7.133   3.909  1.00 20.00     0.068 C 
HETATM    9  O9  UNL     1     -33.852   3.524   3.990  1.00 20.00    -0.297 OA
HETATM   10  S10 UNL     1     -33.119   5.552   1.577  1.00 20.00    -0.155 SA
HETATM   11  S11 UNL     1     -32.165   8.383   3.403  1.00 20.00    -0.162 SA
ENDROOT
TORSDOF 0
ENDMDL
MODEL 2
REMARK VINA RESULT:       4.0      2.117      3.765
REMARK  0 active torsions:
REMARK  status: ('A' for Active; 'I' for Inactive)
ROOT
HETATM    1  C1  UNL     1     -32.288   6.406   1.495  1.00 20.00     0.141 C 
HETATM    2  C2  UNL     1     -31.963   7.847   1.833  1.00 20.00     0.079 C 
HETATM    3  C3  UNL     1     -32.105   8.089   3.328  1.00 20.00     0.008 C 
HETATM    4  C4  UNL     1     -33.508   7.769   3.856  1.00 20.00     0.017 C 
HETATM    5  C5  UNL     1     -34.113   3.859   4.191  1.00 20.00     0.085 C 
HETATM    6  C6  UNL     1     -34.939   4.905   4.921  1.00 20.00     0.084 C 
HETATM    7  C7  UNL     1     -33.406   5.731   2.280  1.00 20.00     0.130 C 
HETATM    8  C8  UNL     1     -34.282   6.796   2.950  1.00 20.00     0.068 C 
HETATM    9  O9  UNL     1     -31.683   5.814   0.600  1.00 20.00    -0.297 OA
HETATM   10  S10 UNL     1     -32.619   4.554   3.431  1.00 20.00    -0.155 SA
HETATM   11  S11 UNL     1     -35.743   6.093   3.802  1.00 20.00    -0.162 SA
ENDROOT
TORSDOF 0
ENDMDL
MODEL 3
REMARK VINA RESULT:       4.4      1.515      2.701
REMARK  0 active torsions:
REMARK  status: ('A' for Active; 'I' for Inactive)
ROOT
HETATM    1  C1  UNL     1     -34.946   5.702   4.051  1.00 20.00     0.141 C 
HETATM    2  C2  UNL     1     -34.573   4.259   4.333  1.00 20.00     0.079 C 
HETATM    3  C3  UNL     1     -33.066   4.071   4.246  1.00 20.00     0.008 C 
HETATM    4  C4  UNL     1     -32.492   4.466   2.880  1.00 20.00     0.017 C 
HETATM    5  C5  UNL     1     -32.263   8.406   2.446  1.00 20.00     0.085 C 
HETATM    6  C6  UNL     1     -31.464   7.419   1.611  1.00 20.00     0.084 C 
HETATM    7  C7  UNL     1     -34.138   6.447   2.996  1.00 20.00     0.130 C 
HETATM    8  C8  UNL     1     -33.397   5.441   2.108  1.00 20.00     0.068 C 
HETATM    9  O9  UNL     1     -35.884   6.239   4.640  1.00 20.00    -0.297 OA
HETATM   10  S10 UNL     1     -33.061   7.626   3.877  1.00 20.00    -0.155 SA
HETATM   11  S11 UNL     1     -32.509   6.230   0.714  1.00 20.00    -0.162 SA
ENDROOT
TORSDOF 0
ENDMDL
