MODEL 1
REMARK VINA RESULT:      -1.4      0.000      0.000
REMARK  0 active torsions:
REMARK  status: ('A' for Active; 'I' for Inactive)
ROOT
HETATM    1  C1  UNL     1     -31.488   8.144   2.466  1.00 20.00     0.080 A 
HETATM    2  C2  UNL     1     -32.550   8.690   1.565  1.00 20.00     0.207 A 
HETATM    3  C3  UNL     1     -32.773   7.379   2.260  1.00 20.00     0.128 A 
HETATM    4  F4  UNL     1     -32.292   8.682   0.205  1.00 20.00    -0.246 F 
HETATM    5 CL5  UNL     1     -32.709   5.901   1.305  1.00 20.00    -0.103 Cl
HETATM    6 BR6  UNL     1     -34.029   7.339   3.703  1.00 20.00    -0.065 Br
ENDROOT
TORSDOF 0
ENDMDL
MODEL 2
REMARK VINA RESULT:      -1.4      2.272      2.431
REMARK  0 active torsions:
REMARK  status: ('A' for Active; 'I' for Inactive)
ROOT
HETATM    1  C1  UNL     1     -32.514   8.549   1.374  1.00 20.00     0.080 A 
HETATM    2  C2  UNL     1     -31.453   8.063   2.310  1.00 20.00     0.207 A 
HETATM    3  C3  UNL     1     -32.734   7.292   2.180  1.00 20.00     0.128 A 
HETATM    4  F4  UNL     1     -31.239   8.799   3.463  1.00 20.00    -0.246 F 
HETATM    5 CL5  UNL     1     -33.890   7.353   3.506  1.00 20.00    -0.103 Cl
HETATM    6 BR6  UNL     1     -32.675   5.618   1.254  1.00 20.00    -0.065 Br
ENDROOT
TORSDOF 0
ENDMDL
MODEL 3
REMARK VINA RESULT:      -1.4      3.391      3.892
REMARK  0 active torsions:
REMARK  status: ('A' for Active; 'I' for Inactive)
ROOT
HETATM    1  C1  UNL     1     -35.572   6.243   3.641  1.00 20.00     0.080 A 
HETATM    2  C2  UNL     1     -34.602   5.404   4.412  1.00 20.00     0.207 A 
HETATM    3  C3  UNL     1     -34.093   6.543   3.577  1.00 20.00     0.128 A 
HETATM    4  F4  UNL     1     -34.390   4.111   3.965  1.00 20.00    -0.246 F 
HETATM    5 CL5  UNL     1     -33.241   6.173   2.082  1.00 20.00    -0.103 Cl
HETATM    6 BR6  UNL     1     -33.459   8.101   4.490  1.00 20.00    -0.065 Br
ENDROOT
TORSDOF 0
ENDMDL
MODEL 4
REMARK VINA RESULT:      -1.3      2.221      2.682
REMARK  0 active torsions:
REMARK  status: ('A' for Active; 'I' for Inactive)
ROOT
HETATM    1  C1  UNL     1     -33.573   6.029   0.864  1.00 20.00     0.080 A 
HETATM    2  C2  UNL     1     -32.570   5.350   1.742  1.00 20.00     0.207 A 
HETATM    3  C3  UNL     1     -33.056   6.725   2.100  1.00 20.00     0.128 A 
HETATM    4  F4  UNL     1     -31.285   5.213   1.246  1.00 20.00    -0.246 F 
HETATM    5 CL5  UNL     1     -31.961   8.085   1.884  1.00 20.00    -0.103 Cl
HETATM    6 BR6  UNL     1     -34.241   6.888   3.594  1.00 20.00    -0.065 Br
ENDROOT
TORSDOF 0
ENDMDL
MODEL 5
REMARK VINA RESULT:      -1.0      2.851      2.982
REMARK  0 active torsions:
REMARK  status: ('A' for Active; 'I' for Inactive)
ROOT
HETATM    1  C1  UNL     1     -31.812   6.590   1.509  1.00 20.00     0.080 A 
HETATM    2  C2  UNL     1     -33.247   6.880   1.818  1.00 20.00     0.207 A 
HETATM    3  C3  UNL     1     -32.236   7.987   1.892  1.00 20.00     0.128 A 
HETATM    4  F4  UNL     1     -33.755   6.369   3.000  1.00 20.00    -0.246 F 
HETATM    5 CL5  UNL     1     -31.762   8.587   3.477  1.00 20.00    -0.103 Cl
HETATM    6 BR6  UNL     1     -32.272   9.317   0.516  1.00 20.00    -0.065 Br
ENDROOT
TORSDOF 0
ENDMDL
MODEL 6
REMARK VINA RESULT:      -1.0      3.386      3.651
REMARK  0 active torsions:
REMARK  status: ('A' for Active; 'I' for Inactive)
ROOT
HETATM    1  C1  UNL     1     -33.563   5.651   3.527  1.00 20.00     0.080 A 
HETATM    2  C2  UNL     1     -34.725   6.457   3.039  1.00 20.00     0.207 A 
HETATM    3  C3  UNL     1     -33.451   7.152   3.420  1.00 20.00     0.128 A 
HETATM    4  F4  UNL     1     -35.817   6.569   3.882  1.00 20.00    -0.246 F 
HETATM    5 CL5  UNL     1     -33.417   8.086   4.912  1.00 20.00    -0.103 Cl
HETATM    6 BR6  UNL     1     -32.372   7.867   2.011  1.00 20.00    -0.065 Br
ENDROOT
TORSDOF 0
ENDMDL
MODEL 7
REMARK VINA RESULT:      -1.0      3.476      3.648
REMARK  0 active torsions:
REMARK  status: ('A' for Active; 'I' for Inactive)
ROOT
HETATM    1  C1  UNL     1     -35.255   6.914   3.135  1.00 20.00     0.080 A 
HETATM    2  C2  UNL     1     -34.044   7.419   3.854  1.00 20.00     0.207 A 
HETATM    3  C3  UNL     1     -34.027   6.044   3.252  1.00 20.00     0.128 A 
HETATM    4  F4  UNL     1     -34.128   7.536   5.231  1.00 20.00    -0.246 F 
HETATM    5 CL5  UNL     1     -34.100   4.654   4.330  1.00 20.00    -0.103 Cl
HETATM    6 BR6  UNL     1     -32.972   5.775   1.679  1.00 20.00    -0.065 Br
ENDROOT
TORSDOF 0
ENDMDL
MODEL 8
REMARK VINA RESULT:      -0.9      3.454      3.585
REMARK  0 active torsions:
REMARK  status: ('A' for Active; 'I' for Inactive)
ROOT
HETATM    1  C1  UNL     1     -34.238   6.841   4.398  1.00 20.00     0.080 A 
HETATM    2  C2  UNL     1     -35.473   6.214   3.832  1.00 20.00     0.207 A 
HETATM    3  C3  UNL     1     -34.131   5.622   3.513  1.00 20.00     0.128 A 
HETATM    4  F4  UNL     1     -36.140   6.912   2.840  1.00 20.00    -0.246 F 
HETATM    5 CL5  UNL     1     -33.484   5.835   1.890  1.00 20.00    -0.103 Cl
HETATM    6 BR6  UNL     1     -33.674   3.958   4.339  1.00 20.00    -0.065 Br
ENDROOT
TORSDOF 0
ENDMDL
MODEL 9
REMARK VINA RESULT:      -0.7      2.504      2.716
REMARK  0 active torsions:
REMARK  status: ('A' for Active; 'I' for Inactive)
ROOT
HETATM    1  C1  UNL     1     -33.726   6.035   1.364  1.00 20.00     0.080 A 
HETATM    2  C2  UNL     1     -32.362   6.137   1.971  1.00 20.00     0.207 A 
HETATM    3  C3  UNL     1     -33.563   6.025   2.865  1.00 20.00     0.128 A 
HETATM    4  F4  UNL     1     -31.718   7.359   1.880  1.00 20.00    -0.246 F 
HETATM    5 CL5  UNL     1     -34.079   7.449   3.760  1.00 20.00    -0.103 Cl
HETATM    6 BR6  UNL     1     -33.838   4.367   3.780  1.00 20.00    -0.065 Br
ENDROOT
TORSDOF 0
ENDMDL
