MODEL 1
REMARK VINA RESULT:      -3.2      0.000      0.000
REMARK  4 active torsions:
REMARK  status: ('A' for Active; 'I' for Inactive)
REMARK    1  A    between atoms: C3_3  and  C5_5 
REMARK    2  A    between atoms: C5_5  and  N8_8 
REMARK    3  A    between atoms: C6_6  and  C7_7 
REMARK    4  A    between atoms: C6_6  and  N8_8 
ROOT
HETATM    1  N8  UNL     1     -31.949   8.149   2.000  1.00 20.00     0.089 N 
HETATM    2  H23 UNL     1     -31.063   7.770   2.352  1.00 20.00     0.316 HD
ENDROOT
BRANCH   1   3
HETATM    3  C5  UNL     1     -32.934   7.106   1.911  1.00 20.00     0.274 C 
BRANCH   3   4
HETATM    4  C3  UNL     1     -33.393   6.679   3.262  1.00 20.00     0.018 A 
HETATM    5  C1  UNL     1     -34.032   7.674   4.195  1.00 20.00     0.011 A 
HETATM    6  C2  UNL     1     -34.865   6.588   3.567  1.00 20.00    -0.013 A 
HETATM    7  C4  UNL     1     -35.388   5.469   4.400  1.00 20.00     0.010 C 
ENDBRANCH   3   4
ENDBRANCH   1   3
BRANCH   1   8
HETATM    8  C6  UNL     1     -31.701   8.772   0.700  1.00 20.00     0.340 C 
BRANCH   8   9
HETATM    9  C7  UNL     1     -32.739   9.836   0.412  1.00 20.00     0.381 C 
HETATM   10  F9  UNL     1     -33.050   9.835  -0.908  1.00 20.00    -0.213 F 
HETATM   11  F10 UNL     1     -32.210  11.057   0.682  1.00 20.00    -0.213 F 
ENDBRANCH   8   9
ENDBRANCH   1   8
TORSDOF 4
ENDMDL
MODEL 2
REMARK VINA RESULT:      -2.9      3.334      4.958
REMARK  4 active torsions:
REMARK  status: ('A' for Active; 'I' for Inactive)
REMARK    1  A    between atoms: C3_3  and  C5_5 
REMARK    2  A    between atoms: C5_5  and  N8_8 
REMARK    3  A    between atoms: C6_6  and  C7_7 
REMARK    4  A    between atoms: C6_6  and  N8_8 
ROOT
HETATM    1  N8  UNL     1     -33.502   5.721   2.710  1.00 20.00     0.089 N 
HETATM    2  H23 UNL     1     -32.929   5.090   3.281  1.00 20.00     0.316 HD
ENDROOT
BRANCH   1   3
HETATM    3  C5  UNL     1     -32.710   6.296   1.657  1.00 20.00     0.274 C 
BRANCH   3   4
HETATM    4  C3  UNL     1     -32.619   7.776   1.797  1.00 20.00     0.018 A 
HETATM    5  C1  UNL     1     -31.297   8.428   2.107  1.00 20.00     0.011 A 
HETATM    6  C2  UNL     1     -31.916   8.592   0.744  1.00 20.00    -0.013 A 
HETATM    7  C4  UNL     1     -32.469   9.911   0.327  1.00 20.00     0.010 C 
ENDBRANCH   3   4
ENDBRANCH   1   3
BRANCH   1   8
HETATM    8  C6  UNL     1     -34.067   6.749   3.585  1.00 20.00     0.340 C 
BRANCH   8   9
HETATM    9  C7  UNL     1     -35.372   6.275   4.189  1.00 20.00     0.381 C 
HETATM   10  F9  UNL     1     -35.325   4.937   4.402  1.00 20.00    -0.213 F 
HETATM   11  F10 UNL     1     -36.376   6.489   3.300  1.00 20.00    -0.213 F 
ENDBRANCH   8   9
ENDBRANCH   1   8
TORSDOF 4
ENDMDL
MODEL 3
REMARK VINA RESULT:      -2.6      3.150      4.809
REMARK  4 active torsions:
REMARK  status: ('A' for Active; 'I' for Inactive)
REMARK    1  A    between atoms: C3_3  and  C5_5 
REMARK    2  A    between atoms: C5_5  and  N8_8 
REMARK    3  A    between atoms: C6_6  and  C7_7 
REMARK    4  A    between atoms: C6_6  and  N8_8 
ROOT
HETATM    1  N8  UNL     1     -33.475   5.540   1.984  1.00 20.00     0.089 N 
HETATM    2  H23 UNL     1     -33.363   4.538   1.793  1.00 20.00     0.316 HD
ENDROOT
BRANCH   1   3
HETATM    3  C5  UNL     1     -32.356   6.274   1.459  1.00 20.00     0.274 C 
BRANCH   3   4
HETATM    4  C3  UNL     1     -32.524   7.739   1.670  1.00 20.00     0.018 A 
HETATM    5  C1  UNL     1     -31.390   8.559   2.226  1.00 20.00     0.011 A 
HETATM    6  C2  UNL     1     -31.798   8.717   0.785  1.00 20.00    -0.013 A 
HETATM    7  C4  UNL     1     -32.477   9.963   0.332  1.00 20.00     0.010 C 
ENDBRANCH   3   4
ENDBRANCH   1   3
BRANCH   1   8
HETATM    8  C6  UNL     1     -33.610   5.722   3.430  1.00 20.00     0.340 C 
BRANCH   8   9
HETATM    9  C7  UNL     1     -34.852   6.525   3.752  1.00 20.00     0.381 C 
HETATM   10  F9  UNL     1     -34.521   7.613   4.491  1.00 20.00    -0.213 F 
HETATM   11  F10 UNL     1     -35.679   5.773   4.524  1.00 20.00    -0.213 F 
ENDBRANCH   8   9
ENDBRANCH   1   8
TORSDOF 4
ENDMDL
MODEL 4
REMARK VINA RESULT:      -2.5      3.268      5.190
REMARK  4 active torsions:
REMARK  status: ('A' for Active; 'I' for Inactive)
REMARK    1  A    between atoms: C3_3  and  C5_5 
REMARK    2  A    between atoms: C5_5  and  N8_8 
REMARK    3  A    between atoms: C6_6  and  C7_7 
REMARK    4  A    between atoms: C6_6  and  N8_8 
ROOT
HETATM    1  N8  UNL     1     -33.343   7.305   2.997  1.00 20.00     0.089 N 
HETATM    2  H23 UNL     1     -34.103   7.974   2.833  1.00 20.00     0.316 HD
ENDROOT
BRANCH   1   3
HETATM    3  C5  UNL     1     -32.491   7.228   1.843  1.00 20.00     0.274 C 
BRANCH   3   4
HETATM    4  C3  UNL     1     -31.956   8.569   1.475  1.00 20.00     0.018 A 
HETATM    5  C1  UNL     1     -31.143   8.742   0.220  1.00 20.00     0.011 A 
HETATM    6  C2  UNL     1     -32.533   9.316   0.302  1.00 20.00    -0.013 A 
HETATM    7  C4  UNL     1     -32.730  10.791   0.379  1.00 20.00     0.010 C 
ENDBRANCH   3   4
ENDBRANCH   1   3
BRANCH   1   8
HETATM    8  C6  UNL     1     -33.933   6.007   3.322  1.00 20.00     0.340 C 
BRANCH   8   9
HETATM    9  C7  UNL     1     -35.193   6.185   4.143  1.00 20.00     0.381 C 
HETATM   10  F9  UNL     1     -35.588   4.991   4.651  1.00 20.00    -0.213 F 
HETATM   11  F10 UNL     1     -36.196   6.609   3.331  1.00 20.00    -0.213 F 
ENDBRANCH   8   9
ENDBRANCH   1   8
TORSDOF 4
ENDMDL
MODEL 5
REMARK VINA RESULT:      -2.3      0.781      1.123
REMARK  4 active torsions:
REMARK  status: ('A' for Active; 'I' for Inactive)
REMARK    1  A    between atoms: C3_3  and  C5_5 
REMARK    2  A    between atoms: C5_5  and  N8_8 
REMARK    3  A    between atoms: C6_6  and  C7_7 
REMARK    4  A    between atoms: C6_6  and  N8_8 
ROOT
HETATM    1  N8  UNL     1     -31.592   7.814   1.221  1.00 20.00     0.089 N 
HETATM    2  H23 UNL     1     -32.061   7.164   0.579  1.00 20.00     0.316 HD
ENDROOT
BRANCH   1   3
HETATM    3  C5  UNL     1     -32.395   8.016   2.396  1.00 20.00     0.274 C 
BRANCH   3   4
HETATM    4  C3  UNL     1     -33.583   7.118   2.399  1.00 20.00     0.018 A 
HETATM    5  C1  UNL     1     -33.405   5.625   2.471  1.00 20.00     0.011 A 
HETATM    6  C2  UNL     1     -33.965   6.374   3.651  1.00 20.00    -0.013 A 
HETATM    7  C4  UNL     1     -35.399   6.221   4.023  1.00 20.00     0.010 C 
ENDBRANCH   3   4
ENDBRANCH   1   3
BRANCH   1   8
HETATM    8  C6  UNL     1     -31.349   9.069   0.510  1.00 20.00     0.340 C 
BRANCH   8   9
HETATM    9  C7  UNL     1     -32.624   9.881   0.410  1.00 20.00     0.381 C 
HETATM   10  F9  UNL     1     -33.070   9.887  -0.870  1.00 20.00    -0.213 F 
HETATM   11  F10 UNL     1     -32.354  11.173   0.730  1.00 20.00    -0.213 F 
ENDBRANCH   8   9
ENDBRANCH   1   8
TORSDOF 4
ENDMDL
MODEL 6
REMARK VINA RESULT:      -2.1      1.392      1.545
REMARK  4 active torsions:
REMARK  status: ('A' for Active; 'I' for Inactive)
REMARK    1  A    between atoms: C3_3  and  C5_5 
REMARK    2  A    between atoms: C5_5  and  N8_8 
REMARK    3  A    between atoms: C6_6  and  C7_7 
REMARK    4  A    between atoms: C6_6  and  N8_8 
ROOT
HETATM    1  N8  UNL     1     -32.004   6.931   1.555  1.00 20.00     0.089 N 
HETATM    2  H23 UNL     1     -31.703   6.754   0.590  1.00 20.00     0.316 HD
ENDROOT
BRANCH   1   3
HETATM    3  C5  UNL     1     -33.288   6.331   1.793  1.00 20.00     0.274 C 
BRANCH   3   4
HETATM    4  C3  UNL     1     -33.421   5.882   3.207  1.00 20.00     0.018 A 
HETATM    5  C1  UNL     1     -34.737   6.020   3.926  1.00 20.00     0.011 A 
HETATM    6  C2  UNL     1     -34.231   4.656   3.538  1.00 20.00    -0.013 A 
HETATM    7  C4  UNL     1     -33.759   3.707   4.584  1.00 20.00     0.010 C 
ENDBRANCH   3   4
ENDBRANCH   1   3
BRANCH   1   8
HETATM    8  C6  UNL     1     -32.034   8.377   1.771  1.00 20.00     0.340 C 
BRANCH   8   9
HETATM    9  C7  UNL     1     -32.278   9.106   0.467  1.00 20.00     0.381 C 
HETATM   10  F9  UNL     1     -31.106   9.280  -0.193  1.00 20.00    -0.213 F 
HETATM   11  F10 UNL     1     -32.757  10.348   0.735  1.00 20.00    -0.213 F 
ENDBRANCH   8   9
ENDBRANCH   1   8
TORSDOF 4
ENDMDL
MODEL 7
REMARK VINA RESULT:      -2.0      3.908      5.420
REMARK  4 active torsions:
REMARK  status: ('A' for Active; 'I' for Inactive)
REMARK    1  A    between atoms: C3_3  and  C5_5 
REMARK    2  A    between atoms: C5_5  and  N8_8 
REMARK    3  A    between atoms: C6_6  and  C7_7 
REMARK    4  A    between atoms: C6_6  and  N8_8 
ROOT
HETATM    1  N8  UNL     1     -33.341   5.449   1.902  1.00 20.00     0.089 N 
HETATM    2  H23 UNL     1     -33.179   4.463   1.669  1.00 20.00     0.316 HD
ENDROOT
BRANCH   1   3
HETATM    3  C5  UNL     1     -32.218   6.248   1.493  1.00 20.00     0.274 C 
BRANCH   3   4
HETATM    4  C3  UNL     1     -32.487   7.699   1.691  1.00 20.00     0.018 A 
HETATM    5  C1  UNL     1     -31.434   8.589   2.296  1.00 20.00     0.011 A 
HETATM    6  C2  UNL     1     -31.784   8.722   0.837  1.00 20.00    -0.013 A 
HETATM    7  C4  UNL     1     -32.519   9.922   0.350  1.00 20.00     0.010 C 
ENDBRANCH   3   4
ENDBRANCH   1   3
BRANCH   1   8
HETATM    8  C6  UNL     1     -33.580   5.550   3.342  1.00 20.00     0.340 C 
BRANCH   8   9
HETATM    9  C7  UNL     1     -34.249   4.294   3.860  1.00 20.00     0.381 C 
HETATM   10  F9  UNL     1     -35.273   4.621   4.686  1.00 20.00    -0.213 F 
HETATM   11  F10 UNL     1     -33.358   3.594   4.609  1.00 20.00    -0.213 F 
ENDBRANCH   8   9
ENDBRANCH   1   8
TORSDOF 4
ENDMDL
MODEL 8
REMARK VINA RESULT:      -2.0      0.820      1.716
REMARK  4 active torsions:
REMARK  status: ('A' for Active; 'I' for Inactive)
REMARK    1  A    between atoms: C3_3  and  C5_5 
REMARK    2  A    between atoms: C5_5  and  N8_8 
REMARK    3  A    between atoms: C6_6  and  C7_7 
REMARK    4  A    between atoms: C6_6  and  N8_8 
ROOT
HETATM    1  N8  UNL     1     -32.013   7.351   1.180  1.00 20.00     0.089 N 
HETATM    2  H23 UNL     1     -32.142   7.227   0.170  1.00 20.00     0.316 HD
ENDROOT
BRANCH   1   3
HETATM    3  C5  UNL     1     -32.880   6.462   1.905  1.00 20.00     0.274 C 
BRANCH   3   4
HETATM    4  C3  UNL     1     -33.789   7.216   2.813  1.00 20.00     0.018 A 
HETATM    5  C1  UNL     1     -34.805   6.482   3.646  1.00 20.00     0.011 A 
HETATM    6  C2  UNL     1     -33.613   7.123   4.305  1.00 20.00    -0.013 A 
HETATM    7  C4  UNL     1     -33.788   8.333   5.156  1.00 20.00     0.010 C 
ENDBRANCH   3   4
ENDBRANCH   1   3
BRANCH   1   8
HETATM    8  C6  UNL     1     -32.276   8.752   1.510  1.00 20.00     0.340 C 
BRANCH   8   9
HETATM    9  C7  UNL     1     -32.102   9.629   0.288  1.00 20.00     0.381 C 
HETATM   10  F9  UNL     1     -32.371  10.920   0.603  1.00 20.00    -0.213 F 
HETATM   11  F10 UNL     1     -33.011   9.264  -0.653  1.00 20.00    -0.213 F 
ENDBRANCH   8   9
ENDBRANCH   1   8
TORSDOF 4
ENDMDL
MODEL 9
REMARK VINA RESULT:      -2.0      3.722      5.009
REMARK  4 active torsions:
REMARK  status: ('A' for Active; 'I' for Inactive)
REMARK    1  A    between atoms: C3_3  and  C5_5 
REMARK    2  A    between atoms: C5_5  and  N8_8 
REMARK    3  A    between atoms: C6_6  and  C7_7 
REMARK    4  A    between atoms: C6_6  and  N8_8 
ROOT
HETATM    1  N8  UNL     1     -34.218   7.595   4.355  1.00 20.00     0.089 N 
HETATM    2  H23 UNL     1     -34.884   8.376   4.363  1.00 20.00     0.316 HD
ENDROOT
BRANCH   1   3
HETATM    3  C5  UNL     1     -33.002   7.986   3.696  1.00 20.00     0.274 C 
BRANCH   3   4
HETATM    4  C3  UNL     1     -32.976   7.510   2.284  1.00 20.00     0.018 A 
HETATM    5  C1  UNL     1     -31.885   7.965   1.352  1.00 20.00     0.011 A 
HETATM    6  C2  UNL     1     -31.918   6.539   1.834  1.00 20.00    -0.013 A 
HETATM    7  C4  UNL     1     -32.265   5.438   0.892  1.00 20.00     0.010 C 
ENDBRANCH   3   4
ENDBRANCH   1   3
BRANCH   1   8
HETATM    8  C6  UNL     1     -34.852   6.456   3.691  1.00 20.00     0.340 C 
BRANCH   8   9
HETATM    9  C7  UNL     1     -34.526   5.167   4.416  1.00 20.00     0.381 C 
HETATM   10  F9  UNL     1     -33.860   4.325   3.588  1.00 20.00    -0.213 F 
HETATM   11  F10 UNL     1     -35.684   4.542   4.752  1.00 20.00    -0.213 F 
ENDBRANCH   8   9
ENDBRANCH   1   8
TORSDOF 4
ENDMDL
