MODEL 1
REMARK VINA RESULT:      -1.1      0.000      0.000
REMARK  3 active torsions:
REMARK  status: ('A' for Active; 'I' for Inactive)
REMARK       I    between atoms: C1_1  and  N10_10 
REMARK    1  A    between atoms: C7_7  and  C8_8 
REMARK    2  A    between atoms: C7_7  and  N10_10 
REMARK    3  A    between atoms: C8_8  and  C9_9 
ROOT
HETATM    1  C7  UNL     1     -32.383   7.929   2.285  1.00 20.00     0.127 C 
ENDROOT
BRANCH   1   2
HETATM    2  C8  UNL     1     -33.427   6.799   2.169  1.00 20.00     0.007 C 
HETATM    3  C3  UNL     1     -32.750   5.537   1.602  1.00 20.00     0.012 C 
BRANCH   2   4
HETATM    4  C9  UNL     1     -34.211   6.534   3.510  1.00 20.00    -0.047 C 
HETATM    5  C4  UNL     1     -33.776   7.546   4.593  1.00 20.00     0.015 C 
HETATM    6  C5  UNL     1     -33.974   5.112   4.055  1.00 20.00     0.015 C 
HETATM    7  C6  UNL     1     -35.730   6.724   3.299  1.00 20.00     0.015 C 
ENDBRANCH   2   4
ENDBRANCH   1   2
BRANCH   1   8
HETATM    8  N10 UNL     1     -32.025   8.479   1.004  1.00 20.00    -0.361 N 
HETATM    9  C1  UNL     1     -32.453   9.720   0.562  1.00 20.00     0.213 C 
HETATM   10  C2  UNL     1     -31.959  10.090  -0.797  1.00 20.00     0.117 C 
HETATM   11  O11 UNL     1     -33.172  10.499   1.177  1.00 20.00    -0.274 OA
HETATM   12  H30 UNL     1     -31.426   7.929   0.392  1.00 20.00     0.162 HD
ENDBRANCH   1   8
TORSDOF 3
ENDMDL
MODEL 2
REMARK VINA RESULT:      -0.2      2.756      5.028
REMARK  3 active torsions:
REMARK  status: ('A' for Active; 'I' for Inactive)
REMARK       I    between atoms: C1_1  and  N10_10 
REMARK    1  A    between atoms: C7_7  and  C8_8 
REMARK    2  A    between atoms: C7_7  and  N10_10 
REMARK    3  A    between atoms: C8_8  and  C9_9 
ROOT
HETATM    1  C7  UNL     1     -34.385   6.641   3.001  1.00 20.00     0.127 C 
ENDROOT
BRANCH   1   2
HETATM    2  C8  UNL     1     -33.484   7.887   3.143  1.00 20.00     0.007 C 
HETATM    3  C3  UNL     1     -33.001   8.002   4.600  1.00 20.00     0.012 C 
BRANCH   2   4
HETATM    4  C9  UNL     1     -32.309   7.929   2.093  1.00 20.00    -0.047 C 
HETATM    5  C4  UNL     1     -32.600   8.987   1.006  1.00 20.00     0.015 C 
HETATM    6  C5  UNL     1     -32.096   6.570   1.400  1.00 20.00     0.015 C 
HETATM    7  C6  UNL     1     -30.985   8.336   2.777  1.00 20.00     0.015 C 
ENDBRANCH   2   4
ENDBRANCH   1   2
BRANCH   1   8
HETATM    8  N10 UNL     1     -33.728   5.437   3.438  1.00 20.00    -0.361 N 
HETATM    9  C1  UNL     1     -34.326   4.501   4.265  1.00 20.00     0.213 C 
HETATM   10  C2  UNL     1     -33.462   3.328   4.590  1.00 20.00     0.117 C 
HETATM   11  O11 UNL     1     -35.460   4.562   4.727  1.00 20.00    -0.274 OA
HETATM   12  H30 UNL     1     -32.776   5.264   3.123  1.00 20.00     0.162 HD
ENDBRANCH   1   8
TORSDOF 3
ENDMDL
MODEL 3
REMARK VINA RESULT:      -0.2      2.752      5.029
REMARK  3 active torsions:
REMARK  status: ('A' for Active; 'I' for Inactive)
REMARK       I    between atoms: C1_1  and  N10_10 
REMARK    1  A    between atoms: C7_7  and  C8_8 
REMARK    2  A    between atoms: C7_7  and  N10_10 
REMARK    3  A    between atoms: C8_8  and  C9_9 
ROOT
HETATM    1  C7  UNL     1     -34.378   6.634   2.984  1.00 20.00     0.127 C 
ENDROOT
BRANCH   1   2
HETATM    2  C8  UNL     1     -33.490   7.887   3.146  1.00 20.00     0.007 C 
HETATM    3  C3  UNL     1     -33.002   7.979   4.604  1.00 20.00     0.012 C 
BRANCH   2   4
HETATM    4  C9  UNL     1     -32.320   7.962   2.094  1.00 20.00    -0.047 C 
HETATM    5  C4  UNL     1     -30.994   8.334   2.793  1.00 20.00     0.015 C 
HETATM    6  C5  UNL     1     -32.593   9.002   0.990  1.00 20.00     0.015 C 
HETATM    7  C6  UNL     1     -32.105   6.588   1.421  1.00 20.00     0.015 C 
ENDBRANCH   2   4
ENDBRANCH   1   2
BRANCH   1   8
HETATM    8  N10 UNL     1     -33.722   5.435   3.437  1.00 20.00    -0.361 N 
HETATM    9  C1  UNL     1     -34.325   4.505   4.267  1.00 20.00     0.213 C 
HETATM   10  C2  UNL     1     -33.461   3.336   4.607  1.00 20.00     0.117 C 
HETATM   11  O11 UNL     1     -35.463   4.567   4.719  1.00 20.00    -0.274 OA
HETATM   12  H30 UNL     1     -32.768   5.261   3.130  1.00 20.00     0.162 HD
ENDBRANCH   1   8
TORSDOF 3
ENDMDL
MODEL 4
REMARK VINA RESULT:      -0.2      2.753      5.030
REMARK  3 active torsions:
REMARK  status: ('A' for Active; 'I' for Inactive)
REMARK       I    between atoms: C1_1  and  N10_10 
REMARK    1  A    between atoms: C7_7  and  C8_8 
REMARK    2  A    between atoms: C7_7  and  N10_10 
REMARK    3  A    between atoms: C8_8  and  C9_9 
ROOT
HETATM    1  C7  UNL     1     -34.383   6.639   2.986  1.00 20.00     0.127 C 
ENDROOT
BRANCH   1   2
HETATM    2  C8  UNL     1     -33.495   7.891   3.150  1.00 20.00     0.007 C 
HETATM    3  C3  UNL     1     -33.028   7.994   4.614  1.00 20.00     0.012 C 
BRANCH   2   4
HETATM    4  C9  UNL     1     -32.310   7.955   2.114  1.00 20.00    -0.047 C 
HETATM    5  C4  UNL     1     -32.133   6.588   1.418  1.00 20.00     0.015 C 
HETATM    6  C5  UNL     1     -30.973   8.336   2.778  1.00 20.00     0.015 C 
HETATM    7  C6  UNL     1     -32.612   8.989   1.006  1.00 20.00     0.015 C 
ENDBRANCH   2   4
ENDBRANCH   1   2
BRANCH   1   8
HETATM    8  N10 UNL     1     -33.725   5.438   3.432  1.00 20.00    -0.361 N 
HETATM    9  C1  UNL     1     -34.329   4.500   4.253  1.00 20.00     0.213 C 
HETATM   10  C2  UNL     1     -33.463   3.332   4.588  1.00 20.00     0.117 C 
HETATM   11  O11 UNL     1     -35.469   4.557   4.701  1.00 20.00    -0.274 OA
HETATM   12  H30 UNL     1     -32.769   5.269   3.128  1.00 20.00     0.162 HD
ENDBRANCH   1   8
TORSDOF 3
ENDMDL
MODEL 5
REMARK VINA RESULT:       0.3      1.224      1.981
REMARK  3 active torsions:
REMARK  status: ('A' for Active; 'I' for Inactive)
REMARK       I    between atoms: C1_1  and  N10_10 
REMARK    1  A    between atoms: C7_7  and  C8_8 
REMARK    2  A    between atoms: C7_7  and  N10_10 
REMARK    3  A    between atoms: C8_8  and  C9_9 
ROOT
HETATM    1  C7  UNL     1     -32.100   7.591   2.467  1.00 20.00     0.127 C 
ENDROOT
BRANCH   1   2
HETATM    2  C8  UNL     1     -33.003   7.107   3.621  1.00 20.00     0.007 C 
HETATM    3  C3  UNL     1     -33.731   8.316   4.238  1.00 20.00     0.012 C 
BRANCH   2   4
HETATM    4  C9  UNL     1     -33.977   5.942   3.203  1.00 20.00    -0.047 C 
HETATM    5  C4  UNL     1     -35.442   6.343   3.482  1.00 20.00     0.015 C 
HETATM    6  C5  UNL     1     -33.682   4.633   3.961  1.00 20.00     0.015 C 
HETATM    7  C6  UNL     1     -33.868   5.658   1.688  1.00 20.00     0.015 C 
ENDBRANCH   2   4
ENDBRANCH   1   2
BRANCH   1   8
HETATM    8  N10 UNL     1     -32.604   8.785   1.840  1.00 20.00    -0.361 N 
HETATM    9  C1  UNL     1     -32.101   9.292   0.653  1.00 20.00     0.213 C 
HETATM   10  C2  UNL     1     -32.775  10.538   0.184  1.00 20.00     0.117 C 
HETATM   11  O11 UNL     1     -31.188   8.813  -0.010  1.00 20.00    -0.274 OA
HETATM   12  H30 UNL     1     -33.369   9.282   2.290  1.00 20.00     0.162 HD
ENDBRANCH   1   8
TORSDOF 3
ENDMDL
MODEL 6
REMARK VINA RESULT:       0.3      1.219      2.240
REMARK  3 active torsions:
REMARK  status: ('A' for Active; 'I' for Inactive)
REMARK       I    between atoms: C1_1  and  N10_10 
REMARK    1  A    between atoms: C7_7  and  C8_8 
REMARK    2  A    between atoms: C7_7  and  N10_10 
REMARK    3  A    between atoms: C8_8  and  C9_9 
ROOT
HETATM    1  C7  UNL     1     -32.098   7.598   2.469  1.00 20.00     0.127 C 
ENDROOT
BRANCH   1   2
HETATM    2  C8  UNL     1     -32.998   7.113   3.624  1.00 20.00     0.007 C 
HETATM    3  C3  UNL     1     -33.699   8.324   4.267  1.00 20.00     0.012 C 
BRANCH   2   4
HETATM    4  C9  UNL     1     -33.998   5.971   3.198  1.00 20.00    -0.047 C 
HETATM    5  C4  UNL     1     -33.859   5.674   1.689  1.00 20.00     0.015 C 
HETATM    6  C5  UNL     1     -35.465   6.343   3.484  1.00 20.00     0.015 C 
HETATM    7  C6  UNL     1     -33.676   4.659   3.948  1.00 20.00     0.015 C 
ENDBRANCH   2   4
ENDBRANCH   1   2
BRANCH   1   8
HETATM    8  N10 UNL     1     -32.604   8.792   1.844  1.00 20.00    -0.361 N 
HETATM    9  C1  UNL     1     -32.104   9.300   0.656  1.00 20.00     0.213 C 
HETATM   10  C2  UNL     1     -32.780  10.547   0.190  1.00 20.00     0.117 C 
HETATM   11  O11 UNL     1     -31.190   8.823  -0.008  1.00 20.00    -0.274 OA
HETATM   12  H30 UNL     1     -33.369   9.288   2.296  1.00 20.00     0.162 HD
ENDBRANCH   1   8
TORSDOF 3
ENDMDL
MODEL 7
REMARK VINA RESULT:       0.7      1.403      2.173
REMARK  3 active torsions:
REMARK  status: ('A' for Active; 'I' for Inactive)
REMARK       I    between atoms: C1_1  and  N10_10 
REMARK    1  A    between atoms: C7_7  and  C8_8 
REMARK    2  A    between atoms: C7_7  and  N10_10 
REMARK    3  A    between atoms: C8_8  and  C9_9 
ROOT
HETATM    1  C7  UNL     1     -32.601   5.924   2.512  1.00 20.00     0.127 C 
ENDROOT
BRANCH   1   2
HETATM    2  C8  UNL     1     -33.949   5.302   2.932  1.00 20.00     0.007 C 
HETATM    3  C3  UNL     1     -33.693   3.944   3.612  1.00 20.00     0.012 C 
BRANCH   2   4
HETATM    4  C9  UNL     1     -34.839   6.272   3.798  1.00 20.00    -0.047 C 
HETATM    5  C4  UNL     1     -35.956   6.893   2.930  1.00 20.00     0.015 C 
HETATM    6  C5  UNL     1     -34.019   7.418   4.422  1.00 20.00     0.015 C 
HETATM    7  C6  UNL     1     -35.535   5.498   4.940  1.00 20.00     0.015 C 
ENDBRANCH   2   4
ENDBRANCH   1   2
BRANCH   1   8
HETATM    8  N10 UNL     1     -32.762   6.994   1.562  1.00 20.00    -0.361 N 
HETATM    9  C1  UNL     1     -32.060   8.186   1.632  1.00 20.00     0.213 C 
HETATM   10  C2  UNL     1     -32.384   9.152   0.541  1.00 20.00     0.117 C 
HETATM   11  O11 UNL     1     -31.232   8.490   2.483  1.00 20.00    -0.274 OA
HETATM   12  H30 UNL     1     -33.424   6.868   0.799  1.00 20.00     0.162 HD
ENDBRANCH   1   8
TORSDOF 3
ENDMDL
MODEL 8
REMARK VINA RESULT:       0.8      3.023      4.696
REMARK  3 active torsions:
REMARK  status: ('A' for Active; 'I' for Inactive)
REMARK       I    between atoms: C1_1  and  N10_10 
REMARK    1  A    between atoms: C7_7  and  C8_8 
REMARK    2  A    between atoms: C7_7  and  N10_10 
REMARK    3  A    between atoms: C8_8  and  C9_9 
ROOT
HETATM    1  C7  UNL     1     -33.420   5.500   2.340  1.00 20.00     0.127 C 
ENDROOT
BRANCH   1   2
HETATM    2  C8  UNL     1     -32.844   6.833   2.862  1.00 20.00     0.007 C 
HETATM    3  C3  UNL     1     -32.214   7.608   1.690  1.00 20.00     0.012 C 
BRANCH   2   4
HETATM    4  C9  UNL     1     -33.887   7.685   3.681  1.00 20.00    -0.047 C 
HETATM    5  C4  UNL     1     -34.191   9.009   2.946  1.00 20.00     0.015 C 
HETATM    6  C5  UNL     1     -33.383   8.023   5.097  1.00 20.00     0.015 C 
HETATM    7  C6  UNL     1     -35.226   6.924   3.812  1.00 20.00     0.015 C 
ENDBRANCH   2   4
ENDBRANCH   1   2
BRANCH   1   8
HETATM    8  N10 UNL     1     -32.985   4.371   3.122  1.00 20.00    -0.361 N 
HETATM    9  C1  UNL     1     -33.733   3.824   4.151  1.00 20.00     0.213 C 
HETATM   10  C2  UNL     1     -33.090   2.657   4.823  1.00 20.00     0.117 C 
HETATM   11  O11 UNL     1     -34.834   4.210   4.530  1.00 20.00    -0.274 OA
HETATM   12  H30 UNL     1     -32.083   3.953   2.907  1.00 20.00     0.162 HD
ENDBRANCH   1   8
TORSDOF 3
ENDMDL
MODEL 9
REMARK VINA RESULT:       0.9      2.912      5.101
REMARK  3 active torsions:
REMARK  status: ('A' for Active; 'I' for Inactive)
REMARK       I    between atoms: C1_1  and  N10_10 
REMARK    1  A    between atoms: C7_7  and  C8_8 
REMARK    2  A    between atoms: C7_7  and  N10_10 
REMARK    3  A    between atoms: C8_8  and  C9_9 
ROOT
HETATM    1  C7  UNL     1     -33.710   5.931   2.709  1.00 20.00     0.127 C 
ENDROOT
BRANCH   1   2
HETATM    2  C8  UNL     1     -32.720   6.472   1.656  1.00 20.00     0.007 C 
HETATM    3  C3  UNL     1     -33.330   6.307   0.251  1.00 20.00     0.012 C 
BRANCH   2   4
HETATM    4  C9  UNL     1     -32.235   7.942   1.954  1.00 20.00    -0.047 C 
HETATM    5  C4  UNL     1     -32.839   8.446   3.283  1.00 20.00     0.015 C 
HETATM    6  C5  UNL     1     -32.635   8.926   0.838  1.00 20.00     0.015 C 
HETATM    7  C6  UNL     1     -30.699   7.987   2.110  1.00 20.00     0.015 C 
ENDBRANCH   2   4
ENDBRANCH   1   2
BRANCH   1   8
HETATM    8  N10 UNL     1     -33.230   4.734   3.349  1.00 20.00    -0.361 N 
HETATM    9  C1  UNL     1     -33.959   4.033   4.295  1.00 20.00     0.213 C 
HETATM   10  C2  UNL     1     -33.269   2.820   4.825  1.00 20.00     0.117 C 
HETATM   11  O11 UNL     1     -35.077   4.321   4.709  1.00 20.00    -0.274 OA
HETATM   12  H30 UNL     1     -32.310   4.384   3.093  1.00 20.00     0.162 HD
ENDBRANCH   1   8
TORSDOF 3
ENDMDL
