MODEL 1
REMARK VINA RESULT:       1.1      0.000      0.000
REMARK  1 active torsions:
REMARK  status: ('A' for Active; 'I' for Inactive)
REMARK    1  A    between atoms: C4_4  and  C8_8 
ROOT
HETATM    1  C1  UNL     1     -34.149   5.097   3.658  1.00 20.00     0.137 C 
HETATM    2  C2  UNL     1     -33.010   5.635   2.831  1.00 20.00     0.095 C 
HETATM    3  C3  UNL     1     -35.004   6.143   4.324  1.00 20.00     0.152 C 
HETATM    4  C4  UNL     1     -33.427   7.023   2.366  1.00 20.00     0.062 C 
HETATM    5  O9  UNL     1     -34.336   3.894   3.822  1.00 20.00    -0.297 OA
HETATM    6  S10 UNL     1     -34.322   7.725   3.779  1.00 20.00    -0.156 SA
ENDROOT
BRANCH   4   7
HETATM    7  C8  UNL     1     -32.244   7.890   1.972  1.00 20.00    -0.038 C 
HETATM    8  C5  UNL     1     -32.708   8.971   0.984  1.00 20.00     0.015 C 
HETATM    9  C6  UNL     1     -31.169   7.018   1.308  1.00 20.00     0.015 C 
HETATM   10  C7  UNL     1     -31.659   8.559   3.225  1.00 20.00     0.015 C 
ENDBRANCH   4   7
TORSDOF 1
ENDMDL
MODEL 2
REMARK VINA RESULT:       1.1      0.003      1.374
REMARK  1 active torsions:
REMARK  status: ('A' for Active; 'I' for Inactive)
REMARK    1  A    between atoms: C4_4  and  C8_8 
ROOT
HETATM    1  C1  UNL     1     -34.151   5.100   3.660  1.00 20.00     0.137 C 
HETATM    2  C2  UNL     1     -33.011   5.637   2.833  1.00 20.00     0.095 C 
HETATM    3  C3  UNL     1     -35.006   6.147   4.325  1.00 20.00     0.152 C 
HETATM    4  C4  UNL     1     -33.428   7.025   2.366  1.00 20.00     0.062 C 
HETATM    5  O9  UNL     1     -34.339   3.898   3.825  1.00 20.00    -0.297 OA
HETATM    6  S10 UNL     1     -34.323   7.729   3.779  1.00 20.00    -0.156 SA
ENDROOT
BRANCH   4   7
HETATM    7  C8  UNL     1     -32.244   7.891   1.972  1.00 20.00    -0.038 C 
HETATM    8  C5  UNL     1     -31.169   7.017   1.308  1.00 20.00     0.015 C 
HETATM    9  C6  UNL     1     -31.658   8.560   3.224  1.00 20.00     0.015 C 
HETATM   10  C7  UNL     1     -32.707   8.972   0.983  1.00 20.00     0.015 C 
ENDBRANCH   4   7
TORSDOF 1
ENDMDL
MODEL 3
REMARK VINA RESULT:       1.1      0.001      1.374
REMARK  1 active torsions:
REMARK  status: ('A' for Active; 'I' for Inactive)
REMARK    1  A    between atoms: C4_4  and  C8_8 
ROOT
HETATM    1  C1  UNL     1     -34.148   5.095   3.658  1.00 20.00     0.137 C 
HETATM    2  C2  UNL     1     -33.009   5.634   2.830  1.00 20.00     0.095 C 
HETATM    3  C3  UNL     1     -35.004   6.141   4.324  1.00 20.00     0.152 C 
HETATM    4  C4  UNL     1     -33.427   7.023   2.365  1.00 20.00     0.062 C 
HETATM    5  O9  UNL     1     -34.335   3.893   3.821  1.00 20.00    -0.297 OA
HETATM    6  S10 UNL     1     -34.322   7.724   3.779  1.00 20.00    -0.156 SA
ENDROOT
BRANCH   4   7
HETATM    7  C8  UNL     1     -32.244   7.890   1.971  1.00 20.00    -0.038 C 
HETATM    8  C5  UNL     1     -31.660   8.559   3.225  1.00 20.00     0.015 C 
HETATM    9  C6  UNL     1     -32.708   8.971   0.984  1.00 20.00     0.015 C 
HETATM   10  C7  UNL     1     -31.169   7.018   1.308  1.00 20.00     0.015 C 
ENDBRANCH   4   7
TORSDOF 1
ENDMDL
MODEL 4
REMARK VINA RESULT:       1.4      2.505      4.168
REMARK  1 active torsions:
REMARK  status: ('A' for Active; 'I' for Inactive)
REMARK    1  A    between atoms: C4_4  and  C8_8 
ROOT
HETATM    1  C1  UNL     1     -31.916   7.889   1.344  1.00 20.00     0.137 C 
HETATM    2  C2  UNL     1     -32.895   7.995   2.485  1.00 20.00     0.095 C 
HETATM    3  C3  UNL     1     -31.636   6.487   0.871  1.00 20.00     0.152 C 
HETATM    4  C4  UNL     1     -33.802   6.776   2.396  1.00 20.00     0.062 C 
HETATM    5  O9  UNL     1     -31.346   8.868   0.869  1.00 20.00    -0.297 OA
HETATM    6  S10 UNL     1     -32.702   5.429   1.878  1.00 20.00    -0.156 SA
ENDROOT
BRANCH   4   7
HETATM    7  C8  UNL     1     -34.488   6.457   3.713  1.00 20.00    -0.038 C 
HETATM    8  C5  UNL     1     -34.033   7.461   4.783  1.00 20.00     0.015 C 
HETATM    9  C6  UNL     1     -34.114   5.034   4.154  1.00 20.00     0.015 C 
HETATM   10  C7  UNL     1     -36.010   6.554   3.534  1.00 20.00     0.015 C 
ENDBRANCH   4   7
TORSDOF 1
ENDMDL
MODEL 5
REMARK VINA RESULT:       1.4      2.509      4.214
REMARK  1 active torsions:
REMARK  status: ('A' for Active; 'I' for Inactive)
REMARK    1  A    between atoms: C4_4  and  C8_8 
ROOT
HETATM    1  C1  UNL     1     -31.918   7.955   1.357  1.00 20.00     0.137 C 
HETATM    2  C2  UNL     1     -32.917   8.041   2.483  1.00 20.00     0.095 C 
HETATM    3  C3  UNL     1     -31.585   6.558   0.905  1.00 20.00     0.152 C 
HETATM    4  C4  UNL     1     -33.781   6.790   2.395  1.00 20.00     0.062 C 
HETATM    5  O9  UNL     1     -31.376   8.947   0.879  1.00 20.00    -0.297 OA
HETATM    6  S10 UNL     1     -32.628   5.476   1.908  1.00 20.00    -0.156 SA
ENDROOT
BRANCH   4   7
HETATM    7  C8  UNL     1     -34.474   6.462   3.706  1.00 20.00    -0.038 C 
HETATM    8  C5  UNL     1     -34.092   5.041   4.147  1.00 20.00     0.015 C 
HETATM    9  C6  UNL     1     -35.996   6.548   3.516  1.00 20.00     0.015 C 
HETATM   10  C7  UNL     1     -34.036   7.467   4.782  1.00 20.00     0.015 C 
ENDBRANCH   4   7
TORSDOF 1
ENDMDL
MODEL 6
REMARK VINA RESULT:       1.4      2.513      4.185
REMARK  1 active torsions:
REMARK  status: ('A' for Active; 'I' for Inactive)
REMARK    1  A    between atoms: C4_4  and  C8_8 
ROOT
HETATM    1  C1  UNL     1     -31.912   7.951   1.338  1.00 20.00     0.137 C 
HETATM    2  C2  UNL     1     -32.902   8.042   2.472  1.00 20.00     0.095 C 
HETATM    3  C3  UNL     1     -31.593   6.553   0.879  1.00 20.00     0.152 C 
HETATM    4  C4  UNL     1     -33.776   6.798   2.387  1.00 20.00     0.062 C 
HETATM    5  O9  UNL     1     -31.365   8.940   0.859  1.00 20.00    -0.297 OA
HETATM    6  S10 UNL     1     -32.638   5.476   1.888  1.00 20.00    -0.156 SA
ENDROOT
BRANCH   4   7
HETATM    7  C8  UNL     1     -34.463   6.473   3.702  1.00 20.00    -0.038 C 
HETATM    8  C5  UNL     1     -35.986   6.568   3.521  1.00 20.00     0.015 C 
HETATM    9  C6  UNL     1     -34.012   7.473   4.776  1.00 20.00     0.015 C 
HETATM   10  C7  UNL     1     -34.087   5.049   4.137  1.00 20.00     0.015 C 
ENDBRANCH   4   7
TORSDOF 1
ENDMDL
MODEL 7
REMARK VINA RESULT:       2.0      2.036      3.696
REMARK  1 active torsions:
REMARK  status: ('A' for Active; 'I' for Inactive)
REMARK    1  A    between atoms: C4_4  and  C8_8 
ROOT
HETATM    1  C1  UNL     1     -32.192   5.668   1.124  1.00 20.00     0.137 C 
HETATM    2  C2  UNL     1     -33.377   5.412   2.020  1.00 20.00     0.095 C 
HETATM    3  C3  UNL     1     -31.632   7.064   1.191  1.00 20.00     0.152 C 
HETATM    4  C4  UNL     1     -33.258   6.382   3.188  1.00 20.00     0.062 C 
HETATM    5  O9  UNL     1     -31.749   4.818   0.357  1.00 20.00    -0.297 OA
HETATM    6  S10 UNL     1     -32.622   7.910   2.444  1.00 20.00    -0.156 SA
ENDROOT
BRANCH   4   7
HETATM    7  C8  UNL     1     -34.583   6.617   3.892  1.00 20.00    -0.038 C 
HETATM    8  C5  UNL     1     -34.400   7.680   4.986  1.00 20.00     0.015 C 
HETATM    9  C6  UNL     1     -35.064   5.305   4.529  1.00 20.00     0.015 C 
HETATM   10  C7  UNL     1     -35.625   7.103   2.874  1.00 20.00     0.015 C 
ENDBRANCH   4   7
TORSDOF 1
ENDMDL
MODEL 8
REMARK VINA RESULT:       2.6      1.433      2.011
REMARK  1 active torsions:
REMARK  status: ('A' for Active; 'I' for Inactive)
REMARK    1  A    between atoms: C4_4  and  C8_8 
ROOT
HETATM    1  C1  UNL     1     -34.940   5.471   4.276  1.00 20.00     0.137 C 
HETATM    2  C2  UNL     1     -34.022   4.902   3.224  1.00 20.00     0.095 C 
HETATM    3  C3  UNL     1     -34.808   6.955   4.503  1.00 20.00     0.152 C 
HETATM    4  C4  UNL     1     -33.716   6.035   2.254  1.00 20.00     0.062 C 
HETATM    5  O9  UNL     1     -35.702   4.771   4.937  1.00 20.00    -0.297 OA
HETATM    6  S10 UNL     1     -33.572   7.506   3.305  1.00 20.00    -0.156 SA
ENDROOT
BRANCH   4   7
HETATM    7  C8  UNL     1     -32.445   5.796   1.456  1.00 20.00    -0.038 C 
HETATM    8  C5  UNL     1     -31.757   7.140   1.176  1.00 20.00     0.015 C 
HETATM    9  C6  UNL     1     -32.796   5.114   0.126  1.00 20.00     0.015 C 
HETATM   10  C7  UNL     1     -31.498   4.893   2.260  1.00 20.00     0.015 C 
ENDBRANCH   4   7
TORSDOF 1
ENDMDL
MODEL 9
REMARK VINA RESULT:       2.9      2.154      2.710
REMARK  1 active torsions:
REMARK  status: ('A' for Active; 'I' for Inactive)
REMARK    1  A    between atoms: C4_4  and  C8_8 
ROOT
HETATM    1  C1  UNL     1     -34.069   7.574   4.414  1.00 20.00     0.137 C 
HETATM    2  C2  UNL     1     -33.140   7.630   3.228  1.00 20.00     0.095 C 
HETATM    3  C3  UNL     1     -34.992   6.384   4.445  1.00 20.00     0.152 C 
HETATM    4  C4  UNL     1     -32.928   6.193   2.771  1.00 20.00     0.062 C 
HETATM    5  O9  UNL     1     -34.108   8.458   5.265  1.00 20.00    -0.297 OA
HETATM    6  S10 UNL     1     -34.546   5.404   2.994  1.00 20.00    -0.156 SA
ENDROOT
BRANCH   4   7
HETATM    7  C8  UNL     1     -32.458   6.099   1.330  1.00 20.00    -0.038 C 
HETATM    8  C5  UNL     1     -31.805   7.427   0.917  1.00 20.00     0.015 C 
HETATM    9  C6  UNL     1     -33.659   5.814   0.417  1.00 20.00     0.015 C 
HETATM   10  C7  UNL     1     -31.433   4.962   1.199  1.00 20.00     0.015 C 
ENDBRANCH   4   7
TORSDOF 1
ENDMDL
