MODEL 1
REMARK VINA RESULT:      -0.9      0.000      0.000
REMARK  2 active torsions:
REMARK  status: ('A' for Active; 'I' for Inactive)
REMARK    1  A    between atoms: C5_5  and  C7_7 
REMARK    2  A    between atoms: C6_6  and  C7_7 
ROOT
HETATM    1  C1  UNL     1     -32.601   8.003   3.300  1.00 20.00     0.033 C 
HETATM    2  C2  UNL     1     -33.881   7.268   3.644  1.00 20.00     0.168 C 
HETATM    3  C3  UNL     1     -32.716   6.010   2.066  1.00 20.00     0.172 C 
HETATM    4  C5  UNL     1     -32.247   7.450   1.935  1.00 20.00     0.014 C 
HETATM    5  O8  UNL     1     -33.849   6.015   2.948  1.00 20.00    -0.391 OA
ENDROOT
BRANCH   4   6
HETATM    6  C7  UNL     1     -32.980   8.185   0.813  1.00 20.00     0.041 C 
BRANCH   6   7
HETATM    7  C6  UNL     1     -32.175   9.324   0.268  1.00 20.00     0.145 A 
HETATM    8  C4  UNL     1     -32.657  10.743   0.388  1.00 20.00     0.200 A 
HETATM    9  O9  UNL     1     -32.780  10.004  -0.838  1.00 20.00    -0.381 OA
ENDBRANCH   6   7
ENDBRANCH   4   6
TORSDOF 2
ENDMDL
MODEL 2
REMARK VINA RESULT:      -0.6      2.615      5.338
REMARK  2 active torsions:
REMARK  status: ('A' for Active; 'I' for Inactive)
REMARK    1  A    between atoms: C5_5  and  C7_7 
REMARK    2  A    between atoms: C6_6  and  C7_7 
ROOT
HETATM    1  C1  UNL     1     -34.777   6.482   3.781  1.00 20.00     0.033 C 
HETATM    2  C2  UNL     1     -33.805   7.576   4.179  1.00 20.00     0.168 C 
HETATM    3  C3  UNL     1     -33.230   6.822   2.050  1.00 20.00     0.172 C 
HETATM    4  C5  UNL     1     -34.008   5.708   2.731  1.00 20.00     0.014 C 
HETATM    5  O8  UNL     1     -32.955   7.815   3.049  1.00 20.00    -0.391 OA
ENDROOT
BRANCH   4   6
HETATM    6  C7  UNL     1     -33.080   4.666   3.355  1.00 20.00     0.041 C 
BRANCH   6   7
HETATM    7  C6  UNL     1     -33.779   3.834   4.384  1.00 20.00     0.145 A 
HETATM    8  C4  UNL     1     -33.005   3.040   5.399  1.00 20.00     0.200 A 
HETATM    9  O9  UNL     1     -33.586   2.422   4.239  1.00 20.00    -0.381 OA
ENDBRANCH   6   7
ENDBRANCH   4   6
TORSDOF 2
ENDMDL
MODEL 3
REMARK VINA RESULT:      -0.2      2.113      4.098
REMARK  2 active torsions:
REMARK  status: ('A' for Active; 'I' for Inactive)
REMARK    1  A    between atoms: C5_5  and  C7_7 
REMARK    2  A    between atoms: C6_6  and  C7_7 
ROOT
HETATM    1  C1  UNL     1     -32.522   8.281   1.606  1.00 20.00     0.033 C 
HETATM    2  C2  UNL     1     -31.206   7.529   1.577  1.00 20.00     0.168 C 
HETATM    3  C3  UNL     1     -32.940   5.972   1.628  1.00 20.00     0.172 C 
HETATM    4  C5  UNL     1     -33.479   7.271   2.205  1.00 20.00     0.014 C 
HETATM    5  O8  UNL     1     -31.521   6.133   1.484  1.00 20.00    -0.391 OA
ENDROOT
BRANCH   4   6
HETATM    6  C7  UNL     1     -33.434   7.277   3.732  1.00 20.00     0.041 C 
BRANCH   6   7
HETATM    7  C6  UNL     1     -34.770   6.972   4.336  1.00 20.00     0.145 A 
HETATM    8  C4  UNL     1     -35.296   5.565   4.390  1.00 20.00     0.200 A 
HETATM    9  O9  UNL     1     -35.751   6.505   3.404  1.00 20.00    -0.381 OA
ENDBRANCH   6   7
ENDBRANCH   4   6
TORSDOF 2
ENDMDL
MODEL 4
REMARK VINA RESULT:      -0.2      1.892      2.400
REMARK  2 active torsions:
REMARK  status: ('A' for Active; 'I' for Inactive)
REMARK    1  A    between atoms: C5_5  and  C7_7 
REMARK    2  A    between atoms: C6_6  and  C7_7 
ROOT
HETATM    1  C1  UNL     1     -34.287   7.091   4.077  1.00 20.00     0.033 C 
HETATM    2  C2  UNL     1     -35.579   6.300   4.010  1.00 20.00     0.168 C 
HETATM    3  C3  UNL     1     -33.795   4.803   3.911  1.00 20.00     0.172 C 
HETATM    4  C5  UNL     1     -33.280   6.154   3.444  1.00 20.00     0.014 C 
HETATM    5  O8  UNL     1     -35.222   4.911   4.018  1.00 20.00    -0.391 OA
ENDROOT
BRANCH   4   6
HETATM    6  C7  UNL     1     -33.276   6.264   1.920  1.00 20.00     0.041 C 
BRANCH   6   7
HETATM    7  C6  UNL     1     -32.083   7.012   1.412  1.00 20.00     0.145 A 
HETATM    8  C4  UNL     1     -31.568   8.231   2.125  1.00 20.00     0.200 A 
HETATM    9  O9  UNL     1     -32.366   8.332   0.935  1.00 20.00    -0.381 OA
ENDBRANCH   6   7
ENDBRANCH   4   6
TORSDOF 2
ENDMDL
MODEL 5
REMARK VINA RESULT:      -0.2      2.269      3.220
REMARK  2 active torsions:
REMARK  status: ('A' for Active; 'I' for Inactive)
REMARK    1  A    between atoms: C5_5  and  C7_7 
REMARK    2  A    between atoms: C6_6  and  C7_7 
ROOT
HETATM    1  C1  UNL     1     -33.804   4.988   2.788  1.00 20.00     0.033 C 
HETATM    2  C2  UNL     1     -33.967   4.230   4.090  1.00 20.00     0.168 C 
HETATM    3  C3  UNL     1     -35.549   5.942   4.035  1.00 20.00     0.172 C 
HETATM    4  C5  UNL     1     -34.418   6.337   3.100  1.00 20.00     0.014 C 
HETATM    5  O8  UNL     1     -35.109   4.783   4.760  1.00 20.00    -0.391 OA
ENDROOT
BRANCH   4   6
HETATM    6  C7  UNL     1     -33.421   7.276   3.779  1.00 20.00     0.041 C 
BRANCH   6   7
HETATM    7  C6  UNL     1     -32.832   8.262   2.819  1.00 20.00     0.145 A 
HETATM    8  C4  UNL     1     -31.878   7.825   1.742  1.00 20.00     0.200 A 
HETATM    9  O9  UNL     1     -31.419   8.450   2.952  1.00 20.00    -0.381 OA
ENDBRANCH   6   7
ENDBRANCH   4   6
TORSDOF 2
ENDMDL
MODEL 6
REMARK VINA RESULT:      -0.0      1.376      4.109
REMARK  2 active torsions:
REMARK  status: ('A' for Active; 'I' for Inactive)
REMARK    1  A    between atoms: C5_5  and  C7_7 
REMARK    2  A    between atoms: C6_6  and  C7_7 
ROOT
HETATM    1  C1  UNL     1     -31.481   8.178   0.386  1.00 20.00     0.033 C 
HETATM    2  C2  UNL     1     -32.360   9.289  -0.151  1.00 20.00     0.168 C 
HETATM    3  C3  UNL     1     -32.317   9.447   2.174  1.00 20.00     0.172 C 
HETATM    4  C5  UNL     1     -31.972   8.013   1.809  1.00 20.00     0.014 C 
HETATM    5  O8  UNL     1     -32.754  10.093   0.969  1.00 20.00    -0.391 OA
ENDROOT
BRANCH   4   6
HETATM    6  C7  UNL     1     -33.192   7.097   1.891  1.00 20.00     0.041 C 
BRANCH   6   7
HETATM    7  C6  UNL     1     -33.485   6.673   3.297  1.00 20.00     0.145 A 
HETATM    8  C4  UNL     1     -34.891   6.397   3.749  1.00 20.00     0.200 A 
HETATM    9  O9  UNL     1     -34.223   7.629   4.065  1.00 20.00    -0.381 OA
ENDBRANCH   6   7
ENDBRANCH   4   6
TORSDOF 2
ENDMDL
MODEL 7
REMARK VINA RESULT:       0.7      3.218      3.652
REMARK  2 active torsions:
REMARK  status: ('A' for Active; 'I' for Inactive)
REMARK    1  A    between atoms: C5_5  and  C7_7 
REMARK    2  A    between atoms: C6_6  and  C7_7 
ROOT
HETATM    1  C1  UNL     1     -34.244   6.974   3.880  1.00 20.00     0.033 C 
HETATM    2  C2  UNL     1     -35.575   6.283   4.099  1.00 20.00     0.168 C 
HETATM    3  C3  UNL     1     -33.905   4.657   4.041  1.00 20.00     0.172 C 
HETATM    4  C5  UNL     1     -33.380   5.874   3.297  1.00 20.00     0.014 C 
HETATM    5  O8  UNL     1     -35.298   4.889   4.297  1.00 20.00    -0.391 OA
ENDROOT
BRANCH   4   6
HETATM    6  C7  UNL     1     -33.568   5.741   1.786  1.00 20.00     0.041 C 
BRANCH   6   7
HETATM    7  C6  UNL     1     -32.263   5.763   1.053  1.00 20.00     0.145 A 
HETATM    8  C4  UNL     1     -31.738   4.537   0.360  1.00 20.00     0.200 A 
HETATM    9  O9  UNL     1     -31.236   4.956   1.640  1.00 20.00    -0.381 OA
ENDBRANCH   6   7
ENDBRANCH   4   6
TORSDOF 2
ENDMDL
MODEL 8
REMARK VINA RESULT:       0.8      2.437      4.879
REMARK  2 active torsions:
REMARK  status: ('A' for Active; 'I' for Inactive)
REMARK    1  A    between atoms: C5_5  and  C7_7 
REMARK    2  A    between atoms: C6_6  and  C7_7 
ROOT
HETATM    1  C1  UNL     1     -33.257   7.825   2.425  1.00 20.00     0.033 C 
HETATM    2  C2  UNL     1     -31.810   7.500   2.111  1.00 20.00     0.168 C 
HETATM    3  C3  UNL     1     -33.137   5.729   1.376  1.00 20.00     0.172 C 
HETATM    4  C5  UNL     1     -33.913   6.461   2.458  1.00 20.00     0.014 C 
HETATM    5  O8  UNL     1     -31.805   6.267   1.379  1.00 20.00    -0.391 OA
ENDROOT
BRANCH   4   6
HETATM    6  C7  UNL     1     -33.761   5.786   3.821  1.00 20.00     0.041 C 
BRANCH   6   7
HETATM    7  C6  UNL     1     -33.943   4.302   3.737  1.00 20.00     0.145 A 
HETATM    8  C4  UNL     1     -33.686   3.419   4.926  1.00 20.00     0.200 A 
HETATM    9  O9  UNL     1     -32.732   3.547   3.860  1.00 20.00    -0.381 OA
ENDBRANCH   6   7
ENDBRANCH   4   6
TORSDOF 2
ENDMDL
MODEL 9
REMARK VINA RESULT:       0.9      1.156      4.224
REMARK  2 active torsions:
REMARK  status: ('A' for Active; 'I' for Inactive)
REMARK    1  A    between atoms: C5_5  and  C7_7 
REMARK    2  A    between atoms: C6_6  and  C7_7 
ROOT
HETATM    1  C1  UNL     1     -31.309   8.744   0.114  1.00 20.00     0.033 C 
HETATM    2  C2  UNL     1     -32.322   9.204  -0.915  1.00 20.00     0.168 C 
HETATM    3  C3  UNL     1     -32.686  10.393   1.056  1.00 20.00     0.172 C 
HETATM    4  C5  UNL     1     -31.968   9.107   1.428  1.00 20.00     0.014 C 
HETATM    5  O8  UNL     1     -33.063  10.280  -0.324  1.00 20.00    -0.391 OA
ENDROOT
BRANCH   4   6
HETATM    6  C7  UNL     1     -32.943   8.027   1.896  1.00 20.00     0.041 C 
BRANCH   6   7
HETATM    7  C6  UNL     1     -32.316   6.667   1.904  1.00 20.00     0.145 A 
HETATM    8  C4  UNL     1     -32.860   5.555   1.052  1.00 20.00     0.200 A 
HETATM    9  O9  UNL     1     -33.139   5.636   2.459  1.00 20.00    -0.381 OA
ENDBRANCH   6   7
ENDBRANCH   4   6
TORSDOF 2
ENDMDL
