MODEL 1
REMARK VINA RESULT:      -2.9      0.000      0.000
REMARK  1 active torsions:
REMARK  status: ('A' for Active; 'I' for Inactive)
REMARK    1  A    between atoms: C2_2  and  C6_6 
ROOT
HETATM    1  C1  UNL     1     -33.296   7.773   2.850  1.00 20.00     0.011 C 
HETATM    2  C2  UNL     1     -33.868   6.571   3.027  1.00 20.00     0.026 C 
HETATM    3  C3  UNL     1     -32.117   7.972   1.945  1.00 20.00     0.195 C 
HETATM    4  C4  UNL     1     -33.353   5.370   2.279  1.00 20.00     0.069 C 
HETATM    5  C5  UNL     1     -32.449   5.778   1.119  1.00 20.00     0.172 C 
HETATM    6  O7  UNL     1     -31.495   6.739   1.570  1.00 20.00    -0.387 OA
ENDROOT
BRANCH   2   7
HETATM    7  C6  UNL     1     -35.021   6.350   3.957  1.00 20.00     0.413 C 
HETATM    8  F8  UNL     1     -35.049   5.076   4.397  1.00 20.00    -0.166 F 
HETATM    9  F9  UNL     1     -34.937   7.159   5.033  1.00 20.00    -0.166 F 
HETATM   10  F10 UNL     1     -36.196   6.600   3.343  1.00 20.00    -0.166 F 
ENDBRANCH   2   7
TORSDOF 1
ENDMDL
MODEL 2
REMARK VINA RESULT:      -2.7      0.335      1.965
REMARK  1 active torsions:
REMARK  status: ('A' for Active; 'I' for Inactive)
REMARK    1  A    between atoms: C2_2  and  C6_6 
ROOT
HETATM    1  C1  UNL     1     -33.358   5.568   2.282  1.00 20.00     0.011 C 
HETATM    2  C2  UNL     1     -33.890   6.528   3.056  1.00 20.00     0.026 C 
HETATM    3  C3  UNL     1     -32.207   5.833   1.357  1.00 20.00     0.195 C 
HETATM    4  C4  UNL     1     -33.312   7.918   3.043  1.00 20.00     0.069 C 
HETATM    5  C5  UNL     1     -31.932   7.945   2.393  1.00 20.00     0.172 C 
HETATM    6  O7  UNL     1     -31.970   7.231   1.158  1.00 20.00    -0.387 OA
ENDROOT
BRANCH   2   7
HETATM    7  C6  UNL     1     -35.064   6.287   3.954  1.00 20.00     0.413 C 
HETATM    8  F8  UNL     1     -35.006   7.076   5.046  1.00 20.00    -0.166 F 
HETATM    9  F9  UNL     1     -36.223   6.547   3.317  1.00 20.00    -0.166 F 
HETATM   10  F10 UNL     1     -35.101   5.006   4.373  1.00 20.00    -0.166 F 
ENDBRANCH   2   7
TORSDOF 1
ENDMDL
MODEL 3
REMARK VINA RESULT:      -2.3      2.987      3.916
REMARK  1 active torsions:
REMARK  status: ('A' for Active; 'I' for Inactive)
REMARK    1  A    between atoms: C2_2  and  C6_6 
ROOT
HETATM    1  C1  UNL     1     -33.048   5.641   2.445  1.00 20.00     0.011 C 
HETATM    2  C2  UNL     1     -33.067   6.947   2.756  1.00 20.00     0.026 C 
HETATM    3  C3  UNL     1     -33.976   4.652   3.087  1.00 20.00     0.195 C 
HETATM    4  C4  UNL     1     -34.064   7.474   3.753  1.00 20.00     0.069 C 
HETATM    5  C5  UNL     1     -35.183   6.468   4.011  1.00 20.00     0.172 C 
HETATM    6  O7  UNL     1     -34.622   5.178   4.251  1.00 20.00    -0.387 OA
ENDROOT
BRANCH   2   7
HETATM    7  C6  UNL     1     -32.121   7.938   2.152  1.00 20.00     0.413 C 
HETATM    8  F8  UNL     1     -31.443   8.604   3.109  1.00 20.00    -0.166 F 
HETATM    9  F9  UNL     1     -31.220   7.326   1.356  1.00 20.00    -0.166 F 
HETATM   10  F10 UNL     1     -32.780   8.847   1.405  1.00 20.00    -0.166 F 
ENDBRANCH   2   7
TORSDOF 1
ENDMDL
MODEL 4
REMARK VINA RESULT:      -2.2      3.121      3.768
REMARK  1 active torsions:
REMARK  status: ('A' for Active; 'I' for Inactive)
REMARK    1  A    between atoms: C2_2  and  C6_6 
ROOT
HETATM    1  C1  UNL     1     -33.768   7.749   3.713  1.00 20.00     0.011 C 
HETATM    2  C2  UNL     1     -33.040   7.182   2.738  1.00 20.00     0.026 C 
HETATM    3  C3  UNL     1     -34.831   6.997   4.459  1.00 20.00     0.195 C 
HETATM    4  C4  UNL     1     -33.249   5.734   2.382  1.00 20.00     0.069 C 
HETATM    5  C5  UNL     1     -34.042   5.000   3.461  1.00 20.00     0.172 C 
HETATM    6  O7  UNL     1     -35.190   5.769   3.818  1.00 20.00    -0.387 OA
ENDROOT
BRANCH   2   7
HETATM    7  C6  UNL     1     -32.003   7.931   1.960  1.00 20.00     0.413 C 
HETATM    8  F8  UNL     1     -31.138   8.555   2.784  1.00 20.00    -0.166 F 
HETATM    9  F9  UNL     1     -31.296   7.099   1.169  1.00 20.00    -0.166 F 
HETATM   10  F10 UNL     1     -32.570   8.867   1.171  1.00 20.00    -0.166 F 
ENDBRANCH   2   7
TORSDOF 1
ENDMDL
MODEL 5
REMARK VINA RESULT:      -2.2      3.070      3.837
REMARK  1 active torsions:
REMARK  status: ('A' for Active; 'I' for Inactive)
REMARK    1  A    between atoms: C2_2  and  C6_6 
ROOT
HETATM    1  C1  UNL     1     -34.382   6.554   3.311  1.00 20.00     0.011 C 
HETATM    2  C2  UNL     1     -33.562   5.688   2.695  1.00 20.00     0.026 C 
HETATM    3  C3  UNL     1     -35.267   6.146   4.452  1.00 20.00     0.195 C 
HETATM    4  C4  UNL     1     -33.477   4.260   3.166  1.00 20.00     0.069 C 
HETATM    5  C5  UNL     1     -34.098   4.089   4.550  1.00 20.00     0.172 C 
HETATM    6  O7  UNL     1     -35.375   4.725   4.585  1.00 20.00    -0.387 OA
ENDROOT
BRANCH   2   7
HETATM    7  C6  UNL     1     -32.703   6.072   1.530  1.00 20.00     0.413 C 
HETATM    8  F8  UNL     1     -31.609   5.287   1.457  1.00 20.00    -0.166 F 
HETATM    9  F9  UNL     1     -33.378   5.950   0.370  1.00 20.00    -0.166 F 
HETATM   10  F10 UNL     1     -32.287   7.351   1.634  1.00 20.00    -0.166 F 
ENDBRANCH   2   7
TORSDOF 1
ENDMDL
MODEL 6
REMARK VINA RESULT:      -1.2      3.585      4.218
REMARK  1 active torsions:
REMARK  status: ('A' for Active; 'I' for Inactive)
REMARK    1  A    between atoms: C2_2  and  C6_6 
ROOT
HETATM    1  C1  UNL     1     -32.939   8.417   2.741  1.00 20.00     0.011 C 
HETATM    2  C2  UNL     1     -32.604   8.131   1.472  1.00 20.00     0.026 C 
HETATM    3  C3  UNL     1     -33.436   7.370   3.693  1.00 20.00     0.195 C 
HETATM    4  C4  UNL     1     -32.686   6.714   0.969  1.00 20.00     0.069 C 
HETATM    5  C5  UNL     1     -32.805   5.717   2.119  1.00 20.00     0.172 C 
HETATM    6  O7  UNL     1     -33.810   6.157   3.033  1.00 20.00    -0.387 OA
ENDROOT
BRANCH   2   7
HETATM    7  C6  UNL     1     -32.144   9.173   0.500  1.00 20.00     0.413 C 
HETATM    8  F8  UNL     1     -32.204  10.404   1.047  1.00 20.00    -0.166 F 
HETATM    9  F9  UNL     1     -30.870   8.951   0.119  1.00 20.00    -0.166 F 
HETATM   10  F10 UNL     1     -32.912   9.176  -0.609  1.00 20.00    -0.166 F 
ENDBRANCH   2   7
TORSDOF 1
ENDMDL
MODEL 7
REMARK VINA RESULT:      -1.0      1.556      2.365
REMARK  1 active torsions:
REMARK  status: ('A' for Active; 'I' for Inactive)
REMARK    1  A    between atoms: C2_2  and  C6_6 
ROOT
HETATM    1  C1  UNL     1     -34.072   6.761   3.872  1.00 20.00     0.011 C 
HETATM    2  C2  UNL     1     -33.668   5.555   3.439  1.00 20.00     0.026 C 
HETATM    3  C3  UNL     1     -33.594   8.037   3.245  1.00 20.00     0.195 C 
HETATM    4  C4  UNL     1     -32.733   5.447   2.264  1.00 20.00     0.069 C 
HETATM    5  C5  UNL     1     -32.656   6.758   1.487  1.00 20.00     0.172 C 
HETATM    6  O7  UNL     1     -32.461   7.843   2.394  1.00 20.00    -0.387 OA
ENDROOT
BRANCH   2   7
HETATM    7  C6  UNL     1     -34.106   4.275   4.081  1.00 20.00     0.413 C 
HETATM    8  F8  UNL     1     -35.322   4.410   4.647  1.00 20.00    -0.166 F 
HETATM    9  F9  UNL     1     -34.179   3.279   3.174  1.00 20.00    -0.166 F 
HETATM   10  F10 UNL     1     -33.242   3.893   5.044  1.00 20.00    -0.166 F 
ENDBRANCH   2   7
TORSDOF 1
ENDMDL
MODEL 8
REMARK VINA RESULT:      -0.9      3.008      3.941
REMARK  1 active torsions:
REMARK  status: ('A' for Active; 'I' for Inactive)
REMARK    1  A    between atoms: C2_2  and  C6_6 
ROOT
HETATM    1  C1  UNL     1     -34.234   5.604   3.002  1.00 20.00     0.011 C 
HETATM    2  C2  UNL     1     -33.192   6.294   2.511  1.00 20.00     0.026 C 
HETATM    3  C3  UNL     1     -35.098   6.137   4.107  1.00 20.00     0.195 C 
HETATM    4  C4  UNL     1     -32.876   7.668   3.041  1.00 20.00     0.069 C 
HETATM    5  C5  UNL     1     -34.041   8.240   3.843  1.00 20.00     0.172 C 
HETATM    6  O7  UNL     1     -34.513   7.263   4.770  1.00 20.00    -0.387 OA
ENDROOT
BRANCH   2   7
HETATM    7  C6  UNL     1     -32.298   5.758   1.436  1.00 20.00     0.413 C 
HETATM    8  F8  UNL     1     -33.018   5.175   0.455  1.00 20.00    -0.166 F 
HETATM    9  F9  UNL     1     -31.563   6.743   0.880  1.00 20.00    -0.166 F 
HETATM   10  F10 UNL     1     -31.446   4.835   1.927  1.00 20.00    -0.166 F 
ENDBRANCH   2   7
TORSDOF 1
ENDMDL
MODEL 9
REMARK VINA RESULT:      -0.8      2.975      3.733
REMARK  1 active torsions:
REMARK  status: ('A' for Active; 'I' for Inactive)
REMARK    1  A    between atoms: C2_2  and  C6_6 
ROOT
HETATM    1  C1  UNL     1     -34.846   4.719   4.558  1.00 20.00     0.011 C 
HETATM    2  C2  UNL     1     -33.662   4.252   4.132  1.00 20.00     0.026 C 
HETATM    3  C3  UNL     1     -35.407   6.028   4.086  1.00 20.00     0.195 C 
HETATM    4  C4  UNL     1     -32.862   5.027   3.119  1.00 20.00     0.069 C 
HETATM    5  C5  UNL     1     -33.710   6.096   2.435  1.00 20.00     0.172 C 
HETATM    6  O7  UNL     1     -34.432   6.837   3.419  1.00 20.00    -0.387 OA
ENDROOT
BRANCH   2   7
HETATM    7  C6  UNL     1     -33.072   2.966   4.625  1.00 20.00     0.413 C 
HETATM    8  F8  UNL     1     -31.793   2.835   4.219  1.00 20.00    -0.166 F 
HETATM    9  F9  UNL     1     -33.087   2.911   5.972  1.00 20.00    -0.166 F 
HETATM   10  F10 UNL     1     -33.763   1.905   4.160  1.00 20.00    -0.166 F 
ENDBRANCH   2   7
TORSDOF 1
ENDMDL
