MODEL 1
REMARK VINA RESULT:      -3.0      0.000      0.000
REMARK  1 active torsions:
REMARK  status: ('A' for Active; 'I' for Inactive)
REMARK    1  A    between atoms: C2_2  and  C4_4 
ROOT
HETATM    1  C1  UNL     1     -34.162   7.442   4.254  1.00 20.00     0.092 A 
HETATM    2  C2  UNL     1     -33.718   6.299   3.367  1.00 20.00     0.092 A 
HETATM    3  C3  UNL     1     -35.128   6.393   3.832  1.00 20.00     0.250 A 
HETATM    4  F5  UNL     1     -35.624   5.495   4.749  1.00 20.00    -0.206 F 
HETATM    5  F6  UNL     1     -36.148   6.697   2.959  1.00 20.00    -0.206 F 
ENDROOT
BRANCH   2   6
HETATM    6  C4  UNL     1     -33.379   6.546   1.939  1.00 20.00     0.232 C 
HETATM    7  F7  UNL     1     -32.587   5.536   1.474  1.00 20.00    -0.255 F 
ENDBRANCH   2   6
TORSDOF 1
ENDMDL
MODEL 2
REMARK VINA RESULT:      -2.7      1.421      1.754
REMARK  1 active torsions:
REMARK  status: ('A' for Active; 'I' for Inactive)
REMARK    1  A    between atoms: C2_2  and  C4_4 
ROOT
HETATM    1  C1  UNL     1     -33.588   5.611   3.485  1.00 20.00     0.092 A 
HETATM    2  C2  UNL     1     -33.648   6.722   2.459  1.00 20.00     0.092 A 
HETATM    3  C3  UNL     1     -34.519   6.757   3.665  1.00 20.00     0.250 A 
HETATM    4  F5  UNL     1     -35.878   6.573   3.552  1.00 20.00    -0.206 F 
HETATM    5  F6  UNL     1     -34.309   7.675   4.669  1.00 20.00    -0.206 F 
ENDROOT
BRANCH   2   6
HETATM    6  C4  UNL     1     -32.516   7.677   2.320  1.00 20.00     0.232 C 
HETATM    7  F7  UNL     1     -31.562   7.143   1.502  1.00 20.00    -0.255 F 
ENDBRANCH   2   6
TORSDOF 1
ENDMDL
MODEL 3
REMARK VINA RESULT:      -2.6      1.916      2.417
REMARK  1 active torsions:
REMARK  status: ('A' for Active; 'I' for Inactive)
REMARK    1  A    between atoms: C2_2  and  C4_4 
ROOT
HETATM    1  C1  UNL     1     -33.690   6.174   2.613  1.00 20.00     0.092 A 
HETATM    2  C2  UNL     1     -33.618   5.428   3.928  1.00 20.00     0.092 A 
HETATM    3  C3  UNL     1     -34.553   6.573   3.756  1.00 20.00     0.250 A 
HETATM    4  F5  UNL     1     -34.331   7.761   4.413  1.00 20.00    -0.206 F 
HETATM    5  F6  UNL     1     -35.914   6.379   3.703  1.00 20.00    -0.206 F 
ENDROOT
BRANCH   2   6
HETATM    6  C4  UNL     1     -34.140   4.039   4.032  1.00 20.00     0.232 C 
HETATM    7  F7  UNL     1     -33.241   3.260   4.704  1.00 20.00    -0.255 F 
ENDBRANCH   2   6
TORSDOF 1
ENDMDL
MODEL 4
REMARK VINA RESULT:      -2.5      2.077      3.731
REMARK  1 active torsions:
REMARK  status: ('A' for Active; 'I' for Inactive)
REMARK    1  A    between atoms: C2_2  and  C4_4 
ROOT
HETATM    1  C1  UNL     1     -32.955   6.258   1.549  1.00 20.00     0.092 A 
HETATM    2  C2  UNL     1     -33.013   6.730   2.986  1.00 20.00     0.092 A 
HETATM    3  C3  UNL     1     -32.325   7.545   1.948  1.00 20.00     0.250 A 
HETATM    4  F5  UNL     1     -30.956   7.675   1.955  1.00 20.00    -0.206 F 
HETATM    5  F6  UNL     1     -32.851   8.742   1.516  1.00 20.00    -0.206 F 
ENDROOT
BRANCH   2   6
HETATM    6  C4  UNL     1     -34.301   7.191   3.572  1.00 20.00     0.232 C 
HETATM    7  F7  UNL     1     -34.055   7.950   4.681  1.00 20.00    -0.255 F 
ENDBRANCH   2   6
TORSDOF 1
ENDMDL
MODEL 5
REMARK VINA RESULT:      -2.4      2.585      3.215
REMARK  1 active torsions:
REMARK  status: ('A' for Active; 'I' for Inactive)
REMARK    1  A    between atoms: C2_2  and  C4_4 
ROOT
HETATM    1  C1  UNL     1     -32.327   8.458   1.270  1.00 20.00     0.092 A 
HETATM    2  C2  UNL     1     -31.817   7.097   1.689  1.00 20.00     0.092 A 
HETATM    3  C3  UNL     1     -32.322   8.061   2.703  1.00 20.00     0.250 A 
HETATM    4  F5  UNL     1     -31.457   8.663   3.587  1.00 20.00    -0.206 F 
HETATM    5  F6  UNL     1     -33.506   7.841   3.369  1.00 20.00    -0.206 F 
ENDROOT
BRANCH   2   6
HETATM    6  C4  UNL     1     -32.596   5.871   1.363  1.00 20.00     0.232 C 
HETATM    7  F7  UNL     1     -31.756   4.910   0.875  1.00 20.00    -0.255 F 
ENDBRANCH   2   6
TORSDOF 1
ENDMDL
MODEL 6
REMARK VINA RESULT:      -2.4      1.214      3.279
REMARK  1 active torsions:
REMARK  status: ('A' for Active; 'I' for Inactive)
REMARK    1  A    between atoms: C2_2  and  C4_4 
ROOT
HETATM    1  C1  UNL     1     -32.132   7.403   2.124  1.00 20.00     0.092 A 
HETATM    2  C2  UNL     1     -33.590   7.445   2.528  1.00 20.00     0.092 A 
HETATM    3  C3  UNL     1     -33.022   6.239   1.868  1.00 20.00     0.250 A 
HETATM    4  F5  UNL     1     -33.383   5.910   0.582  1.00 20.00    -0.206 F 
HETATM    5  F6  UNL     1     -32.847   5.063   2.561  1.00 20.00    -0.206 F 
ENDROOT
BRANCH   2   6
HETATM    6  C4  UNL     1     -33.971   7.407   3.966  1.00 20.00     0.232 C 
HETATM    7  F7  UNL     1     -35.125   6.691   4.116  1.00 20.00    -0.255 F 
ENDBRANCH   2   6
TORSDOF 1
ENDMDL
MODEL 7
REMARK VINA RESULT:      -2.3      1.854      2.614
REMARK  1 active torsions:
REMARK  status: ('A' for Active; 'I' for Inactive)
REMARK    1  A    between atoms: C2_2  and  C4_4 
ROOT
HETATM    1  C1  UNL     1     -35.551   6.350   3.567  1.00 20.00     0.092 A 
HETATM    2  C2  UNL     1     -34.411   6.808   4.450  1.00 20.00     0.092 A 
HETATM    3  C3  UNL     1     -34.245   5.639   3.545  1.00 20.00     0.250 A 
HETATM    4  F5  UNL     1     -34.137   4.367   4.057  1.00 20.00    -0.206 F 
HETATM    5  F6  UNL     1     -33.434   5.707   2.435  1.00 20.00    -0.206 F 
ENDROOT
BRANCH   2   6
HETATM    6  C4  UNL     1     -33.707   8.088   4.164  1.00 20.00     0.232 C 
HETATM    7  F7  UNL     1     -32.744   8.303   5.107  1.00 20.00    -0.255 F 
ENDBRANCH   2   6
TORSDOF 1
ENDMDL
MODEL 8
REMARK VINA RESULT:      -2.3      3.165      3.941
REMARK  1 active torsions:
REMARK  status: ('A' for Active; 'I' for Inactive)
REMARK    1  A    between atoms: C2_2  and  C4_4 
ROOT
HETATM    1  C1  UNL     1     -31.961   7.120   1.434  1.00 20.00     0.092 A 
HETATM    2  C2  UNL     1     -32.734   8.396   1.179  1.00 20.00     0.092 A 
HETATM    3  C3  UNL     1     -32.376   7.992   2.565  1.00 20.00     0.250 A 
HETATM    4  F5  UNL     1     -33.348   7.575   3.445  1.00 20.00    -0.206 F 
HETATM    5  F6  UNL     1     -31.436   8.688   3.290  1.00 20.00    -0.206 F 
ENDROOT
BRANCH   2   6
HETATM    6  C4  UNL     1     -32.066   9.562   0.539  1.00 20.00     0.232 C 
HETATM    7  F7  UNL     1     -32.772   9.946  -0.565  1.00 20.00    -0.255 F 
ENDBRANCH   2   6
TORSDOF 1
ENDMDL
MODEL 9
REMARK VINA RESULT:      -2.3      1.914      3.746
REMARK  1 active torsions:
REMARK  status: ('A' for Active; 'I' for Inactive)
REMARK    1  A    between atoms: C2_2  and  C4_4 
ROOT
HETATM    1  C1  UNL     1     -32.052   8.258   3.303  1.00 20.00     0.092 A 
HETATM    2  C2  UNL     1     -33.409   7.764   2.849  1.00 20.00     0.092 A 
HETATM    3  C3  UNL     1     -32.254   7.774   1.911  1.00 20.00     0.250 A 
HETATM    4  F5  UNL     1     -32.218   8.656   0.856  1.00 20.00    -0.206 F 
HETATM    5  F6  UNL     1     -31.669   6.602   1.489  1.00 20.00    -0.206 F 
ENDROOT
BRANCH   2   6
HETATM    6  C4  UNL     1     -33.948   6.477   3.365  1.00 20.00     0.232 C 
HETATM    7  F7  UNL     1     -35.066   6.714   4.113  1.00 20.00    -0.255 F 
ENDBRANCH   2   6
TORSDOF 1
ENDMDL
