MODEL 1
REMARK VINA RESULT:      -0.9      0.000      0.000
REMARK  0 active torsions:
REMARK  status: ('A' for Active; 'I' for Inactive)
ROOT
HETATM    1  C1  UNL     1     -34.838   5.441   4.046  1.00 20.00     0.102 C 
HETATM    2  C2  UNL     1     -33.215   5.095   2.252  1.00 20.00     0.050 A 
HETATM    3  C3  UNL     1     -31.921   6.947   1.396  1.00 20.00     0.069 A 
HETATM    4  C4  UNL     1     -33.851   5.954   3.149  1.00 20.00     0.087 A 
HETATM    5  C5  UNL     1     -32.556   7.806   2.292  1.00 20.00     0.158 A 
HETATM    6  C6  UNL     1     -33.520   7.309   3.170  1.00 20.00     0.175 A 
HETATM    7  C7  UNL     1     -32.251   5.592   1.374  1.00 20.00     0.038 A 
HETATM    8  N8  UNL     1     -35.639   5.026   4.774  1.00 20.00    -0.191 NA
HETATM    9  F9  UNL     1     -32.239   9.107   2.313  1.00 20.00    -0.203 F 
HETATM   10  F10 UNL     1     -34.121   8.147   4.028  1.00 20.00    -0.201 F 
HETATM   11 CL11 UNL     1     -31.469   4.533   0.266  1.00 20.00    -0.084 Cl
ENDROOT
TORSDOF 0
ENDMDL
MODEL 2
REMARK VINA RESULT:      -0.4      2.564      2.927
REMARK  0 active torsions:
REMARK  status: ('A' for Active; 'I' for Inactive)
ROOT
HETATM    1  C1  UNL     1     -34.762   6.371   3.847  1.00 20.00     0.102 C 
HETATM    2  C2  UNL     1     -33.489   7.948   2.482  1.00 20.00     0.050 A 
HETATM    3  C3  UNL     1     -31.726   7.165   1.028  1.00 20.00     0.069 A 
HETATM    4  C4  UNL     1     -33.733   6.638   2.892  1.00 20.00     0.087 A 
HETATM    5  C5  UNL     1     -31.970   5.855   1.437  1.00 20.00     0.158 A 
HETATM    6  C6  UNL     1     -32.974   5.591   2.369  1.00 20.00     0.175 A 
HETATM    7  C7  UNL     1     -32.485   8.213   1.550  1.00 20.00     0.038 A 
HETATM    8  N8  UNL     1     -35.598   6.154   4.622  1.00 20.00    -0.191 NA
HETATM    9  F9  UNL     1     -31.241   4.849   0.934  1.00 20.00    -0.203 F 
HETATM   10  F10 UNL     1     -33.198   4.325   2.752  1.00 20.00    -0.201 F 
HETATM   11 CL11 UNL     1     -32.183   9.830   1.047  1.00 20.00    -0.084 Cl
ENDROOT
TORSDOF 0
ENDMDL
MODEL 3
REMARK VINA RESULT:      -0.2      2.794      3.549
REMARK  0 active torsions:
REMARK  status: ('A' for Active; 'I' for Inactive)
ROOT
HETATM    1  C1  UNL     1     -32.004   4.919   0.782  1.00 20.00     0.102 C 
HETATM    2  C2  UNL     1     -33.643   5.450   2.516  1.00 20.00     0.050 A 
HETATM    3  C3  UNL     1     -33.685   7.642   3.531  1.00 20.00     0.069 A 
HETATM    4  C4  UNL     1     -32.571   5.843   1.713  1.00 20.00     0.087 A 
HETATM    5  C5  UNL     1     -32.615   8.035   2.728  1.00 20.00     0.158 A 
HETATM    6  C6  UNL     1     -32.058   7.136   1.819  1.00 20.00     0.175 A 
HETATM    7  C7  UNL     1     -34.199   6.350   3.425  1.00 20.00     0.038 A 
HETATM    8  N8  UNL     1     -31.543   4.169   0.027  1.00 20.00    -0.191 NA
HETATM    9  F9  UNL     1     -32.122   9.277   2.830  1.00 20.00    -0.203 F 
HETATM   10  F10 UNL     1     -31.030   7.529   1.053  1.00 20.00    -0.201 F 
HETATM   11 CL11 UNL     1     -35.519   5.864   4.417  1.00 20.00    -0.084 Cl
ENDROOT
TORSDOF 0
ENDMDL
MODEL 4
REMARK VINA RESULT:       0.1      3.407      4.290
REMARK  0 active torsions:
REMARK  status: ('A' for Active; 'I' for Inactive)
ROOT
HETATM    1  C1  UNL     1     -32.605   9.514   1.172  1.00 20.00     0.102 C 
HETATM    2  C2  UNL     1     -33.785   7.911   2.589  1.00 20.00     0.050 A 
HETATM    3  C3  UNL     1     -33.119   5.589   2.630  1.00 20.00     0.069 A 
HETATM    4  C4  UNL     1     -32.777   8.184   1.664  1.00 20.00     0.087 A 
HETATM    5  C5  UNL     1     -32.112   5.861   1.705  1.00 20.00     0.158 A 
HETATM    6  C6  UNL     1     -31.940   7.158   1.222  1.00 20.00     0.175 A 
HETATM    7  C7  UNL     1     -33.956   6.613   3.072  1.00 20.00     0.038 A 
HETATM    8  N8  UNL     1     -32.464  10.594   0.772  1.00 20.00    -0.191 NA
HETATM    9  F9  UNL     1     -31.308   4.877   1.282  1.00 20.00    -0.203 F 
HETATM   10  F10 UNL     1     -30.966   7.405   0.335  1.00 20.00    -0.201 F 
HETATM   11 CL11 UNL     1     -35.201   6.277   4.212  1.00 20.00    -0.084 Cl
ENDROOT
TORSDOF 0
ENDMDL
MODEL 5
REMARK VINA RESULT:       0.4      2.196      2.830
REMARK  0 active torsions:
REMARK  status: ('A' for Active; 'I' for Inactive)
ROOT
HETATM    1  C1  UNL     1     -33.486   3.146   4.232  1.00 20.00     0.102 C 
HETATM    2  C2  UNL     1     -32.710   4.987   2.825  1.00 20.00     0.050 A 
HETATM    3  C3  UNL     1     -33.940   7.064   2.737  1.00 20.00     0.069 A 
HETATM    4  C4  UNL     1     -33.642   4.473   3.727  1.00 20.00     0.087 A 
HETATM    5  C5  UNL     1     -34.872   6.551   3.638  1.00 20.00     0.158 A 
HETATM    6  C6  UNL     1     -34.723   5.256   4.134  1.00 20.00     0.175 A 
HETATM    7  C7  UNL     1     -32.859   6.282   2.329  1.00 20.00     0.038 A 
HETATM    8  N8  UNL     1     -33.360   2.068   4.643  1.00 20.00    -0.191 NA
HETATM    9  F9  UNL     1     -35.910   7.303   4.030  1.00 20.00    -0.203 F 
HETATM   10  F10 UNL     1     -35.626   4.777   5.002  1.00 20.00    -0.201 F 
HETATM   11 CL11 UNL     1     -31.711   6.915   1.215  1.00 20.00    -0.084 Cl
ENDROOT
TORSDOF 0
ENDMDL
MODEL 6
REMARK VINA RESULT:       0.4      2.577      3.681
REMARK  0 active torsions:
REMARK  status: ('A' for Active; 'I' for Inactive)
ROOT
HETATM    1  C1  UNL     1     -32.369   6.987   1.932  1.00 20.00     0.102 C 
HETATM    2  C2  UNL     1     -32.833   4.847   3.016  1.00 20.00     0.050 A 
HETATM    3  C3  UNL     1     -34.710   4.617   4.520  1.00 20.00     0.069 A 
HETATM    4  C4  UNL     1     -33.163   6.187   2.809  1.00 20.00     0.087 A 
HETATM    5  C5  UNL     1     -35.040   5.955   4.314  1.00 20.00     0.158 A 
HETATM    6  C6  UNL     1     -34.266   6.741   3.458  1.00 20.00     0.175 A 
HETATM    7  C7  UNL     1     -33.606   4.061   3.871  1.00 20.00     0.038 A 
HETATM    8  N8  UNL     1     -31.724   7.638   1.221  1.00 20.00    -0.191 NA
HETATM    9  F9  UNL     1     -36.100   6.488   4.936  1.00 20.00    -0.203 F 
HETATM   10  F10 UNL     1     -34.597   8.027   3.269  1.00 20.00    -0.201 F 
HETATM   11 CL11 UNL     1     -33.198   2.410   4.127  1.00 20.00    -0.084 Cl
ENDROOT
TORSDOF 0
ENDMDL
MODEL 7
REMARK VINA RESULT:       0.4      2.375      3.330
REMARK  0 active torsions:
REMARK  status: ('A' for Active; 'I' for Inactive)
ROOT
HETATM    1  C1  UNL     1     -32.592   9.188   1.310  1.00 20.00     0.102 C 
HETATM    2  C2  UNL     1     -32.066   6.819   1.027  1.00 20.00     0.050 A 
HETATM    3  C3  UNL     1     -33.046   5.163   2.488  1.00 20.00     0.069 A 
HETATM    4  C4  UNL     1     -32.747   7.826   1.711  1.00 20.00     0.087 A 
HETATM    5  C5  UNL     1     -33.727   6.169   3.172  1.00 20.00     0.158 A 
HETATM    6  C6  UNL     1     -33.578   7.501   2.784  1.00 20.00     0.175 A 
HETATM    7  C7  UNL     1     -32.215   5.487   1.416  1.00 20.00     0.038 A 
HETATM    8  N8  UNL     1     -32.467  10.295   0.985  1.00 20.00    -0.191 NA
HETATM    9  F9  UNL     1     -34.526   5.857   4.202  1.00 20.00    -0.203 F 
HETATM   10  F10 UNL     1     -34.241   8.457   3.450  1.00 20.00    -0.201 F 
HETATM   11 CL11 UNL     1     -31.372   4.246   0.573  1.00 20.00    -0.084 Cl
ENDROOT
TORSDOF 0
ENDMDL
MODEL 8
REMARK VINA RESULT:       0.7      2.939      3.698
REMARK  0 active torsions:
REMARK  status: ('A' for Active; 'I' for Inactive)
ROOT
HETATM    1  C1  UNL     1     -31.825   5.019   0.903  1.00 20.00     0.102 C 
HETATM    2  C2  UNL     1     -32.112   7.440   1.058  1.00 20.00     0.050 A 
HETATM    3  C3  UNL     1     -33.502   8.402   2.784  1.00 20.00     0.069 A 
HETATM    4  C4  UNL     1     -32.395   6.163   1.542  1.00 20.00     0.087 A 
HETATM    5  C5  UNL     1     -33.785   7.125   3.268  1.00 20.00     0.158 A 
HETATM    6  C6  UNL     1     -33.231   6.005   2.648  1.00 20.00     0.175 A 
HETATM    7  C7  UNL     1     -32.666   8.560   1.679  1.00 20.00     0.038 A 
HETATM    8  N8  UNL     1     -31.363   4.089   0.385  1.00 20.00    -0.191 NA
HETATM    9  F9  UNL     1     -34.587   6.974   4.331  1.00 20.00    -0.203 F 
HETATM   10  F10 UNL     1     -33.510   4.784   3.126  1.00 20.00    -0.201 F 
HETATM   11 CL11 UNL     1     -32.320  10.136   1.080  1.00 20.00    -0.084 Cl
ENDROOT
TORSDOF 0
ENDMDL
MODEL 9
REMARK VINA RESULT:       0.9      3.619      4.573
REMARK  0 active torsions:
REMARK  status: ('A' for Active; 'I' for Inactive)
ROOT
HETATM    1  C1  UNL     1     -31.787   8.144   0.902  1.00 20.00     0.102 C 
HETATM    2  C2  UNL     1     -32.949   8.207   3.051  1.00 20.00     0.050 A 
HETATM    3  C3  UNL     1     -33.968   6.210   3.951  1.00 20.00     0.069 A 
HETATM    4  C4  UNL     1     -32.526   7.487   1.933  1.00 20.00     0.087 A 
HETATM    5  C5  UNL     1     -33.545   5.490   2.835  1.00 20.00     0.158 A 
HETATM    6  C6  UNL     1     -32.823   6.128   1.826  1.00 20.00     0.175 A 
HETATM    7  C7  UNL     1     -33.670   7.569   4.060  1.00 20.00     0.038 A 
HETATM    8  N8  UNL     1     -31.187   8.677   0.064  1.00 20.00    -0.191 NA
HETATM    9  F9  UNL     1     -33.830   4.185   2.731  1.00 20.00    -0.203 F 
HETATM   10  F10 UNL     1     -32.422   5.422   0.758  1.00 20.00    -0.201 F 
HETATM   11 CL11 UNL     1     -34.194   8.458   5.437  1.00 20.00    -0.084 Cl
ENDROOT
TORSDOF 0
ENDMDL
