MODEL 1
REMARK VINA RESULT:      -0.6      0.000      0.000
REMARK  0 active torsions:
REMARK  status: ('A' for Active; 'I' for Inactive)
ROOT
HETATM    1  C1  UNL     1     -34.067   4.820   3.829  1.00 20.00     0.221 C 
HETATM    2  C2  UNL     1     -35.592   6.842   3.196  1.00 20.00     0.020 C 
HETATM    3  C3  UNL     1     -34.058   7.326   4.561  1.00 20.00     0.020 C 
HETATM    4  C4  UNL     1     -33.201   6.559   2.240  1.00 20.00     0.127 C 
HETATM    5  C5  UNL     1     -34.910   6.032   4.347  1.00 20.00     0.078 C 
HETATM    6  C6  UNL     1     -34.171   7.456   3.012  1.00 20.00     0.005 C 
HETATM    7  N7  UNL     1     -33.246   5.197   2.772  1.00 20.00    -0.360 N 
HETATM    8  O8  UNL     1     -34.104   3.673   4.275  1.00 20.00    -0.273 OA
HETATM    9  H17 UNL     1     -32.648   4.493   2.351  1.00 20.00     0.162 HD
ENDROOT
TORSDOF 0
ENDMDL
MODEL 2
REMARK VINA RESULT:      -0.4      1.500      2.443
REMARK  0 active torsions:
REMARK  status: ('A' for Active; 'I' for Inactive)
ROOT
HETATM    1  C1  UNL     1     -33.217   6.143   2.429  1.00 20.00     0.221 C 
HETATM    2  C2  UNL     1     -34.141   7.316   4.570  1.00 20.00     0.020 C 
HETATM    3  C3  UNL     1     -35.622   6.872   3.135  1.00 20.00     0.020 C 
HETATM    4  C4  UNL     1     -34.460   4.782   4.132  1.00 20.00     0.127 C 
HETATM    5  C5  UNL     1     -34.119   7.283   3.007  1.00 20.00     0.078 C 
HETATM    6  C6  UNL     1     -35.136   6.126   4.415  1.00 20.00     0.005 C 
HETATM    7  N7  UNL     1     -33.471   4.933   3.065  1.00 20.00    -0.360 N 
HETATM    8  O8  UNL     1     -32.384   6.268   1.531  1.00 20.00    -0.273 OA
HETATM    9  H17 UNL     1     -32.946   4.115   2.774  1.00 20.00     0.162 HD
ENDROOT
TORSDOF 0
ENDMDL
MODEL 3
REMARK VINA RESULT:      -0.4      2.108      3.045
REMARK  0 active torsions:
REMARK  status: ('A' for Active; 'I' for Inactive)
ROOT
HETATM    1  C1  UNL     1     -33.626   7.386   3.358  1.00 20.00     0.221 C 
HETATM    2  C2  UNL     1     -32.728   8.544   1.198  1.00 20.00     0.020 C 
HETATM    3  C3  UNL     1     -31.209   7.890   2.508  1.00 20.00     0.020 C 
HETATM    4  C4  UNL     1     -32.651   5.975   1.526  1.00 20.00     0.127 C 
HETATM    5  C5  UNL     1     -32.648   8.449   2.756  1.00 20.00     0.078 C 
HETATM    6  C6  UNL     1     -31.856   7.252   1.242  1.00 20.00     0.005 C 
HETATM    7  N7  UNL     1     -33.545   6.183   2.664  1.00 20.00    -0.360 N 
HETATM    8  O8  UNL     1     -34.379   7.559   4.316  1.00 20.00    -0.273 OA
HETATM    9  H17 UNL     1     -34.134   5.413   2.963  1.00 20.00     0.162 HD
ENDROOT
TORSDOF 0
ENDMDL
MODEL 4
REMARK VINA RESULT:      -0.3      1.802      2.915
REMARK  0 active torsions:
REMARK  status: ('A' for Active; 'I' for Inactive)
ROOT
HETATM    1  C1  UNL     1     -33.959   6.458   3.225  1.00 20.00     0.221 C 
HETATM    2  C2  UNL     1     -31.883   5.573   1.913  1.00 20.00     0.020 C 
HETATM    3  C3  UNL     1     -33.335   6.494   0.691  1.00 20.00     0.020 C 
HETATM    4  C4  UNL     1     -32.237   8.091   2.409  1.00 20.00     0.127 C 
HETATM    5  C5  UNL     1     -33.443   5.639   1.995  1.00 20.00     0.078 C 
HETATM    6  C6  UNL     1     -32.019   7.016   1.341  1.00 20.00     0.005 C 
HETATM    7  N7  UNL     1     -33.286   7.669   3.338  1.00 20.00    -0.360 N 
HETATM    8  O8  UNL     1     -34.841   6.104   4.008  1.00 20.00    -0.273 OA
HETATM    9  H17 UNL     1     -33.534   8.291   4.100  1.00 20.00     0.162 HD
ENDROOT
TORSDOF 0
ENDMDL
MODEL 5
REMARK VINA RESULT:      -0.0      2.051      2.794
REMARK  0 active torsions:
REMARK  status: ('A' for Active; 'I' for Inactive)
ROOT
HETATM    1  C1  UNL     1     -32.841   7.372   2.294  1.00 20.00     0.221 C 
HETATM    2  C2  UNL     1     -33.830   7.344   4.710  1.00 20.00     0.020 C 
HETATM    3  C3  UNL     1     -35.293   7.366   3.190  1.00 20.00     0.020 C 
HETATM    4  C4  UNL     1     -33.813   5.241   3.196  1.00 20.00     0.127 C 
HETATM    5  C5  UNL     1     -33.869   8.002   3.292  1.00 20.00     0.078 C 
HETATM    6  C6  UNL     1     -34.657   6.214   4.024  1.00 20.00     0.005 C 
HETATM    7  N7  UNL     1     -32.899   5.983   2.328  1.00 20.00    -0.360 N 
HETATM    8  O8  UNL     1     -32.071   7.995   1.563  1.00 20.00    -0.273 OA
HETATM    9  H17 UNL     1     -32.277   5.459   1.721  1.00 20.00     0.162 HD
ENDROOT
TORSDOF 0
ENDMDL
MODEL 6
REMARK VINA RESULT:       0.1      2.114      3.264
REMARK  0 active torsions:
REMARK  status: ('A' for Active; 'I' for Inactive)
ROOT
HETATM    1  C1  UNL     1     -32.649   6.071   1.624  1.00 20.00     0.221 C 
HETATM    2  C2  UNL     1     -31.252   8.021   2.653  1.00 20.00     0.020 C 
HETATM    3  C3  UNL     1     -32.746   8.661   1.307  1.00 20.00     0.020 C 
HETATM    4  C4  UNL     1     -33.667   7.490   3.426  1.00 20.00     0.127 C 
HETATM    5  C5  UNL     1     -31.843   7.385   1.353  1.00 20.00     0.078 C 
HETATM    6  C6  UNL     1     -32.707   8.540   2.861  1.00 20.00     0.005 C 
HETATM    7  N7  UNL     1     -33.534   6.237   2.684  1.00 20.00    -0.360 N 
HETATM    8  O8  UNL     1     -32.538   5.016   1.000  1.00 20.00    -0.273 OA
HETATM    9  H17 UNL     1     -34.115   5.450   2.955  1.00 20.00     0.162 HD
ENDROOT
TORSDOF 0
ENDMDL
MODEL 7
REMARK VINA RESULT:       0.2      2.250      2.899
REMARK  0 active torsions:
REMARK  status: ('A' for Active; 'I' for Inactive)
ROOT
HETATM    1  C1  UNL     1     -32.681   7.369   2.494  1.00 20.00     0.221 C 
HETATM    2  C2  UNL     1     -35.209   6.789   2.788  1.00 20.00     0.020 C 
HETATM    3  C3  UNL     1     -33.906   5.425   3.734  1.00 20.00     0.020 C 
HETATM    4  C4  UNL     1     -33.796   7.828   4.695  1.00 20.00     0.127 C 
HETATM    5  C5  UNL     1     -33.784   6.262   2.418  1.00 20.00     0.078 C 
HETATM    6  C6  UNL     1     -34.691   6.667   4.253  1.00 20.00     0.005 C 
HETATM    7  N7  UNL     1     -32.780   8.094   3.677  1.00 20.00    -0.360 N 
HETATM    8  O8  UNL     1     -31.825   7.594   1.638  1.00 20.00    -0.273 OA
HETATM    9  H17 UNL     1     -32.116   8.842   3.842  1.00 20.00     0.162 HD
ENDROOT
TORSDOF 0
ENDMDL
MODEL 8
REMARK VINA RESULT:       0.4      1.218      2.092
REMARK  0 active torsions:
REMARK  status: ('A' for Active; 'I' for Inactive)
ROOT
HETATM    1  C1  UNL     1     -34.095   4.489   4.086  1.00 20.00     0.221 C 
HETATM    2  C2  UNL     1     -33.139   6.915   3.972  1.00 20.00     0.020 C 
HETATM    3  C3  UNL     1     -33.882   6.204   2.130  1.00 20.00     0.020 C 
HETATM    4  C4  UNL     1     -35.683   6.429   3.978  1.00 20.00     0.127 C 
HETATM    5  C5  UNL     1     -33.167   5.492   3.324  1.00 20.00     0.078 C 
HETATM    6  C6  UNL     1     -34.509   7.088   3.250  1.00 20.00     0.005 C 
HETATM    7  N7  UNL     1     -35.331   5.063   4.363  1.00 20.00    -0.360 N 
HETATM    8  O8  UNL     1     -33.801   3.339   4.412  1.00 20.00    -0.273 OA
HETATM    9  H17 UNL     1     -36.022   4.507   4.857  1.00 20.00     0.162 HD
ENDROOT
TORSDOF 0
ENDMDL
MODEL 9
REMARK VINA RESULT:       0.5      2.759      3.798
REMARK  0 active torsions:
REMARK  status: ('A' for Active; 'I' for Inactive)
ROOT
HETATM    1  C1  UNL     1     -32.336   7.842   1.818  1.00 20.00     0.221 C 
HETATM    2  C2  UNL     1     -33.515   5.742   0.811  1.00 20.00     0.020 C 
HETATM    3  C3  UNL     1     -31.836   5.287   2.005  1.00 20.00     0.020 C 
HETATM    4  C4  UNL     1     -33.774   6.416   3.299  1.00 20.00     0.127 C 
HETATM    5  C5  UNL     1     -32.162   6.487   1.056  1.00 20.00     0.078 C 
HETATM    6  C6  UNL     1     -33.364   5.326   2.306  1.00 20.00     0.005 C 
HETATM    7  N7  UNL     1     -33.163   7.691   2.925  1.00 20.00    -0.360 N 
HETATM    8  O8  UNL     1     -31.823   8.917   1.504  1.00 20.00    -0.273 OA
HETATM    9  H17 UNL     1     -33.352   8.505   3.501  1.00 20.00     0.162 HD
ENDROOT
TORSDOF 0
ENDMDL
