MODEL 1
REMARK VINA RESULT:      -1.0      0.000      0.000
REMARK  1 active torsions:
REMARK  status: ('A' for Active; 'I' for Inactive)
REMARK    1  A    between atoms: C2_2  and  C6_6 
ROOT
HETATM    1  C1  UNL     1     -33.082   7.548   3.716  1.00 20.00     0.139 C 
HETATM    2  C4  UNL     1     -32.789   7.935   2.261  1.00 20.00     0.081 C 
HETATM    3  C5  UNL     1     -33.414   6.589   1.832  1.00 20.00     0.028 C 
HETATM    4  C6  UNL     1     -33.869   6.278   3.294  1.00 20.00     0.035 C 
HETATM    5  C8  UNL     1     -35.369   6.368   3.538  1.00 20.00     0.027 C 
HETATM    6  O9  UNL     1     -32.807   8.057   4.783  1.00 20.00    -0.297 OA
ENDROOT
BRANCH   4   7
HETATM    7  C2  UNL     1     -33.251   5.063   3.877  1.00 20.00    -0.014 C 
HETATM    8  C3  UNL     1     -33.937   3.955   4.195  1.00 20.00    -0.034 C 
HETATM    9  C7  UNL     1     -33.315   2.732   4.781  1.00 20.00     0.036 C 
ENDBRANCH   4   7
TORSDOF 1
ENDMDL
MODEL 2
REMARK VINA RESULT:      -0.9      1.904      4.683
REMARK  1 active torsions:
REMARK  status: ('A' for Active; 'I' for Inactive)
REMARK    1  A    between atoms: C2_2  and  C6_6 
ROOT
HETATM    1  C1  UNL     1     -33.438   7.133   3.018  1.00 20.00     0.139 C 
HETATM    2  C4  UNL     1     -33.247   5.676   2.578  1.00 20.00     0.081 C 
HETATM    3  C5  UNL     1     -32.298   6.190   1.473  1.00 20.00     0.028 C 
HETATM    4  C6  UNL     1     -32.355   7.648   2.032  1.00 20.00     0.035 C 
HETATM    5  C8  UNL     1     -31.080   8.133   2.708  1.00 20.00     0.027 C 
HETATM    6  O9  UNL     1     -34.158   7.665   3.837  1.00 20.00    -0.297 OA
ENDROOT
BRANCH   4   7
HETATM    7  C2  UNL     1     -32.934   8.637   1.092  1.00 20.00    -0.014 C 
HETATM    8  C3  UNL     1     -32.225   9.613   0.505  1.00 20.00    -0.034 C 
HETATM    9  C7  UNL     1     -32.808  10.608  -0.443  1.00 20.00     0.036 C 
ENDBRANCH   4   7
TORSDOF 1
ENDMDL
MODEL 3
REMARK VINA RESULT:      -0.1      1.785      3.863
REMARK  1 active torsions:
REMARK  status: ('A' for Active; 'I' for Inactive)
REMARK    1  A    between atoms: C2_2  and  C6_6 
ROOT
HETATM    1  C1  UNL     1     -35.366   6.333   3.605  1.00 20.00     0.139 C 
HETATM    2  C4  UNL     1     -35.060   4.961   4.220  1.00 20.00     0.081 C 
HETATM    3  C5  UNL     1     -33.562   5.330   4.164  1.00 20.00     0.028 C 
HETATM    4  C6  UNL     1     -33.885   6.788   3.705  1.00 20.00     0.035 C 
HETATM    5  C8  UNL     1     -33.636   7.866   4.750  1.00 20.00     0.027 C 
HETATM    6  O9  UNL     1     -36.387   6.856   3.207  1.00 20.00    -0.297 OA
ENDROOT
BRANCH   4   7
HETATM    7  C2  UNL     1     -33.354   7.135   2.365  1.00 20.00    -0.014 C 
HETATM    8  C3  UNL     1     -32.331   7.978   2.163  1.00 20.00    -0.034 C 
HETATM    9  C7  UNL     1     -31.796   8.327   0.814  1.00 20.00     0.036 C 
ENDBRANCH   4   7
TORSDOF 1
ENDMDL
MODEL 4
REMARK VINA RESULT:      -0.0      1.387      1.953
REMARK  1 active torsions:
REMARK  status: ('A' for Active; 'I' for Inactive)
REMARK    1  A    between atoms: C2_2  and  C6_6 
ROOT
HETATM    1  C1  UNL     1     -34.793   6.624   3.698  1.00 20.00     0.139 C 
HETATM    2  C4  UNL     1     -34.169   7.993   3.999  1.00 20.00     0.081 C 
HETATM    3  C5  UNL     1     -32.822   7.430   3.496  1.00 20.00     0.028 C 
HETATM    4  C6  UNL     1     -33.495   6.100   3.028  1.00 20.00     0.035 C 
HETATM    5  C8  UNL     1     -33.602   5.924   1.519  1.00 20.00     0.027 C 
HETATM    6  O9  UNL     1     -35.891   6.149   3.903  1.00 20.00    -0.297 OA
ENDROOT
BRANCH   4   7
HETATM    7  C2  UNL     1     -32.999   4.889   3.726  1.00 20.00    -0.014 C 
HETATM    8  C3  UNL     1     -33.763   3.823   4.006  1.00 20.00    -0.034 C 
HETATM    9  C7  UNL     1     -33.264   2.604   4.708  1.00 20.00     0.036 C 
ENDBRANCH   4   7
TORSDOF 1
ENDMDL
MODEL 5
REMARK VINA RESULT:       0.1      2.331      3.205
REMARK  1 active torsions:
REMARK  status: ('A' for Active; 'I' for Inactive)
REMARK    1  A    between atoms: C2_2  and  C6_6 
ROOT
HETATM    1  C1  UNL     1     -31.892   7.257   1.443  1.00 20.00     0.139 C 
HETATM    2  C4  UNL     1     -31.771   8.379   0.403  1.00 20.00     0.081 C 
HETATM    3  C5  UNL     1     -32.629   9.262   1.335  1.00 20.00     0.028 C 
HETATM    4  C6  UNL     1     -32.602   8.184   2.465  1.00 20.00     0.035 C 
HETATM    5  C8  UNL     1     -31.752   8.538   3.678  1.00 20.00     0.027 C 
HETATM    6  O9  UNL     1     -31.547   6.093   1.453  1.00 20.00    -0.297 OA
ENDROOT
BRANCH   4   7
HETATM    7  C2  UNL     1     -33.936   7.644   2.821  1.00 20.00    -0.014 C 
HETATM    8  C3  UNL     1     -34.134   6.696   3.749  1.00 20.00    -0.034 C 
HETATM    9  C7  UNL     1     -35.477   6.152   4.108  1.00 20.00     0.036 C 
ENDBRANCH   4   7
TORSDOF 1
ENDMDL
MODEL 6
REMARK VINA RESULT:       0.3      1.225      1.496
REMARK  1 active torsions:
REMARK  status: ('A' for Active; 'I' for Inactive)
REMARK    1  A    between atoms: C2_2  and  C6_6 
ROOT
HETATM    1  C1  UNL     1     -33.371   7.323   2.900  1.00 20.00     0.139 C 
HETATM    2  C4  UNL     1     -32.200   8.111   2.297  1.00 20.00     0.081 C 
HETATM    3  C5  UNL     1     -31.736   6.802   1.622  1.00 20.00     0.028 C 
HETATM    4  C6  UNL     1     -33.021   6.045   2.090  1.00 20.00     0.035 C 
HETATM    5  C8  UNL     1     -34.017   5.717   0.987  1.00 20.00     0.027 C 
HETATM    6  O9  UNL     1     -34.241   7.607   3.697  1.00 20.00    -0.297 OA
ENDROOT
BRANCH   4   7
HETATM    7  C2  UNL     1     -32.757   4.906   3.001  1.00 20.00    -0.014 C 
HETATM    8  C3  UNL     1     -33.716   4.235   3.655  1.00 20.00    -0.034 C 
HETATM    9  C7  UNL     1     -33.450   3.087   4.572  1.00 20.00     0.036 C 
ENDBRANCH   4   7
TORSDOF 1
ENDMDL
MODEL 7
REMARK VINA RESULT:       0.7      2.391      3.276
REMARK  1 active torsions:
REMARK  status: ('A' for Active; 'I' for Inactive)
REMARK    1  A    between atoms: C2_2  and  C6_6 
ROOT
HETATM    1  C1  UNL     1     -32.395   8.531   0.913  1.00 20.00     0.139 C 
HETATM    2  C4  UNL     1     -31.120   9.117   1.532  1.00 20.00     0.081 C 
HETATM    3  C5  UNL     1     -31.226   8.043   2.637  1.00 20.00     0.028 C 
HETATM    4  C6  UNL     1     -32.418   7.341   1.910  1.00 20.00     0.035 C 
HETATM    5  C8  UNL     1     -32.089   5.995   1.279  1.00 20.00     0.027 C 
HETATM    6  O9  UNL     1     -33.102   8.872  -0.013  1.00 20.00    -0.297 OA
ENDROOT
BRANCH   4   7
HETATM    7  C2  UNL     1     -33.682   7.333   2.684  1.00 20.00    -0.014 C 
HETATM    8  C3  UNL     1     -34.138   6.267   3.358  1.00 20.00    -0.034 C 
HETATM    9  C7  UNL     1     -35.411   6.259   4.138  1.00 20.00     0.036 C 
ENDBRANCH   4   7
TORSDOF 1
ENDMDL
MODEL 8
REMARK VINA RESULT:       1.1      2.524      3.145
REMARK  1 active torsions:
REMARK  status: ('A' for Active; 'I' for Inactive)
REMARK    1  A    between atoms: C2_2  and  C6_6 
ROOT
HETATM    1  C1  UNL     1     -33.740   7.429   3.458  1.00 20.00     0.139 C 
HETATM    2  C4  UNL     1     -33.090   8.258   4.574  1.00 20.00     0.081 C 
HETATM    3  C5  UNL     1     -31.869   8.448   3.648  1.00 20.00     0.028 C 
HETATM    4  C6  UNL     1     -32.602   7.756   2.454  1.00 20.00     0.035 C 
HETATM    5  C8  UNL     1     -33.019   8.686   1.324  1.00 20.00     0.027 C 
HETATM    6  O9  UNL     1     -34.762   6.778   3.395  1.00 20.00    -0.297 OA
ENDROOT
BRANCH   4   7
HETATM    7  C2  UNL     1     -31.949   6.512   1.981  1.00 20.00    -0.014 C 
HETATM    8  C3  UNL     1     -32.452   5.726   1.017  1.00 20.00    -0.034 C 
HETATM    9  C7  UNL     1     -31.795   4.473   0.539  1.00 20.00     0.036 C 
ENDBRANCH   4   7
TORSDOF 1
ENDMDL
MODEL 9
REMARK VINA RESULT:       1.1      2.895      4.798
REMARK  1 active torsions:
REMARK  status: ('A' for Active; 'I' for Inactive)
REMARK    1  A    between atoms: C2_2  and  C6_6 
ROOT
HETATM    1  C1  UNL     1     -33.219   5.808   0.708  1.00 20.00     0.139 C 
HETATM    2  C4  UNL     1     -32.211   4.701   1.044  1.00 20.00     0.081 C 
HETATM    3  C5  UNL     1     -31.426   5.740   1.874  1.00 20.00     0.028 C 
HETATM    4  C6  UNL     1     -32.543   6.815   1.677  1.00 20.00     0.035 C 
HETATM    5  C8  UNL     1     -33.366   7.129   2.919  1.00 20.00     0.027 C 
HETATM    6  O9  UNL     1     -34.182   5.859  -0.029  1.00 20.00    -0.297 OA
ENDROOT
BRANCH   4   7
HETATM    7  C2  UNL     1     -32.098   8.025   0.945  1.00 20.00    -0.014 C 
HETATM    8  C3  UNL     1     -32.751   9.197   0.973  1.00 20.00    -0.034 C 
HETATM    9  C7  UNL     1     -32.303  10.415   0.237  1.00 20.00     0.036 C 
ENDBRANCH   4   7
TORSDOF 1
ENDMDL
