MODEL 1
REMARK VINA RESULT:      -3.4      0.000      0.000
REMARK  5 active torsions:
REMARK  status: ('A' for Active; 'I' for Inactive)
REMARK    1  A    between atoms: C3_3  and  C7_7 
REMARK    2  A    between atoms: C4_4  and  C8_8 
REMARK    3  A    between atoms: C7_7  and  C9_9 
REMARK    4  A    between atoms: C8_8  and  C10_10 
REMARK    5  A    between atoms: C9_9  and  C10_10 
ROOT
HETATM    1  C9  UNL     1     -34.229   7.326   3.693  1.00 20.00     0.004 C 
ENDROOT
BRANCH   1   2
HETATM    2  C7  UNL     1     -35.076   6.093   4.015  1.00 20.00     0.026 C 
BRANCH   2   3
HETATM    3  C3  UNL     1     -34.304   4.827   3.783  1.00 20.00    -0.031 C 
HETATM    4  C1  UNL     1     -33.998   3.951   4.752  1.00 20.00    -0.035 C 
HETATM    5  C5  UNL     1     -33.224   2.695   4.522  1.00 20.00     0.035 C 
ENDBRANCH   2   3
ENDBRANCH   1   2
BRANCH   1   6
HETATM    6  C10 UNL     1     -33.116   6.990   2.698  1.00 20.00     0.004 C 
BRANCH   6   7
HETATM    7  C8  UNL     1     -32.252   8.216   2.397  1.00 20.00     0.026 C 
BRANCH   7   8
HETATM    8  C4  UNL     1     -31.836   8.247   0.955  1.00 20.00    -0.031 C 
HETATM    9  C2  UNL     1     -32.056   9.288   0.137  1.00 20.00    -0.035 C 
HETATM   10  C6  UNL     1     -32.743  10.544   0.557  1.00 20.00     0.035 C 
ENDBRANCH   7   8
ENDBRANCH   6   7
ENDBRANCH   1   6
TORSDOF 5
ENDMDL
MODEL 2
REMARK VINA RESULT:      -2.7      0.978      5.789
REMARK  5 active torsions:
REMARK  status: ('A' for Active; 'I' for Inactive)
REMARK    1  A    between atoms: C3_3  and  C7_7 
REMARK    2  A    between atoms: C4_4  and  C8_8 
REMARK    3  A    between atoms: C7_7  and  C9_9 
REMARK    4  A    between atoms: C8_8  and  C10_10 
REMARK    5  A    between atoms: C9_9  and  C10_10 
ROOT
HETATM    1  C9  UNL     1     -32.086   6.306   1.483  1.00 20.00     0.004 C 
ENDROOT
BRANCH   1   2
HETATM    2  C7  UNL     1     -31.630   7.713   1.872  1.00 20.00     0.026 C 
BRANCH   2   3
HETATM    3  C3  UNL     1     -31.764   8.667   0.721  1.00 20.00    -0.031 C 
HETATM    4  C1  UNL     1     -32.656   9.668   0.681  1.00 20.00    -0.035 C 
HETATM    5  C5  UNL     1     -32.793  10.612  -0.467  1.00 20.00     0.035 C 
ENDBRANCH   2   3
ENDBRANCH   1   2
BRANCH   1   6
HETATM    6  C10 UNL     1     -33.514   6.033   1.964  1.00 20.00     0.004 C 
BRANCH   6   7
HETATM    7  C8  UNL     1     -33.809   6.766   3.274  1.00 20.00     0.026 C 
BRANCH   7   8
HETATM    8  C4  UNL     1     -35.042   6.223   3.936  1.00 20.00    -0.031 C 
HETATM    9  C2  UNL     1     -35.131   4.986   4.446  1.00 20.00    -0.035 C 
HETATM   10  C6  UNL     1     -34.017   3.993   4.419  1.00 20.00     0.035 C 
ENDBRANCH   7   8
ENDBRANCH   6   7
ENDBRANCH   1   6
TORSDOF 5
ENDMDL
MODEL 3
REMARK VINA RESULT:      -2.6      1.517      5.240
REMARK  5 active torsions:
REMARK  status: ('A' for Active; 'I' for Inactive)
REMARK    1  A    between atoms: C3_3  and  C7_7 
REMARK    2  A    between atoms: C4_4  and  C8_8 
REMARK    3  A    between atoms: C7_7  and  C9_9 
REMARK    4  A    between atoms: C8_8  and  C10_10 
REMARK    5  A    between atoms: C9_9  and  C10_10 
ROOT
HETATM    1  C9  UNL     1     -31.858   6.031   1.422  1.00 20.00     0.004 C 
ENDROOT
BRANCH   1   2
HETATM    2  C7  UNL     1     -31.494   7.470   1.793  1.00 20.00     0.026 C 
BRANCH   2   3
HETATM    3  C3  UNL     1     -32.417   8.453   1.134  1.00 20.00    -0.031 C 
HETATM    4  C1  UNL     1     -31.998   9.513   0.427  1.00 20.00    -0.035 C 
HETATM    5  C5  UNL     1     -32.917  10.494  -0.222  1.00 20.00     0.035 C 
ENDBRANCH   2   3
ENDBRANCH   1   2
BRANCH   1   6
HETATM    6  C10 UNL     1     -33.341   5.751   1.680  1.00 20.00     0.004 C 
BRANCH   6   7
HETATM    7  C8  UNL     1     -33.619   5.563   3.173  1.00 20.00     0.026 C 
BRANCH   7   8
HETATM    8  C4  UNL     1     -34.726   6.465   3.637  1.00 20.00    -0.031 C 
HETATM    9  C2  UNL     1     -34.527   7.584   4.350  1.00 20.00    -0.035 C 
HETATM   10  C6  UNL     1     -33.181   8.072   4.772  1.00 20.00     0.035 C 
ENDBRANCH   7   8
ENDBRANCH   6   7
ENDBRANCH   1   6
TORSDOF 5
ENDMDL
MODEL 4
REMARK VINA RESULT:      -2.6      1.429      2.013
REMARK  5 active torsions:
REMARK  status: ('A' for Active; 'I' for Inactive)
REMARK    1  A    between atoms: C3_3  and  C7_7 
REMARK    2  A    between atoms: C4_4  and  C8_8 
REMARK    3  A    between atoms: C7_7  and  C9_9 
REMARK    4  A    between atoms: C8_8  and  C10_10 
REMARK    5  A    between atoms: C9_9  and  C10_10 
ROOT
HETATM    1  C9  UNL     1     -34.662   7.342   4.397  1.00 20.00     0.004 C 
ENDROOT
BRANCH   1   2
HETATM    2  C7  UNL     1     -35.152   6.065   3.712  1.00 20.00     0.026 C 
BRANCH   2   3
HETATM    3  C3  UNL     1     -34.701   4.841   4.454  1.00 20.00    -0.031 C 
HETATM    4  C1  UNL     1     -33.730   4.023   4.023  1.00 20.00    -0.035 C 
HETATM    5  C5  UNL     1     -33.287   2.801   4.759  1.00 20.00     0.035 C 
ENDBRANCH   2   3
ENDBRANCH   1   2
BRANCH   1   6
HETATM    6  C10 UNL     1     -33.235   7.690   3.967  1.00 20.00     0.004 C 
BRANCH   6   7
HETATM    7  C8  UNL     1     -33.186   8.121   2.500  1.00 20.00     0.026 C 
BRANCH   7   8
HETATM    8  C4  UNL     1     -31.889   7.723   1.858  1.00 20.00    -0.031 C 
HETATM    9  C2  UNL     1     -31.697   6.558   1.222  1.00 20.00    -0.035 C 
HETATM   10  C6  UNL     1     -32.750   5.510   1.072  1.00 20.00     0.035 C 
ENDBRANCH   7   8
ENDBRANCH   6   7
ENDBRANCH   1   6
TORSDOF 5
ENDMDL
MODEL 5
REMARK VINA RESULT:      -2.4      0.822      5.859
REMARK  5 active torsions:
REMARK  status: ('A' for Active; 'I' for Inactive)
REMARK    1  A    between atoms: C3_3  and  C7_7 
REMARK    2  A    between atoms: C4_4  and  C8_8 
REMARK    3  A    between atoms: C7_7  and  C9_9 
REMARK    4  A    between atoms: C8_8  and  C10_10 
REMARK    5  A    between atoms: C9_9  and  C10_10 
ROOT
HETATM    1  C9  UNL     1     -33.561   6.617   2.546  1.00 20.00     0.004 C 
ENDROOT
BRANCH   1   2
HETATM    2  C7  UNL     1     -32.418   7.614   2.742  1.00 20.00     0.026 C 
BRANCH   2   3
HETATM    3  C3  UNL     1     -32.049   8.282   1.450  1.00 20.00    -0.031 C 
HETATM    4  C1  UNL     1     -32.686   9.354   0.956  1.00 20.00    -0.035 C 
HETATM    5  C5  UNL     1     -32.323  10.014  -0.334  1.00 20.00     0.035 C 
ENDBRANCH   2   3
ENDBRANCH   1   2
BRANCH   1   6
HETATM    6  C10 UNL     1     -34.560   6.682   3.704  1.00 20.00     0.004 C 
BRANCH   6   7
HETATM    7  C8  UNL     1     -34.676   5.333   4.414  1.00 20.00     0.026 C 
BRANCH   7   8
HETATM    8  C4  UNL     1     -34.074   4.231   3.592  1.00 20.00    -0.031 C 
HETATM    9  C2  UNL     1     -33.341   3.231   4.105  1.00 20.00    -0.035 C 
HETATM   10  C6  UNL     1     -33.032   3.089   5.558  1.00 20.00     0.035 C 
ENDBRANCH   7   8
ENDBRANCH   6   7
ENDBRANCH   1   6
TORSDOF 5
ENDMDL
MODEL 6
REMARK VINA RESULT:      -2.4      0.895      5.738
REMARK  5 active torsions:
REMARK  status: ('A' for Active; 'I' for Inactive)
REMARK    1  A    between atoms: C3_3  and  C7_7 
REMARK    2  A    between atoms: C4_4  and  C8_8 
REMARK    3  A    between atoms: C7_7  and  C9_9 
REMARK    4  A    between atoms: C8_8  and  C10_10 
REMARK    5  A    between atoms: C9_9  and  C10_10 
ROOT
HETATM    1  C9  UNL     1     -32.196   8.326   3.479  1.00 20.00     0.004 C 
ENDROOT
BRANCH   1   2
HETATM    2  C7  UNL     1     -31.995   7.713   2.092  1.00 20.00     0.026 C 
BRANCH   2   3
HETATM    3  C3  UNL     1     -32.655   8.540   1.029  1.00 20.00    -0.031 C 
HETATM    4  C1  UNL     1     -32.114   9.648   0.501  1.00 20.00    -0.035 C 
HETATM    5  C5  UNL     1     -32.775  10.474  -0.552  1.00 20.00     0.035 C 
ENDBRANCH   2   3
ENDBRANCH   1   2
BRANCH   1   6
HETATM    6  C10 UNL     1     -33.519   7.871   4.100  1.00 20.00     0.004 C 
BRANCH   6   7
HETATM    7  C8  UNL     1     -34.151   6.736   3.292  1.00 20.00     0.026 C 
BRANCH   7   8
HETATM    8  C4  UNL     1     -35.198   6.017   4.091  1.00 20.00    -0.031 C 
HETATM    9  C2  UNL     1     -35.067   4.757   4.531  1.00 20.00    -0.035 C 
HETATM   10  C6  UNL     1     -33.862   3.911   4.282  1.00 20.00     0.035 C 
ENDBRANCH   7   8
ENDBRANCH   6   7
ENDBRANCH   1   6
TORSDOF 5
ENDMDL
MODEL 7
REMARK VINA RESULT:      -2.2      1.891      5.035
REMARK  5 active torsions:
REMARK  status: ('A' for Active; 'I' for Inactive)
REMARK    1  A    between atoms: C3_3  and  C7_7 
REMARK    2  A    between atoms: C4_4  and  C8_8 
REMARK    3  A    between atoms: C7_7  and  C9_9 
REMARK    4  A    between atoms: C8_8  and  C10_10 
REMARK    5  A    between atoms: C9_9  and  C10_10 
ROOT
HETATM    1  C9  UNL     1     -34.151   7.407   4.110  1.00 20.00     0.004 C 
ENDROOT
BRANCH   1   2
HETATM    2  C7  UNL     1     -33.111   7.671   3.021  1.00 20.00     0.026 C 
BRANCH   2   3
HETATM    3  C3  UNL     1     -33.143   6.604   1.966  1.00 20.00    -0.031 C 
HETATM    4  C1  UNL     1     -32.077   5.870   1.614  1.00 20.00    -0.035 C 
HETATM    5  C5  UNL     1     -32.109   4.813   0.560  1.00 20.00     0.035 C 
ENDBRANCH   2   3
ENDBRANCH   1   2
BRANCH   1   6
HETATM    6  C10 UNL     1     -35.082   6.256   3.720  1.00 20.00     0.004 C 
BRANCH   6   7
HETATM    7  C8  UNL     1     -34.844   5.026   4.599  1.00 20.00     0.026 C 
BRANCH   7   8
HETATM    8  C4  UNL     1     -34.138   3.942   3.838  1.00 20.00    -0.031 C 
HETATM    9  C2  UNL     1     -33.245   3.105   4.387  1.00 20.00    -0.035 C 
HETATM   10  C6  UNL     1     -32.841   3.147   5.824  1.00 20.00     0.035 C 
ENDBRANCH   7   8
ENDBRANCH   6   7
ENDBRANCH   1   6
TORSDOF 5
ENDMDL
MODEL 8
REMARK VINA RESULT:      -1.8      1.477      4.719
REMARK  5 active torsions:
REMARK  status: ('A' for Active; 'I' for Inactive)
REMARK    1  A    between atoms: C3_3  and  C7_7 
REMARK    2  A    between atoms: C4_4  and  C8_8 
REMARK    3  A    between atoms: C7_7  and  C9_9 
REMARK    4  A    between atoms: C8_8  and  C10_10 
REMARK    5  A    between atoms: C9_9  and  C10_10 
ROOT
HETATM    1  C9  UNL     1     -32.460   8.042   3.636  1.00 20.00     0.004 C 
ENDROOT
BRANCH   1   2
HETATM    2  C7  UNL     1     -32.434   8.221   2.117  1.00 20.00     0.026 C 
BRANCH   2   3
HETATM    3  C3  UNL     1     -31.810   7.037   1.440  1.00 20.00    -0.031 C 
HETATM    4  C1  UNL     1     -32.414   5.846   1.312  1.00 20.00    -0.035 C 
HETATM    5  C5  UNL     1     -31.789   4.666   0.644  1.00 20.00     0.035 C 
ENDBRANCH   2   3
ENDBRANCH   1   2
BRANCH   1   6
HETATM    6  C10 UNL     1     -33.894   7.907   4.154  1.00 20.00     0.004 C 
BRANCH   6   7
HETATM    7  C8  UNL     1     -34.660   6.824   3.392  1.00 20.00     0.026 C 
BRANCH   7   8
HETATM    8  C4  UNL     1     -35.417   5.930   4.331  1.00 20.00    -0.031 C 
HETATM    9  C2  UNL     1     -35.047   4.676   4.628  1.00 20.00    -0.035 C 
HETATM   10  C6  UNL     1     -33.836   4.010   4.063  1.00 20.00     0.035 C 
ENDBRANCH   7   8
ENDBRANCH   6   7
ENDBRANCH   1   6
TORSDOF 5
ENDMDL
MODEL 9
REMARK VINA RESULT:      -1.2      1.491      1.956
REMARK  5 active torsions:
REMARK  status: ('A' for Active; 'I' for Inactive)
REMARK    1  A    between atoms: C3_3  and  C7_7 
REMARK    2  A    between atoms: C4_4  and  C8_8 
REMARK    3  A    between atoms: C7_7  and  C9_9 
REMARK    4  A    between atoms: C8_8  and  C10_10 
REMARK    5  A    between atoms: C9_9  and  C10_10 
ROOT
HETATM    1  C9  UNL     1     -34.257   7.497   4.086  1.00 20.00     0.004 C 
ENDROOT
BRANCH   1   2
HETATM    2  C7  UNL     1     -34.630   6.095   3.602  1.00 20.00     0.026 C 
BRANCH   2   3
HETATM    3  C3  UNL     1     -33.477   5.434   2.906  1.00 20.00    -0.031 C 
HETATM    4  C1  UNL     1     -33.267   5.501   1.583  1.00 20.00    -0.035 C 
HETATM    5  C5  UNL     1     -32.122   4.838   0.889  1.00 20.00     0.035 C 
ENDBRANCH   2   3
ENDBRANCH   1   2
BRANCH   1   6
HETATM    6  C10 UNL     1     -32.785   7.807   3.807  1.00 20.00     0.004 C 
BRANCH   6   7
HETATM    7  C8  UNL     1     -32.638   8.873   2.719  1.00 20.00     0.026 C 
BRANCH   7   8
HETATM    8  C4  UNL     1     -31.794   8.377   1.581  1.00 20.00    -0.031 C 
HETATM    9  C2  UNL     1     -31.780   8.938   0.363  1.00 20.00    -0.035 C 
HETATM   10  C6  UNL     1     -32.604  10.124  -0.016  1.00 20.00     0.035 C 
ENDBRANCH   7   8
ENDBRANCH   6   7
ENDBRANCH   1   6
TORSDOF 5
ENDMDL
