MODEL 1
REMARK VINA RESULT:      -0.8      0.000      0.000
REMARK  1 active torsions:
REMARK  status: ('A' for Active; 'I' for Inactive)
REMARK    1  A    between atoms: N9_9  and  O10_10 
ROOT
HETATM    1  C1  UNL     1     -34.362   5.694   3.898  1.00 20.00     0.044 C 
HETATM    2  C2  UNL     1     -34.744   6.985   4.600  1.00 20.00     0.058 C 
HETATM    3  C3  UNL     1     -34.183   8.052   3.634  1.00 20.00     0.011 C 
HETATM    4  C4  UNL     1     -31.770   6.343   1.226  1.00 20.00     0.001 C 
HETATM    5  C5  UNL     1     -32.499   5.233   2.025  1.00 20.00     0.011 C 
HETATM    6  C6  UNL     1     -32.375   7.692   1.686  1.00 20.00     0.005 C 
HETATM    7  C7  UNL     1     -33.683   5.964   2.597  1.00 20.00     0.040 C 
HETATM    8  C8  UNL     1     -33.043   7.300   2.980  1.00 20.00    -0.004 C 
HETATM    9  N9  UNL     1     -34.631   4.525   4.367  1.00 20.00    -0.145 NA
ENDROOT
BRANCH   9  10
HETATM   10  O10 UNL     1     -34.141   3.568   3.475  1.00 20.00    -0.266 OA
HETATM   11  H23 UNL     1     -34.341   2.741   3.945  1.00 20.00     0.247 HD
ENDBRANCH   9  10
TORSDOF 1
ENDMDL
MODEL 2
REMARK VINA RESULT:      -0.5      2.668      4.081
REMARK  1 active torsions:
REMARK  status: ('A' for Active; 'I' for Inactive)
REMARK    1  A    between atoms: N9_9  and  O10_10 
ROOT
HETATM    1  C1  UNL     1     -32.319   7.020   1.622  1.00 20.00     0.044 C 
HETATM    2  C2  UNL     1     -31.913   5.628   1.170  1.00 20.00     0.058 C 
HETATM    3  C3  UNL     1     -33.008   4.750   1.816  1.00 20.00     0.011 C 
HETATM    4  C4  UNL     1     -34.817   6.829   4.451  1.00 20.00     0.001 C 
HETATM    5  C5  UNL     1     -33.893   7.785   3.655  1.00 20.00     0.011 C 
HETATM    6  C6  UNL     1     -34.679   5.431   3.800  1.00 20.00     0.005 C 
HETATM    7  C7  UNL     1     -33.580   6.985   2.419  1.00 20.00     0.040 C 
HETATM    8  C8  UNL     1     -33.401   5.587   3.015  1.00 20.00    -0.004 C 
HETATM    9  N9  UNL     1     -31.664   8.085   1.315  1.00 20.00    -0.145 NA
ENDROOT
BRANCH   9  10
HETATM   10  O10 UNL     1     -32.309   9.182   1.891  1.00 20.00    -0.266 OA
HETATM   11  H23 UNL     1     -32.767   9.565   1.123  1.00 20.00     0.247 HD
ENDBRANCH   9  10
TORSDOF 1
ENDMDL
MODEL 3
REMARK VINA RESULT:      -0.3      1.897      3.153
REMARK  1 active torsions:
REMARK  status: ('A' for Active; 'I' for Inactive)
REMARK    1  A    between atoms: N9_9  and  O10_10 
ROOT
HETATM    1  C1  UNL     1     -32.294   6.537   1.650  1.00 20.00     0.044 C 
HETATM    2  C2  UNL     1     -31.737   7.949   1.618  1.00 20.00     0.058 C 
HETATM    3  C3  UNL     1     -32.305   8.546   2.926  1.00 20.00     0.011 C 
HETATM    4  C4  UNL     1     -35.086   6.259   4.182  1.00 20.00     0.001 C 
HETATM    5  C5  UNL     1     -34.372   5.530   3.015  1.00 20.00     0.011 C 
HETATM    6  C6  UNL     1     -34.328   7.590   4.405  1.00 20.00     0.005 C 
HETATM    7  C7  UNL     1     -33.080   6.291   2.895  1.00 20.00     0.040 C 
HETATM    8  C8  UNL     1     -33.564   7.725   3.111  1.00 20.00    -0.004 C 
HETATM    9  N9  UNL     1     -32.076   5.667   0.725  1.00 20.00    -0.145 NA
ENDROOT
BRANCH   9  10
HETATM   10  O10 UNL     1     -32.733   4.483   1.070  1.00 20.00    -0.266 OA
HETATM   11  H23 UNL     1     -32.089   3.812   0.785  1.00 20.00     0.247 HD
ENDBRANCH   9  10
TORSDOF 1
ENDMDL
MODEL 4
REMARK VINA RESULT:       0.4      1.897      2.911
REMARK  1 active torsions:
REMARK  status: ('A' for Active; 'I' for Inactive)
REMARK    1  A    between atoms: N9_9  and  O10_10 
ROOT
HETATM    1  C1  UNL     1     -33.565   6.364   2.960  1.00 20.00     0.044 C 
HETATM    2  C2  UNL     1     -33.228   5.050   2.277  1.00 20.00     0.058 C 
HETATM    3  C3  UNL     1     -32.070   5.465   1.342  1.00 20.00     0.011 C 
HETATM    4  C4  UNL     1     -32.020   9.270   1.103  1.00 20.00     0.001 C 
HETATM    5  C5  UNL     1     -33.022   8.885   2.220  1.00 20.00     0.011 C 
HETATM    6  C6  UNL     1     -31.395   7.949   0.590  1.00 20.00     0.005 C 
HETATM    7  C7  UNL     1     -32.650   7.457   2.516  1.00 20.00     0.040 C 
HETATM    8  C8  UNL     1     -32.378   6.928   1.107  1.00 20.00    -0.004 C 
HETATM    9  N9  UNL     1     -34.503   6.490   3.835  1.00 20.00    -0.145 NA
ENDROOT
BRANCH   9  10
HETATM   10  O10 UNL     1     -34.539   7.821   4.254  1.00 20.00    -0.266 OA
HETATM   11  H23 UNL     1     -35.492   7.956   4.396  1.00 20.00     0.247 HD
ENDBRANCH   9  10
TORSDOF 1
ENDMDL
MODEL 5
REMARK VINA RESULT:       0.4      1.736      2.389
REMARK  1 active torsions:
REMARK  status: ('A' for Active; 'I' for Inactive)
REMARK    1  A    between atoms: N9_9  and  O10_10 
ROOT
HETATM    1  C1  UNL     1     -33.484   7.568   3.271  1.00 20.00     0.044 C 
HETATM    2  C2  UNL     1     -32.463   8.672   3.053  1.00 20.00     0.058 C 
HETATM    3  C3  UNL     1     -31.745   8.194   1.771  1.00 20.00     0.011 C 
HETATM    4  C4  UNL     1     -32.630   4.531   1.191  1.00 20.00     0.001 C 
HETATM    5  C5  UNL     1     -33.538   5.056   2.331  1.00 20.00     0.011 C 
HETATM    6  C6  UNL     1     -31.783   5.733   0.706  1.00 20.00     0.005 C 
HETATM    7  C7  UNL     1     -33.421   6.549   2.182  1.00 20.00     0.040 C 
HETATM    8  C8  UNL     1     -31.933   6.694   1.859  1.00 20.00    -0.004 C 
HETATM    9  N9  UNL     1     -34.312   7.552   4.257  1.00 20.00    -0.145 NA
ENDROOT
BRANCH   9  10
HETATM   10  O10 UNL     1     -35.100   6.403   4.152  1.00 20.00    -0.266 OA
HETATM   11  H23 UNL     1     -35.088   6.244   3.193  1.00 20.00     0.247 HD
ENDBRANCH   9  10
TORSDOF 1
ENDMDL
MODEL 6
REMARK VINA RESULT:       0.9      2.303      3.154
REMARK  1 active torsions:
REMARK  status: ('A' for Active; 'I' for Inactive)
REMARK    1  A    between atoms: N9_9  and  O10_10 
ROOT
HETATM    1  C1  UNL     1     -33.002   7.446   2.679  1.00 20.00     0.044 C 
HETATM    2  C2  UNL     1     -33.917   8.465   3.337  1.00 20.00     0.058 C 
HETATM    3  C3  UNL     1     -34.636   7.607   4.402  1.00 20.00     0.011 C 
HETATM    4  C4  UNL     1     -34.057   3.930   3.579  1.00 20.00     0.001 C 
HETATM    5  C5  UNL     1     -33.140   4.767   2.651  1.00 20.00     0.011 C 
HETATM    6  C6  UNL     1     -34.781   4.932   4.511  1.00 20.00     0.005 C 
HETATM    7  C7  UNL     1     -33.122   6.108   3.332  1.00 20.00     0.040 C 
HETATM    8  C8  UNL     1     -34.582   6.232   3.772  1.00 20.00    -0.004 C 
HETATM    9  N9  UNL     1     -32.207   7.729   1.706  1.00 20.00    -0.145 NA
ENDROOT
BRANCH   9  10
HETATM   10  O10 UNL     1     -31.519   6.568   1.347  1.00 20.00    -0.266 OA
HETATM   11  H23 UNL     1     -31.483   6.653   0.379  1.00 20.00     0.247 HD
ENDBRANCH   9  10
TORSDOF 1
ENDMDL
MODEL 7
REMARK VINA RESULT:       0.9      2.044      2.677
REMARK  1 active torsions:
REMARK  status: ('A' for Active; 'I' for Inactive)
REMARK    1  A    between atoms: N9_9  and  O10_10 
ROOT
HETATM    1  C1  UNL     1     -34.125   6.560   3.891  1.00 20.00     0.044 C 
HETATM    2  C2  UNL     1     -34.616   5.125   3.812  1.00 20.00     0.058 C 
HETATM    3  C3  UNL     1     -33.607   4.496   2.826  1.00 20.00     0.011 C 
HETATM    4  C4  UNL     1     -31.736   7.310   1.060  1.00 20.00     0.001 C 
HETATM    5  C5  UNL     1     -32.564   7.946   2.205  1.00 20.00     0.011 C 
HETATM    6  C6  UNL     1     -31.954   5.780   1.149  1.00 20.00     0.005 C 
HETATM    7  C7  UNL     1     -32.895   6.758   3.068  1.00 20.00     0.040 C 
HETATM    8  C8  UNL     1     -33.193   5.699   2.006  1.00 20.00    -0.004 C 
HETATM    9  N9  UNL     1     -34.692   7.466   4.609  1.00 20.00    -0.145 NA
ENDROOT
BRANCH   9  10
HETATM   10  O10 UNL     1     -33.987   8.662   4.448  1.00 20.00    -0.266 OA
HETATM   11  H23 UNL     1     -34.027   8.785   3.485  1.00 20.00     0.247 HD
ENDBRANCH   9  10
TORSDOF 1
ENDMDL
MODEL 8
REMARK VINA RESULT:       1.2      0.973      2.622
REMARK  1 active torsions:
REMARK  status: ('A' for Active; 'I' for Inactive)
REMARK    1  A    between atoms: N9_9  and  O10_10 
ROOT
HETATM    1  C1  UNL     1     -33.406   4.854   2.833  1.00 20.00     0.044 C 
HETATM    2  C2  UNL     1     -32.601   4.761   1.548  1.00 20.00     0.058 C 
HETATM    3  C3  UNL     1     -32.041   6.195   1.418  1.00 20.00     0.011 C 
HETATM    4  C4  UNL     1     -33.982   8.464   3.789  1.00 20.00     0.001 C 
HETATM    5  C5  UNL     1     -34.388   7.002   4.104  1.00 20.00     0.011 C 
HETATM    6  C6  UNL     1     -32.898   8.397   2.685  1.00 20.00     0.005 C 
HETATM    7  C7  UNL     1     -33.290   6.209   3.448  1.00 20.00     0.040 C 
HETATM    8  C8  UNL     1     -33.092   6.999   2.154  1.00 20.00    -0.004 C 
HETATM    9  N9  UNL     1     -34.068   3.866   3.329  1.00 20.00    -0.145 NA
ENDROOT
BRANCH   9  10
HETATM   10  O10 UNL     1     -34.686   4.297   4.506  1.00 20.00    -0.266 OA
HETATM   11  H23 UNL     1     -34.171   5.094   4.717  1.00 20.00     0.247 HD
ENDBRANCH   9  10
TORSDOF 1
ENDMDL
MODEL 9
REMARK VINA RESULT:       1.4      1.574      1.964
REMARK  1 active torsions:
REMARK  status: ('A' for Active; 'I' for Inactive)
REMARK    1  A    between atoms: N9_9  and  O10_10 
ROOT
HETATM    1  C1  UNL     1     -33.439   5.687   2.546  1.00 20.00     0.044 C 
HETATM    2  C2  UNL     1     -34.234   5.988   3.804  1.00 20.00     0.058 C 
HETATM    3  C3  UNL     1     -34.244   7.533   3.814  1.00 20.00     0.011 C 
HETATM    4  C4  UNL     1     -31.599   8.769   1.362  1.00 20.00     0.001 C 
HETATM    5  C5  UNL     1     -31.741   7.238   1.164  1.00 20.00     0.011 C 
HETATM    6  C6  UNL     1     -32.645   9.179   2.427  1.00 20.00     0.005 C 
HETATM    7  C7  UNL     1     -33.056   6.942   1.833  1.00 20.00     0.040 C 
HETATM    8  C8  UNL     1     -32.969   7.850   3.061  1.00 20.00    -0.004 C 
HETATM    9  N9  UNL     1     -33.170   4.494   2.144  1.00 20.00    -0.145 NA
ENDROOT
BRANCH   9  10
HETATM   10  O10 UNL     1     -32.429   4.582   0.963  1.00 20.00    -0.266 OA
HETATM   11  H23 UNL     1     -31.716   5.190   1.225  1.00 20.00     0.247 HD
ENDBRANCH   9  10
TORSDOF 1
ENDMDL
