MODEL 1
REMARK VINA RESULT:      -1.9      0.000      0.000
REMARK  2 active torsions:
REMARK  status: ('A' for Active; 'I' for Inactive)
REMARK    1  A    between atoms: C1_1  and  C3_3 
REMARK    2  A    between atoms: C2_2  and  C4_4 
ROOT
HETATM    1  C4  UNL     1     -32.472   7.194   2.601  1.00 20.00     0.097 C 
HETATM    2  C5  UNL     1     -33.691   7.635   3.456  1.00 20.00     0.074 C 
HETATM    3  C6  UNL     1     -33.351   6.023   2.087  1.00 20.00     0.315 C 
HETATM    4  C7  UNL     1     -34.171   6.159   3.399  1.00 20.00     0.312 C 
HETATM    5  C8  UNL     1     -33.383   8.189   4.834  1.00 20.00     0.017 C 
HETATM    6  F10 UNL     1     -34.052   6.253   0.952  1.00 20.00    -0.199 F 
HETATM    7  F11 UNL     1     -32.713   4.843   1.920  1.00 20.00    -0.199 F 
HETATM    8  F12 UNL     1     -35.505   5.983   3.276  1.00 20.00    -0.199 F 
HETATM    9  F13 UNL     1     -33.763   5.363   4.414  1.00 20.00    -0.199 F 
ENDROOT
BRANCH   1  10
HETATM   10  C2  UNL     1     -32.029   8.157   1.576  1.00 20.00    -0.012 C 
HETATM   11  C1  UNL     1     -32.803   9.144   1.110  1.00 20.00     0.038 C 
BRANCH  11  12
HETATM   12  C3  UNL     1     -32.265  10.056   0.082  1.00 20.00     0.258 C 
HETATM   13  O9  UNL     1     -32.837  10.240  -0.985  1.00 20.00    -0.302 OA
ENDBRANCH  11  12
ENDBRANCH   1  10
TORSDOF 2
ENDMDL
MODEL 2
REMARK VINA RESULT:      -1.0      3.270      4.716
REMARK  2 active torsions:
REMARK  status: ('A' for Active; 'I' for Inactive)
REMARK    1  A    between atoms: C1_1  and  C3_3 
REMARK    2  A    between atoms: C2_2  and  C4_4 
ROOT
HETATM    1  C4  UNL     1     -33.980   6.275   2.859  1.00 20.00     0.097 C 
HETATM    2  C5  UNL     1     -32.987   7.239   3.563  1.00 20.00     0.074 C 
HETATM    3  C6  UNL     1     -32.974   6.222   1.678  1.00 20.00     0.315 C 
HETATM    4  C7  UNL     1     -32.458   7.608   2.150  1.00 20.00     0.312 C 
HETATM    5  C8  UNL     1     -33.600   8.368   4.368  1.00 20.00     0.017 C 
HETATM    6  F10 UNL     1     -32.053   5.229   1.718  1.00 20.00    -0.199 F 
HETATM    7  F11 UNL     1     -33.523   6.194   0.443  1.00 20.00    -0.199 F 
HETATM    8  F12 UNL     1     -31.123   7.799   2.056  1.00 20.00    -0.199 F 
HETATM    9  F13 UNL     1     -33.048   8.671   1.555  1.00 20.00    -0.199 F 
ENDROOT
BRANCH   1  10
HETATM   10  C2  UNL     1     -34.224   4.994   3.547  1.00 20.00    -0.012 C 
HETATM   11  C1  UNL     1     -33.253   4.262   4.106  1.00 20.00     0.038 C 
BRANCH  11  12
HETATM   12  C3  UNL     1     -33.601   2.993   4.773  1.00 20.00     0.258 C 
HETATM   13  O9  UNL     1     -33.073   1.932   4.464  1.00 20.00    -0.302 OA
ENDBRANCH  11  12
ENDBRANCH   1  10
TORSDOF 2
ENDMDL
MODEL 3
REMARK VINA RESULT:       0.3      2.932      3.843
REMARK  2 active torsions:
REMARK  status: ('A' for Active; 'I' for Inactive)
REMARK    1  A    between atoms: C1_1  and  C3_3 
REMARK    2  A    between atoms: C2_2  and  C4_4 
ROOT
HETATM    1  C4  UNL     1     -33.059   6.510   2.029  1.00 20.00     0.097 C 
HETATM    2  C5  UNL     1     -33.398   6.171   3.506  1.00 20.00     0.074 C 
HETATM    3  C6  UNL     1     -32.699   7.938   2.517  1.00 20.00     0.315 C 
HETATM    4  C7  UNL     1     -33.651   7.689   3.719  1.00 20.00     0.312 C 
HETATM    5  C8  UNL     1     -34.584   5.253   3.732  1.00 20.00     0.017 C 
HETATM    6  F10 UNL     1     -31.404   8.149   2.853  1.00 20.00    -0.199 F 
HETATM    7  F11 UNL     1     -33.056   8.947   1.691  1.00 20.00    -0.199 F 
HETATM    8  F12 UNL     1     -33.240   8.190   4.905  1.00 20.00    -0.199 F 
HETATM    9  F13 UNL     1     -34.925   8.109   3.536  1.00 20.00    -0.199 F 
ENDROOT
BRANCH   1  10
HETATM   10  C2  UNL     1     -31.950   5.740   1.435  1.00 20.00    -0.012 C 
HETATM   11  C1  UNL     1     -32.134   4.674   0.647  1.00 20.00     0.038 C 
BRANCH  11  12
HETATM   12  C3  UNL     1     -30.956   3.972   0.101  1.00 20.00     0.258 C 
HETATM   13  O9  UNL     1     -31.020   3.295  -0.918  1.00 20.00    -0.302 OA
ENDBRANCH  11  12
ENDBRANCH   1  10
TORSDOF 2
ENDMDL
MODEL 4
REMARK VINA RESULT:       0.8      1.450      2.554
REMARK  2 active torsions:
REMARK  status: ('A' for Active; 'I' for Inactive)
REMARK    1  A    between atoms: C1_1  and  C3_3 
REMARK    2  A    between atoms: C2_2  and  C4_4 
ROOT
HETATM    1  C4  UNL     1     -33.471   6.793   2.006  1.00 20.00     0.097 C 
HETATM    2  C5  UNL     1     -32.460   5.654   2.309  1.00 20.00     0.074 C 
HETATM    3  C6  UNL     1     -34.043   6.562   3.431  1.00 20.00     0.315 C 
HETATM    4  C7  UNL     1     -33.489   5.114   3.339  1.00 20.00     0.312 C 
HETATM    5  C8  UNL     1     -32.118   4.732   1.154  1.00 20.00     0.017 C 
HETATM    6  F10 UNL     1     -33.506   7.314   4.421  1.00 20.00    -0.199 F 
HETATM    7  F11 UNL     1     -35.386   6.666   3.546  1.00 20.00    -0.199 F 
HETATM    8  F12 UNL     1     -32.966   4.614   4.481  1.00 20.00    -0.199 F 
HETATM    9  F13 UNL     1     -34.367   4.195   2.875  1.00 20.00    -0.199 F 
ENDROOT
BRANCH   1  10
HETATM   10  C2  UNL     1     -32.882   8.123   1.763  1.00 20.00    -0.012 C 
HETATM   11  C1  UNL     1     -32.585   8.584   0.543  1.00 20.00     0.038 C 
BRANCH  11  12
HETATM   12  C3  UNL     1     -31.998   9.931   0.406  1.00 20.00     0.258 C 
HETATM   13  O9  UNL     1     -32.639  10.946   0.652  1.00 20.00    -0.302 OA
ENDBRANCH  11  12
ENDBRANCH   1  10
TORSDOF 2
ENDMDL
MODEL 5
REMARK VINA RESULT:       1.0      2.556      3.614
REMARK  2 active torsions:
REMARK  status: ('A' for Active; 'I' for Inactive)
REMARK    1  A    between atoms: C1_1  and  C3_3 
REMARK    2  A    between atoms: C2_2  and  C4_4 
ROOT
HETATM    1  C4  UNL     1     -33.133   6.141   2.405  1.00 20.00     0.097 C 
HETATM    2  C5  UNL     1     -33.081   7.691   2.335  1.00 20.00     0.074 C 
HETATM    3  C6  UNL     1     -34.243   6.301   3.477  1.00 20.00     0.315 C 
HETATM    4  C7  UNL     1     -33.646   7.702   3.782  1.00 20.00     0.312 C 
HETATM    5  C8  UNL     1     -31.710   8.312   2.144  1.00 20.00     0.017 C 
HETATM    6  F10 UNL     1     -35.519   6.315   3.023  1.00 20.00    -0.199 F 
HETATM    7  F11 UNL     1     -34.202   5.416   4.498  1.00 20.00    -0.199 F 
HETATM    8  F12 UNL     1     -34.544   8.675   4.053  1.00 20.00    -0.199 F 
HETATM    9  F13 UNL     1     -32.728   7.728   4.777  1.00 20.00    -0.199 F 
ENDROOT
BRANCH   1  10
HETATM   10  C2  UNL     1     -33.540   5.459   1.162  1.00 20.00    -0.012 C 
HETATM   11  C1  UNL     1     -32.783   4.547   0.541  1.00 20.00     0.038 C 
BRANCH  11  12
HETATM   12  C3  UNL     1     -33.282   3.921  -0.698  1.00 20.00     0.258 C 
HETATM   13  O9  UNL     1     -34.388   3.397  -0.760  1.00 20.00    -0.302 OA
ENDBRANCH  11  12
ENDBRANCH   1  10
TORSDOF 2
ENDMDL
