MODEL 1
REMARK VINA RESULT:      -1.9      0.000      0.000
REMARK  0 active torsions:
REMARK  status: ('A' for Active; 'I' for Inactive)
ROOT
HETATM    1  C1  UNL     1     -34.268   7.579   4.039  1.00 20.00     0.088 C 
HETATM    2  C2  UNL     1     -31.716   7.240   1.281  1.00 20.00     0.001 C 
HETATM    3  C3  UNL     1     -32.390   8.265   2.232  1.00 20.00     0.010 C 
HETATM    4  C4  UNL     1     -32.316   5.853   1.632  1.00 20.00     0.007 C 
HETATM    5  C5  UNL     1     -34.304   5.446   3.411  1.00 20.00     0.153 C 
HETATM    6  C6  UNL     1     -33.012   7.370   3.268  1.00 20.00     0.031 C 
HETATM    7  C7  UNL     1     -33.550   6.257   2.390  1.00 20.00     0.014 C 
HETATM    8  N8  UNL     1     -34.998   6.512   4.205  1.00 20.00    -0.305 NA
ENDROOT
TORSDOF 0
ENDMDL
MODEL 2
REMARK VINA RESULT:      -1.7      1.673      2.953
REMARK  0 active torsions:
REMARK  status: ('A' for Active; 'I' for Inactive)
ROOT
HETATM    1  C1  UNL     1     -32.169   7.972   2.152  1.00 20.00     0.088 C 
HETATM    2  C2  UNL     1     -34.876   6.647   4.421  1.00 20.00     0.001 C 
HETATM    3  C3  UNL     1     -33.959   7.873   4.165  1.00 20.00     0.010 C 
HETATM    4  C4  UNL     1     -34.553   5.614   3.309  1.00 20.00     0.007 C 
HETATM    5  C5  UNL     1     -32.600   5.901   1.469  1.00 20.00     0.153 C 
HETATM    6  C6  UNL     1     -33.479   7.616   2.762  1.00 20.00     0.031 C 
HETATM    7  C7  UNL     1     -33.225   6.123   2.821  1.00 20.00     0.014 C 
HETATM    8  N8  UNL     1     -31.663   7.067   1.363  1.00 20.00    -0.305 NA
ENDROOT
TORSDOF 0
ENDMDL
MODEL 3
REMARK VINA RESULT:      -1.6      0.135      1.836
REMARK  0 active torsions:
REMARK  status: ('A' for Active; 'I' for Inactive)
ROOT
HETATM    1  C1  UNL     1     -34.402   5.559   3.365  1.00 20.00     0.088 C 
HETATM    2  C2  UNL     1     -31.664   7.206   1.359  1.00 20.00     0.001 C 
HETATM    3  C3  UNL     1     -32.377   5.850   1.611  1.00 20.00     0.010 C 
HETATM    4  C4  UNL     1     -32.373   8.251   2.260  1.00 20.00     0.007 C 
HETATM    5  C5  UNL     1     -34.310   7.673   4.048  1.00 20.00     0.153 C 
HETATM    6  C6  UNL     1     -33.633   6.283   2.317  1.00 20.00     0.031 C 
HETATM    7  C7  UNL     1     -33.082   7.355   3.238  1.00 20.00     0.014 C 
HETATM    8  N8  UNL     1     -34.863   6.307   4.328  1.00 20.00    -0.305 NA
ENDROOT
TORSDOF 0
ENDMDL
MODEL 4
REMARK VINA RESULT:      -1.5      1.659      3.434
REMARK  0 active torsions:
REMARK  status: ('A' for Active; 'I' for Inactive)
ROOT
HETATM    1  C1  UNL     1     -32.489   5.877   1.593  1.00 20.00     0.088 C 
HETATM    2  C2  UNL     1     -34.990   6.531   4.340  1.00 20.00     0.001 C 
HETATM    3  C3  UNL     1     -34.514   5.460   3.322  1.00 20.00     0.010 C 
HETATM    4  C4  UNL     1     -34.067   7.763   4.149  1.00 20.00     0.007 C 
HETATM    5  C5  UNL     1     -32.177   7.982   2.236  1.00 20.00     0.153 C 
HETATM    6  C6  UNL     1     -33.169   5.995   2.911  1.00 20.00     0.031 C 
HETATM    7  C7  UNL     1     -33.480   7.475   2.795  1.00 20.00     0.014 C 
HETATM    8  N8  UNL     1     -31.859   6.947   1.198  1.00 20.00    -0.305 NA
ENDROOT
TORSDOF 0
ENDMDL
MODEL 5
REMARK VINA RESULT:      -1.1      1.015      2.024
REMARK  0 active torsions:
REMARK  status: ('A' for Active; 'I' for Inactive)
ROOT
HETATM    1  C1  UNL     1     -34.072   4.522   3.425  1.00 20.00     0.088 C 
HETATM    2  C2  UNL     1     -32.189   7.341   1.769  1.00 20.00     0.001 C 
HETATM    3  C3  UNL     1     -32.233   5.797   1.923  1.00 20.00     0.010 C 
HETATM    4  C4  UNL     1     -33.380   7.900   2.590  1.00 20.00     0.007 C 
HETATM    5  C5  UNL     1     -35.015   6.407   4.133  1.00 20.00     0.153 C 
HETATM    6  C6  UNL     1     -33.612   5.577   2.481  1.00 20.00     0.031 C 
HETATM    7  C7  UNL     1     -33.701   6.723   3.469  1.00 20.00     0.014 C 
HETATM    8  N8  UNL     1     -34.915   4.924   4.334  1.00 20.00    -0.305 NA
ENDROOT
TORSDOF 0
ENDMDL
MODEL 6
REMARK VINA RESULT:       0.9      2.241      3.593
REMARK  0 active torsions:
REMARK  status: ('A' for Active; 'I' for Inactive)
ROOT
HETATM    1  C1  UNL     1     -31.734   8.673   0.366  1.00 20.00     0.088 C 
HETATM    2  C2  UNL     1     -33.151   6.141   2.776  1.00 20.00     0.001 C 
HETATM    3  C3  UNL     1     -32.322   6.287   1.472  1.00 20.00     0.010 C 
HETATM    4  C4  UNL     1     -33.486   7.579   3.250  1.00 20.00     0.007 C 
HETATM    5  C5  UNL     1     -32.889   9.825   1.877  1.00 20.00     0.153 C 
HETATM    6  C6  UNL     1     -31.936   7.740   1.508  1.00 20.00     0.031 C 
HETATM    7  C7  UNL     1     -33.231   8.363   1.992  1.00 20.00     0.014 C 
HETATM    8  N8  UNL     1     -32.192   9.879   0.550  1.00 20.00    -0.305 NA
ENDROOT
TORSDOF 0
ENDMDL
