MODEL 1
REMARK VINA RESULT:      -0.6      0.000      0.000
REMARK  1 active torsions:
REMARK  status: ('A' for Active; 'I' for Inactive)
REMARK    1  A    between atoms: C7_7  and  C8_8 
ROOT
HETATM    1  C4  UNL     1     -33.578   4.870   3.247  1.00 20.00     0.038 C 
HETATM    2  C5  UNL     1     -34.367   4.503   4.497  1.00 20.00     0.270 C 
HETATM    3  C6  UNL     1     -35.765   6.412   3.824  1.00 20.00     0.307 C 
HETATM    4  C8  UNL     1     -33.303   6.381   3.187  1.00 20.00     0.027 C 
HETATM    5  C9  UNL     1     -34.455   7.192   3.792  1.00 20.00     0.202 C 
HETATM    6  N10 UNL     1     -35.669   5.163   4.582  1.00 20.00     0.086 N 
HETATM    7  F11 UNL     1     -34.124   7.508   5.080  1.00 20.00    -0.247 F 
HETATM    8  H27 UNL     1     -36.392   4.512   4.236  1.00 20.00     0.315 HD
ENDROOT
BRANCH   4   9
HETATM    9  C7  UNL     1     -33.060   6.798   1.736  1.00 20.00    -0.008 C 
HETATM   10  C2  UNL     1     -31.696   6.383   1.129  1.00 20.00     0.005 C 
HETATM   11  C1  UNL     1     -31.164   7.781   1.503  1.00 20.00     0.001 C 
HETATM   12  C3  UNL     1     -32.626   8.268   1.515  1.00 20.00     0.005 C 
ENDBRANCH   4   9
TORSDOF 1
ENDMDL
MODEL 2
REMARK VINA RESULT:       0.2      2.030      2.950
REMARK  1 active torsions:
REMARK  status: ('A' for Active; 'I' for Inactive)
REMARK    1  A    between atoms: C7_7  and  C8_8 
ROOT
HETATM    1  C4  UNL     1     -33.728   7.428   3.257  1.00 20.00     0.038 C 
HETATM    2  C5  UNL     1     -34.403   6.101   3.580  1.00 20.00     0.270 C 
HETATM    3  C6  UNL     1     -32.418   5.154   2.477  1.00 20.00     0.307 C 
HETATM    4  C8  UNL     1     -33.241   7.464   1.800  1.00 20.00     0.027 C 
HETATM    5  C9  UNL     1     -32.780   6.082   1.321  1.00 20.00     0.202 C 
HETATM    6  N10 UNL     1     -33.527   4.942   3.409  1.00 20.00     0.086 N 
HETATM    7  F11 UNL     1     -33.806   5.506   0.626  1.00 20.00    -0.247 F 
HETATM    8  H27 UNL     1     -33.137   4.684   4.330  1.00 20.00     0.315 HD
ENDROOT
BRANCH   4   9
HETATM    9  C7  UNL     1     -32.108   8.482   1.665  1.00 20.00    -0.008 C 
HETATM   10  C2  UNL     1     -32.539   9.950   1.420  1.00 20.00     0.005 C 
HETATM   11  C1  UNL     1     -32.344   9.700  -0.088  1.00 20.00     0.001 C 
HETATM   12  C3  UNL     1     -31.405   8.538   0.287  1.00 20.00     0.005 C 
ENDBRANCH   4   9
TORSDOF 1
ENDMDL
MODEL 3
REMARK VINA RESULT:       0.6      0.686      1.115
REMARK  1 active torsions:
REMARK  status: ('A' for Active; 'I' for Inactive)
REMARK    1  A    between atoms: C7_7  and  C8_8 
ROOT
HETATM    1  C4  UNL     1     -33.425   4.720   3.384  1.00 20.00     0.038 C 
HETATM    2  C5  UNL     1     -34.233   4.480   4.653  1.00 20.00     0.270 C 
HETATM    3  C6  UNL     1     -35.664   6.257   3.732  1.00 20.00     0.307 C 
HETATM    4  C8  UNL     1     -33.188   6.221   3.153  1.00 20.00     0.027 C 
HETATM    5  C9  UNL     1     -34.374   7.064   3.635  1.00 20.00     0.202 C 
HETATM    6  N10 UNL     1     -35.554   5.108   4.634  1.00 20.00     0.086 N 
HETATM    7  F11 UNL     1     -34.081   7.538   4.884  1.00 20.00    -0.247 F 
HETATM    8  H27 UNL     1     -36.252   4.401   4.351  1.00 20.00     0.315 HD
ENDROOT
BRANCH   4   9
HETATM    9  C7  UNL     1     -32.922   6.472   1.668  1.00 20.00    -0.008 C 
HETATM   10  C2  UNL     1     -32.840   5.212   0.770  1.00 20.00     0.005 C 
HETATM   11  C1  UNL     1     -31.308   5.257   0.937  1.00 20.00     0.001 C 
HETATM   12  C3  UNL     1     -31.449   6.753   1.279  1.00 20.00     0.005 C 
ENDBRANCH   4   9
TORSDOF 1
ENDMDL
MODEL 4
REMARK VINA RESULT:       0.9      1.610      2.416
REMARK  1 active torsions:
REMARK  status: ('A' for Active; 'I' for Inactive)
REMARK    1  A    between atoms: C7_7  and  C8_8 
ROOT
HETATM    1  C4  UNL     1     -34.458   7.243   3.870  1.00 20.00     0.038 C 
HETATM    2  C5  UNL     1     -35.397   6.062   4.081  1.00 20.00     0.270 C 
HETATM    3  C6  UNL     1     -33.398   4.743   3.518  1.00 20.00     0.307 C 
HETATM    4  C8  UNL     1     -33.656   7.089   2.569  1.00 20.00     0.027 C 
HETATM    5  C9  UNL     1     -33.332   5.619   2.272  1.00 20.00     0.202 C 
HETATM    6  N10 UNL     1     -34.708   4.775   4.171  1.00 20.00     0.086 N 
HETATM    7  F11 UNL     1     -34.256   5.151   1.380  1.00 20.00    -0.247 F 
HETATM    8  H27 UNL     1     -34.584   4.536   5.168  1.00 20.00     0.315 HD
ENDROOT
BRANCH   4   9
HETATM    9  C7  UNL     1     -32.370   7.912   2.662  1.00 20.00    -0.008 C 
HETATM   10  C2  UNL     1     -32.471   9.385   2.196  1.00 20.00     0.005 C 
HETATM   11  C1  UNL     1     -31.949   8.931   0.819  1.00 20.00     0.001 C 
HETATM   12  C3  UNL     1     -31.344   7.700   1.521  1.00 20.00     0.005 C 
ENDBRANCH   4   9
TORSDOF 1
ENDMDL
MODEL 5
REMARK VINA RESULT:       1.4      1.867      2.628
REMARK  1 active torsions:
REMARK  status: ('A' for Active; 'I' for Inactive)
REMARK    1  A    between atoms: C7_7  and  C8_8 
ROOT
HETATM    1  C4  UNL     1     -32.478   6.704   1.119  1.00 20.00     0.038 C 
HETATM    2  C5  UNL     1     -32.385   5.603   2.168  1.00 20.00     0.270 C 
HETATM    3  C6  UNL     1     -34.146   6.914   3.279  1.00 20.00     0.307 C 
HETATM    4  C8  UNL     1     -32.473   8.095   1.770  1.00 20.00     0.027 C 
HETATM    5  C9  UNL     1     -33.184   8.088   3.129  1.00 20.00     0.202 C 
HETATM    6  N10 UNL     1     -33.490   5.614   3.126  1.00 20.00     0.086 N 
HETATM    7  F11 UNL     1     -32.235   7.981   4.107  1.00 20.00    -0.247 F 
HETATM    8  H27 UNL     1     -34.196   4.923   2.824  1.00 20.00     0.315 HD
ENDROOT
BRANCH   4   9
HETATM    9  C7  UNL     1     -33.132   9.103   0.827  1.00 20.00    -0.008 C 
HETATM   10  C2  UNL     1     -32.553   9.168  -0.609  1.00 20.00     0.005 C 
HETATM   11  C1  UNL     1     -31.675  10.346  -0.144  1.00 20.00     0.001 C 
HETATM   12  C3  UNL     1     -32.690  10.578   0.992  1.00 20.00     0.005 C 
ENDBRANCH   4   9
TORSDOF 1
ENDMDL
MODEL 6
REMARK VINA RESULT:       1.8      2.504      4.343
REMARK  1 active torsions:
REMARK  status: ('A' for Active; 'I' for Inactive)
REMARK    1  A    between atoms: C7_7  and  C8_8 
ROOT
HETATM    1  C4  UNL     1     -33.126   7.608   3.383  1.00 20.00     0.038 C 
HETATM    2  C5  UNL     1     -32.006   8.437   2.765  1.00 20.00     0.270 C 
HETATM    3  C6  UNL     1     -32.761   7.372   0.680  1.00 20.00     0.307 C 
HETATM    4  C8  UNL     1     -33.077   6.154   2.891  1.00 20.00     0.027 C 
HETATM    5  C9  UNL     1     -32.587   6.061   1.440  1.00 20.00     0.202 C 
HETATM    6  N10 UNL     1     -32.057   8.494   1.305  1.00 20.00     0.086 N 
HETATM    7  F11 UNL     1     -31.253   5.761   1.459  1.00 20.00    -0.247 F 
HETATM    8  H27 UNL     1     -32.525   9.372   1.025  1.00 20.00     0.315 HD
ENDROOT
BRANCH   4   9
HETATM    9  C7  UNL     1     -34.464   5.522   3.027  1.00 20.00    -0.008 C 
HETATM   10  C2  UNL     1     -35.505   6.340   3.831  1.00 20.00     0.005 C 
HETATM   11  C1  UNL     1     -35.126   5.506   5.070  1.00 20.00     0.001 C 
HETATM   12  C3  UNL     1     -34.605   4.422   4.107  1.00 20.00     0.005 C 
ENDBRANCH   4   9
TORSDOF 1
ENDMDL
MODEL 7
REMARK VINA RESULT:       2.1      1.924      3.833
REMARK  1 active torsions:
REMARK  status: ('A' for Active; 'I' for Inactive)
REMARK    1  A    between atoms: C7_7  and  C8_8 
ROOT
HETATM    1  C4  UNL     1     -33.063   5.202   2.867  1.00 20.00     0.038 C 
HETATM    2  C5  UNL     1     -33.172   6.545   2.157  1.00 20.00     0.270 C 
HETATM    3  C6  UNL     1     -34.064   7.292   4.324  1.00 20.00     0.307 C 
HETATM    4  C8  UNL     1     -34.359   4.865   3.622  1.00 20.00     0.027 C 
HETATM    5  C9  UNL     1     -35.034   6.124   4.180  1.00 20.00     0.202 C 
HETATM    6  N10 UNL     1     -33.426   7.666   3.060  1.00 20.00     0.086 N 
HETATM    7  F11 UNL     1     -36.019   6.502   3.310  1.00 20.00    -0.247 F 
HETATM    8  H27 UNL     1     -32.528   8.131   3.271  1.00 20.00     0.315 HD
ENDROOT
BRANCH   4   9
HETATM    9  C7  UNL     1     -34.051   3.879   4.749  1.00 20.00    -0.008 C 
HETATM   10  C2  UNL     1     -32.653   4.010   5.403  1.00 20.00     0.005 C 
HETATM   11  C1  UNL     1     -32.162   2.903   4.451  1.00 20.00     0.001 C 
HETATM   12  C3  UNL     1     -33.630   2.455   4.311  1.00 20.00     0.005 C 
ENDBRANCH   4   9
TORSDOF 1
ENDMDL
