MODEL 1
REMARK VINA RESULT:      -1.6      0.000      0.000
REMARK  1 active torsions:
REMARK  status: ('A' for Active; 'I' for Inactive)
REMARK    1  A    between atoms: C5_5  and  C6_6 
ROOT
HETATM    1  C1  UNL     1     -32.949   8.065   3.484  1.00 20.00     0.078 C 
HETATM    2  C2  UNL     1     -34.006   7.605   4.158  1.00 20.00    -0.018 C 
HETATM    3  C3  UNL     1     -32.560   7.464   2.196  1.00 20.00     0.283 C 
HETATM    4  C4  UNL     1     -34.794   6.434   3.681  1.00 20.00     0.061 C 
HETATM    5  C5  UNL     1     -33.936   5.535   2.799  1.00 20.00     0.149 C 
HETATM    6  O7  UNL     1     -31.724   8.006   1.480  1.00 20.00    -0.260 OA
HETATM    7  O8  UNL     1     -33.191   6.316   1.835  1.00 20.00    -0.311 OA
ENDROOT
BRANCH   5   8
HETATM    8  C6  UNL     1     -32.967   4.652   3.584  1.00 20.00     0.147 C 
HETATM    9 CL9  UNL     1     -33.861   3.432   4.510  1.00 20.00    -0.128 Cl
ENDBRANCH   5   8
TORSDOF 1
ENDMDL
MODEL 2
REMARK VINA RESULT:      -1.1      3.061      3.953
REMARK  1 active torsions:
REMARK  status: ('A' for Active; 'I' for Inactive)
REMARK    1  A    between atoms: C5_5  and  C6_6 
ROOT
HETATM    1  C1  UNL     1     -33.674   6.335   2.675  1.00 20.00     0.078 C 
HETATM    2  C2  UNL     1     -33.560   7.467   3.373  1.00 20.00    -0.018 C 
HETATM    3  C3  UNL     1     -32.637   5.942   1.705  1.00 20.00     0.283 C 
HETATM    4  C4  UNL     1     -32.427   8.412   3.160  1.00 20.00     0.061 C 
HETATM    5  C5  UNL     1     -31.863   8.262   1.752  1.00 20.00     0.149 C 
HETATM    6  O7  UNL     1     -32.632   4.818   1.214  1.00 20.00    -0.260 OA
HETATM    7  O8  UNL     1     -31.684   6.867   1.414  1.00 20.00    -0.311 OA
ENDROOT
BRANCH   5   8
HETATM    8  C6  UNL     1     -32.717   8.932   0.676  1.00 20.00     0.147 C 
HETATM    9 CL9  UNL     1     -32.375  10.671   0.616  1.00 20.00    -0.128 Cl
ENDBRANCH   5   8
TORSDOF 1
ENDMDL
MODEL 3
REMARK VINA RESULT:      -0.7      2.315      3.355
REMARK  1 active torsions:
REMARK  status: ('A' for Active; 'I' for Inactive)
REMARK    1  A    between atoms: C5_5  and  C6_6 
ROOT
HETATM    1  C1  UNL     1     -35.318   5.215   4.167  1.00 20.00     0.078 C 
HETATM    2  C2  UNL     1     -35.334   6.543   4.033  1.00 20.00    -0.018 C 
HETATM    3  C3  UNL     1     -34.052   4.466   4.072  1.00 20.00     0.283 C 
HETATM    4  C4  UNL     1     -34.101   7.318   3.718  1.00 20.00     0.061 C 
HETATM    5  C5  UNL     1     -33.087   6.439   2.996  1.00 20.00     0.149 C 
HETATM    6  O7  UNL     1     -33.998   3.283   4.393  1.00 20.00    -0.260 OA
HETATM    7  O8  UNL     1     -32.958   5.154   3.650  1.00 20.00    -0.311 OA
ENDROOT
BRANCH   5   8
HETATM    8  C6  UNL     1     -33.411   6.218   1.519  1.00 20.00     0.147 C 
HETATM    9 CL9  UNL     1     -32.259   5.075   0.802  1.00 20.00    -0.128 Cl
ENDBRANCH   5   8
TORSDOF 1
ENDMDL
MODEL 4
REMARK VINA RESULT:      -0.3      1.566      2.476
REMARK  1 active torsions:
REMARK  status: ('A' for Active; 'I' for Inactive)
REMARK    1  A    between atoms: C5_5  and  C6_6 
ROOT
HETATM    1  C1  UNL     1     -32.800   6.824   0.883  1.00 20.00     0.078 C 
HETATM    2  C2  UNL     1     -33.020   5.699   1.568  1.00 20.00    -0.018 C 
HETATM    3  C3  UNL     1     -32.360   8.050   1.572  1.00 20.00     0.283 C 
HETATM    4  C4  UNL     1     -32.898   5.646   3.052  1.00 20.00     0.061 C 
HETATM    5  C5  UNL     1     -33.124   7.026   3.658  1.00 20.00     0.149 C 
HETATM    6  O7  UNL     1     -31.964   9.019   0.933  1.00 20.00    -0.260 OA
HETATM    7  O8  UNL     1     -32.385   8.036   2.931  1.00 20.00    -0.311 OA
ENDROOT
BRANCH   5   8
HETATM    8  C6  UNL     1     -34.595   7.432   3.723  1.00 20.00     0.147 C 
HETATM    9 CL9  UNL     1     -35.602   6.030   4.127  1.00 20.00    -0.128 Cl
ENDBRANCH   5   8
TORSDOF 1
ENDMDL
MODEL 5
REMARK VINA RESULT:      -0.2      2.269      3.184
REMARK  1 active torsions:
REMARK  status: ('A' for Active; 'I' for Inactive)
REMARK    1  A    between atoms: C5_5  and  C6_6 
ROOT
HETATM    1  C1  UNL     1     -34.854   6.584   4.001  1.00 20.00     0.078 C 
HETATM    2  C2  UNL     1     -34.132   7.629   3.589  1.00 20.00    -0.018 C 
HETATM    3  C3  UNL     1     -34.336   5.211   3.863  1.00 20.00     0.283 C 
HETATM    4  C4  UNL     1     -32.813   7.457   2.917  1.00 20.00     0.061 C 
HETATM    5  C5  UNL     1     -32.729   6.093   2.244  1.00 20.00     0.149 C 
HETATM    6  O7  UNL     1     -34.897   4.272   4.417  1.00 20.00    -0.260 OA
HETATM    7  O8  UNL     1     -33.204   5.051   3.129  1.00 20.00    -0.311 OA
ENDROOT
BRANCH   5   8
HETATM    8  C6  UNL     1     -33.492   6.014   0.923  1.00 20.00     0.147 C 
HETATM    9 CL9  UNL     1     -33.147   4.478   0.105  1.00 20.00    -0.128 Cl
ENDBRANCH   5   8
TORSDOF 1
ENDMDL
MODEL 6
REMARK VINA RESULT:       0.2      2.298      3.122
REMARK  1 active torsions:
REMARK  status: ('A' for Active; 'I' for Inactive)
REMARK    1  A    between atoms: C5_5  and  C6_6 
ROOT
HETATM    1  C1  UNL     1     -33.881   7.620   3.224  1.00 20.00     0.078 C 
HETATM    2  C2  UNL     1     -32.784   7.947   2.536  1.00 20.00    -0.018 C 
HETATM    3  C3  UNL     1     -34.232   6.206   3.450  1.00 20.00     0.283 C 
HETATM    4  C4  UNL     1     -31.907   6.915   1.915  1.00 20.00     0.061 C 
HETATM    5  C5  UNL     1     -32.698   5.643   1.630  1.00 20.00     0.149 C 
HETATM    6  O7  UNL     1     -35.115   5.900   4.244  1.00 20.00    -0.260 OA
HETATM    7  O8  UNL     1     -33.512   5.276   2.769  1.00 20.00    -0.311 OA
ENDROOT
BRANCH   5   8
HETATM    8  C6  UNL     1     -33.585   5.738   0.390  1.00 20.00     0.147 C 
HETATM    9 CL9  UNL     1     -33.740   4.147  -0.377  1.00 20.00    -0.128 Cl
ENDBRANCH   5   8
TORSDOF 1
ENDMDL
MODEL 7
REMARK VINA RESULT:       0.2      1.166      1.435
REMARK  1 active torsions:
REMARK  status: ('A' for Active; 'I' for Inactive)
REMARK    1  A    between atoms: C5_5  and  C6_6 
ROOT
HETATM    1  C1  UNL     1     -32.247   7.223   2.375  1.00 20.00     0.078 C 
HETATM    2  C2  UNL     1     -33.056   7.871   3.218  1.00 20.00    -0.018 C 
HETATM    3  C3  UNL     1     -32.684   5.975   1.725  1.00 20.00     0.283 C 
HETATM    4  C4  UNL     1     -34.397   7.336   3.589  1.00 20.00     0.061 C 
HETATM    5  C5  UNL     1     -34.431   5.821   3.430  1.00 20.00     0.149 C 
HETATM    6  O7  UNL     1     -32.034   5.488   0.805  1.00 20.00    -0.260 OA
HETATM    7  O8  UNL     1     -33.843   5.421   2.169  1.00 20.00    -0.311 OA
ENDROOT
BRANCH   5   8
HETATM    8  C6  UNL     1     -33.739   5.071   4.566  1.00 20.00     0.147 C 
HETATM    9 CL9  UNL     1     -33.680   3.334   4.209  1.00 20.00    -0.128 Cl
ENDBRANCH   5   8
TORSDOF 1
ENDMDL
MODEL 8
REMARK VINA RESULT:       0.2      2.713      3.827
REMARK  1 active torsions:
REMARK  status: ('A' for Active; 'I' for Inactive)
REMARK    1  A    between atoms: C5_5  and  C6_6 
ROOT
HETATM    1  C1  UNL     1     -33.633   4.811   3.358  1.00 20.00     0.078 C 
HETATM    2  C2  UNL     1     -33.005   5.556   2.444  1.00 20.00    -0.018 C 
HETATM    3  C3  UNL     1     -34.794   5.345   4.092  1.00 20.00     0.283 C 
HETATM    4  C4  UNL     1     -33.399   6.967   2.173  1.00 20.00     0.061 C 
HETATM    5  C5  UNL     1     -34.078   7.577   3.393  1.00 20.00     0.149 C 
HETATM    6  O7  UNL     1     -35.494   4.607   4.778  1.00 20.00    -0.260 OA
HETATM    7  O8  UNL     1     -35.062   6.669   3.944  1.00 20.00    -0.311 OA
ENDROOT
BRANCH   5   8
HETATM    8  C6  UNL     1     -33.103   7.987   4.495  1.00 20.00     0.147 C 
HETATM    9 CL9  UNL     1     -31.676   8.770   3.792  1.00 20.00    -0.128 Cl
ENDBRANCH   5   8
TORSDOF 1
ENDMDL
MODEL 9
REMARK VINA RESULT:       0.5      1.584      1.584
REMARK  1 active torsions:
REMARK  status: ('A' for Active; 'I' for Inactive)
REMARK    1  A    between atoms: C5_5  and  C6_6 
ROOT
HETATM    1  C1  UNL     1     -32.433   8.282   3.270  1.00 20.00     0.078 C 
HETATM    2  C2  UNL     1     -33.351   7.701   4.046  1.00 20.00    -0.018 C 
HETATM    3  C3  UNL     1     -32.394   8.011   1.821  1.00 20.00     0.283 C 
HETATM    4  C4  UNL     1     -34.328   6.714   3.506  1.00 20.00     0.061 C 
HETATM    5  C5  UNL     1     -33.770   6.038   2.259  1.00 20.00     0.149 C 
HETATM    6  O7  UNL     1     -31.692   8.688   1.077  1.00 20.00    -0.260 OA
HETATM    7  O8  UNL     1     -33.190   7.011   1.359  1.00 20.00    -0.311 OA
ENDROOT
BRANCH   5   8
HETATM    8  C6  UNL     1     -32.735   4.955   2.560  1.00 20.00     0.147 C 
HETATM    9 CL9  UNL     1     -31.604   4.793   1.204  1.00 20.00    -0.128 Cl
ENDBRANCH   5   8
TORSDOF 1
ENDMDL
