MODEL 1
REMARK VINA RESULT:       0.2      0.000      0.000
REMARK  2 active torsions:
REMARK  status: ('A' for Active; 'I' for Inactive)
REMARK    1  A    between atoms: C4_4  and  C8_8 
REMARK    2  A    between atoms: C5_5  and  C9_9 
ROOT
HETATM    1  C1  UNL     1     -32.722   7.550   2.139  1.00 20.00     0.139 C 
HETATM    2  C6  UNL     1     -33.419   8.112   3.355  1.00 20.00     0.080 C 
HETATM    3  C7  UNL     1     -34.232   6.921   3.849  1.00 20.00     0.017 C 
HETATM    4  C8  UNL     1     -33.385   5.707   3.453  1.00 20.00     0.027 C 
HETATM    5  C9  UNL     1     -32.894   6.038   2.019  1.00 20.00     0.041 C 
HETATM    6  C10 UNL     1     -31.574   5.347   1.685  1.00 20.00     0.028 C 
HETATM    7  O11 UNL     1     -32.097   8.245   1.345  1.00 20.00    -0.297 OA
ENDROOT
BRANCH   5   8
HETATM    8  C5  UNL     1     -33.900   5.820   0.923  1.00 20.00    -0.019 C 
HETATM    9  C3  UNL     1     -33.765   4.911  -0.047  1.00 20.00     0.008 C 
ENDBRANCH   5   8
BRANCH   4  10
HETATM   10  C4  UNL     1     -34.104   4.407   3.614  1.00 20.00    -0.031 C 
HETATM   11  C2  UNL     1     -33.646   3.384   4.345  1.00 20.00     0.007 C 
ENDBRANCH   4  10
TORSDOF 2
ENDMDL
MODEL 2
REMARK VINA RESULT:       0.3      1.523      3.164
REMARK  2 active torsions:
REMARK  status: ('A' for Active; 'I' for Inactive)
REMARK    1  A    between atoms: C4_4  and  C8_8 
REMARK    2  A    between atoms: C5_5  and  C9_9 
ROOT
HETATM    1  C1  UNL     1     -33.374   7.640   3.915  1.00 20.00     0.139 C 
HETATM    2  C6  UNL     1     -32.293   8.313   3.103  1.00 20.00     0.080 C 
HETATM    3  C7  UNL     1     -32.038   7.303   1.990  1.00 20.00     0.017 C 
HETATM    4  C8  UNL     1     -33.401   6.634   1.782  1.00 20.00     0.027 C 
HETATM    5  C9  UNL     1     -33.935   6.403   3.220  1.00 20.00     0.041 C 
HETATM    6  C10 UNL     1     -35.460   6.370   3.273  1.00 20.00     0.028 C 
HETATM    7  O11 UNL     1     -33.744   8.053   5.008  1.00 20.00    -0.297 OA
ENDROOT
BRANCH   5   8
HETATM    8  C5  UNL     1     -33.353   5.220   3.944  1.00 20.00    -0.019 C 
HETATM    9  C3  UNL     1     -34.025   4.093   4.199  1.00 20.00     0.008 C 
ENDBRANCH   5   8
BRANCH   4  10
HETATM   10  C4  UNL     1     -33.338   5.426   0.904  1.00 20.00    -0.031 C 
HETATM   11  C2  UNL     1     -32.206   4.786   0.592  1.00 20.00     0.007 C 
ENDBRANCH   4  10
TORSDOF 2
ENDMDL
MODEL 3
REMARK VINA RESULT:       0.3      1.790      3.627
REMARK  2 active torsions:
REMARK  status: ('A' for Active; 'I' for Inactive)
REMARK    1  A    between atoms: C4_4  and  C8_8 
REMARK    2  A    between atoms: C5_5  and  C9_9 
ROOT
HETATM    1  C1  UNL     1     -33.705   6.135   3.084  1.00 20.00     0.139 C 
HETATM    2  C6  UNL     1     -33.648   7.322   4.018  1.00 20.00     0.080 C 
HETATM    3  C7  UNL     1     -32.721   8.279   3.277  1.00 20.00     0.017 C 
HETATM    4  C8  UNL     1     -32.984   7.975   1.798  1.00 20.00     0.027 C 
HETATM    5  C9  UNL     1     -33.056   6.427   1.735  1.00 20.00     0.041 C 
HETATM    6  C10 UNL     1     -33.920   5.935   0.577  1.00 20.00     0.028 C 
HETATM    7  O11 UNL     1     -34.216   5.064   3.395  1.00 20.00    -0.297 OA
ENDROOT
BRANCH   5   8
HETATM    8  C5  UNL     1     -31.732   5.716   1.749  1.00 20.00    -0.019 C 
HETATM    9  C3  UNL     1     -31.437   4.666   0.976  1.00 20.00     0.008 C 
ENDBRANCH   5   8
BRANCH   4  10
HETATM   10  C4  UNL     1     -32.000   8.623   0.878  1.00 20.00    -0.031 C 
HETATM   11  C2  UNL     1     -32.273   9.694   0.125  1.00 20.00     0.007 C 
ENDBRANCH   4  10
TORSDOF 2
ENDMDL
MODEL 4
REMARK VINA RESULT:       0.9      1.189      3.027
REMARK  2 active torsions:
REMARK  status: ('A' for Active; 'I' for Inactive)
REMARK    1  A    between atoms: C4_4  and  C8_8 
REMARK    2  A    between atoms: C5_5  and  C9_9 
ROOT
HETATM    1  C1  UNL     1     -32.750   7.614   2.044  1.00 20.00     0.139 C 
HETATM    2  C6  UNL     1     -32.191   6.414   1.316  1.00 20.00     0.080 C 
HETATM    3  C7  UNL     1     -32.591   5.260   2.228  1.00 20.00     0.017 C 
HETATM    4  C8  UNL     1     -33.907   5.728   2.858  1.00 20.00     0.027 C 
HETATM    5  C9  UNL     1     -33.653   7.217   3.208  1.00 20.00     0.041 C 
HETATM    6  C10 UNL     1     -34.941   8.036   3.225  1.00 20.00     0.028 C 
HETATM    7  O11 UNL     1     -32.492   8.769   1.723  1.00 20.00    -0.297 OA
ENDROOT
BRANCH   5   8
HETATM    8  C5  UNL     1     -32.852   7.461   4.456  1.00 20.00    -0.019 C 
HETATM    9  C3  UNL     1     -33.160   8.381   5.376  1.00 20.00     0.008 C 
ENDBRANCH   5   8
BRANCH   4  10
HETATM   10  C4  UNL     1     -34.364   4.859   3.985  1.00 20.00    -0.031 C 
HETATM   11  C2  UNL     1     -33.769   3.714   4.336  1.00 20.00     0.007 C 
ENDBRANCH   4  10
TORSDOF 2
ENDMDL
MODEL 5
REMARK VINA RESULT:       1.1      1.946      4.073
REMARK  2 active torsions:
REMARK  status: ('A' for Active; 'I' for Inactive)
REMARK    1  A    between atoms: C4_4  and  C8_8 
REMARK    2  A    between atoms: C5_5  and  C9_9 
ROOT
HETATM    1  C1  UNL     1     -33.175   5.624   3.005  1.00 20.00     0.139 C 
HETATM    2  C6  UNL     1     -32.488   5.296   1.700  1.00 20.00     0.080 C 
HETATM    3  C7  UNL     1     -32.495   6.638   0.978  1.00 20.00     0.017 C 
HETATM    4  C8  UNL     1     -32.407   7.666   2.110  1.00 20.00     0.027 C 
HETATM    5  C9  UNL     1     -33.378   7.125   3.192  1.00 20.00     0.041 C 
HETATM    6  C10 UNL     1     -32.988   7.575   4.597  1.00 20.00     0.028 C 
HETATM    7  O11 UNL     1     -33.526   4.767   3.809  1.00 20.00    -0.297 OA
ENDROOT
BRANCH   5   8
HETATM    8  C5  UNL     1     -34.838   7.381   2.938  1.00 20.00    -0.019 C 
HETATM    9  C3  UNL     1     -35.830   6.686   3.503  1.00 20.00     0.008 C 
ENDBRANCH   5   8
BRANCH   4  10
HETATM   10  C4  UNL     1     -32.650   9.069   1.656  1.00 20.00    -0.031 C 
HETATM   11  C2  UNL     1     -32.305   9.536   0.451  1.00 20.00     0.007 C 
ENDBRANCH   4  10
TORSDOF 2
ENDMDL
MODEL 6
REMARK VINA RESULT:       1.6      1.768      3.061
REMARK  2 active torsions:
REMARK  status: ('A' for Active; 'I' for Inactive)
REMARK    1  A    between atoms: C4_4  and  C8_8 
REMARK    2  A    between atoms: C5_5  and  C9_9 
ROOT
HETATM    1  C1  UNL     1     -33.575   7.621   3.597  1.00 20.00     0.139 C 
HETATM    2  C6  UNL     1     -34.360   6.332   3.659  1.00 20.00     0.080 C 
HETATM    3  C7  UNL     1     -33.936   5.626   2.376  1.00 20.00     0.017 C 
HETATM    4  C8  UNL     1     -32.496   6.100   2.154  1.00 20.00     0.027 C 
HETATM    5  C9  UNL     1     -32.541   7.617   2.476  1.00 20.00     0.041 C 
HETATM    6  C10 UNL     1     -31.191   8.147   2.952  1.00 20.00     0.028 C 
HETATM    7  O11 UNL     1     -33.764   8.556   4.368  1.00 20.00    -0.297 OA
ENDROOT
BRANCH   5   8
HETATM    8  C5  UNL     1     -33.102   8.492   1.390  1.00 20.00    -0.019 C 
HETATM    9  C3  UNL     1     -32.378   9.366   0.683  1.00 20.00     0.008 C 
ENDBRANCH   5   8
BRANCH   4  10
HETATM   10  C4  UNL     1     -31.953   5.731   0.811  1.00 20.00    -0.031 C 
HETATM   11  C2  UNL     1     -31.584   4.492   0.467  1.00 20.00     0.007 C 
ENDBRANCH   4  10
TORSDOF 2
ENDMDL
MODEL 7
REMARK VINA RESULT:       1.8      1.886      3.545
REMARK  2 active torsions:
REMARK  status: ('A' for Active; 'I' for Inactive)
REMARK    1  A    between atoms: C4_4  and  C8_8 
REMARK    2  A    between atoms: C5_5  and  C9_9 
ROOT
HETATM    1  C1  UNL     1     -34.657   6.616   3.842  1.00 20.00     0.139 C 
HETATM    2  C6  UNL     1     -34.185   7.774   4.689  1.00 20.00     0.080 C 
HETATM    3  C7  UNL     1     -32.819   8.086   4.089  1.00 20.00     0.017 C 
HETATM    4  C8  UNL     1     -32.973   7.714   2.611  1.00 20.00     0.027 C 
HETATM    5  C9  UNL     1     -33.756   6.376   2.634  1.00 20.00     0.041 C 
HETATM    6  C10 UNL     1     -34.569   6.158   1.361  1.00 20.00     0.028 C 
HETATM    7  O11 UNL     1     -35.652   5.952   4.113  1.00 20.00    -0.297 OA
ENDROOT
BRANCH   5   8
HETATM    8  C5  UNL     1     -32.942   5.155   2.960  1.00 20.00    -0.019 C 
HETATM    9  C3  UNL     1     -33.383   4.136   3.705  1.00 20.00     0.008 C 
ENDBRANCH   5   8
BRANCH   4  10
HETATM   10  C4  UNL     1     -31.676   7.701   1.867  1.00 20.00    -0.031 C 
HETATM   11  C2  UNL     1     -31.423   8.453   0.790  1.00 20.00     0.007 C 
ENDBRANCH   4  10
TORSDOF 2
ENDMDL
MODEL 8
REMARK VINA RESULT:       2.5      1.627      3.157
REMARK  2 active torsions:
REMARK  status: ('A' for Active; 'I' for Inactive)
REMARK    1  A    between atoms: C4_4  and  C8_8 
REMARK    2  A    between atoms: C5_5  and  C9_9 
ROOT
HETATM    1  C1  UNL     1     -32.836   6.089   1.652  1.00 20.00     0.139 C 
HETATM    2  C6  UNL     1     -31.995   7.305   1.340  1.00 20.00     0.080 C 
HETATM    3  C7  UNL     1     -32.426   8.290   2.420  1.00 20.00     0.017 C 
HETATM    4  C8  UNL     1     -32.778   7.396   3.614  1.00 20.00     0.027 C 
HETATM    5  C9  UNL     1     -33.565   6.216   2.986  1.00 20.00     0.041 C 
HETATM    6  C10 UNL     1     -33.450   4.938   3.814  1.00 20.00     0.028 C 
HETATM    7  O11 UNL     1     -32.915   5.121   0.903  1.00 20.00    -0.297 OA
ENDROOT
BRANCH   5   8
HETATM    8  C5  UNL     1     -35.002   6.502   2.649  1.00 20.00    -0.019 C 
HETATM    9  C3  UNL     1     -36.004   6.446   3.532  1.00 20.00     0.008 C 
ENDBRANCH   5   8
BRANCH   4  10
HETATM   10  C4  UNL     1     -33.469   8.129   4.718  1.00 20.00    -0.031 C 
HETATM   11  C2  UNL     1     -32.860   8.551   5.832  1.00 20.00     0.007 C 
ENDBRANCH   4  10
TORSDOF 2
ENDMDL
MODEL 9
REMARK VINA RESULT:       2.6      1.528      3.068
REMARK  2 active torsions:
REMARK  status: ('A' for Active; 'I' for Inactive)
REMARK    1  A    between atoms: C4_4  and  C8_8 
REMARK    2  A    between atoms: C5_5  and  C9_9 
ROOT
HETATM    1  C1  UNL     1     -32.294   5.008   1.629  1.00 20.00     0.139 C 
HETATM    2  C6  UNL     1     -32.512   4.092   2.810  1.00 20.00     0.080 C 
HETATM    3  C7  UNL     1     -33.280   4.982   3.780  1.00 20.00     0.017 C 
HETATM    4  C8  UNL     1     -34.085   5.912   2.867  1.00 20.00     0.027 C 
HETATM    5  C9  UNL     1     -33.086   6.306   1.749  1.00 20.00     0.041 C 
HETATM    6  C10 UNL     1     -33.790   6.659   0.441  1.00 20.00     0.028 C 
HETATM    7  O11 UNL     1     -31.557   4.724   0.690  1.00 20.00    -0.297 OA
ENDROOT
BRANCH   5   8
HETATM    8  C5  UNL     1     -32.087   7.369   2.118  1.00 20.00    -0.019 C 
HETATM    9  C3  UNL     1     -31.890   8.488   1.414  1.00 20.00     0.008 C 
ENDBRANCH   5   8
BRANCH   4  10
HETATM   10  C4  UNL     1     -34.730   7.045   3.599  1.00 20.00    -0.031 C 
HETATM   11  C2  UNL     1     -34.126   7.759   4.554  1.00 20.00     0.007 C 
ENDBRANCH   4  10
TORSDOF 2
ENDMDL
