MODEL 1
REMARK VINA RESULT:      -2.5      0.000      0.000
REMARK  2 active torsions:
REMARK  status: ('A' for Active; 'I' for Inactive)
REMARK    1  A    between atoms: C2_2  and  C6_6 
REMARK    2  A    between atoms: C3_3  and  C6_6 
ROOT
HETATM    1  C1  UNL     1     -32.466   9.146   0.901  1.00 20.00    -0.110 C 
HETATM    2  C2  UNL     1     -32.505   8.149   1.570  1.00 20.00    -0.092 C 
HETATM    3  C4  UNL     1     -32.418  10.360   0.086  1.00 20.00     0.112 C 
ENDROOT
BRANCH   2   4
HETATM    4  C6  UNL     1     -32.553   6.925   2.389  1.00 20.00     0.162 C 
HETATM    5  C5  UNL     1     -32.759   5.703   1.503  1.00 20.00     0.035 C 
BRANCH   4   6
HETATM    6  C3  UNL     1     -33.635   7.076   3.474  1.00 20.00     0.188 C 
HETATM    7  O7  UNL     1     -33.447   8.043   4.270  1.00 20.00    -0.647 OA
HETATM    8  O8  UNL     1     -34.575   6.234   3.453  1.00 20.00    -0.647 OA
ENDBRANCH   4   6
ENDBRANCH   2   4
TORSDOF 2
ENDMDL
MODEL 2
REMARK VINA RESULT:      -2.5      0.126      1.142
REMARK  2 active torsions:
REMARK  status: ('A' for Active; 'I' for Inactive)
REMARK    1  A    between atoms: C2_2  and  C6_6 
REMARK    2  A    between atoms: C3_3  and  C6_6 
ROOT
HETATM    1  C1  UNL     1     -32.462   9.136   0.893  1.00 20.00    -0.110 C 
HETATM    2  C2  UNL     1     -32.487   8.125   1.541  1.00 20.00    -0.092 C 
HETATM    3  C4  UNL     1     -32.431  10.368   0.104  1.00 20.00     0.112 C 
ENDROOT
BRANCH   2   4
HETATM    4  C6  UNL     1     -32.519   6.884   2.335  1.00 20.00     0.162 C 
HETATM    5  C5  UNL     1     -32.690   5.676   1.422  1.00 20.00     0.035 C 
BRANCH   4   6
HETATM    6  C3  UNL     1     -33.615   6.990   3.410  1.00 20.00     0.188 C 
HETATM    7  O7  UNL     1     -34.437   6.027   3.418  1.00 20.00    -0.647 OA
HETATM    8  O8  UNL     1     -33.577   8.008   4.155  1.00 20.00    -0.647 OA
ENDBRANCH   4   6
ENDBRANCH   2   4
TORSDOF 2
ENDMDL
MODEL 3
REMARK VINA RESULT:      -1.9      1.997      3.713
REMARK  2 active torsions:
REMARK  status: ('A' for Active; 'I' for Inactive)
REMARK    1  A    between atoms: C2_2  and  C6_6 
REMARK    2  A    between atoms: C3_3  and  C6_6 
ROOT
HETATM    1  C1  UNL     1     -34.465   6.150   3.443  1.00 20.00    -0.110 C 
HETATM    2  C2  UNL     1     -33.687   6.399   2.562  1.00 20.00    -0.092 C 
HETATM    3  C4  UNL     1     -35.411   5.847   4.516  1.00 20.00     0.112 C 
ENDROOT
BRANCH   2   4
HETATM    4  C6  UNL     1     -32.734   6.706   1.480  1.00 20.00     0.162 C 
HETATM    5  C5  UNL     1     -31.725   5.574   1.327  1.00 20.00     0.035 C 
BRANCH   4   6
HETATM    6  C3  UNL     1     -32.076   8.072   1.749  1.00 20.00     0.188 C 
HETATM    7  O7  UNL     1     -32.069   8.854   0.753  1.00 20.00    -0.647 OA
HETATM    8  O8  UNL     1     -31.623   8.260   2.911  1.00 20.00    -0.647 OA
ENDBRANCH   4   6
ENDBRANCH   2   4
TORSDOF 2
ENDMDL
MODEL 4
REMARK VINA RESULT:      -1.9      2.586      4.668
REMARK  2 active torsions:
REMARK  status: ('A' for Active; 'I' for Inactive)
REMARK    1  A    between atoms: C2_2  and  C6_6 
REMARK    2  A    between atoms: C3_3  and  C6_6 
ROOT
HETATM    1  C1  UNL     1     -33.586   3.707   4.258  1.00 20.00    -0.110 C 
HETATM    2  C2  UNL     1     -33.780   4.863   3.997  1.00 20.00    -0.092 C 
HETATM    3  C4  UNL     1     -33.349   2.298   4.575  1.00 20.00     0.112 C 
ENDROOT
BRANCH   2   4
HETATM    4  C6  UNL     1     -34.018   6.283   3.680  1.00 20.00     0.162 C 
HETATM    5  C5  UNL     1     -35.510   6.545   3.514  1.00 20.00     0.035 C 
BRANCH   4   6
HETATM    6  C3  UNL     1     -33.192   6.677   2.442  1.00 20.00     0.188 C 
HETATM    7  O7  UNL     1     -32.740   7.859   2.469  1.00 20.00    -0.647 OA
HETATM    8  O8  UNL     1     -33.058   5.795   1.549  1.00 20.00    -0.647 OA
ENDBRANCH   4   6
ENDBRANCH   2   4
TORSDOF 2
ENDMDL
MODEL 5
REMARK VINA RESULT:      -1.8      2.446      4.550
REMARK  2 active torsions:
REMARK  status: ('A' for Active; 'I' for Inactive)
REMARK    1  A    between atoms: C2_2  and  C6_6 
REMARK    2  A    between atoms: C3_3  and  C6_6 
ROOT
HETATM    1  C1  UNL     1     -33.460   3.491   4.152  1.00 20.00    -0.110 C 
HETATM    2  C2  UNL     1     -33.682   4.483   3.513  1.00 20.00    -0.092 C 
HETATM    3  C4  UNL     1     -33.189   2.282   4.930  1.00 20.00     0.112 C 
ENDROOT
BRANCH   2   4
HETATM    4  C6  UNL     1     -33.956   5.702   2.730  1.00 20.00     0.162 C 
HETATM    5  C5  UNL     1     -32.751   6.059   1.869  1.00 20.00     0.035 C 
BRANCH   4   6
HETATM    6  C3  UNL     1     -34.380   6.837   3.680  1.00 20.00     0.188 C 
HETATM    7  O7  UNL     1     -35.464   6.625   4.299  1.00 20.00    -0.647 OA
HETATM    8  O8  UNL     1     -33.615   7.839   3.737  1.00 20.00    -0.647 OA
ENDBRANCH   4   6
ENDBRANCH   2   4
TORSDOF 2
ENDMDL
MODEL 6
REMARK VINA RESULT:      -1.6      1.794      2.381
REMARK  2 active torsions:
REMARK  status: ('A' for Active; 'I' for Inactive)
REMARK    1  A    between atoms: C2_2  and  C6_6 
REMARK    2  A    between atoms: C3_3  and  C6_6 
ROOT
HETATM    1  C1  UNL     1     -32.275   8.036   1.785  1.00 20.00    -0.110 C 
HETATM    2  C2  UNL     1     -33.048   7.848   2.685  1.00 20.00    -0.092 C 
HETATM    3  C4  UNL     1     -31.334   8.265   0.689  1.00 20.00     0.112 C 
ENDROOT
BRANCH   2   4
HETATM    4  C6  UNL     1     -33.995   7.618   3.790  1.00 20.00     0.162 C 
HETATM    5  C5  UNL     1     -33.363   8.010   5.120  1.00 20.00     0.035 C 
BRANCH   4   6
HETATM    6  C3  UNL     1     -34.478   6.156   3.757  1.00 20.00     0.188 C 
HETATM    7  O7  UNL     1     -35.652   5.982   4.199  1.00 20.00    -0.647 OA
HETATM    8  O8  UNL     1     -33.666   5.305   3.301  1.00 20.00    -0.647 OA
ENDBRANCH   4   6
ENDBRANCH   2   4
TORSDOF 2
ENDMDL
MODEL 7
REMARK VINA RESULT:      -1.6      1.786      2.358
REMARK  2 active torsions:
REMARK  status: ('A' for Active; 'I' for Inactive)
REMARK    1  A    between atoms: C2_2  and  C6_6 
REMARK    2  A    between atoms: C3_3  and  C6_6 
ROOT
HETATM    1  C1  UNL     1     -32.273   8.040   1.776  1.00 20.00    -0.110 C 
HETATM    2  C2  UNL     1     -33.042   7.855   2.679  1.00 20.00    -0.092 C 
HETATM    3  C4  UNL     1     -31.336   8.266   0.675  1.00 20.00     0.112 C 
ENDROOT
BRANCH   2   4
HETATM    4  C6  UNL     1     -33.986   7.630   3.789  1.00 20.00     0.162 C 
HETATM    5  C5  UNL     1     -33.345   8.016   5.116  1.00 20.00     0.035 C 
BRANCH   4   6
HETATM    6  C3  UNL     1     -34.477   6.171   3.756  1.00 20.00     0.188 C 
HETATM    7  O7  UNL     1     -33.645   5.349   3.272  1.00 20.00    -0.647 OA
HETATM    8  O8  UNL     1     -35.636   5.957   4.208  1.00 20.00    -0.647 OA
ENDBRANCH   4   6
ENDBRANCH   2   4
TORSDOF 2
ENDMDL
MODEL 8
REMARK VINA RESULT:      -1.4      2.944      3.408
REMARK  2 active torsions:
REMARK  status: ('A' for Active; 'I' for Inactive)
REMARK    1  A    between atoms: C2_2  and  C6_6 
REMARK    2  A    between atoms: C3_3  and  C6_6 
ROOT
HETATM    1  C1  UNL     1     -32.560   5.537   1.564  1.00 20.00    -0.110 C 
HETATM    2  C2  UNL     1     -33.410   5.804   2.370  1.00 20.00    -0.092 C 
HETATM    3  C4  UNL     1     -31.525   5.213   0.583  1.00 20.00     0.112 C 
ENDROOT
BRANCH   2   4
HETATM    4  C6  UNL     1     -34.453   6.129   3.359  1.00 20.00     0.162 C 
HETATM    5  C5  UNL     1     -34.053   7.358   4.166  1.00 20.00     0.035 C 
BRANCH   4   6
HETATM    6  C3  UNL     1     -34.734   4.895   4.234  1.00 20.00     0.188 C 
HETATM    7  O7  UNL     1     -35.816   4.952   4.890  1.00 20.00    -0.647 OA
HETATM    8  O8  UNL     1     -33.870   3.975   4.205  1.00 20.00    -0.647 OA
ENDBRANCH   4   6
ENDBRANCH   2   4
TORSDOF 2
ENDMDL
MODEL 9
REMARK VINA RESULT:      -1.0      1.544      2.851
REMARK  2 active torsions:
REMARK  status: ('A' for Active; 'I' for Inactive)
REMARK    1  A    between atoms: C2_2  and  C6_6 
REMARK    2  A    between atoms: C3_3  and  C6_6 
ROOT
HETATM    1  C1  UNL     1     -32.321   5.505   1.142  1.00 20.00    -0.110 C 
HETATM    2  C2  UNL     1     -32.696   6.464   1.759  1.00 20.00    -0.092 C 
HETATM    3  C4  UNL     1     -31.864   4.336   0.390  1.00 20.00     0.112 C 
ENDROOT
BRANCH   2   4
HETATM    4  C6  UNL     1     -33.155   7.642   2.517  1.00 20.00     0.162 C 
HETATM    5  C5  UNL     1     -31.973   8.534   2.876  1.00 20.00     0.035 C 
BRANCH   4   6
HETATM    6  C3  UNL     1     -33.960   7.180   3.746  1.00 20.00     0.188 C 
HETATM    7  O7  UNL     1     -33.894   7.963   4.739  1.00 20.00    -0.647 OA
HETATM    8  O8  UNL     1     -34.587   6.091   3.631  1.00 20.00    -0.647 OA
ENDBRANCH   4   6
ENDBRANCH   2   4
TORSDOF 2
ENDMDL
