MODEL 1
REMARK VINA RESULT:      -0.5      0.000      0.000
REMARK  2 active torsions:
REMARK  status: ('A' for Active; 'I' for Inactive)
REMARK    1  A    between atoms: C1_1  and  C7_7 
REMARK    2  A    between atoms: C4_4  and  C7_7 
ROOT
HETATM    1  C2  UNL     1     -35.577   5.685   4.275  1.00 20.00     0.197 C 
HETATM    2  C3  UNL     1     -34.462   4.703   4.034  1.00 20.00     0.197 C 
HETATM    3  C4  UNL     1     -33.764   6.786   3.471  1.00 20.00     0.169 C 
HETATM    4  C5  UNL     1     -33.235   7.905   4.359  1.00 20.00     0.080 C 
HETATM    5  O9  UNL     1     -35.201   6.810   3.481  1.00 20.00    -0.353 OA
HETATM    6  O10 UNL     1     -33.299   5.529   3.989  1.00 20.00    -0.353 OA
ENDROOT
BRANCH   3   7
HETATM    7  C7  UNL     1     -33.286   6.947   2.033  1.00 20.00     0.105 C 
HETATM    8  C6  UNL     1     -32.177   7.988   1.938  1.00 20.00     0.023 C 
BRANCH   7   9
HETATM    9  C1  UNL     1     -32.837   5.598   1.506  1.00 20.00     0.240 C 
HETATM   10  O8  UNL     1     -31.694   5.334   1.145  1.00 20.00    -0.306 OA
ENDBRANCH   7   9
ENDBRANCH   3   7
TORSDOF 2
ENDMDL
MODEL 2
REMARK VINA RESULT:      -0.3      1.867      4.160
REMARK  2 active torsions:
REMARK  status: ('A' for Active; 'I' for Inactive)
REMARK    1  A    between atoms: C1_1  and  C7_7 
REMARK    2  A    between atoms: C4_4  and  C7_7 
ROOT
HETATM    1  C2  UNL     1     -31.145   8.942   0.230  1.00 20.00     0.197 C 
HETATM    2  C3  UNL     1     -32.530   9.529   0.189  1.00 20.00     0.197 C 
HETATM    3  C4  UNL     1     -32.335   8.188   2.008  1.00 20.00     0.169 C 
HETATM    4  C5  UNL     1     -31.728   8.488   3.372  1.00 20.00     0.080 C 
HETATM    5  O9  UNL     1     -31.291   7.815   1.094  1.00 20.00    -0.353 OA
HETATM    6  O10 UNL     1     -32.996   9.372   1.529  1.00 20.00    -0.353 OA
ENDROOT
BRANCH   3   7
HETATM    7  C7  UNL     1     -33.342   7.047   2.087  1.00 20.00     0.105 C 
HETATM    8  C6  UNL     1     -32.736   5.745   1.578  1.00 20.00     0.023 C 
BRANCH   7   9
HETATM    9  C1  UNL     1     -33.832   6.918   3.517  1.00 20.00     0.240 C 
HETATM   10  O8  UNL     1     -34.983   6.640   3.837  1.00 20.00    -0.306 OA
ENDBRANCH   7   9
ENDBRANCH   3   7
TORSDOF 2
ENDMDL
MODEL 3
REMARK VINA RESULT:       0.3      1.499      3.552
REMARK  2 active torsions:
REMARK  status: ('A' for Active; 'I' for Inactive)
REMARK    1  A    between atoms: C1_1  and  C7_7 
REMARK    2  A    between atoms: C4_4  and  C7_7 
ROOT
HETATM    1  C2  UNL     1     -32.379   8.525   1.178  1.00 20.00     0.197 C 
HETATM    2  C3  UNL     1     -31.219   7.921   1.923  1.00 20.00     0.197 C 
HETATM    3  C4  UNL     1     -32.960   6.467   1.934  1.00 20.00     0.169 C 
HETATM    4  C5  UNL     1     -33.407   5.482   0.862  1.00 20.00     0.080 C 
HETATM    5  O9  UNL     1     -33.497   7.767   1.640  1.00 20.00    -0.353 OA
HETATM    6  O10 UNL     1     -31.523   6.527   1.933  1.00 20.00    -0.353 OA
ENDROOT
BRANCH   3   7
HETATM    7  C7  UNL     1     -33.445   6.042   3.314  1.00 20.00     0.105 C 
HETATM    8  C6  UNL     1     -34.666   6.849   3.739  1.00 20.00     0.023 C 
BRANCH   7   9
HETATM    9  C1  UNL     1     -33.732   4.553   3.302  1.00 20.00     0.240 C 
HETATM   10  O8  UNL     1     -34.151   3.914   4.262  1.00 20.00    -0.306 OA
ENDBRANCH   7   9
ENDBRANCH   3   7
TORSDOF 2
ENDMDL
MODEL 4
REMARK VINA RESULT:       0.4      1.153      2.765
REMARK  2 active torsions:
REMARK  status: ('A' for Active; 'I' for Inactive)
REMARK    1  A    between atoms: C1_1  and  C7_7 
REMARK    2  A    between atoms: C4_4  and  C7_7 
ROOT
HETATM    1  C2  UNL     1     -34.269   4.252   4.113  1.00 20.00     0.197 C 
HETATM    2  C3  UNL     1     -35.213   5.412   4.284  1.00 20.00     0.197 C 
HETATM    3  C4  UNL     1     -33.581   5.981   2.815  1.00 20.00     0.169 C 
HETATM    4  C5  UNL     1     -33.465   5.672   1.328  1.00 20.00     0.080 C 
HETATM    5  O9  UNL     1     -33.096   4.861   3.573  1.00 20.00    -0.353 OA
HETATM    6  O10 UNL     1     -34.965   6.213   3.129  1.00 20.00    -0.353 OA
ENDROOT
BRANCH   3   7
HETATM    7  C7  UNL     1     -32.766   7.212   3.191  1.00 20.00     0.105 C 
HETATM    8  C6  UNL     1     -32.254   7.931   1.949  1.00 20.00     0.023 C 
BRANCH   7   9
HETATM    9  C1  UNL     1     -33.614   8.122   4.058  1.00 20.00     0.240 C 
HETATM   10  O8  UNL     1     -33.429   8.317   5.255  1.00 20.00    -0.306 OA
ENDBRANCH   7   9
ENDBRANCH   3   7
TORSDOF 2
ENDMDL
MODEL 5
REMARK VINA RESULT:       0.5      1.485      3.302
REMARK  2 active torsions:
REMARK  status: ('A' for Active; 'I' for Inactive)
REMARK    1  A    between atoms: C1_1  and  C7_7 
REMARK    2  A    between atoms: C4_4  and  C7_7 
ROOT
HETATM    1  C2  UNL     1     -32.448   7.727   2.461  1.00 20.00     0.197 C 
HETATM    2  C3  UNL     1     -32.344   6.372   1.814  1.00 20.00     0.197 C 
HETATM    3  C4  UNL     1     -34.143   6.411   3.194  1.00 20.00     0.169 C 
HETATM    4  C5  UNL     1     -35.544   6.955   2.945  1.00 20.00     0.080 C 
HETATM    5  O9  UNL     1     -33.280   7.486   3.596  1.00 20.00    -0.353 OA
HETATM    6  O10 UNL     1     -33.653   5.828   1.975  1.00 20.00    -0.353 OA
ENDROOT
BRANCH   3   7
HETATM    7  C7  UNL     1     -34.146   5.354   4.291  1.00 20.00     0.105 C 
HETATM    8  C6  UNL     1     -35.546   5.162   4.863  1.00 20.00     0.023 C 
BRANCH   7   9
HETATM    9  C1  UNL     1     -33.584   4.060   3.736  1.00 20.00     0.240 C 
HETATM   10  O8  UNL     1     -33.315   3.070   4.408  1.00 20.00    -0.306 OA
ENDBRANCH   7   9
ENDBRANCH   3   7
TORSDOF 2
ENDMDL
MODEL 6
REMARK VINA RESULT:       0.5      1.229      2.378
REMARK  2 active torsions:
REMARK  status: ('A' for Active; 'I' for Inactive)
REMARK    1  A    between atoms: C1_1  and  C7_7 
REMARK    2  A    between atoms: C4_4  and  C7_7 
ROOT
HETATM    1  C2  UNL     1     -34.384   4.738   4.362  1.00 20.00     0.197 C 
HETATM    2  C3  UNL     1     -35.515   5.721   4.219  1.00 20.00     0.197 C 
HETATM    3  C4  UNL     1     -33.819   6.321   2.840  1.00 20.00     0.169 C 
HETATM    4  C5  UNL     1     -33.463   5.796   1.455  1.00 20.00     0.080 C 
HETATM    5  O9  UNL     1     -33.263   5.449   3.837  1.00 20.00    -0.353 OA
HETATM    6  O10 UNL     1     -35.250   6.350   2.966  1.00 20.00    -0.353 OA
ENDROOT
BRANCH   3   7
HETATM    7  C7  UNL     1     -33.266   7.724   3.059  1.00 20.00     0.105 C 
HETATM    8  C6  UNL     1     -32.891   7.944   4.519  1.00 20.00     0.023 C 
BRANCH   7   9
HETATM    9  C1  UNL     1     -32.081   7.940   2.137  1.00 20.00     0.240 C 
HETATM   10  O8  UNL     1     -32.041   8.770   1.234  1.00 20.00    -0.306 OA
ENDBRANCH   7   9
ENDBRANCH   3   7
TORSDOF 2
ENDMDL
MODEL 7
REMARK VINA RESULT:       0.6      1.200      1.620
REMARK  2 active torsions:
REMARK  status: ('A' for Active; 'I' for Inactive)
REMARK    1  A    between atoms: C1_1  and  C7_7 
REMARK    2  A    between atoms: C4_4  and  C7_7 
ROOT
HETATM    1  C2  UNL     1     -35.629   6.116   3.816  1.00 20.00     0.197 C 
HETATM    2  C3  UNL     1     -34.668   4.991   4.088  1.00 20.00     0.197 C 
HETATM    3  C4  UNL     1     -33.506   6.846   3.495  1.00 20.00     0.169 C 
HETATM    4  C5  UNL     1     -33.094   8.043   4.343  1.00 20.00     0.080 C 
HETATM    5  O9  UNL     1     -34.856   7.029   3.038  1.00 20.00    -0.353 OA
HETATM    6  O10 UNL     1     -33.427   5.661   4.306  1.00 20.00    -0.353 OA
ENDROOT
BRANCH   3   7
HETATM    7  C7  UNL     1     -32.599   6.688   2.282  1.00 20.00     0.105 C 
HETATM    8  C6  UNL     1     -33.356   6.081   1.106  1.00 20.00     0.023 C 
BRANCH   7   9
HETATM    9  C1  UNL     1     -32.001   8.036   1.930  1.00 20.00     0.240 C 
HETATM   10  O8  UNL     1     -32.349   8.726   0.977  1.00 20.00    -0.306 OA
ENDBRANCH   7   9
ENDBRANCH   3   7
TORSDOF 2
ENDMDL
MODEL 8
REMARK VINA RESULT:       0.8      1.472      3.400
REMARK  2 active torsions:
REMARK  status: ('A' for Active; 'I' for Inactive)
REMARK    1  A    between atoms: C1_1  and  C7_7 
REMARK    2  A    between atoms: C4_4  and  C7_7 
ROOT
HETATM    1  C2  UNL     1     -31.971   4.939   0.551  1.00 20.00     0.197 C 
HETATM    2  C3  UNL     1     -33.458   5.041   0.349  1.00 20.00     0.197 C 
HETATM    3  C4  UNL     1     -32.842   6.367   2.082  1.00 20.00     0.169 C 
HETATM    4  C5  UNL     1     -32.258   7.774   2.066  1.00 20.00     0.080 C 
HETATM    5  O9  UNL     1     -31.786   5.412   1.885  1.00 20.00    -0.353 OA
HETATM    6  O10 UNL     1     -33.800   6.255   1.017  1.00 20.00    -0.353 OA
ENDROOT
BRANCH   3   7
HETATM    7  C7  UNL     1     -33.527   6.066   3.410  1.00 20.00     0.105 C 
HETATM    8  C6  UNL     1     -34.740   6.965   3.616  1.00 20.00     0.023 C 
BRANCH   7   9
HETATM    9  C1  UNL     1     -33.902   4.597   3.452  1.00 20.00     0.240 C 
HETATM   10  O8  UNL     1     -34.274   4.001   4.458  1.00 20.00    -0.306 OA
ENDBRANCH   7   9
ENDBRANCH   3   7
TORSDOF 2
ENDMDL
MODEL 9
REMARK VINA RESULT:       1.0      1.287      3.663
REMARK  2 active torsions:
REMARK  status: ('A' for Active; 'I' for Inactive)
REMARK    1  A    between atoms: C1_1  and  C7_7 
REMARK    2  A    between atoms: C4_4  and  C7_7 
ROOT
HETATM    1  C2  UNL     1     -31.989   4.680   0.748  1.00 20.00     0.197 C 
HETATM    2  C3  UNL     1     -33.354   4.940   0.172  1.00 20.00     0.197 C 
HETATM    3  C4  UNL     1     -32.928   6.451   1.808  1.00 20.00     0.169 C 
HETATM    4  C5  UNL     1     -32.128   7.746   1.748  1.00 20.00     0.080 C 
HETATM    5  O9  UNL     1     -32.032   5.347   2.010  1.00 20.00    -0.353 OA
HETATM    6  O10 UNL     1     -33.628   6.285   0.564  1.00 20.00    -0.353 OA
ENDROOT
BRANCH   3   7
HETATM    7  C7  UNL     1     -33.934   6.475   2.952  1.00 20.00     0.105 C 
HETATM    8  C6  UNL     1     -33.974   5.135   3.676  1.00 20.00     0.023 C 
BRANCH   7   9
HETATM    9  C1  UNL     1     -33.587   7.612   3.894  1.00 20.00     0.240 C 
HETATM   10  O8  UNL     1     -34.209   7.887   4.915  1.00 20.00    -0.306 OA
ENDBRANCH   7   9
ENDBRANCH   3   7
TORSDOF 2
ENDMDL
