MODEL 1
REMARK VINA RESULT:      -1.1      0.000      0.000
REMARK  1 active torsions:
REMARK  status: ('A' for Active; 'I' for Inactive)
REMARK    1  A    between atoms: C2_2  and  O6_6 
ROOT
HETATM    1  C1  UNL     1     -33.734   5.881   1.210  1.00 20.00     0.106 A 
HETATM    2  C2  UNL     1     -33.462   5.820   2.689  1.00 20.00     0.111 A 
HETATM    3  C3  UNL     1     -32.360   6.205   1.734  1.00 20.00     0.212 A 
HETATM    4  C4  UNL     1     -33.426   4.498   3.382  1.00 20.00     0.051 C 
HETATM    5  F7  UNL     1     -31.384   5.244   1.494  1.00 20.00    -0.222 F 
HETATM    6 CL8  UNL     1     -31.809   7.869   1.655  1.00 20.00    -0.079 Cl
ENDROOT
BRANCH   2   7
HETATM    7  O6  UNL     1     -34.057   6.865   3.477  1.00 20.00    -0.381 OA
HETATM    8  C5  UNL     1     -35.277   6.435   4.048  1.00 20.00     0.202 C 
ENDBRANCH   2   7
TORSDOF 1
ENDMDL
MODEL 2
REMARK VINA RESULT:      -0.5      2.291      2.806
REMARK  1 active torsions:
REMARK  status: ('A' for Active; 'I' for Inactive)
REMARK    1  A    between atoms: C2_2  and  O6_6 
ROOT
HETATM    1  C1  UNL     1     -33.294   7.365   4.514  1.00 20.00     0.106 A 
HETATM    2  C2  UNL     1     -34.124   6.440   3.666  1.00 20.00     0.111 A 
HETATM    3  C3  UNL     1     -33.568   7.710   3.074  1.00 20.00     0.212 A 
HETATM    4  C4  UNL     1     -35.589   6.311   3.923  1.00 20.00     0.051 C 
HETATM    5  F7  UNL     1     -34.473   8.746   2.865  1.00 20.00    -0.222 F 
HETATM    6 CL8  UNL     1     -32.236   7.637   1.933  1.00 20.00    -0.079 Cl
ENDROOT
BRANCH   2   7
HETATM    7  O6  UNL     1     -33.495   5.201   3.295  1.00 20.00    -0.381 OA
HETATM    8  C5  UNL     1     -33.969   4.135   4.096  1.00 20.00     0.202 C 
ENDBRANCH   2   7
TORSDOF 1
ENDMDL
MODEL 3
REMARK VINA RESULT:      -0.5      2.900      3.601
REMARK  1 active torsions:
REMARK  status: ('A' for Active; 'I' for Inactive)
REMARK    1  A    between atoms: C2_2  and  O6_6 
ROOT
HETATM    1  C1  UNL     1     -35.053   7.198   2.714  1.00 20.00     0.106 A 
HETATM    2  C2  UNL     1     -33.612   6.767   2.781  1.00 20.00     0.111 A 
HETATM    3  C3  UNL     1     -34.491   6.651   4.000  1.00 20.00     0.212 A 
HETATM    4  C4  UNL     1     -32.528   7.792   2.733  1.00 20.00     0.051 C 
HETATM    5  F7  UNL     1     -34.280   7.585   5.009  1.00 20.00    -0.222 F 
HETATM    6 CL8  UNL     1     -35.037   5.074   4.542  1.00 20.00    -0.079 Cl
ENDROOT
BRANCH   2   7
HETATM    7  O6  UNL     1     -33.290   5.557   2.074  1.00 20.00    -0.381 OA
HETATM    8  C5  UNL     1     -32.135   5.731   1.276  1.00 20.00     0.202 C 
ENDBRANCH   2   7
TORSDOF 1
ENDMDL
MODEL 4
REMARK VINA RESULT:      -0.4      2.179      2.630
REMARK  1 active torsions:
REMARK  status: ('A' for Active; 'I' for Inactive)
REMARK    1  A    between atoms: C2_2  and  O6_6 
ROOT
HETATM    1  C1  UNL     1     -34.925   7.170   3.036  1.00 20.00     0.106 A 
HETATM    2  C2  UNL     1     -33.958   6.038   3.255  1.00 20.00     0.111 A 
HETATM    3  C3  UNL     1     -33.554   7.450   3.593  1.00 20.00     0.212 A 
HETATM    4  C4  UNL     1     -33.350   5.345   2.081  1.00 20.00     0.051 C 
HETATM    5  F7  UNL     1     -32.665   8.068   2.720  1.00 20.00    -0.222 F 
HETATM    6 CL8  UNL     1     -33.424   7.947   5.271  1.00 20.00    -0.079 Cl
ENDROOT
BRANCH   2   7
HETATM    7  O6  UNL     1     -34.269   5.153   4.345  1.00 20.00    -0.381 OA
HETATM    8  C5  UNL     1     -33.782   3.849   4.093  1.00 20.00     0.202 C 
ENDBRANCH   2   7
TORSDOF 1
ENDMDL
MODEL 5
REMARK VINA RESULT:      -0.4      2.210      2.803
REMARK  1 active torsions:
REMARK  status: ('A' for Active; 'I' for Inactive)
REMARK    1  A    between atoms: C2_2  and  O6_6 
ROOT
HETATM    1  C1  UNL     1     -33.722   6.555   1.202  1.00 20.00     0.106 A 
HETATM    2  C2  UNL     1     -32.840   7.127   2.279  1.00 20.00     0.111 A 
HETATM    3  C3  UNL     1     -32.801   5.650   1.978  1.00 20.00     0.212 A 
HETATM    4  C4  UNL     1     -33.446   7.618   3.552  1.00 20.00     0.051 C 
HETATM    5  F7  UNL     1     -33.419   4.813   2.901  1.00 20.00    -0.222 F 
HETATM    6 CL8  UNL     1     -31.419   4.960   1.147  1.00 20.00    -0.079 Cl
ENDROOT
BRANCH   2   7
HETATM    7  O6  UNL     1     -31.738   7.930   1.822  1.00 20.00    -0.381 OA
HETATM    8  C5  UNL     1     -32.188   8.974   0.979  1.00 20.00     0.202 C 
ENDBRANCH   2   7
TORSDOF 1
ENDMDL
MODEL 6
REMARK VINA RESULT:      -0.3      2.899      3.870
REMARK  1 active torsions:
REMARK  status: ('A' for Active; 'I' for Inactive)
REMARK    1  A    between atoms: C2_2  and  O6_6 
ROOT
HETATM    1  C1  UNL     1     -31.240   8.282   2.474  1.00 20.00     0.106 A 
HETATM    2  C2  UNL     1     -32.036   8.620   1.242  1.00 20.00     0.111 A 
HETATM    3  C3  UNL     1     -32.405   7.416   2.071  1.00 20.00     0.212 A 
HETATM    4  C4  UNL     1     -31.424   8.443  -0.108  1.00 20.00     0.051 C 
HETATM    5  F7  UNL     1     -32.074   6.173   1.541  1.00 20.00    -0.222 F 
HETATM    6 CL8  UNL     1     -33.848   7.445   3.068  1.00 20.00    -0.079 Cl
ENDROOT
BRANCH   2   7
HETATM    7  O6  UNL     1     -32.878   9.782   1.343  1.00 20.00    -0.381 OA
HETATM    8  C5  UNL     1     -32.713  10.625   0.219  1.00 20.00     0.202 C 
ENDBRANCH   2   7
TORSDOF 1
ENDMDL
MODEL 7
REMARK VINA RESULT:      -0.3      2.465      3.228
REMARK  1 active torsions:
REMARK  status: ('A' for Active; 'I' for Inactive)
REMARK    1  A    between atoms: C2_2  and  O6_6 
ROOT
HETATM    1  C1  UNL     1     -33.364   5.464   3.454  1.00 20.00     0.106 A 
HETATM    2  C2  UNL     1     -33.255   6.488   2.357  1.00 20.00     0.111 A 
HETATM    3  C3  UNL     1     -34.230   6.695   3.488  1.00 20.00     0.212 A 
HETATM    4  C4  UNL     1     -33.752   6.164   0.987  1.00 20.00     0.051 C 
HETATM    5  F7  UNL     1     -35.574   6.493   3.192  1.00 20.00    -0.222 F 
HETATM    6 CL8  UNL     1     -33.907   7.907   4.715  1.00 20.00    -0.079 Cl
ENDROOT
BRANCH   2   7
HETATM    7  O6  UNL     1     -32.054   7.279   2.359  1.00 20.00    -0.381 OA
HETATM    8  C5  UNL     1     -32.098   8.267   1.348  1.00 20.00     0.202 C 
ENDBRANCH   2   7
TORSDOF 1
ENDMDL
MODEL 8
REMARK VINA RESULT:      -0.2      3.007      3.633
REMARK  1 active torsions:
REMARK  status: ('A' for Active; 'I' for Inactive)
REMARK    1  A    between atoms: C2_2  and  O6_6 
ROOT
HETATM    1  C1  UNL     1     -35.273   6.553   2.847  1.00 20.00     0.106 A 
HETATM    2  C2  UNL     1     -33.989   6.960   3.519  1.00 20.00     0.111 A 
HETATM    3  C3  UNL     1     -34.768   5.776   4.035  1.00 20.00     0.212 A 
HETATM    4  C4  UNL     1     -33.934   8.224   4.310  1.00 20.00     0.051 C 
HETATM    5  F7  UNL     1     -35.471   5.965   5.220  1.00 20.00    -0.222 F 
HETATM    6 CL8  UNL     1     -34.168   4.149   3.770  1.00 20.00    -0.079 Cl
ENDROOT
BRANCH   2   7
HETATM    7  O6  UNL     1     -32.786   6.694   2.777  1.00 20.00    -0.381 OA
HETATM    8  C5  UNL     1     -32.329   7.861   2.121  1.00 20.00     0.202 C 
ENDBRANCH   2   7
TORSDOF 1
ENDMDL
MODEL 9
REMARK VINA RESULT:      -0.1      1.622      1.780
REMARK  1 active torsions:
REMARK  status: ('A' for Active; 'I' for Inactive)
REMARK    1  A    between atoms: C2_2  and  O6_6 
ROOT
HETATM    1  C1  UNL     1     -33.137   8.283   1.536  1.00 20.00     0.106 A 
HETATM    2  C2  UNL     1     -33.140   7.102   2.468  1.00 20.00     0.111 A 
HETATM    3  C3  UNL     1     -31.883   7.914   2.283  1.00 20.00     0.212 A 
HETATM    4  C4  UNL     1     -33.228   5.719   1.913  1.00 20.00     0.051 C 
HETATM    5  F7  UNL     1     -30.876   7.334   1.518  1.00 20.00    -0.222 F 
HETATM    6 CL8  UNL     1     -31.331   8.981   3.562  1.00 20.00    -0.079 Cl
ENDROOT
BRANCH   2   7
HETATM    7  O6  UNL     1     -33.871   7.276   3.694  1.00 20.00    -0.381 OA
HETATM    8  C5  UNL     1     -34.935   6.348   3.784  1.00 20.00     0.202 C 
ENDBRANCH   2   7
TORSDOF 1
ENDMDL
