MODEL 1
REMARK VINA RESULT:      -1.5      0.000      0.000
REMARK  0 active torsions:
REMARK  status: ('A' for Active; 'I' for Inactive)
ROOT
HETATM    1  C1  UNL     1     -32.744   6.066   1.945  1.00 20.00     0.135 C 
HETATM    2  C2  UNL     1     -33.496   5.308   3.018  1.00 20.00     0.110 C 
HETATM    3  C3  UNL     1     -33.014   7.955   3.500  1.00 20.00     0.179 C 
HETATM    4  C4  UNL     1     -32.824   7.585   2.028  1.00 20.00     0.075 C 
HETATM    5  C5  UNL     1     -34.655   6.179   3.501  1.00 20.00     0.124 C 
HETATM    6  C6  UNL     1     -31.574   8.240   1.455  1.00 20.00     0.020 C 
HETATM    7  C7  UNL     1     -35.484   5.458   4.555  1.00 20.00     0.040 C 
HETATM    8  O8  UNL     1     -32.113   5.477   1.070  1.00 20.00    -0.297 OA
HETATM    9  O9  UNL     1     -34.208   7.413   4.072  1.00 20.00    -0.385 OA
ENDROOT
TORSDOF 0
ENDMDL
MODEL 2
REMARK VINA RESULT:      -1.2      0.742      3.941
REMARK  0 active torsions:
REMARK  status: ('A' for Active; 'I' for Inactive)
ROOT
HETATM    1  C1  UNL     1     -33.773   7.557   4.001  1.00 20.00     0.135 C 
HETATM    2  C2  UNL     1     -32.534   8.064   3.294  1.00 20.00     0.110 C 
HETATM    3  C3  UNL     1     -33.424   5.582   2.573  1.00 20.00     0.179 C 
HETATM    4  C4  UNL     1     -34.480   6.383   3.337  1.00 20.00     0.075 C 
HETATM    5  C5  UNL     1     -32.664   7.746   1.806  1.00 20.00     0.124 C 
HETATM    6  C6  UNL     1     -35.195   5.512   4.361  1.00 20.00     0.020 C 
HETATM    7  C7  UNL     1     -31.467   8.269   1.023  1.00 20.00     0.040 C 
HETATM    8  O8  UNL     1     -34.168   8.071   5.045  1.00 20.00    -0.297 OA
HETATM    9  O9  UNL     1     -32.763   6.340   1.556  1.00 20.00    -0.385 OA
ENDROOT
TORSDOF 0
ENDMDL
MODEL 3
REMARK VINA RESULT:      -0.4      1.101      2.507
REMARK  0 active torsions:
REMARK  status: ('A' for Active; 'I' for Inactive)
ROOT
HETATM    1  C1  UNL     1     -33.689   7.370   3.357  1.00 20.00     0.135 C 
HETATM    2  C2  UNL     1     -34.358   6.081   3.784  1.00 20.00     0.110 C 
HETATM    3  C3  UNL     1     -32.807   5.967   1.537  1.00 20.00     0.179 C 
HETATM    4  C4  UNL     1     -32.540   7.223   2.369  1.00 20.00     0.075 C 
HETATM    5  C5  UNL     1     -33.342   4.947   3.663  1.00 20.00     0.124 C 
HETATM    6  C6  UNL     1     -32.410   8.452   1.479  1.00 20.00     0.020 C 
HETATM    7  C7  UNL     1     -33.937   3.622   4.120  1.00 20.00     0.040 C 
HETATM    8  O8  UNL     1     -34.063   8.458   3.790  1.00 20.00    -0.297 OA
HETATM    9  O9  UNL     1     -32.878   4.772   2.320  1.00 20.00    -0.385 OA
ENDROOT
TORSDOF 0
ENDMDL
MODEL 4
REMARK VINA RESULT:      -0.0      1.272      3.193
REMARK  0 active torsions:
REMARK  status: ('A' for Active; 'I' for Inactive)
ROOT
HETATM    1  C1  UNL     1     -34.148   6.281   3.400  1.00 20.00     0.135 C 
HETATM    2  C2  UNL     1     -33.841   5.592   2.087  1.00 20.00     0.110 C 
HETATM    3  C3  UNL     1     -32.608   7.991   2.527  1.00 20.00     0.179 C 
HETATM    4  C4  UNL     1     -33.183   7.386   3.809  1.00 20.00     0.075 C 
HETATM    5  C5  UNL     1     -32.339   5.692   1.830  1.00 20.00     0.124 C 
HETATM    6  C6  UNL     1     -33.877   8.447   4.653  1.00 20.00     0.020 C 
HETATM    7  C7  UNL     1     -31.952   4.979   0.541  1.00 20.00     0.040 C 
HETATM    8  O8  UNL     1     -35.119   5.957   4.079  1.00 20.00    -0.297 OA
HETATM    9  O9  UNL     1     -31.893   7.048   1.724  1.00 20.00    -0.385 OA
ENDROOT
TORSDOF 0
ENDMDL
MODEL 5
REMARK VINA RESULT:       0.3      1.164      3.302
REMARK  0 active torsions:
REMARK  status: ('A' for Active; 'I' for Inactive)
ROOT
HETATM    1  C1  UNL     1     -33.536   5.331   2.897  1.00 20.00     0.135 C 
HETATM    2  C2  UNL     1     -32.859   6.149   1.819  1.00 20.00     0.110 C 
HETATM    3  C3  UNL     1     -34.643   7.468   3.415  1.00 20.00     0.179 C 
HETATM    4  C4  UNL     1     -34.207   6.127   4.009  1.00 20.00     0.075 C 
HETATM    5  C5  UNL     1     -32.439   7.489   2.421  1.00 20.00     0.124 C 
HETATM    6  C6  UNL     1     -35.394   5.374   4.595  1.00 20.00     0.020 C 
HETATM    7  C7  UNL     1     -31.710   8.349   1.398  1.00 20.00     0.040 C 
HETATM    8  O8  UNL     1     -33.536   4.102   2.862  1.00 20.00    -0.297 OA
HETATM    9  O9  UNL     1     -33.555   8.243   2.903  1.00 20.00    -0.385 OA
ENDROOT
TORSDOF 0
ENDMDL
MODEL 6
REMARK VINA RESULT:       0.5      1.541      2.436
REMARK  0 active torsions:
REMARK  status: ('A' for Active; 'I' for Inactive)
ROOT
HETATM    1  C1  UNL     1     -32.097   7.299   1.748  1.00 20.00     0.135 C 
HETATM    2  C2  UNL     1     -32.913   8.177   2.672  1.00 20.00     0.110 C 
HETATM    3  C3  UNL     1     -33.797   5.614   2.326  1.00 20.00     0.179 C 
HETATM    4  C4  UNL     1     -32.350   5.801   1.864  1.00 20.00     0.075 C 
HETATM    5  C5  UNL     1     -33.279   7.364   3.913  1.00 20.00     0.124 C 
HETATM    6  C6  UNL     1     -32.100   5.090   0.541  1.00 20.00     0.020 C 
HETATM    7  C7  UNL     1     -34.068   8.203   4.909  1.00 20.00     0.040 C 
HETATM    8  O8  UNL     1     -31.288   7.780   0.959  1.00 20.00    -0.297 OA
HETATM    9  O9  UNL     1     -34.069   6.213   3.596  1.00 20.00    -0.385 OA
ENDROOT
TORSDOF 0
ENDMDL
MODEL 7
REMARK VINA RESULT:       0.6      1.625      3.267
REMARK  0 active torsions:
REMARK  status: ('A' for Active; 'I' for Inactive)
ROOT
HETATM    1  C1  UNL     1     -32.633   7.685   2.367  1.00 20.00     0.135 C 
HETATM    2  C2  UNL     1     -31.827   6.666   1.591  1.00 20.00     0.110 C 
HETATM    3  C3  UNL     1     -33.561   5.686   3.463  1.00 20.00     0.179 C 
HETATM    4  C4  UNL     1     -33.852   7.144   3.103  1.00 20.00     0.075 C 
HETATM    5  C5  UNL     1     -32.756   5.521   1.189  1.00 20.00     0.124 C 
HETATM    6  C6  UNL     1     -34.160   7.965   4.349  1.00 20.00     0.020 C 
HETATM    7  C7  UNL     1     -32.017   4.476   0.365  1.00 20.00     0.040 C 
HETATM    8  O8  UNL     1     -32.310   8.871   2.392  1.00 20.00    -0.297 OA
HETATM    9  O9  UNL     1     -33.323   4.856   2.322  1.00 20.00    -0.385 OA
ENDROOT
TORSDOF 0
ENDMDL
MODEL 8
REMARK VINA RESULT:       0.8      1.370      2.217
REMARK  0 active torsions:
REMARK  status: ('A' for Active; 'I' for Inactive)
ROOT
HETATM    1  C1  UNL     1     -32.554   7.964   3.263  1.00 20.00     0.135 C 
HETATM    2  C2  UNL     1     -33.856   7.531   3.901  1.00 20.00     0.110 C 
HETATM    3  C3  UNL     1     -33.332   6.548   1.405  1.00 20.00     0.179 C 
HETATM    4  C4  UNL     1     -32.086   7.126   2.079  1.00 20.00     0.075 C 
HETATM    5  C5  UNL     1     -34.037   6.033   3.660  1.00 20.00     0.124 C 
HETATM    6  C6  UNL     1     -31.267   7.956   1.099  1.00 20.00     0.020 C 
HETATM    7  C7  UNL     1     -35.312   5.519   4.315  1.00 20.00     0.040 C 
HETATM    8  O8  UNL     1     -31.927   8.933   3.684  1.00 20.00    -0.297 OA
HETATM    9  O9  UNL     1     -34.107   5.710   2.267  1.00 20.00    -0.385 OA
ENDROOT
TORSDOF 0
ENDMDL
