MODEL 1
REMARK VINA RESULT:      -2.0      0.000      0.000
REMARK  0 active torsions:
REMARK  status: ('A' for Active; 'I' for Inactive)
ROOT
HETATM    1  C1  UNL     1     -34.954   5.621   4.016  1.00 20.00     0.064 C 
HETATM    2  C2  UNL     1     -32.290   6.417   1.416  1.00 20.00     0.012 C 
HETATM    3  C3  UNL     1     -32.018   7.698   1.697  1.00 20.00     0.090 C 
HETATM    4  C4  UNL     1     -33.307   5.611   2.171  1.00 20.00     0.049 C 
HETATM    5  C5  UNL     1     -32.675   8.453   2.810  1.00 20.00     0.071 C 
HETATM    6  C6  UNL     1     -33.412   7.542   3.797  1.00 20.00     0.026 C 
HETATM    7  C7  UNL     1     -34.224   6.469   3.059  1.00 20.00     0.096 C 
HETATM    8  N8  UNL     1     -35.531   4.953   4.770  1.00 20.00    -0.197 NA
HETATM    9  F9  UNL     1     -31.085   8.334   0.953  1.00 20.00    -0.211 F 
ENDROOT
TORSDOF 0
ENDMDL
MODEL 2
REMARK VINA RESULT:      -2.0      3.259      3.991
REMARK  0 active torsions:
REMARK  status: ('A' for Active; 'I' for Inactive)
ROOT
HETATM    1  C1  UNL     1     -32.302   8.511   1.422  1.00 20.00     0.064 C 
HETATM    2  C2  UNL     1     -33.557   5.130   2.641  1.00 20.00     0.012 C 
HETATM    3  C3  UNL     1     -34.256   5.481   3.727  1.00 20.00     0.090 C 
HETATM    4  C4  UNL     1     -32.834   6.121   1.776  1.00 20.00     0.049 C 
HETATM    5  C5  UNL     1     -34.418   6.899   4.178  1.00 20.00     0.071 C 
HETATM    6  C6  UNL     1     -34.012   7.917   3.106  1.00 20.00     0.026 C 
HETATM    7  C7  UNL     1     -32.700   7.509   2.426  1.00 20.00     0.096 C 
HETATM    8  N8  UNL     1     -31.988   9.300   0.632  1.00 20.00    -0.197 NA
HETATM    9  F9  UNL     1     -34.867   4.507   4.440  1.00 20.00    -0.211 F 
ENDROOT
TORSDOF 0
ENDMDL
MODEL 3
REMARK VINA RESULT:      -1.8      0.371      1.714
REMARK  0 active torsions:
REMARK  status: ('A' for Active; 'I' for Inactive)
ROOT
HETATM    1  C1  UNL     1     -34.689   5.453   4.086  1.00 20.00     0.064 C 
HETATM    2  C2  UNL     1     -32.653   8.313   2.612  1.00 20.00     0.012 C 
HETATM    3  C3  UNL     1     -31.997   7.692   1.624  1.00 20.00     0.090 C 
HETATM    4  C4  UNL     1     -33.611   7.609   3.529  1.00 20.00     0.049 C 
HETATM    5  C5  UNL     1     -32.172   6.239   1.308  1.00 20.00     0.071 C 
HETATM    6  C6  UNL     1     -33.405   5.624   1.979  1.00 20.00     0.026 C 
HETATM    7  C7  UNL     1     -33.520   6.076   3.441  1.00 20.00     0.096 C 
HETATM    8  N8  UNL     1     -35.610   4.963   4.594  1.00 20.00    -0.197 NA
HETATM    9  F9  UNL     1     -31.153   8.418   0.857  1.00 20.00    -0.211 F 
ENDROOT
TORSDOF 0
ENDMDL
MODEL 4
REMARK VINA RESULT:      -1.2      3.294      4.355
REMARK  0 active torsions:
REMARK  status: ('A' for Active; 'I' for Inactive)
ROOT
HETATM    1  C1  UNL     1     -32.197   8.006   1.608  1.00 20.00     0.064 C 
HETATM    2  C2  UNL     1     -34.663   6.838   4.263  1.00 20.00     0.012 C 
HETATM    3  C3  UNL     1     -34.701   5.520   4.031  1.00 20.00     0.090 C 
HETATM    4  C4  UNL     1     -33.820   7.787   3.462  1.00 20.00     0.049 C 
HETATM    5  C5  UNL     1     -33.886   4.849   2.969  1.00 20.00     0.071 C 
HETATM    6  C6  UNL     1     -32.767   5.741   2.420  1.00 20.00     0.026 C 
HETATM    7  C7  UNL     1     -33.272   7.167   2.166  1.00 20.00     0.096 C 
HETATM    8  N8  UNL     1     -31.352   8.667   1.167  1.00 20.00    -0.197 NA
HETATM    9  F9  UNL     1     -35.497   4.753   4.809  1.00 20.00    -0.211 F 
ENDROOT
TORSDOF 0
ENDMDL
MODEL 5
REMARK VINA RESULT:      -1.0      2.744      3.612
REMARK  0 active torsions:
REMARK  status: ('A' for Active; 'I' for Inactive)
ROOT
HETATM    1  C1  UNL     1     -32.194   5.020   0.806  1.00 20.00     0.064 C 
HETATM    2  C2  UNL     1     -32.808   7.993   3.103  1.00 20.00     0.012 C 
HETATM    3  C3  UNL     1     -33.821   7.544   3.856  1.00 20.00     0.090 C 
HETATM    4  C4  UNL     1     -32.179   7.181   2.008  1.00 20.00     0.049 C 
HETATM    5  C5  UNL     1     -34.412   6.176   3.707  1.00 20.00     0.071 C 
HETATM    6  C6  UNL     1     -33.539   5.235   2.871  1.00 20.00     0.026 C 
HETATM    7  C7  UNL     1     -33.004   5.943   1.619  1.00 20.00     0.096 C 
HETATM    8  N8  UNL     1     -31.557   4.292   0.165  1.00 20.00    -0.197 NA
HETATM    9  F9  UNL     1     -34.318   8.357   4.815  1.00 20.00    -0.211 F 
ENDROOT
TORSDOF 0
ENDMDL
MODEL 6
REMARK VINA RESULT:      -0.4      3.271      4.087
REMARK  0 active torsions:
REMARK  status: ('A' for Active; 'I' for Inactive)
ROOT
HETATM    1  C1  UNL     1     -31.762   8.773   0.546  1.00 20.00     0.064 C 
HETATM    2  C2  UNL     1     -33.313   5.606   1.982  1.00 20.00     0.012 C 
HETATM    3  C3  UNL     1     -33.609   5.996   3.228  1.00 20.00     0.090 C 
HETATM    4  C4  UNL     1     -32.661   6.509   0.975  1.00 20.00     0.049 C 
HETATM    5  C5  UNL     1     -33.349   7.378   3.741  1.00 20.00     0.071 C 
HETATM    6  C6  UNL     1     -33.044   8.383   2.625  1.00 20.00     0.026 C 
HETATM    7  C7  UNL     1     -32.075   7.788   1.596  1.00 20.00     0.096 C 
HETATM    8  N8  UNL     1     -31.516   9.549  -0.281  1.00 20.00    -0.197 NA
HETATM    9  F9  UNL     1     -34.194   5.103   4.058  1.00 20.00    -0.211 F 
ENDROOT
TORSDOF 0
ENDMDL
MODEL 7
REMARK VINA RESULT:      -0.3      2.713      3.443
REMARK  0 active torsions:
REMARK  status: ('A' for Active; 'I' for Inactive)
ROOT
HETATM    1  C1  UNL     1     -32.193   4.952   0.936  1.00 20.00     0.064 C 
HETATM    2  C2  UNL     1     -34.344   6.397   3.725  1.00 20.00     0.012 C 
HETATM    3  C3  UNL     1     -33.797   7.609   3.883  1.00 20.00     0.090 C 
HETATM    4  C4  UNL     1     -33.846   5.398   2.722  1.00 20.00     0.049 C 
HETATM    5  C5  UNL     1     -32.652   8.108   3.058  1.00 20.00     0.071 C 
HETATM    6  C6  UNL     1     -32.400   7.257   1.808  1.00 20.00     0.026 C 
HETATM    7  C7  UNL     1     -32.470   5.760   2.136  1.00 20.00     0.096 C 
HETATM    8  N8  UNL     1     -31.974   4.316  -0.009  1.00 20.00    -0.197 NA
HETATM    9  F9  UNL     1     -34.321   8.433   4.819  1.00 20.00    -0.211 F 
ENDROOT
TORSDOF 0
ENDMDL
MODEL 8
REMARK VINA RESULT:       0.2      2.339      3.253
REMARK  0 active torsions:
REMARK  status: ('A' for Active; 'I' for Inactive)
ROOT
HETATM    1  C1  UNL     1     -33.520   3.013   4.388  1.00 20.00     0.064 C 
HETATM    2  C2  UNL     1     -35.340   6.351   4.195  1.00 20.00     0.012 C 
HETATM    3  C3  UNL     1     -34.503   7.068   3.436  1.00 20.00     0.090 C 
HETATM    4  C4  UNL     1     -35.076   4.925   4.584  1.00 20.00     0.049 C 
HETATM    5  C5  UNL     1     -33.230   6.518   2.870  1.00 20.00     0.071 C 
HETATM    6  C6  UNL     1     -33.154   4.989   2.947  1.00 20.00     0.026 C 
HETATM    7  C7  UNL     1     -33.629   4.480   4.313  1.00 20.00     0.096 C 
HETATM    8  N8  UNL     1     -33.433   1.857   4.447  1.00 20.00    -0.197 NA
HETATM    9  F9  UNL     1     -34.834   8.347   3.146  1.00 20.00    -0.211 F 
ENDROOT
TORSDOF 0
ENDMDL
MODEL 9
REMARK VINA RESULT:       0.3      1.970      2.467
REMARK  0 active torsions:
REMARK  status: ('A' for Active; 'I' for Inactive)
ROOT
HETATM    1  C1  UNL     1     -33.851   7.978   4.432  1.00 20.00     0.064 C 
HETATM    2  C2  UNL     1     -33.171   5.016   2.138  1.00 20.00     0.012 C 
HETATM    3  C3  UNL     1     -32.423   5.584   1.184  1.00 20.00     0.090 C 
HETATM    4  C4  UNL     1     -33.720   5.777   3.310  1.00 20.00     0.049 C 
HETATM    5  C5  UNL     1     -32.028   7.029   1.199  1.00 20.00     0.071 C 
HETATM    6  C6  UNL     1     -32.261   7.698   2.558  1.00 20.00     0.026 C 
HETATM    7  C7  UNL     1     -33.623   7.303   3.143  1.00 20.00     0.096 C 
HETATM    8  N8  UNL     1     -34.031   8.509   5.447  1.00 20.00    -0.197 NA
HETATM    9  F9  UNL     1     -31.980   4.809   0.168  1.00 20.00    -0.211 F 
ENDROOT
TORSDOF 0
ENDMDL
