MODEL 1
REMARK VINA RESULT:      -2.0      0.000      0.000
REMARK  0 active torsions:
REMARK  status: ('A' for Active; 'I' for Inactive)
ROOT
HETATM    1  C1  UNL     1     -34.564   6.234   3.626  1.00 20.00     0.200 C 
HETATM    2  C2  UNL     1     -33.928   7.400   3.658  1.00 20.00     0.113 C 
HETATM    3  F3  UNL     1     -35.587   5.967   4.458  1.00 20.00    -0.219 F 
HETATM    4 CL4  UNL     1     -32.622   7.777   2.619  1.00 20.00    -0.095 Cl
ENDROOT
TORSDOF 0
ENDMDL
MODEL 2
REMARK VINA RESULT:      -1.9      2.858      2.942
REMARK  0 active torsions:
REMARK  status: ('A' for Active; 'I' for Inactive)
ROOT
HETATM    1  C1  UNL     1     -33.240   7.175   2.786  1.00 20.00     0.200 C 
HETATM    2  C2  UNL     1     -34.103   7.308   3.786  1.00 20.00     0.113 C 
HETATM    3  F3  UNL     1     -32.258   8.071   2.579  1.00 20.00    -0.219 F 
HETATM    4 CL4  UNL     1     -35.365   6.191   4.083  1.00 20.00    -0.095 Cl
ENDROOT
TORSDOF 0
ENDMDL
MODEL 3
REMARK VINA RESULT:      -1.9      2.941      3.047
REMARK  0 active torsions:
REMARK  status: ('A' for Active; 'I' for Inactive)
ROOT
HETATM    1  C1  UNL     1     -33.833   4.087   4.062  1.00 20.00     0.200 C 
HETATM    2  C2  UNL     1     -34.880   4.810   4.443  1.00 20.00     0.113 C 
HETATM    3  F3  UNL     1     -33.634   2.838   4.521  1.00 20.00    -0.219 F 
HETATM    4 CL4  UNL     1     -35.167   6.401   3.883  1.00 20.00    -0.095 Cl
ENDROOT
TORSDOF 0
ENDMDL
MODEL 4
REMARK VINA RESULT:      -1.9      3.900      4.079
REMARK  0 active torsions:
REMARK  status: ('A' for Active; 'I' for Inactive)
ROOT
HETATM    1  C1  UNL     1     -32.105   8.152   1.610  1.00 20.00     0.200 C 
HETATM    2  C2  UNL     1     -31.992   8.923   0.534  1.00 20.00     0.113 C 
HETATM    3  F3  UNL     1     -31.589   6.911   1.645  1.00 20.00    -0.219 F 
HETATM    4 CL4  UNL     1     -32.636  10.505   0.449  1.00 20.00    -0.095 Cl
ENDROOT
TORSDOF 0
ENDMDL
MODEL 5
REMARK VINA RESULT:      -1.8      2.714      2.771
REMARK  0 active torsions:
REMARK  status: ('A' for Active; 'I' for Inactive)
ROOT
HETATM    1  C1  UNL     1     -32.988   6.373   2.024  1.00 20.00     0.200 C 
HETATM    2  C2  UNL     1     -33.804   6.247   3.064  1.00 20.00     0.113 C 
HETATM    3  F3  UNL     1     -32.688   5.326   1.234  1.00 20.00    -0.219 F 
HETATM    4 CL4  UNL     1     -34.210   7.552   4.093  1.00 20.00    -0.095 Cl
ENDROOT
TORSDOF 0
ENDMDL
MODEL 6
REMARK VINA RESULT:      -1.8      3.286      3.473
REMARK  0 active torsions:
REMARK  status: ('A' for Active; 'I' for Inactive)
ROOT
HETATM    1  C1  UNL     1     -32.252   7.938   2.205  1.00 20.00     0.200 C 
HETATM    2  C2  UNL     1     -33.115   6.994   2.562  1.00 20.00     0.113 C 
HETATM    3  F3  UNL     1     -31.380   7.751   1.197  1.00 20.00    -0.219 F 
HETATM    4 CL4  UNL     1     -34.237   7.192   3.838  1.00 20.00    -0.095 Cl
ENDROOT
TORSDOF 0
ENDMDL
MODEL 7
REMARK VINA RESULT:      -1.8      4.418      4.640
REMARK  0 active torsions:
REMARK  status: ('A' for Active; 'I' for Inactive)
ROOT
HETATM    1  C1  UNL     1     -32.382   9.342   0.415  1.00 20.00     0.200 C 
HETATM    2  C2  UNL     1     -32.085   8.623   1.491  1.00 20.00     0.113 C 
HETATM    3  F3  UNL     1     -32.250  10.680   0.404  1.00 20.00    -0.219 F 
HETATM    4 CL4  UNL     1     -32.241   6.920   1.546  1.00 20.00    -0.095 Cl
ENDROOT
TORSDOF 0
ENDMDL
MODEL 8
REMARK VINA RESULT:      -1.7      2.591      2.838
REMARK  0 active torsions:
REMARK  status: ('A' for Active; 'I' for Inactive)
ROOT
HETATM    1  C1  UNL     1     -34.497   5.936   3.767  1.00 20.00     0.200 C 
HETATM    2  C2  UNL     1     -34.749   4.770   4.350  1.00 20.00     0.113 C 
HETATM    3  F3  UNL     1     -35.384   6.947   3.800  1.00 20.00    -0.219 F 
HETATM    4 CL4  UNL     1     -33.648   3.461   4.330  1.00 20.00    -0.095 Cl
ENDROOT
TORSDOF 0
ENDMDL
MODEL 9
REMARK VINA RESULT:      -1.7      2.455      2.622
REMARK  0 active torsions:
REMARK  status: ('A' for Active; 'I' for Inactive)
ROOT
HETATM    1  C1  UNL     1     -34.100   6.788   3.777  1.00 20.00     0.200 C 
HETATM    2  C2  UNL     1     -34.787   5.702   4.115  1.00 20.00     0.113 C 
HETATM    3  F3  UNL     1     -34.652   8.014   3.826  1.00 20.00    -0.219 F 
HETATM    4 CL4  UNL     1     -34.121   4.127   4.064  1.00 20.00    -0.095 Cl
ENDROOT
TORSDOF 0
ENDMDL
