MODEL 1
REMARK VINA RESULT:      -1.2      0.000      0.000
REMARK  1 active torsions:
REMARK  status: ('A' for Active; 'I' for Inactive)
REMARK    1  A    between atoms: N3_3  and  P4_4 
ROOT
HETATM    1  C1  UNL     1     -32.879   5.760   1.454  1.00 20.00     0.117 C 
HETATM    2  C2  UNL     1     -32.042   7.984   1.720  1.00 20.00     0.117 C 
HETATM    3  N3  UNL     1     -32.678   6.855   2.407  1.00 20.00    -0.274 NA
ENDROOT
BRANCH   3   4
HETATM    4  P4  UNL     1     -34.060   7.263   3.337  1.00 20.00     0.158 P 
HETATM    5 CL5  UNL     1     -34.972   5.536   4.116  1.00 20.00    -0.059 Cl
HETATM    6 CL6  UNL     1     -33.499   8.132   5.169  1.00 20.00    -0.059 Cl
ENDBRANCH   3   4
TORSDOF 1
ENDMDL
MODEL 2
REMARK VINA RESULT:      -1.0      3.040      3.761
REMARK  1 active torsions:
REMARK  status: ('A' for Active; 'I' for Inactive)
REMARK    1  A    between atoms: N3_3  and  P4_4 
ROOT
HETATM    1  C1  UNL     1     -33.747   7.967   4.452  1.00 20.00     0.117 C 
HETATM    2  C2  UNL     1     -35.234   6.196   3.842  1.00 20.00     0.117 C 
HETATM    3  N3  UNL     1     -33.887   6.745   3.655  1.00 20.00    -0.274 NA
ENDROOT
BRANCH   3   4
HETATM    4  P4  UNL     1     -33.389   6.890   2.020  1.00 20.00     0.158 P 
HETATM    5 CL5  UNL     1     -31.770   8.221   1.849  1.00 20.00    -0.059 Cl
HETATM    6 CL6  UNL     1     -32.388   5.153   1.385  1.00 20.00    -0.059 Cl
ENDBRANCH   3   4
TORSDOF 1
ENDMDL
MODEL 3
REMARK VINA RESULT:      -1.0      3.144      3.144
REMARK  1 active torsions:
REMARK  status: ('A' for Active; 'I' for Inactive)
REMARK    1  A    between atoms: N3_3  and  P4_4 
ROOT
HETATM    1  C1  UNL     1     -34.629   6.422   3.707  1.00 20.00     0.117 C 
HETATM    2  C2  UNL     1     -33.454   8.150   4.869  1.00 20.00     0.117 C 
HETATM    3  N3  UNL     1     -33.778   7.605   3.547  1.00 20.00    -0.274 NA
ENDROOT
BRANCH   3   4
HETATM    4  P4  UNL     1     -32.432   7.390   2.507  1.00 20.00     0.158 P 
HETATM    5 CL5  UNL     1     -32.716   5.726   1.254  1.00 20.00    -0.059 Cl
HETATM    6 CL6  UNL     1     -32.401   8.864   1.008  1.00 20.00    -0.059 Cl
ENDBRANCH   3   4
TORSDOF 1
ENDMDL
MODEL 4
REMARK VINA RESULT:      -1.0      0.683      2.342
REMARK  1 active torsions:
REMARK  status: ('A' for Active; 'I' for Inactive)
REMARK    1  A    between atoms: N3_3  and  P4_4 
ROOT
HETATM    1  C1  UNL     1     -32.080   7.883   1.872  1.00 20.00     0.117 C 
HETATM    2  C2  UNL     1     -32.613   5.633   1.265  1.00 20.00     0.117 C 
HETATM    3  N3  UNL     1     -33.072   6.813   2.004  1.00 20.00    -0.274 NA
ENDROOT
BRANCH   3   4
HETATM    4  P4  UNL     1     -33.586   6.503   3.610  1.00 20.00     0.158 P 
HETATM    5 CL5  UNL     1     -33.401   8.226   4.800  1.00 20.00    -0.059 Cl
HETATM    6 CL6  UNL     1     -35.680   6.324   3.705  1.00 20.00    -0.059 Cl
ENDBRANCH   3   4
TORSDOF 1
ENDMDL
MODEL 5
REMARK VINA RESULT:      -1.0      1.503      2.336
REMARK  1 active torsions:
REMARK  status: ('A' for Active; 'I' for Inactive)
REMARK    1  A    between atoms: N3_3  and  P4_4 
ROOT
HETATM    1  C1  UNL     1     -32.215   7.738   1.843  1.00 20.00     0.117 C 
HETATM    2  C2  UNL     1     -32.379   5.415   1.300  1.00 20.00     0.117 C 
HETATM    3  N3  UNL     1     -33.055   6.541   1.952  1.00 20.00    -0.274 NA
ENDROOT
BRANCH   3   4
HETATM    4  P4  UNL     1     -33.642   6.214   3.529  1.00 20.00     0.158 P 
HETATM    5 CL5  UNL     1     -35.699   6.628   3.662  1.00 20.00    -0.059 Cl
HETATM    6 CL6  UNL     1     -33.754   4.142   3.871  1.00 20.00    -0.059 Cl
ENDBRANCH   3   4
TORSDOF 1
ENDMDL
MODEL 6
REMARK VINA RESULT:      -0.7      3.129      3.129
REMARK  1 active torsions:
REMARK  status: ('A' for Active; 'I' for Inactive)
REMARK    1  A    between atoms: N3_3  and  P4_4 
ROOT
HETATM    1  C1  UNL     1     -34.644   5.224   4.091  1.00 20.00     0.117 C 
HETATM    2  C2  UNL     1     -34.152   7.563   4.167  1.00 20.00     0.117 C 
HETATM    3  N3  UNL     1     -34.207   6.380   3.303  1.00 20.00    -0.274 NA
ENDROOT
BRANCH   3   4
HETATM    4  P4  UNL     1     -32.803   6.115   2.354  1.00 20.00     0.158 P 
HETATM    5 CL5  UNL     1     -33.311   5.311   0.479  1.00 20.00    -0.059 Cl
HETATM    6 CL6  UNL     1     -32.009   7.938   1.668  1.00 20.00    -0.059 Cl
ENDBRANCH   3   4
TORSDOF 1
ENDMDL
MODEL 7
REMARK VINA RESULT:      -0.7      1.159      1.159
REMARK  1 active torsions:
REMARK  status: ('A' for Active; 'I' for Inactive)
REMARK    1  A    between atoms: N3_3  and  P4_4 
ROOT
HETATM    1  C1  UNL     1     -32.134   5.367   0.922  1.00 20.00     0.117 C 
HETATM    2  C2  UNL     1     -32.106   7.624   1.710  1.00 20.00     0.117 C 
HETATM    3  N3  UNL     1     -32.431   6.238   2.063  1.00 20.00    -0.274 NA
ENDROOT
BRANCH   3   4
HETATM    4  P4  UNL     1     -33.986   6.017   2.753  1.00 20.00     0.158 P 
HETATM    5 CL5  UNL     1     -33.994   4.369   4.059  1.00 20.00    -0.059 Cl
HETATM    6 CL6  UNL     1     -34.389   7.506   4.182  1.00 20.00    -0.059 Cl
ENDBRANCH   3   4
TORSDOF 1
ENDMDL
MODEL 8
REMARK VINA RESULT:      -0.5      2.704      3.049
REMARK  1 active torsions:
REMARK  status: ('A' for Active; 'I' for Inactive)
REMARK    1  A    between atoms: N3_3  and  P4_4 
ROOT
HETATM    1  C1  UNL     1     -32.719   5.340   1.452  1.00 20.00     0.117 C 
HETATM    2  C2  UNL     1     -33.816   6.619   3.148  1.00 20.00     0.117 C 
HETATM    3  N3  UNL     1     -33.117   6.690   1.861  1.00 20.00    -0.274 NA
ENDROOT
BRANCH   3   4
HETATM    4  P4  UNL     1     -31.870   7.864   1.783  1.00 20.00     0.158 P 
HETATM    5 CL5  UNL     1     -32.478   9.526   0.648  1.00 20.00    -0.059 Cl
HETATM    6 CL6  UNL     1     -31.655   8.851   3.628  1.00 20.00    -0.059 Cl
ENDBRANCH   3   4
TORSDOF 1
ENDMDL
MODEL 9
REMARK VINA RESULT:      -0.1      2.380      3.008
REMARK  1 active torsions:
REMARK  status: ('A' for Active; 'I' for Inactive)
REMARK    1  A    between atoms: N3_3  and  P4_4 
ROOT
HETATM    1  C1  UNL     1     -32.352   8.115   2.439  1.00 20.00     0.117 C 
HETATM    2  C2  UNL     1     -34.044   7.932   4.119  1.00 20.00     0.117 C 
HETATM    3  N3  UNL     1     -33.068   7.186   3.317  1.00 20.00    -0.274 NA
ENDROOT
BRANCH   3   4
HETATM    4  P4  UNL     1     -33.693   5.793   2.536  1.00 20.00     0.158 P 
HETATM    5 CL5  UNL     1     -32.292   5.008   1.178  1.00 20.00    -0.059 Cl
HETATM    6 CL6  UNL     1     -33.748   4.156   3.855  1.00 20.00    -0.059 Cl
ENDBRANCH   3   4
TORSDOF 1
ENDMDL
