MODEL 1
REMARK VINA RESULT:      -1.2      0.000      0.000
REMARK  2 active torsions:
REMARK  status: ('A' for Active; 'I' for Inactive)
REMARK    1  A    between atoms: C1_1  and  C5_5 
REMARK    2  A    between atoms: C4_4  and  C5_5 
ROOT
HETATM    1  C2  UNL     1     -35.608   6.930   2.862  1.00 20.00     0.032 C 
HETATM    2  C3  UNL     1     -33.959   7.455   4.667  1.00 20.00     0.032 C 
HETATM    3  C5  UNL     1     -34.321   6.467   3.552  1.00 20.00     0.100 C 
ENDROOT
BRANCH   3   4
HETATM    4  C1  UNL     1     -34.489   5.030   4.126  1.00 20.00     0.186 C 
HETATM    5  O6  UNL     1     -35.572   4.807   4.740  1.00 20.00    -0.647 OA
HETATM    6  O7  UNL     1     -33.534   4.232   3.901  1.00 20.00    -0.647 OA
ENDBRANCH   3   4
BRANCH   3   7
HETATM    7  C4  UNL     1     -33.180   6.387   2.533  1.00 20.00     0.371 C 
HETATM    8  F8  UNL     1     -32.658   7.617   2.302  1.00 20.00    -0.213 F 
HETATM    9  F9  UNL     1     -33.636   5.927   1.340  1.00 20.00    -0.213 F 
ENDBRANCH   3   7
TORSDOF 2
ENDMDL
MODEL 2
REMARK VINA RESULT:      -1.0      1.208      1.995
REMARK  2 active torsions:
REMARK  status: ('A' for Active; 'I' for Inactive)
REMARK    1  A    between atoms: C1_1  and  C5_5 
REMARK    2  A    between atoms: C4_4  and  C5_5 
ROOT
HETATM    1  C2  UNL     1     -33.506   6.069   2.057  1.00 20.00     0.032 C 
HETATM    2  C3  UNL     1     -35.640   6.898   3.062  1.00 20.00     0.032 C 
HETATM    3  C5  UNL     1     -34.275   6.271   3.367  1.00 20.00     0.100 C 
ENDROOT
BRANCH   3   4
HETATM    4  C1  UNL     1     -34.448   4.919   4.119  1.00 20.00     0.186 C 
HETATM    5  O6  UNL     1     -35.525   4.786   4.770  1.00 20.00    -0.647 OA
HETATM    6  O7  UNL     1     -33.504   4.088   3.983  1.00 20.00    -0.647 OA
ENDBRANCH   3   4
BRANCH   3   7
HETATM    7  C4  UNL     1     -33.480   7.181   4.307  1.00 20.00     0.371 C 
HETATM    8  F8  UNL     1     -34.309   8.022   4.974  1.00 20.00    -0.213 F 
HETATM    9  F9  UNL     1     -32.619   7.960   3.604  1.00 20.00    -0.213 F 
ENDBRANCH   3   7
TORSDOF 2
ENDMDL
MODEL 3
REMARK VINA RESULT:      -1.0      2.222      3.028
REMARK  2 active torsions:
REMARK  status: ('A' for Active; 'I' for Inactive)
REMARK    1  A    between atoms: C1_1  and  C5_5 
REMARK    2  A    between atoms: C4_4  and  C5_5 
ROOT
HETATM    1  C2  UNL     1     -33.937   7.713   4.645  1.00 20.00     0.032 C 
HETATM    2  C3  UNL     1     -35.691   6.816   3.105  1.00 20.00     0.032 C 
HETATM    3  C5  UNL     1     -34.254   6.632   3.606  1.00 20.00     0.100 C 
ENDROOT
BRANCH   3   4
HETATM    4  C1  UNL     1     -33.248   6.697   2.419  1.00 20.00     0.186 C 
HETATM    5  O6  UNL     1     -33.340   5.765   1.569  1.00 20.00    -0.647 OA
HETATM    6  O7  UNL     1     -32.460   7.686   2.419  1.00 20.00    -0.647 OA
ENDBRANCH   3   4
BRANCH   3   7
HETATM    7  C4  UNL     1     -34.089   5.243   4.227  1.00 20.00     0.371 C 
HETATM    8  F8  UNL     1     -33.494   4.395   3.351  1.00 20.00    -0.213 F 
HETATM    9  F9  UNL     1     -35.300   4.706   4.526  1.00 20.00    -0.213 F 
ENDBRANCH   3   7
TORSDOF 2
ENDMDL
MODEL 4
REMARK VINA RESULT:      -0.9      2.219      3.025
REMARK  2 active torsions:
REMARK  status: ('A' for Active; 'I' for Inactive)
REMARK    1  A    between atoms: C1_1  and  C5_5 
REMARK    2  A    between atoms: C4_4  and  C5_5 
ROOT
HETATM    1  C2  UNL     1     -33.935   7.715   4.633  1.00 20.00     0.032 C 
HETATM    2  C3  UNL     1     -35.695   6.811   3.105  1.00 20.00     0.032 C 
HETATM    3  C5  UNL     1     -34.255   6.632   3.598  1.00 20.00     0.100 C 
ENDROOT
BRANCH   3   4
HETATM    4  C1  UNL     1     -33.256   6.695   2.406  1.00 20.00     0.186 C 
HETATM    5  O6  UNL     1     -32.464   7.682   2.404  1.00 20.00    -0.647 OA
HETATM    6  O7  UNL     1     -33.328   5.744   1.575  1.00 20.00    -0.647 OA
ENDBRANCH   3   4
BRANCH   3   7
HETATM    7  C4  UNL     1     -34.084   5.244   4.222  1.00 20.00     0.371 C 
HETATM    8  F8  UNL     1     -33.488   4.396   3.347  1.00 20.00    -0.213 F 
HETATM    9  F9  UNL     1     -35.292   4.704   4.526  1.00 20.00    -0.213 F 
ENDBRANCH   3   7
TORSDOF 2
ENDMDL
MODEL 5
REMARK VINA RESULT:      -0.9      1.839      2.912
REMARK  2 active torsions:
REMARK  status: ('A' for Active; 'I' for Inactive)
REMARK    1  A    between atoms: C1_1  and  C5_5 
REMARK    2  A    between atoms: C4_4  and  C5_5 
ROOT
HETATM    1  C2  UNL     1     -31.829   5.403   1.738  1.00 20.00     0.032 C 
HETATM    2  C3  UNL     1     -33.822   6.435   0.635  1.00 20.00     0.032 C 
HETATM    3  C5  UNL     1     -32.888   6.505   1.849  1.00 20.00     0.100 C 
ENDROOT
BRANCH   3   4
HETATM    4  C1  UNL     1     -33.697   6.362   3.171  1.00 20.00     0.186 C 
HETATM    5  O6  UNL     1     -33.989   5.179   3.512  1.00 20.00    -0.647 OA
HETATM    6  O7  UNL     1     -33.960   7.442   3.775  1.00 20.00    -0.647 OA
ENDBRANCH   3   4
BRANCH   3   7
HETATM    7  C4  UNL     1     -32.213   7.878   1.910  1.00 20.00     0.371 C 
HETATM    8  F8  UNL     1     -32.485   8.596   0.792  1.00 20.00    -0.213 F 
HETATM    9  F9  UNL     1     -30.863   7.744   1.968  1.00 20.00    -0.213 F 
ENDBRANCH   3   7
TORSDOF 2
ENDMDL
MODEL 6
REMARK VINA RESULT:      -0.7      2.819      3.679
REMARK  2 active torsions:
REMARK  status: ('A' for Active; 'I' for Inactive)
REMARK    1  A    between atoms: C1_1  and  C5_5 
REMARK    2  A    between atoms: C4_4  and  C5_5 
ROOT
HETATM    1  C2  UNL     1     -33.898   6.293   0.717  1.00 20.00     0.032 C 
HETATM    2  C3  UNL     1     -31.748   5.350   1.577  1.00 20.00     0.032 C 
HETATM    3  C5  UNL     1     -32.855   6.378   1.836  1.00 20.00     0.100 C 
ENDROOT
BRANCH   3   4
HETATM    4  C1  UNL     1     -32.259   7.814   1.927  1.00 20.00     0.186 C 
HETATM    5  O6  UNL     1     -32.018   8.237   3.095  1.00 20.00    -0.647 OA
HETATM    6  O7  UNL     1     -32.060   8.397   0.823  1.00 20.00    -0.647 OA
ENDBRANCH   3   4
BRANCH   3   7
HETATM    7  C4  UNL     1     -33.516   6.107   3.191  1.00 20.00     0.371 C 
HETATM    8  F8  UNL     1     -33.662   4.773   3.392  1.00 20.00    -0.213 F 
HETATM    9  F9  UNL     1     -34.761   6.646   3.232  1.00 20.00    -0.213 F 
ENDBRANCH   3   7
TORSDOF 2
ENDMDL
MODEL 7
REMARK VINA RESULT:      -0.7      2.501      3.195
REMARK  2 active torsions:
REMARK  status: ('A' for Active; 'I' for Inactive)
REMARK    1  A    between atoms: C1_1  and  C5_5 
REMARK    2  A    between atoms: C4_4  and  C5_5 
ROOT
HETATM    1  C2  UNL     1     -35.701   6.744   2.997  1.00 20.00     0.032 C 
HETATM    2  C3  UNL     1     -33.634   5.790   1.963  1.00 20.00     0.032 C 
HETATM    3  C5  UNL     1     -34.255   6.312   3.264  1.00 20.00     0.100 C 
ENDROOT
BRANCH   3   4
HETATM    4  C1  UNL     1     -33.421   7.498   3.832  1.00 20.00     0.186 C 
HETATM    5  O6  UNL     1     -32.520   7.951   3.069  1.00 20.00    -0.647 OA
HETATM    6  O7  UNL     1     -33.747   7.896   4.987  1.00 20.00    -0.647 OA
ENDBRANCH   3   4
BRANCH   3   7
HETATM    7  C4  UNL     1     -34.223   5.219   4.335  1.00 20.00     0.371 C 
HETATM    8  F8  UNL     1     -33.668   4.083   3.843  1.00 20.00    -0.213 F 
HETATM    9  F9  UNL     1     -35.482   4.898   4.728  1.00 20.00    -0.213 F 
ENDBRANCH   3   7
TORSDOF 2
ENDMDL
MODEL 8
REMARK VINA RESULT:      -0.3      2.341      2.988
REMARK  2 active torsions:
REMARK  status: ('A' for Active; 'I' for Inactive)
REMARK    1  A    between atoms: C1_1  and  C5_5 
REMARK    2  A    between atoms: C4_4  and  C5_5 
ROOT
HETATM    1  C2  UNL     1     -35.518   6.870   2.896  1.00 20.00     0.032 C 
HETATM    2  C3  UNL     1     -33.913   5.446   4.181  1.00 20.00     0.032 C 
HETATM    3  C5  UNL     1     -34.070   6.745   3.382  1.00 20.00     0.100 C 
ENDROOT
BRANCH   3   4
HETATM    4  C1  UNL     1     -33.080   6.772   2.180  1.00 20.00     0.186 C 
HETATM    5  O6  UNL     1     -32.510   7.880   1.963  1.00 20.00    -0.647 OA
HETATM    6  O7  UNL     1     -32.937   5.678   1.561  1.00 20.00    -0.647 OA
ENDBRANCH   3   4
BRANCH   3   7
HETATM    7  C4  UNL     1     -33.706   7.946   4.259  1.00 20.00     0.371 C 
HETATM    8  F8  UNL     1     -32.419   7.859   4.680  1.00 20.00    -0.213 F 
HETATM    9  F9  UNL     1     -34.479   7.975   5.375  1.00 20.00    -0.213 F 
ENDBRANCH   3   7
TORSDOF 2
ENDMDL
MODEL 9
REMARK VINA RESULT:      -0.3      1.062      1.097
REMARK  2 active torsions:
REMARK  status: ('A' for Active; 'I' for Inactive)
REMARK    1  A    between atoms: C1_1  and  C5_5 
REMARK    2  A    between atoms: C4_4  and  C5_5 
ROOT
HETATM    1  C2  UNL     1     -34.651   8.392   3.038  1.00 20.00     0.032 C 
HETATM    2  C3  UNL     1     -33.031   7.833   4.859  1.00 20.00     0.032 C 
HETATM    3  C5  UNL     1     -33.690   7.324   3.572  1.00 20.00     0.100 C 
ENDROOT
BRANCH   3   4
HETATM    4  C1  UNL     1     -34.443   5.986   3.834  1.00 20.00     0.186 C 
HETATM    5  O6  UNL     1     -35.671   6.094   4.121  1.00 20.00    -0.647 OA
HETATM    6  O7  UNL     1     -33.753   4.934   3.713  1.00 20.00    -0.647 OA
ENDBRANCH   3   4
BRANCH   3   7
HETATM    7  C4  UNL     1     -32.619   7.010   2.524  1.00 20.00     0.371 C 
HETATM    8  F8  UNL     1     -32.001   8.147   2.117  1.00 20.00    -0.213 F 
HETATM    9  F9  UNL     1     -33.179   6.455   1.419  1.00 20.00    -0.213 F 
ENDBRANCH   3   7
TORSDOF 2
ENDMDL
