MODEL 1
REMARK VINA RESULT:       0.6      0.000      0.000
REMARK  0 active torsions:
REMARK  status: ('A' for Active; 'I' for Inactive)
ROOT
HETATM    1  C1  UNL     1     -31.835   7.126   1.197  1.00 20.00     0.099 A 
HETATM    2  C2  UNL     1     -33.441   8.164   2.689  1.00 20.00     0.063 A 
HETATM    3  C3  UNL     1     -34.596   4.796   4.072  1.00 20.00     0.167 A 
HETATM    4  C4  UNL     1     -33.202   5.727   2.639  1.00 20.00     0.124 A 
HETATM    5  C5  UNL     1     -32.202   5.856   1.651  1.00 20.00     0.204 A 
HETATM    6  C6  UNL     1     -32.448   8.264   1.711  1.00 20.00     0.121 A 
HETATM    7  C7  UNL     1     -33.803   6.885   3.140  1.00 20.00     0.042 A 
HETATM    8  N8  UNL     1     -33.666   4.538   3.183  1.00 20.00    -0.249 NA
HETATM    9  O9  UNL     1     -31.696   4.761   1.239  1.00 20.00    -0.286 OA
HETATM   10  F10 UNL     1     -32.082   9.473   1.262  1.00 20.00    -0.206 F 
HETATM   11  S11 UNL     1     -34.979   6.444   4.322  1.00 20.00    -0.080 SA
ENDROOT
TORSDOF 0
ENDMDL
MODEL 2
REMARK VINA RESULT:       0.6      2.403      2.859
REMARK  0 active torsions:
REMARK  status: ('A' for Active; 'I' for Inactive)
ROOT
HETATM    1  C1  UNL     1     -31.677   6.752   1.041  1.00 20.00     0.099 A 
HETATM    2  C2  UNL     1     -33.081   4.989   1.937  1.00 20.00     0.063 A 
HETATM    3  C3  UNL     1     -34.711   7.336   4.473  1.00 20.00     0.167 A 
HETATM    4  C4  UNL     1     -33.217   7.256   2.853  1.00 20.00     0.124 A 
HETATM    5  C5  UNL     1     -32.225   7.673   1.939  1.00 20.00     0.204 A 
HETATM    6  C6  UNL     1     -32.101   5.427   1.042  1.00 20.00     0.121 A 
HETATM    7  C7  UNL     1     -33.626   5.920   2.835  1.00 20.00     0.042 A 
HETATM    8  N8  UNL     1     -33.847   8.055   3.796  1.00 20.00    -0.249 NA
HETATM    9  O9  UNL     1     -31.900   8.904   2.010  1.00 20.00    -0.286 OA
HETATM   10  F10 UNL     1     -31.564   4.559   0.174  1.00 20.00    -0.206 F 
HETATM   11  S11 UNL     1     -34.835   5.685   4.043  1.00 20.00    -0.080 SA
ENDROOT
TORSDOF 0
ENDMDL
MODEL 3
REMARK VINA RESULT:       0.8      3.338      4.335
REMARK  0 active torsions:
REMARK  status: ('A' for Active; 'I' for Inactive)
ROOT
HETATM    1  C1  UNL     1     -34.860   6.604   4.533  1.00 20.00     0.099 A 
HETATM    2  C2  UNL     1     -33.912   4.899   3.092  1.00 20.00     0.063 A 
HETATM    3  C3  UNL     1     -31.697   7.423   1.272  1.00 20.00     0.167 A 
HETATM    4  C4  UNL     1     -33.202   7.233   2.872  1.00 20.00     0.124 A 
HETATM    5  C5  UNL     1     -34.082   7.588   3.917  1.00 20.00     0.204 A 
HETATM    6  C6  UNL     1     -34.775   5.277   4.124  1.00 20.00     0.121 A 
HETATM    7  C7  UNL     1     -33.134   5.893   2.478  1.00 20.00     0.042 A 
HETATM    8  N8  UNL     1     -32.373   8.097   2.172  1.00 20.00    -0.249 NA
HETATM    9  O9  UNL     1     -34.094   8.825   4.225  1.00 20.00    -0.286 OA
HETATM   10  F10 UNL     1     -35.530   4.348   4.727  1.00 20.00    -0.206 F 
HETATM   11  S11 UNL     1     -31.993   5.740   1.195  1.00 20.00    -0.080 SA
ENDROOT
TORSDOF 0
ENDMDL
MODEL 4
REMARK VINA RESULT:       1.5      2.684      3.525
REMARK  0 active torsions:
REMARK  status: ('A' for Active; 'I' for Inactive)
ROOT
HETATM    1  C1  UNL     1     -33.854   5.187   2.935  1.00 20.00     0.099 A 
HETATM    2  C2  UNL     1     -34.185   7.492   3.613  1.00 20.00     0.063 A 
HETATM    3  C3  UNL     1     -31.577   8.779   1.136  1.00 20.00     0.167 A 
HETATM    4  C4  UNL     1     -32.557   6.944   1.867  1.00 20.00     0.124 A 
HETATM    5  C5  UNL     1     -32.888   5.578   2.004  1.00 20.00     0.204 A 
HETATM    6  C6  UNL     1     -34.494   6.134   3.729  1.00 20.00     0.121 A 
HETATM    7  C7  UNL     1     -33.213   7.876   2.676  1.00 20.00     0.042 A 
HETATM    8  N8  UNL     1     -31.623   7.476   0.990  1.00 20.00    -0.249 NA
HETATM    9  O9  UNL     1     -32.252   4.783   1.236  1.00 20.00    -0.286 OA
HETATM   10  F10 UNL     1     -35.417   5.740   4.616  1.00 20.00    -0.206 F 
HETATM   11  S11 UNL     1     -32.625   9.455   2.307  1.00 20.00    -0.080 SA
ENDROOT
TORSDOF 0
ENDMDL
MODEL 5
REMARK VINA RESULT:       1.6      3.354      4.350
REMARK  0 active torsions:
REMARK  status: ('A' for Active; 'I' for Inactive)
ROOT
HETATM    1  C1  UNL     1     -34.461   5.717   4.219  1.00 20.00     0.099 A 
HETATM    2  C2  UNL     1     -33.025   4.861   2.462  1.00 20.00     0.063 A 
HETATM    3  C3  UNL     1     -31.992   8.368   1.356  1.00 20.00     0.167 A 
HETATM    4  C4  UNL     1     -33.238   7.275   2.811  1.00 20.00     0.124 A 
HETATM    5  C5  UNL     1     -34.132   7.031   3.875  1.00 20.00     0.204 A 
HETATM    6  C6  UNL     1     -33.912   4.646   3.520  1.00 20.00     0.121 A 
HETATM    7  C7  UNL     1     -32.700   6.183   2.123  1.00 20.00     0.042 A 
HETATM    8  N8  UNL     1     -32.823   8.520   2.360  1.00 20.00    -0.249 NA
HETATM    9  O9  UNL     1     -34.584   8.071   4.458  1.00 20.00    -0.286 OA
HETATM   10  F10 UNL     1     -34.239   3.393   3.864  1.00 20.00    -0.206 F 
HETATM   11  S11 UNL     1     -31.650   6.760   0.883  1.00 20.00    -0.080 SA
ENDROOT
TORSDOF 0
ENDMDL
MODEL 6
REMARK VINA RESULT:       1.8      2.161      2.605
REMARK  0 active torsions:
REMARK  status: ('A' for Active; 'I' for Inactive)
ROOT
HETATM    1  C1  UNL     1     -32.785   8.206   2.406  1.00 20.00     0.099 A 
HETATM    2  C2  UNL     1     -32.289   5.877   1.946  1.00 20.00     0.063 A 
HETATM    3  C3  UNL     1     -34.925   4.646   4.422  1.00 20.00     0.167 A 
HETATM    4  C4  UNL     1     -34.023   6.470   3.571  1.00 20.00     0.124 A 
HETATM    5  C5  UNL     1     -33.768   7.837   3.328  1.00 20.00     0.204 A 
HETATM    6  C6  UNL     1     -32.056   7.237   1.724  1.00 20.00     0.121 A 
HETATM    7  C7  UNL     1     -33.277   5.515   2.874  1.00 20.00     0.042 A 
HETATM    8  N8  UNL     1     -34.963   5.957   4.453  1.00 20.00    -0.249 NA
HETATM    9  O9  UNL     1     -34.484   8.653   3.997  1.00 20.00    -0.286 OA
HETATM   10  F10 UNL     1     -31.118   7.611   0.843  1.00 20.00    -0.206 F 
HETATM   11  S11 UNL     1     -33.787   3.940   3.357  1.00 20.00    -0.080 SA
ENDROOT
TORSDOF 0
ENDMDL
MODEL 7
REMARK VINA RESULT:       2.0      2.566      3.316
REMARK  0 active torsions:
REMARK  status: ('A' for Active; 'I' for Inactive)
ROOT
HETATM    1  C1  UNL     1     -34.502   6.633   4.654  1.00 20.00     0.099 A 
HETATM    2  C2  UNL     1     -33.085   8.259   3.545  1.00 20.00     0.063 A 
HETATM    3  C3  UNL     1     -32.077   5.780   0.818  1.00 20.00     0.167 A 
HETATM    4  C4  UNL     1     -33.302   5.994   2.639  1.00 20.00     0.124 A 
HETATM    5  C5  UNL     1     -34.183   5.669   3.694  1.00 20.00     0.204 A 
HETATM    6  C6  UNL     1     -33.959   7.912   4.578  1.00 20.00     0.121 A 
HETATM    7  C7  UNL     1     -32.769   7.285   2.585  1.00 20.00     0.042 A 
HETATM    8  N8  UNL     1     -32.897   5.144   1.621  1.00 20.00    -0.249 NA
HETATM    9  O9  UNL     1     -34.631   4.476   3.683  1.00 20.00    -0.286 OA
HETATM   10  F10 UNL     1     -34.277   8.823   5.509  1.00 20.00    -0.206 F 
HETATM   11  S11 UNL     1     -31.735   7.410   1.210  1.00 20.00    -0.080 SA
ENDROOT
TORSDOF 0
ENDMDL
MODEL 8
REMARK VINA RESULT:       2.9      2.544      3.165
REMARK  0 active torsions:
REMARK  status: ('A' for Active; 'I' for Inactive)
ROOT
HETATM    1  C1  UNL     1     -33.134   4.399   2.101  1.00 20.00     0.099 A 
HETATM    2  C2  UNL     1     -32.129   6.506   1.443  1.00 20.00     0.063 A 
HETATM    3  C3  UNL     1     -33.852   8.412   4.270  1.00 20.00     0.167 A 
HETATM    4  C4  UNL     1     -33.635   6.409   3.372  1.00 20.00     0.124 A 
HETATM    5  C5  UNL     1     -33.800   5.023   3.160  1.00 20.00     0.204 A 
HETATM    6  C6  UNL     1     -32.309   5.133   1.255  1.00 20.00     0.121 A 
HETATM    7  C7  UNL     1     -32.801   7.125   2.508  1.00 20.00     0.042 A 
HETATM    8  N8  UNL     1     -34.229   7.160   4.376  1.00 20.00    -0.249 NA
HETATM    9  O9  UNL     1     -34.573   4.433   3.983  1.00 20.00    -0.286 OA
HETATM   10  F10 UNL     1     -31.678   4.516   0.245  1.00 20.00    -0.206 F 
HETATM   11  S11 UNL     1     -32.780   8.781   2.990  1.00 20.00    -0.080 SA
ENDROOT
TORSDOF 0
ENDMDL
MODEL 9
REMARK VINA RESULT:       3.2      2.800      3.423
REMARK  0 active torsions:
REMARK  status: ('A' for Active; 'I' for Inactive)
ROOT
HETATM    1  C1  UNL     1     -34.077   5.177   2.331  1.00 20.00     0.099 A 
HETATM    2  C2  UNL     1     -32.363   6.792   1.752  1.00 20.00     0.063 A 
HETATM    3  C3  UNL     1     -32.963   8.829   4.928  1.00 20.00     0.167 A 
HETATM    4  C4  UNL     1     -33.634   7.037   3.831  1.00 20.00     0.124 A 
HETATM    5  C5  UNL     1     -34.356   5.866   3.515  1.00 20.00     0.204 A 
HETATM    6  C6  UNL     1     -33.092   5.636   1.462  1.00 20.00     0.121 A 
HETATM    7  C7  UNL     1     -32.650   7.478   2.942  1.00 20.00     0.042 A 
HETATM    8  N8  UNL     1     -33.801   7.821   4.964  1.00 20.00    -0.249 NA
HETATM    9  O9  UNL     1     -35.238   5.521   4.368  1.00 20.00    -0.286 OA
HETATM   10  F10 UNL     1     -32.839   4.962   0.332  1.00 20.00    -0.206 F 
HETATM   11  S11 UNL     1     -31.930   8.916   3.567  1.00 20.00    -0.080 SA
ENDROOT
TORSDOF 0
ENDMDL
