MODEL 1
REMARK VINA RESULT:      -0.5      0.000      0.000
REMARK  1 active torsions:
REMARK  status: ('A' for Active; 'I' for Inactive)
REMARK    1  A    between atoms: C4_4  and  S6_6 
ROOT
HETATM    1  C1  UNL     1     -33.743   5.198   3.815  1.00 20.00     0.030 C 
HETATM    2  C2  UNL     1     -33.660   7.586   4.594  1.00 20.00     0.030 C 
HETATM    3  C3  UNL     1     -35.667   6.744   3.333  1.00 20.00     0.030 C 
HETATM    4  C4  UNL     1     -34.146   6.640   3.491  1.00 20.00     0.042 C 
ENDROOT
BRANCH   4   5
HETATM    5  S6  UNL     1     -33.332   7.129   1.905  1.00 20.00     0.120 S 
HETATM    6  O5  UNL     1     -32.147   7.943   2.289  1.00 20.00    -0.240 OA
HETATM    7 CL7  UNL     1     -32.442   5.394   1.447  1.00 20.00    -0.010 Cl
ENDBRANCH   4   5
TORSDOF 1
ENDMDL
MODEL 2
REMARK VINA RESULT:      -0.5      0.027      1.651
REMARK  1 active torsions:
REMARK  status: ('A' for Active; 'I' for Inactive)
REMARK    1  A    between atoms: C4_4  and  S6_6 
ROOT
HETATM    1  C1  UNL     1     -35.668   6.787   3.316  1.00 20.00     0.030 C 
HETATM    2  C2  UNL     1     -33.777   5.212   3.820  1.00 20.00     0.030 C 
HETATM    3  C3  UNL     1     -33.667   7.598   4.605  1.00 20.00     0.030 C 
HETATM    4  C4  UNL     1     -34.151   6.661   3.494  1.00 20.00     0.042 C 
ENDROOT
BRANCH   4   5
HETATM    5  S6  UNL     1     -33.338   7.129   1.902  1.00 20.00     0.120 S 
HETATM    6  O5  UNL     1     -32.150   7.944   2.274  1.00 20.00    -0.240 OA
HETATM    7 CL7  UNL     1     -32.453   5.386   1.463  1.00 20.00    -0.010 Cl
ENDBRANCH   4   5
TORSDOF 1
ENDMDL
MODEL 3
REMARK VINA RESULT:      -0.5      0.035      1.639
REMARK  1 active torsions:
REMARK  status: ('A' for Active; 'I' for Inactive)
REMARK    1  A    between atoms: C4_4  and  S6_6 
ROOT
HETATM    1  C1  UNL     1     -33.649   7.554   4.593  1.00 20.00     0.030 C 
HETATM    2  C2  UNL     1     -35.666   6.744   3.332  1.00 20.00     0.030 C 
HETATM    3  C3  UNL     1     -33.775   5.162   3.826  1.00 20.00     0.030 C 
HETATM    4  C4  UNL     1     -34.149   6.611   3.494  1.00 20.00     0.042 C 
ENDROOT
BRANCH   4   5
HETATM    5  S6  UNL     1     -33.349   7.099   1.901  1.00 20.00     0.120 S 
HETATM    6  O5  UNL     1     -32.183   7.946   2.272  1.00 20.00    -0.240 OA
HETATM    7 CL7  UNL     1     -32.418   5.379   1.464  1.00 20.00    -0.010 Cl
ENDBRANCH   4   5
TORSDOF 1
ENDMDL
MODEL 4
REMARK VINA RESULT:      -0.1      3.129      3.514
REMARK  1 active torsions:
REMARK  status: ('A' for Active; 'I' for Inactive)
REMARK    1  A    between atoms: C4_4  and  S6_6 
ROOT
HETATM    1  C1  UNL     1     -31.216   8.344   2.990  1.00 20.00     0.030 C 
HETATM    2  C2  UNL     1     -32.000   6.489   1.487  1.00 20.00     0.030 C 
HETATM    3  C3  UNL     1     -32.631   8.869   0.978  1.00 20.00     0.030 C 
HETATM    4  C4  UNL     1     -32.354   7.852   2.090  1.00 20.00     0.042 C 
ENDROOT
BRANCH   4   5
HETATM    5  S6  UNL     1     -33.871   7.653   3.128  1.00 20.00     0.120 S 
HETATM    6  O5  UNL     1     -34.040   6.188   3.328  1.00 20.00    -0.240 OA
HETATM    7 CL7  UNL     1     -33.117   8.173   4.910  1.00 20.00    -0.010 Cl
ENDBRANCH   4   5
TORSDOF 1
ENDMDL
MODEL 5
REMARK VINA RESULT:      -0.0      3.132      3.494
REMARK  1 active torsions:
REMARK  status: ('A' for Active; 'I' for Inactive)
REMARK    1  A    between atoms: C4_4  and  S6_6 
ROOT
HETATM    1  C1  UNL     1     -32.639   8.868   0.994  1.00 20.00     0.030 C 
HETATM    2  C2  UNL     1     -31.206   8.321   2.984  1.00 20.00     0.030 C 
HETATM    3  C3  UNL     1     -31.997   6.482   1.461  1.00 20.00     0.030 C 
HETATM    4  C4  UNL     1     -32.350   7.835   2.088  1.00 20.00     0.042 C 
ENDROOT
BRANCH   4   5
HETATM    5  S6  UNL     1     -33.867   7.650   3.128  1.00 20.00     0.120 S 
HETATM    6  O5  UNL     1     -34.040   6.188   3.341  1.00 20.00    -0.240 OA
HETATM    7 CL7  UNL     1     -33.111   8.185   4.904  1.00 20.00    -0.010 Cl
ENDBRANCH   4   5
TORSDOF 1
ENDMDL
MODEL 6
REMARK VINA RESULT:       0.0      3.140      3.497
REMARK  1 active torsions:
REMARK  status: ('A' for Active; 'I' for Inactive)
REMARK    1  A    between atoms: C4_4  and  S6_6 
ROOT
HETATM    1  C1  UNL     1     -31.985   6.521   1.457  1.00 20.00     0.030 C 
HETATM    2  C2  UNL     1     -32.632   8.902   0.984  1.00 20.00     0.030 C 
HETATM    3  C3  UNL     1     -31.184   8.364   2.969  1.00 20.00     0.030 C 
HETATM    4  C4  UNL     1     -32.334   7.876   2.082  1.00 20.00     0.042 C 
ENDROOT
BRANCH   4   5
HETATM    5  S6  UNL     1     -33.854   7.667   3.112  1.00 20.00     0.120 S 
HETATM    6  O5  UNL     1     -34.019   6.200   3.304  1.00 20.00    -0.240 OA
HETATM    7 CL7  UNL     1     -33.110   8.181   4.900  1.00 20.00    -0.010 Cl
ENDBRANCH   4   5
TORSDOF 1
ENDMDL
MODEL 7
REMARK VINA RESULT:       0.2      1.606      2.226
REMARK  1 active torsions:
REMARK  status: ('A' for Active; 'I' for Inactive)
REMARK    1  A    between atoms: C4_4  and  S6_6 
ROOT
HETATM    1  C1  UNL     1     -33.860   7.559   4.511  1.00 20.00     0.030 C 
HETATM    2  C2  UNL     1     -35.487   6.878   2.722  1.00 20.00     0.030 C 
HETATM    3  C3  UNL     1     -34.589   5.159   4.324  1.00 20.00     0.030 C 
HETATM    4  C4  UNL     1     -34.272   6.442   3.547  1.00 20.00     0.042 C 
ENDROOT
BRANCH   4   5
HETATM    5  S6  UNL     1     -32.866   6.124   2.391  1.00 20.00     0.120 S 
HETATM    6  O5  UNL     1     -33.483   5.807   1.074  1.00 20.00    -0.240 OA
HETATM    7 CL7  UNL     1     -32.278   8.011   2.066  1.00 20.00    -0.010 Cl
ENDBRANCH   4   5
TORSDOF 1
ENDMDL
MODEL 8
REMARK VINA RESULT:       0.3      2.979      3.341
REMARK  1 active torsions:
REMARK  status: ('A' for Active; 'I' for Inactive)
REMARK    1  A    between atoms: C4_4  and  S6_6 
ROOT
HETATM    1  C1  UNL     1     -31.903   5.172   1.814  1.00 20.00     0.030 C 
HETATM    2  C2  UNL     1     -33.626   6.222   0.317  1.00 20.00     0.030 C 
HETATM    3  C3  UNL     1     -32.282   7.657   1.885  1.00 20.00     0.030 C 
HETATM    4  C4  UNL     1     -32.944   6.289   1.687  1.00 20.00     0.042 C 
ENDROOT
BRANCH   4   5
HETATM    5  S6  UNL     1     -34.229   6.037   2.991  1.00 20.00     0.120 S 
HETATM    6  O5  UNL     1     -33.732   4.924   3.845  1.00 20.00    -0.240 OA
HETATM    7 CL7  UNL     1     -33.813   7.605   4.167  1.00 20.00    -0.010 Cl
ENDBRANCH   4   5
TORSDOF 1
ENDMDL
MODEL 9
REMARK VINA RESULT:       0.3      2.979      3.335
REMARK  1 active torsions:
REMARK  status: ('A' for Active; 'I' for Inactive)
REMARK    1  A    between atoms: C4_4  and  S6_6 
ROOT
HETATM    1  C1  UNL     1     -33.639   6.193   0.313  1.00 20.00     0.030 C 
HETATM    2  C2  UNL     1     -32.304   7.636   1.878  1.00 20.00     0.030 C 
HETATM    3  C3  UNL     1     -31.888   5.157   1.792  1.00 20.00     0.030 C 
HETATM    4  C4  UNL     1     -32.946   6.260   1.678  1.00 20.00     0.042 C 
ENDROOT
BRANCH   4   5
HETATM    5  S6  UNL     1     -34.224   6.017   2.991  1.00 20.00     0.120 S 
HETATM    6  O5  UNL     1     -33.725   4.907   3.847  1.00 20.00    -0.240 OA
HETATM    7 CL7  UNL     1     -33.797   7.589   4.157  1.00 20.00    -0.010 Cl
ENDBRANCH   4   5
TORSDOF 1
ENDMDL
