MODEL 1
REMARK VINA RESULT:      -2.1      0.000      0.000
REMARK  3 active torsions:
REMARK  status: ('A' for Active; 'I' for Inactive)
REMARK    1  A    between atoms: C3_3  and  C4_4 
REMARK    2  A    between atoms: C4_4  and  C5_5 
REMARK    3  A    between atoms: C7_7  and  O10_10 
ROOT
HETATM    1  C1  UNL     1     -33.519   7.836   3.682  1.00 20.00     0.006 C 
HETATM    2  C2  UNL     1     -34.531   7.425   4.451  1.00 20.00    -0.023 C 
HETATM    3  C3  UNL     1     -33.214   6.856   2.674  1.00 20.00    -0.027 C 
HETATM    4  C6  UNL     1     -35.057   6.091   4.024  1.00 20.00     0.064 C 
HETATM    5  C7  UNL     1     -34.089   5.656   2.914  1.00 20.00     0.157 C 
ENDROOT
BRANCH   3   6
HETATM    6  C4  UNL     1     -32.319   7.003   1.693  1.00 20.00     0.051 C 
BRANCH   6   7
HETATM    7  C5  UNL     1     -31.768   8.353   1.462  1.00 20.00     0.259 C 
HETATM    8  O9  UNL     1     -32.269   9.134   0.663  1.00 20.00    -0.302 OA
ENDBRANCH   6   7
ENDBRANCH   3   6
BRANCH   5   9
HETATM    9  O10 UNL     1     -33.284   4.574   3.367  1.00 20.00    -0.386 OA
HETATM   10  C8  UNL     1     -33.945   3.820   4.375  1.00 20.00     0.202 C 
ENDBRANCH   5   9
TORSDOF 3
ENDMDL
MODEL 2
REMARK VINA RESULT:      -1.6      1.435      4.094
REMARK  3 active torsions:
REMARK  status: ('A' for Active; 'I' for Inactive)
REMARK    1  A    between atoms: C3_3  and  C4_4 
REMARK    2  A    between atoms: C4_4  and  C5_5 
REMARK    3  A    between atoms: C7_7  and  O10_10 
ROOT
HETATM    1  C1  UNL     1     -35.268   5.454   4.078  1.00 20.00     0.006 C 
HETATM    2  C2  UNL     1     -35.350   6.785   4.141  1.00 20.00    -0.023 C 
HETATM    3  C3  UNL     1     -33.966   5.044   3.622  1.00 20.00    -0.027 C 
HETATM    4  C6  UNL     1     -34.068   7.448   3.746  1.00 20.00     0.064 C 
HETATM    5  C7  UNL     1     -33.184   6.283   3.277  1.00 20.00     0.157 C 
ENDROOT
BRANCH   3   6
HETATM    6  C4  UNL     1     -33.533   3.783   3.538  1.00 20.00     0.051 C 
BRANCH   6   7
HETATM    7  C5  UNL     1     -33.453   3.000   4.787  1.00 20.00     0.259 C 
HETATM    8  O9  UNL     1     -32.452   3.000   5.493  1.00 20.00    -0.302 OA
ENDBRANCH   6   7
ENDBRANCH   3   6
BRANCH   5   9
HETATM    9  O10 UNL     1     -33.006   6.345   1.866  1.00 20.00    -0.386 OA
HETATM   10  C8  UNL     1     -32.096   7.373   1.501  1.00 20.00     0.202 C 
ENDBRANCH   5   9
TORSDOF 3
ENDMDL
MODEL 3
REMARK VINA RESULT:      -1.5      1.325      1.859
REMARK  3 active torsions:
REMARK  status: ('A' for Active; 'I' for Inactive)
REMARK    1  A    between atoms: C3_3  and  C4_4 
REMARK    2  A    between atoms: C4_4  and  C5_5 
REMARK    3  A    between atoms: C7_7  and  O10_10 
ROOT
HETATM    1  C1  UNL     1     -32.969   8.217   3.470  1.00 20.00     0.006 C 
HETATM    2  C2  UNL     1     -33.846   7.397   4.054  1.00 20.00    -0.023 C 
HETATM    3  C3  UNL     1     -32.627   7.746   2.154  1.00 20.00    -0.027 C 
HETATM    4  C6  UNL     1     -34.227   6.255   3.166  1.00 20.00     0.064 C 
HETATM    5  C7  UNL     1     -33.313   6.423   1.943  1.00 20.00     0.157 C 
ENDROOT
BRANCH   3   6
HETATM    6  C4  UNL     1     -31.850   8.387   1.276  1.00 20.00     0.051 C 
BRANCH   6   7
HETATM    7  C5  UNL     1     -32.355   9.651   0.706  1.00 20.00     0.259 C 
HETATM    8  O9  UNL     1     -32.673   9.754  -0.473  1.00 20.00    -0.302 OA
ENDBRANCH   6   7
ENDBRANCH   3   6
BRANCH   5   9
HETATM    9  O10 UNL     1     -32.336   5.389   1.922  1.00 20.00    -0.386 OA
HETATM   10  C8  UNL     1     -32.211   4.817   0.627  1.00 20.00     0.202 C 
ENDBRANCH   5   9
TORSDOF 3
ENDMDL
MODEL 4
REMARK VINA RESULT:      -1.5      1.672      3.967
REMARK  3 active torsions:
REMARK  status: ('A' for Active; 'I' for Inactive)
REMARK    1  A    between atoms: C3_3  and  C4_4 
REMARK    2  A    between atoms: C4_4  and  C5_5 
REMARK    3  A    between atoms: C7_7  and  O10_10 
ROOT
HETATM    1  C1  UNL     1     -35.043   6.366   4.164  1.00 20.00     0.006 C 
HETATM    2  C2  UNL     1     -34.612   7.613   3.959  1.00 20.00    -0.023 C 
HETATM    3  C3  UNL     1     -34.111   5.409   3.628  1.00 20.00    -0.027 C 
HETATM    4  C6  UNL     1     -33.289   7.644   3.261  1.00 20.00     0.064 C 
HETATM    5  C7  UNL     1     -33.018   6.170   2.928  1.00 20.00     0.157 C 
ENDROOT
BRANCH   3   6
HETATM    6  C4  UNL     1     -34.202   4.082   3.751  1.00 20.00     0.051 C 
BRANCH   6   7
HETATM    7  C5  UNL     1     -33.403   3.433   4.809  1.00 20.00     0.259 C 
HETATM    8  O9  UNL     1     -33.033   2.269   4.726  1.00 20.00    -0.302 OA
ENDBRANCH   6   7
ENDBRANCH   3   6
BRANCH   5   9
HETATM    9  O10 UNL     1     -33.128   5.960   1.525  1.00 20.00    -0.386 OA
HETATM   10  C8  UNL     1     -32.011   5.245   1.015  1.00 20.00     0.202 C 
ENDBRANCH   5   9
TORSDOF 3
ENDMDL
MODEL 5
REMARK VINA RESULT:      -1.4      1.451      2.425
REMARK  3 active torsions:
REMARK  status: ('A' for Active; 'I' for Inactive)
REMARK    1  A    between atoms: C3_3  and  C4_4 
REMARK    2  A    between atoms: C4_4  and  C5_5 
REMARK    3  A    between atoms: C7_7  and  O10_10 
ROOT
HETATM    1  C1  UNL     1     -32.478   6.388   1.082  1.00 20.00     0.006 C 
HETATM    2  C2  UNL     1     -32.902   5.223   1.578  1.00 20.00    -0.023 C 
HETATM    3  C3  UNL     1     -32.524   7.418   2.086  1.00 20.00    -0.027 C 
HETATM    4  C6  UNL     1     -33.274   5.329   3.023  1.00 20.00     0.064 C 
HETATM    5  C7  UNL     1     -33.140   6.829   3.326  1.00 20.00     0.157 C 
ENDROOT
BRANCH   3   6
HETATM    6  C4  UNL     1     -32.081   8.670   1.937  1.00 20.00     0.051 C 
BRANCH   6   7
HETATM    7  C5  UNL     1     -32.165   9.272   0.592  1.00 20.00     0.259 C 
HETATM    8  O9  UNL     1     -32.653  10.380   0.403  1.00 20.00    -0.302 OA
ENDBRANCH   6   7
ENDBRANCH   3   6
BRANCH   5   9
HETATM    9  O10 UNL     1     -34.428   7.401   3.525  1.00 20.00    -0.386 OA
HETATM   10  C8  UNL     1     -35.363   6.433   3.980  1.00 20.00     0.202 C 
ENDBRANCH   5   9
TORSDOF 3
ENDMDL
MODEL 6
REMARK VINA RESULT:      -0.8      1.499      1.670
REMARK  3 active torsions:
REMARK  status: ('A' for Active; 'I' for Inactive)
REMARK    1  A    between atoms: C3_3  and  C4_4 
REMARK    2  A    between atoms: C4_4  and  C5_5 
REMARK    3  A    between atoms: C7_7  and  O10_10 
ROOT
HETATM    1  C1  UNL     1     -33.434   7.917   3.602  1.00 20.00     0.006 C 
HETATM    2  C2  UNL     1     -34.437   7.633   4.436  1.00 20.00    -0.023 C 
HETATM    3  C3  UNL     1     -33.221   6.838   2.674  1.00 20.00    -0.027 C 
HETATM    4  C6  UNL     1     -35.051   6.300   4.146  1.00 20.00     0.064 C 
HETATM    5  C7  UNL     1     -34.152   5.715   3.046  1.00 20.00     0.157 C 
ENDROOT
BRANCH   3   6
HETATM    6  C4  UNL     1     -32.357   6.848   1.655  1.00 20.00     0.051 C 
BRANCH   6   7
HETATM    7  C5  UNL     1     -32.249   5.625   0.835  1.00 20.00     0.259 C 
HETATM    8  O9  UNL     1     -31.326   4.830   0.967  1.00 20.00    -0.302 OA
ENDBRANCH   6   7
ENDBRANCH   3   6
BRANCH   5   9
HETATM    9  O10 UNL     1     -33.391   4.631   3.567  1.00 20.00    -0.386 OA
HETATM   10  C8  UNL     1     -34.110   3.923   4.567  1.00 20.00     0.202 C 
ENDBRANCH   5   9
TORSDOF 3
ENDMDL
MODEL 7
REMARK VINA RESULT:      -0.8      1.542      4.079
REMARK  3 active torsions:
REMARK  status: ('A' for Active; 'I' for Inactive)
REMARK    1  A    between atoms: C3_3  and  C4_4 
REMARK    2  A    between atoms: C4_4  and  C5_5 
REMARK    3  A    between atoms: C7_7  and  O10_10 
ROOT
HETATM    1  C1  UNL     1     -32.862   5.731   1.844  1.00 20.00     0.006 C 
HETATM    2  C2  UNL     1     -31.998   6.611   1.331  1.00 20.00    -0.023 C 
HETATM    3  C3  UNL     1     -33.691   6.352   2.844  1.00 20.00    -0.027 C 
HETATM    4  C6  UNL     1     -32.163   7.974   1.926  1.00 20.00     0.064 C 
HETATM    5  C7  UNL     1     -33.211   7.766   3.029  1.00 20.00     0.157 C 
ENDROOT
BRANCH   3   6
HETATM    6  C4  UNL     1     -34.713   5.770   3.478  1.00 20.00     0.051 C 
BRANCH   6   7
HETATM    7  C5  UNL     1     -34.398   4.725   4.472  1.00 20.00     0.259 C 
HETATM    8  O9  UNL     1     -34.043   3.599   4.145  1.00 20.00    -0.302 OA
ENDBRANCH   6   7
ENDBRANCH   3   6
BRANCH   5   9
HETATM    9  O10 UNL     1     -32.601   7.888   4.309  1.00 20.00    -0.386 OA
HETATM   10  C8  UNL     1     -33.528   8.339   5.287  1.00 20.00     0.202 C 
ENDBRANCH   5   9
TORSDOF 3
ENDMDL
MODEL 8
REMARK VINA RESULT:      -0.5      1.399      4.348
REMARK  3 active torsions:
REMARK  status: ('A' for Active; 'I' for Inactive)
REMARK    1  A    between atoms: C3_3  and  C4_4 
REMARK    2  A    between atoms: C4_4  and  C5_5 
REMARK    3  A    between atoms: C7_7  and  O10_10 
ROOT
HETATM    1  C1  UNL     1     -32.907   5.152   2.788  1.00 20.00     0.006 C 
HETATM    2  C2  UNL     1     -32.250   4.972   1.640  1.00 20.00    -0.023 C 
HETATM    3  C3  UNL     1     -33.492   6.466   2.842  1.00 20.00    -0.027 C 
HETATM    4  C6  UNL     1     -32.334   6.171   0.749  1.00 20.00     0.064 C 
HETATM    5  C7  UNL     1     -33.060   7.216   1.610  1.00 20.00     0.157 C 
ENDROOT
BRANCH   3   6
HETATM    6  C4  UNL     1     -34.289   6.924   3.812  1.00 20.00     0.051 C 
BRANCH   6   7
HETATM    7  C5  UNL     1     -35.504   6.147   4.126  1.00 20.00     0.259 C 
HETATM    8  O9  UNL     1     -35.452   5.008   4.575  1.00 20.00    -0.302 OA
ENDBRANCH   6   7
ENDBRANCH   3   6
BRANCH   5   9
HETATM    9  O10 UNL     1     -32.156   8.248   1.986  1.00 20.00    -0.386 OA
HETATM   10  C8  UNL     1     -32.014   9.216   0.955  1.00 20.00     0.202 C 
ENDBRANCH   5   9
TORSDOF 3
ENDMDL
MODEL 9
REMARK VINA RESULT:      -0.5      1.647      3.454
REMARK  3 active torsions:
REMARK  status: ('A' for Active; 'I' for Inactive)
REMARK    1  A    between atoms: C3_3  and  C4_4 
REMARK    2  A    between atoms: C4_4  and  C5_5 
REMARK    3  A    between atoms: C7_7  and  O10_10 
ROOT
HETATM    1  C1  UNL     1     -34.349   6.349   3.350  1.00 20.00     0.006 C 
HETATM    2  C2  UNL     1     -34.220   7.334   4.242  1.00 20.00    -0.023 C 
HETATM    3  C3  UNL     1     -33.319   6.430   2.348  1.00 20.00    -0.027 C 
HETATM    4  C6  UNL     1     -33.041   8.207   3.951  1.00 20.00     0.064 C 
HETATM    5  C7  UNL     1     -32.514   7.674   2.610  1.00 20.00     0.157 C 
ENDROOT
BRANCH   3   6
HETATM    6  C4  UNL     1     -33.113   5.542   1.371  1.00 20.00     0.051 C 
BRANCH   6   7
HETATM    7  C5  UNL     1     -31.723   5.125   1.104  1.00 20.00     0.259 C 
HETATM    8  O9  UNL     1     -31.436   4.344   0.204  1.00 20.00    -0.302 OA
ENDBRANCH   6   7
ENDBRANCH   3   6
BRANCH   5   9
HETATM    9  O10 UNL     1     -32.769   8.620   1.578  1.00 20.00    -0.386 OA
HETATM   10  C8  UNL     1     -31.616   8.837   0.775  1.00 20.00     0.202 C 
ENDBRANCH   5   9
TORSDOF 3
ENDMDL
