MODEL 1
REMARK VINA RESULT:       0.2      0.000      0.000
REMARK  1 active torsions:
REMARK  status: ('A' for Active; 'I' for Inactive)
REMARK    1  A    between atoms: C5_5  and  P6_6 
ROOT
HETATM    1  C1  UNL     1     -33.698   5.108   3.824  1.00 20.00     0.021 C 
HETATM    2  C2  UNL     1     -33.499   7.536   4.442  1.00 20.00     0.021 C 
HETATM    3  C3  UNL     1     -35.623   6.670   3.418  1.00 20.00     0.021 C 
HETATM    4  C5  UNL     1     -34.094   6.540   3.436  1.00 20.00    -0.015 C 
ENDROOT
BRANCH   4   5
HETATM    5  P6  UNL     1     -33.410   6.920   1.723  1.00 20.00    -0.013 P 
HETATM    6  C4  UNL     1     -32.058   8.042   2.229  1.00 20.00     0.062 C 
HETATM    7 CL7  UNL     1     -32.346   5.148   1.396  1.00 20.00    -0.096 Cl
ENDBRANCH   4   5
TORSDOF 1
ENDMDL
MODEL 2
REMARK VINA RESULT:       0.2      0.009      1.645
REMARK  1 active torsions:
REMARK  status: ('A' for Active; 'I' for Inactive)
REMARK    1  A    between atoms: C5_5  and  P6_6 
ROOT
HETATM    1  C1  UNL     1     -33.495   7.538   4.441  1.00 20.00     0.021 C 
HETATM    2  C2  UNL     1     -35.617   6.674   3.407  1.00 20.00     0.021 C 
HETATM    3  C3  UNL     1     -33.699   5.109   3.833  1.00 20.00     0.021 C 
HETATM    4  C5  UNL     1     -34.088   6.540   3.436  1.00 20.00    -0.015 C 
ENDROOT
BRANCH   4   5
HETATM    5  P6  UNL     1     -33.409   6.922   1.721  1.00 20.00    -0.013 P 
HETATM    6  C4  UNL     1     -32.061   8.049   2.224  1.00 20.00     0.062 C 
HETATM    7 CL7  UNL     1     -32.337   5.153   1.394  1.00 20.00    -0.096 Cl
ENDBRANCH   4   5
TORSDOF 1
ENDMDL
MODEL 3
REMARK VINA RESULT:       0.7      2.239      3.607
REMARK  1 active torsions:
REMARK  status: ('A' for Active; 'I' for Inactive)
REMARK    1  A    between atoms: C5_5  and  P6_6 
ROOT
HETATM    1  C1  UNL     1     -31.196   8.339   2.973  1.00 20.00     0.021 C 
HETATM    2  C2  UNL     1     -32.020   6.484   1.490  1.00 20.00     0.021 C 
HETATM    3  C3  UNL     1     -32.605   8.870   0.961  1.00 20.00     0.021 C 
HETATM    4  C5  UNL     1     -32.356   7.858   2.088  1.00 20.00    -0.015 C 
ENDROOT
BRANCH   4   5
HETATM    5  P6  UNL     1     -33.906   7.702   3.145  1.00 20.00    -0.013 P 
HETATM    6  C4  UNL     1     -33.956   5.878   3.263  1.00 20.00     0.062 C 
HETATM    7 CL7  UNL     1     -33.082   8.191   5.007  1.00 20.00    -0.096 Cl
ENDBRANCH   4   5
TORSDOF 1
ENDMDL
MODEL 4
REMARK VINA RESULT:       0.7      2.236      3.586
REMARK  1 active torsions:
REMARK  status: ('A' for Active; 'I' for Inactive)
REMARK    1  A    between atoms: C5_5  and  P6_6 
ROOT
HETATM    1  C1  UNL     1     -32.618   8.873   0.966  1.00 20.00     0.021 C 
HETATM    2  C2  UNL     1     -31.186   8.304   2.952  1.00 20.00     0.021 C 
HETATM    3  C3  UNL     1     -32.050   6.476   1.461  1.00 20.00     0.021 C 
HETATM    4  C5  UNL     1     -32.364   7.846   2.079  1.00 20.00    -0.015 C 
ENDROOT
BRANCH   4   5
HETATM    5  P6  UNL     1     -33.905   7.713   3.153  1.00 20.00    -0.013 P 
HETATM    6  C4  UNL     1     -33.970   5.890   3.285  1.00 20.00     0.062 C 
HETATM    7 CL7  UNL     1     -33.057   8.208   5.002  1.00 20.00    -0.096 Cl
ENDBRANCH   4   5
TORSDOF 1
ENDMDL
MODEL 5
REMARK VINA RESULT:       0.7      2.237      3.577
REMARK  1 active torsions:
REMARK  status: ('A' for Active; 'I' for Inactive)
REMARK    1  A    between atoms: C5_5  and  P6_6 
ROOT
HETATM    1  C1  UNL     1     -32.018   6.498   1.450  1.00 20.00     0.021 C 
HETATM    2  C2  UNL     1     -32.607   8.891   0.953  1.00 20.00     0.021 C 
HETATM    3  C3  UNL     1     -31.169   8.337   2.937  1.00 20.00     0.021 C 
HETATM    4  C5  UNL     1     -32.343   7.867   2.066  1.00 20.00    -0.015 C 
ENDROOT
BRANCH   4   5
HETATM    5  P6  UNL     1     -33.889   7.707   3.129  1.00 20.00    -0.013 P 
HETATM    6  C4  UNL     1     -33.929   5.884   3.255  1.00 20.00     0.062 C 
HETATM    7 CL7  UNL     1     -33.062   8.210   4.985  1.00 20.00    -0.096 Cl
ENDBRANCH   4   5
TORSDOF 1
ENDMDL
MODEL 6
REMARK VINA RESULT:       1.1      2.024      2.399
REMARK  1 active torsions:
REMARK  status: ('A' for Active; 'I' for Inactive)
REMARK    1  A    between atoms: C5_5  and  P6_6 
ROOT
HETATM    1  C1  UNL     1     -33.050   8.004   4.939  1.00 20.00     0.021 C 
HETATM    2  C2  UNL     1     -34.492   8.755   3.022  1.00 20.00     0.021 C 
HETATM    3  C3  UNL     1     -34.374   6.320   3.626  1.00 20.00     0.021 C 
HETATM    4  C5  UNL     1     -33.584   7.634   3.547  1.00 20.00    -0.015 C 
ENDROOT
BRANCH   4   5
HETATM    5  P6  UNL     1     -32.129   7.423   2.370  1.00 20.00    -0.013 P 
HETATM    6  C4  UNL     1     -32.764   5.989   1.430  1.00 20.00     0.062 C 
HETATM    7 CL7  UNL     1     -32.558   8.982   1.040  1.00 20.00    -0.096 Cl
ENDBRANCH   4   5
TORSDOF 1
ENDMDL
MODEL 7
REMARK VINA RESULT:       1.1      2.386      3.386
REMARK  1 active torsions:
REMARK  status: ('A' for Active; 'I' for Inactive)
REMARK    1  A    between atoms: C5_5  and  P6_6 
ROOT
HETATM    1  C1  UNL     1     -32.052   5.180   2.011  1.00 20.00     0.021 C 
HETATM    2  C2  UNL     1     -33.652   6.244   0.391  1.00 20.00     0.021 C 
HETATM    3  C3  UNL     1     -32.228   7.683   1.880  1.00 20.00     0.021 C 
HETATM    4  C5  UNL     1     -33.004   6.362   1.778  1.00 20.00    -0.015 C 
ENDROOT
BRANCH   4   5
HETATM    5  P6  UNL     1     -34.356   6.326   3.088  1.00 20.00    -0.013 P 
HETATM    6  C4  UNL     1     -33.886   4.757   3.901  1.00 20.00     0.062 C 
HETATM    7 CL7  UNL     1     -33.548   7.716   4.429  1.00 20.00    -0.096 Cl
ENDBRANCH   4   5
TORSDOF 1
ENDMDL
MODEL 8
REMARK VINA RESULT:       1.1      2.393      3.370
REMARK  1 active torsions:
REMARK  status: ('A' for Active; 'I' for Inactive)
REMARK    1  A    between atoms: C5_5  and  P6_6 
ROOT
HETATM    1  C1  UNL     1     -33.683   6.159   0.391  1.00 20.00     0.021 C 
HETATM    2  C2  UNL     1     -32.240   7.640   1.819  1.00 20.00     0.021 C 
HETATM    3  C3  UNL     1     -32.061   5.142   2.018  1.00 20.00     0.021 C 
HETATM    4  C5  UNL     1     -33.017   6.317   1.765  1.00 20.00    -0.015 C 
ENDROOT
BRANCH   4   5
HETATM    5  P6  UNL     1     -34.351   6.338   3.093  1.00 20.00    -0.013 P 
HETATM    6  C4  UNL     1     -33.924   4.761   3.913  1.00 20.00     0.062 C 
HETATM    7 CL7  UNL     1     -33.478   7.711   4.410  1.00 20.00    -0.096 Cl
ENDBRANCH   4   5
TORSDOF 1
ENDMDL
MODEL 9
REMARK VINA RESULT:       1.1      2.024      2.141
REMARK  1 active torsions:
REMARK  status: ('A' for Active; 'I' for Inactive)
REMARK    1  A    between atoms: C5_5  and  P6_6 
ROOT
HETATM    1  C1  UNL     1     -34.335   6.284   3.627  1.00 20.00     0.021 C 
HETATM    2  C2  UNL     1     -33.038   8.003   4.924  1.00 20.00     0.021 C 
HETATM    3  C3  UNL     1     -34.513   8.715   3.019  1.00 20.00     0.021 C 
HETATM    4  C5  UNL     1     -33.576   7.616   3.539  1.00 20.00    -0.015 C 
ENDROOT
BRANCH   4   5
HETATM    5  P6  UNL     1     -32.125   7.416   2.355  1.00 20.00    -0.013 P 
HETATM    6  C4  UNL     1     -32.761   5.988   1.407  1.00 20.00     0.062 C 
HETATM    7 CL7  UNL     1     -32.561   8.984   1.038  1.00 20.00    -0.096 Cl
ENDBRANCH   4   5
TORSDOF 1
ENDMDL
