MODEL 1
REMARK VINA RESULT:      -1.3      0.000      0.000
REMARK  0 active torsions:
REMARK  status: ('A' for Active; 'I' for Inactive)
ROOT
HETATM    1  C1  UNL     1     -32.881  10.067   0.850  1.00 20.00    -0.024 C 
HETATM    2  C2  UNL     1     -32.175   9.540  -0.178  1.00 20.00    -0.024 C 
HETATM    3  C3  UNL     1     -33.513   7.341   3.297  1.00 20.00     0.272 C 
HETATM    4  C4  UNL     1     -32.775   5.979   1.609  1.00 20.00     0.272 C 
HETATM    5  C5  UNL     1     -32.048   9.357   1.890  1.00 20.00     0.031 C 
HETATM    6  C6  UNL     1     -31.581   8.435   0.685  1.00 20.00     0.031 C 
HETATM    7  C7  UNL     1     -32.407   8.055   2.550  1.00 20.00     0.108 C 
HETATM    8  C8  UNL     1     -32.636   7.423   1.134  1.00 20.00     0.108 C 
HETATM    9  O9  UNL     1     -34.250   7.735   4.187  1.00 20.00    -0.264 OA
HETATM   10  O10 UNL     1     -32.399   4.940   1.089  1.00 20.00    -0.264 OA
HETATM   11  O11 UNL     1     -33.514   6.031   2.801  1.00 20.00    -0.244 OA
ENDROOT
TORSDOF 0
ENDMDL
MODEL 2
REMARK VINA RESULT:       0.1      2.386      4.423
REMARK  0 active torsions:
REMARK  status: ('A' for Active; 'I' for Inactive)
ROOT
HETATM    1  C1  UNL     1     -33.753   3.876   5.288  1.00 20.00    -0.024 C 
HETATM    2  C2  UNL     1     -33.392   3.068   4.263  1.00 20.00    -0.024 C 
HETATM    3  C3  UNL     1     -33.940   7.349   3.975  1.00 20.00     0.272 C 
HETATM    4  C4  UNL     1     -32.887   6.459   2.145  1.00 20.00     0.272 C 
HETATM    5  C5  UNL     1     -34.742   4.641   4.442  1.00 20.00     0.031 C 
HETATM    6  C6  UNL     1     -33.967   4.007   3.210  1.00 20.00     0.031 C 
HETATM    7  C7  UNL     1     -34.466   5.947   3.750  1.00 20.00     0.108 C 
HETATM    8  C8  UNL     1     -33.180   5.316   3.112  1.00 20.00     0.108 C 
HETATM    9  O9  UNL     1     -34.144   8.135   4.887  1.00 20.00    -0.264 OA
HETATM   10  O10 UNL     1     -32.447   6.433   1.005  1.00 20.00    -0.264 OA
HETATM   11  O11 UNL     1     -33.164   7.643   2.846  1.00 20.00    -0.244 OA
ENDROOT
TORSDOF 0
ENDMDL
MODEL 3
REMARK VINA RESULT:       0.1      2.695      3.323
REMARK  0 active torsions:
REMARK  status: ('A' for Active; 'I' for Inactive)
ROOT
HETATM    1  C1  UNL     1     -33.164   6.109   0.671  1.00 20.00    -0.024 C 
HETATM    2  C2  UNL     1     -32.150   5.216   0.749  1.00 20.00    -0.024 C 
HETATM    3  C3  UNL     1     -35.105   5.891   3.835  1.00 20.00     0.272 C 
HETATM    4  C4  UNL     1     -33.874   3.990   4.179  1.00 20.00     0.272 C 
HETATM    5  C5  UNL     1     -32.952   6.594   2.085  1.00 20.00     0.031 C 
HETATM    6  C6  UNL     1     -32.120   5.255   2.271  1.00 20.00     0.031 C 
HETATM    7  C7  UNL     1     -33.710   6.115   3.291  1.00 20.00     0.108 C 
HETATM    8  C8  UNL     1     -33.376   4.637   2.890  1.00 20.00     0.108 C 
HETATM    9  O9  UNL     1     -36.103   6.592   3.767  1.00 20.00    -0.264 OA
HETATM   10  O10 UNL     1     -33.434   3.035   4.802  1.00 20.00    -0.264 OA
HETATM   11  O11 UNL     1     -35.045   4.679   4.534  1.00 20.00    -0.244 OA
ENDROOT
TORSDOF 0
ENDMDL
MODEL 4
REMARK VINA RESULT:       0.3      1.982      3.912
REMARK  0 active torsions:
REMARK  status: ('A' for Active; 'I' for Inactive)
ROOT
HETATM    1  C1  UNL     1     -35.421   6.207   3.616  1.00 20.00    -0.024 C 
HETATM    2  C2  UNL     1     -35.152   7.346   4.296  1.00 20.00    -0.024 C 
HETATM    3  C3  UNL     1     -32.644   5.651   1.206  1.00 20.00     0.272 C 
HETATM    4  C4  UNL     1     -32.059   7.798   1.752  1.00 20.00     0.272 C 
HETATM    5  C5  UNL     1     -33.999   5.710   3.727  1.00 20.00     0.031 C 
HETATM    6  C6  UNL     1     -33.649   7.216   4.087  1.00 20.00     0.031 C 
HETATM    7  C7  UNL     1     -32.938   5.872   2.675  1.00 20.00     0.108 C 
HETATM    8  C8  UNL     1     -33.251   7.407   2.622  1.00 20.00     0.108 C 
HETATM    9  O9  UNL     1     -32.898   4.701   0.482  1.00 20.00    -0.264 OA
HETATM   10  O10 UNL     1     -31.355   8.795   1.785  1.00 20.00    -0.264 OA
HETATM   11  O11 UNL     1     -31.927   6.781   0.793  1.00 20.00    -0.244 OA
ENDROOT
TORSDOF 0
ENDMDL
MODEL 5
REMARK VINA RESULT:       0.3      2.053      3.433
REMARK  0 active torsions:
REMARK  status: ('A' for Active; 'I' for Inactive)
ROOT
HETATM    1  C1  UNL     1     -34.347   7.177   4.827  1.00 20.00    -0.024 C 
HETATM    2  C2  UNL     1     -35.135   6.143   4.451  1.00 20.00    -0.024 C 
HETATM    3  C3  UNL     1     -31.856   7.736   2.123  1.00 20.00     0.272 C 
HETATM    4  C4  UNL     1     -32.609   5.719   1.340  1.00 20.00     0.272 C 
HETATM    5  C5  UNL     1     -34.388   7.810   3.457  1.00 20.00     0.031 C 
HETATM    6  C6  UNL     1     -34.894   6.387   2.968  1.00 20.00     0.031 C 
HETATM    7  C7  UNL     1     -33.344   7.640   2.389  1.00 20.00     0.108 C 
HETATM    8  C8  UNL     1     -33.450   6.085   2.560  1.00 20.00     0.108 C 
HETATM    9  O9  UNL     1     -31.043   8.580   2.466  1.00 20.00    -0.264 OA
HETATM   10  O10 UNL     1     -32.733   4.798   0.546  1.00 20.00    -0.264 OA
HETATM   11  O11 UNL     1     -31.551   6.640   1.306  1.00 20.00    -0.244 OA
ENDROOT
TORSDOF 0
ENDMDL
MODEL 6
REMARK VINA RESULT:       0.4      2.118      3.547
REMARK  0 active torsions:
REMARK  status: ('A' for Active; 'I' for Inactive)
ROOT
HETATM    1  C1  UNL     1     -31.371   6.360   1.988  1.00 20.00    -0.024 C 
HETATM    2  C2  UNL     1     -32.051   7.467   1.609  1.00 20.00    -0.024 C 
HETATM    3  C3  UNL     1     -33.741   4.154   3.818  1.00 20.00     0.272 C 
HETATM    4  C4  UNL     1     -35.099   5.999   3.797  1.00 20.00     0.272 C 
HETATM    5  C5  UNL     1     -32.493   5.434   1.582  1.00 20.00     0.031 C 
HETATM    6  C6  UNL     1     -33.391   6.743   1.597  1.00 20.00     0.031 C 
HETATM    7  C7  UNL     1     -33.543   4.884   2.506  1.00 20.00     0.108 C 
HETATM    8  C8  UNL     1     -33.843   6.341   3.002  1.00 20.00     0.108 C 
HETATM    9  O9  UNL     1     -33.148   3.195   4.287  1.00 20.00    -0.264 OA
HETATM   10  O10 UNL     1     -36.132   6.634   3.948  1.00 20.00    -0.264 OA
HETATM   11  O11 UNL     1     -34.840   4.772   4.428  1.00 20.00    -0.244 OA
ENDROOT
TORSDOF 0
ENDMDL
MODEL 7
REMARK VINA RESULT:       0.8      2.033      3.377
REMARK  0 active torsions:
REMARK  status: ('A' for Active; 'I' for Inactive)
ROOT
HETATM    1  C1  UNL     1     -31.380   5.785   1.458  1.00 20.00    -0.024 C 
HETATM    2  C2  UNL     1     -31.394   7.128   1.285  1.00 20.00    -0.024 C 
HETATM    3  C3  UNL     1     -34.182   4.913   3.741  1.00 20.00     0.272 C 
HETATM    4  C4  UNL     1     -34.277   7.173   4.101  1.00 20.00     0.272 C 
HETATM    5  C5  UNL     1     -32.877   5.670   1.308  1.00 20.00     0.031 C 
HETATM    6  C6  UNL     1     -32.885   7.234   1.576  1.00 20.00     0.031 C 
HETATM    7  C7  UNL     1     -33.864   5.622   2.441  1.00 20.00     0.108 C 
HETATM    8  C8  UNL     1     -33.213   6.918   3.037  1.00 20.00     0.108 C 
HETATM    9  O9  UNL     1     -34.140   3.726   4.026  1.00 20.00    -0.264 OA
HETATM   10  O10 UNL     1     -34.740   8.226   4.514  1.00 20.00    -0.264 OA
HETATM   11  O11 UNL     1     -34.623   5.914   4.615  1.00 20.00    -0.244 OA
ENDROOT
TORSDOF 0
ENDMDL
MODEL 8
REMARK VINA RESULT:       1.5      2.322      3.499
REMARK  0 active torsions:
REMARK  status: ('A' for Active; 'I' for Inactive)
ROOT
HETATM    1  C1  UNL     1     -32.405   8.506   3.925  1.00 20.00    -0.024 C 
HETATM    2  C2  UNL     1     -33.296   8.433   4.941  1.00 20.00    -0.024 C 
HETATM    3  C3  UNL     1     -32.733   5.395   1.914  1.00 20.00     0.272 C 
HETATM    4  C4  UNL     1     -33.991   4.668   3.685  1.00 20.00     0.272 C 
HETATM    5  C5  UNL     1     -33.400   7.995   2.910  1.00 20.00     0.031 C 
HETATM    6  C6  UNL     1     -34.224   7.500   4.174  1.00 20.00     0.031 C 
HETATM    7  C7  UNL     1     -33.524   6.567   2.457  1.00 20.00     0.108 C 
HETATM    8  C8  UNL     1     -33.603   6.118   3.958  1.00 20.00     0.108 C 
HETATM    9  O9  UNL     1     -31.867   5.356   1.053  1.00 20.00    -0.264 OA
HETATM   10  O10 UNL     1     -34.747   3.927   4.296  1.00 20.00    -0.264 OA
HETATM   11  O11 UNL     1     -33.238   4.266   2.570  1.00 20.00    -0.244 OA
ENDROOT
TORSDOF 0
ENDMDL
