MODEL 1
REMARK VINA RESULT:      -2.0      0.000      0.000
REMARK  1 active torsions:
REMARK  status: ('A' for Active; 'I' for Inactive)
REMARK    1  A    between atoms: C1_1  and  C3_3 
ROOT
HETATM    1  C1  UNL     1     -33.320   7.489   2.280  1.00 20.00     0.181 A 
HETATM    2  C2  UNL     1     -32.070   8.210   1.864  1.00 20.00     0.247 A 
HETATM    3  O4  UNL     1     -32.208   6.793   1.702  1.00 20.00    -0.358 OA
HETATM    4 CL5  UNL     1     -32.082   9.225   0.450  1.00 20.00    -0.092 Cl
ENDROOT
BRANCH   1   5
HETATM    5  C3  UNL     1     -33.576   7.162   3.707  1.00 20.00     0.150 C 
HETATM    6 CL6  UNL     1     -35.189   6.425   3.925  1.00 20.00    -0.128 Cl
ENDBRANCH   1   5
TORSDOF 1
ENDMDL
MODEL 2
REMARK VINA RESULT:      -1.8      1.061      3.485
REMARK  1 active torsions:
REMARK  status: ('A' for Active; 'I' for Inactive)
REMARK    1  A    between atoms: C1_1  and  C3_3 
ROOT
HETATM    1  C1  UNL     1     -32.060   8.059   1.822  1.00 20.00     0.181 A 
HETATM    2  C2  UNL     1     -33.227   7.135   2.017  1.00 20.00     0.247 A 
HETATM    3  O4  UNL     1     -31.901   6.635   1.806  1.00 20.00    -0.358 OA
HETATM    4 CL5  UNL     1     -33.949   6.971   3.593  1.00 20.00    -0.092 Cl
ENDROOT
BRANCH   1   5
HETATM    5  C3  UNL     1     -31.817   8.719   0.512  1.00 20.00     0.150 C 
HETATM    6 CL6  UNL     1     -32.621  10.312   0.427  1.00 20.00    -0.128 Cl
ENDBRANCH   1   5
TORSDOF 1
ENDMDL
MODEL 3
REMARK VINA RESULT:      -1.8      1.923      1.927
REMARK  1 active torsions:
REMARK  status: ('A' for Active; 'I' for Inactive)
REMARK    1  A    between atoms: C1_1  and  C3_3 
ROOT
HETATM    1  C1  UNL     1     -33.049   6.940   3.207  1.00 20.00     0.181 A 
HETATM    2  C2  UNL     1     -33.007   6.603   1.745  1.00 20.00     0.247 A 
HETATM    3  O4  UNL     1     -32.478   7.837   2.247  1.00 20.00    -0.358 OA
HETATM    4 CL5  UNL     1     -31.905   5.387   1.165  1.00 20.00    -0.092 Cl
ENDROOT
BRANCH   1   5
HETATM    5  C3  UNL     1     -34.298   7.434   3.844  1.00 20.00     0.150 C 
HETATM    6 CL6  UNL     1     -35.442   6.098   4.156  1.00 20.00    -0.128 Cl
ENDBRANCH   1   5
TORSDOF 1
ENDMDL
MODEL 4
REMARK VINA RESULT:      -1.7      1.223      3.675
REMARK  1 active torsions:
REMARK  status: ('A' for Active; 'I' for Inactive)
REMARK    1  A    between atoms: C1_1  and  C3_3 
ROOT
HETATM    1  C1  UNL     1     -33.422   7.760   2.720  1.00 20.00     0.181 A 
HETATM    2  C2  UNL     1     -33.799   6.580   3.568  1.00 20.00     0.247 A 
HETATM    3  O4  UNL     1     -33.206   7.754   4.137  1.00 20.00    -0.358 OA
HETATM    4 CL5  UNL     1     -35.477   6.242   3.890  1.00 20.00    -0.092 Cl
ENDROOT
BRANCH   1   5
HETATM    5  C3  UNL     1     -32.177   7.753   1.908  1.00 20.00     0.150 C 
HETATM    6 CL6  UNL     1     -32.146   9.117   0.755  1.00 20.00    -0.128 Cl
ENDBRANCH   1   5
TORSDOF 1
ENDMDL
MODEL 5
REMARK VINA RESULT:      -1.6      3.111      3.839
REMARK  1 active torsions:
REMARK  status: ('A' for Active; 'I' for Inactive)
REMARK    1  A    between atoms: C1_1  and  C3_3 
ROOT
HETATM    1  C1  UNL     1     -34.264   5.232   4.424  1.00 20.00     0.181 A 
HETATM    2  C2  UNL     1     -34.413   6.464   3.579  1.00 20.00     0.247 A 
HETATM    3  O4  UNL     1     -35.551   5.785   4.123  1.00 20.00    -0.358 OA
HETATM    4 CL5  UNL     1     -33.972   8.020   4.226  1.00 20.00    -0.092 Cl
ENDROOT
BRANCH   1   5
HETATM    5  C3  UNL     1     -34.003   3.906   3.805  1.00 20.00     0.150 C 
HETATM    6 CL6  UNL     1     -33.070   2.849   4.902  1.00 20.00    -0.128 Cl
ENDBRANCH   1   5
TORSDOF 1
ENDMDL
MODEL 6
REMARK VINA RESULT:      -1.6      2.126      3.632
REMARK  1 active torsions:
REMARK  status: ('A' for Active; 'I' for Inactive)
REMARK    1  A    between atoms: C1_1  and  C3_3 
ROOT
HETATM    1  C1  UNL     1     -32.567   8.451   1.373  1.00 20.00     0.181 A 
HETATM    2  C2  UNL     1     -31.886   7.122   1.524  1.00 20.00     0.247 A 
HETATM    3  O4  UNL     1     -31.908   8.079   2.590  1.00 20.00    -0.358 OA
HETATM    4 CL5  UNL     1     -32.836   5.671   1.674  1.00 20.00    -0.092 Cl
ENDROOT
BRANCH   1   5
HETATM    5  C3  UNL     1     -31.916   9.567   0.637  1.00 20.00     0.150 C 
HETATM    6 CL6  UNL     1     -32.950  10.158  -0.695  1.00 20.00    -0.128 Cl
ENDBRANCH   1   5
TORSDOF 1
ENDMDL
MODEL 7
REMARK VINA RESULT:      -1.4      1.949      3.526
REMARK  1 active torsions:
REMARK  status: ('A' for Active; 'I' for Inactive)
REMARK    1  A    between atoms: C1_1  and  C3_3 
ROOT
HETATM    1  C1  UNL     1     -33.469   7.426   2.598  1.00 20.00     0.181 A 
HETATM    2  C2  UNL     1     -33.901   6.503   3.700  1.00 20.00     0.247 A 
HETATM    3  O4  UNL     1     -33.378   7.808   3.976  1.00 20.00    -0.358 OA
HETATM    4 CL5  UNL     1     -35.596   6.200   3.965  1.00 20.00    -0.092 Cl
ENDROOT
BRANCH   1   5
HETATM    5  C3  UNL     1     -32.158   7.250   1.921  1.00 20.00     0.150 C 
HETATM    6 CL6  UNL     1     -32.027   5.635   1.168  1.00 20.00    -0.128 Cl
ENDBRANCH   1   5
TORSDOF 1
ENDMDL
MODEL 8
REMARK VINA RESULT:      -1.2      2.740      2.978
REMARK  1 active torsions:
REMARK  status: ('A' for Active; 'I' for Inactive)
REMARK    1  A    between atoms: C1_1  and  C3_3 
ROOT
HETATM    1  C1  UNL     1     -33.475   5.457   3.706  1.00 20.00     0.181 A 
HETATM    2  C2  UNL     1     -33.576   6.145   2.376  1.00 20.00     0.247 A 
HETATM    3  O4  UNL     1     -34.350   6.574   3.503  1.00 20.00    -0.358 OA
HETATM    4 CL5  UNL     1     -32.269   7.152   1.818  1.00 20.00    -0.092 Cl
ENDROOT
BRANCH   1   5
HETATM    5  C3  UNL     1     -34.172   4.168   3.955  1.00 20.00     0.150 C 
HETATM    6 CL6  UNL     1     -33.110   3.008   4.803  1.00 20.00    -0.128 Cl
ENDBRANCH   1   5
TORSDOF 1
ENDMDL
MODEL 9
REMARK VINA RESULT:      -1.2      2.379      4.060
REMARK  1 active torsions:
REMARK  status: ('A' for Active; 'I' for Inactive)
REMARK    1  A    between atoms: C1_1  and  C3_3 
ROOT
HETATM    1  C1  UNL     1     -34.030   6.273   3.151  1.00 20.00     0.181 A 
HETATM    2  C2  UNL     1     -34.083   5.373   4.352  1.00 20.00     0.247 A 
HETATM    3  O4  UNL     1     -35.253   6.035   3.858  1.00 20.00    -0.358 OA
HETATM    4 CL5  UNL     1     -33.940   3.649   4.152  1.00 20.00    -0.092 Cl
ENDROOT
BRANCH   1   5
HETATM    5  C3  UNL     1     -33.518   7.665   3.259  1.00 20.00     0.150 C 
HETATM    6 CL6  UNL     1     -32.194   7.963   2.097  1.00 20.00    -0.128 Cl
ENDBRANCH   1   5
TORSDOF 1
ENDMDL
