MODEL 1
REMARK VINA RESULT:      -2.1      0.000      0.000
REMARK  0 active torsions:
REMARK  status: ('A' for Active; 'I' for Inactive)
ROOT
HETATM    1  C1  UNL     1     -31.996   9.431   0.265  1.00 20.00     0.012 C 
HETATM    2  C2  UNL     1     -32.261   8.681   1.164  1.00 20.00    -0.113 C 
HETATM    3  C3  UNL     1     -34.397   6.071   3.794  1.00 20.00     0.127 C 
HETATM    4  C4  UNL     1     -33.423   5.438   2.827  1.00 20.00     0.079 C 
HETATM    5  C5  UNL     1     -34.033   7.440   4.320  1.00 20.00     0.079 C 
HETATM    6  C6  UNL     1     -33.063   6.411   1.713  1.00 20.00     0.024 C 
HETATM    7  C7  UNL     1     -33.660   8.373   3.174  1.00 20.00     0.024 C 
HETATM    8  C8  UNL     1     -32.584   7.760   2.268  1.00 20.00     0.065 C 
HETATM    9  O9  UNL     1     -35.380   5.460   4.212  1.00 20.00    -0.298 OA
ENDROOT
TORSDOF 0
ENDMDL
MODEL 2
REMARK VINA RESULT:      -1.3      2.274      4.281
REMARK  0 active torsions:
REMARK  status: ('A' for Active; 'I' for Inactive)
ROOT
HETATM    1  C1  UNL     1     -35.610   5.316   4.420  1.00 20.00     0.012 C 
HETATM    2  C2  UNL     1     -34.621   5.794   3.936  1.00 20.00    -0.113 C 
HETATM    3  C3  UNL     1     -32.003   8.083   1.446  1.00 20.00     0.127 C 
HETATM    4  C4  UNL     1     -32.190   8.549   2.872  1.00 20.00     0.079 C 
HETATM    5  C5  UNL     1     -32.056   6.591   1.211  1.00 20.00     0.079 C 
HETATM    6  C6  UNL     1     -33.425   7.906   3.490  1.00 20.00     0.024 C 
HETATM    7  C7  UNL     1     -33.295   5.988   1.864  1.00 20.00     0.024 C 
HETATM    8  C8  UNL     1     -33.405   6.379   3.344  1.00 20.00     0.065 C 
HETATM    9  O9  UNL     1     -31.718   8.868   0.543  1.00 20.00    -0.298 OA
ENDROOT
TORSDOF 0
ENDMDL
MODEL 3
REMARK VINA RESULT:      -1.2      1.054      2.065
REMARK  0 active torsions:
REMARK  status: ('A' for Active; 'I' for Inactive)
ROOT
HETATM    1  C1  UNL     1     -31.520   8.927   1.290  1.00 20.00     0.012 C 
HETATM    2  C2  UNL     1     -32.309   8.087   1.625  1.00 20.00    -0.113 C 
HETATM    3  C3  UNL     1     -34.185   4.866   3.723  1.00 20.00     0.127 C 
HETATM    4  C4  UNL     1     -34.745   6.255   3.936  1.00 20.00     0.079 C 
HETATM    5  C5  UNL     1     -33.624   4.569   2.351  1.00 20.00     0.079 C 
HETATM    6  C6  UNL     1     -33.752   7.312   3.472  1.00 20.00     0.024 C 
HETATM    7  C7  UNL     1     -32.653   5.661   1.920  1.00 20.00     0.024 C 
HETATM    8  C8  UNL     1     -33.280   7.057   2.033  1.00 20.00     0.065 C 
HETATM    9  O9  UNL     1     -34.278   3.994   4.586  1.00 20.00    -0.298 OA
ENDROOT
TORSDOF 0
ENDMDL
MODEL 4
REMARK VINA RESULT:      -1.1      2.191      4.136
REMARK  0 active torsions:
REMARK  status: ('A' for Active; 'I' for Inactive)
ROOT
HETATM    1  C1  UNL     1     -33.503   2.885   4.760  1.00 20.00     0.012 C 
HETATM    2  C2  UNL     1     -33.611   3.846   4.049  1.00 20.00    -0.113 C 
HETATM    3  C3  UNL     1     -32.840   7.571   2.092  1.00 20.00     0.127 C 
HETATM    4  C4  UNL     1     -32.671   6.309   1.277  1.00 20.00     0.079 C 
HETATM    5  C5  UNL     1     -33.921   7.552   3.148  1.00 20.00     0.079 C 
HETATM    6  C6  UNL     1     -32.575   5.090   2.186  1.00 20.00     0.024 C 
HETATM    7  C7  UNL     1     -33.800   6.307   4.019  1.00 20.00     0.024 C 
HETATM    8  C8  UNL     1     -33.746   5.026   3.176  1.00 20.00     0.065 C 
HETATM    9  O9  UNL     1     -32.204   8.593   1.838  1.00 20.00    -0.298 OA
ENDROOT
TORSDOF 0
ENDMDL
MODEL 5
REMARK VINA RESULT:      -1.0      1.683      2.949
REMARK  0 active torsions:
REMARK  status: ('A' for Active; 'I' for Inactive)
ROOT
HETATM    1  C1  UNL     1     -31.496   4.282   0.293  1.00 20.00     0.012 C 
HETATM    2  C2  UNL     1     -32.151   5.097   0.880  1.00 20.00    -0.113 C 
HETATM    3  C3  UNL     1     -33.630   7.698   3.937  1.00 20.00     0.127 C 
HETATM    4  C4  UNL     1     -32.875   8.331   2.791  1.00 20.00     0.079 C 
HETATM    5  C5  UNL     1     -34.453   6.474   3.609  1.00 20.00     0.079 C 
HETATM    6  C6  UNL     1     -32.078   7.282   2.027  1.00 20.00     0.024 C 
HETATM    7  C7  UNL     1     -33.623   5.462   2.828  1.00 20.00     0.024 C 
HETATM    8  C8  UNL     1     -32.958   6.099   1.600  1.00 20.00     0.065 C 
HETATM    9  O9  UNL     1     -33.657   8.213   5.055  1.00 20.00    -0.298 OA
ENDROOT
TORSDOF 0
ENDMDL
MODEL 6
REMARK VINA RESULT:       0.5      2.124      3.484
REMARK  0 active torsions:
REMARK  status: ('A' for Active; 'I' for Inactive)
ROOT
HETATM    1  C1  UNL     1     -33.859   8.490   5.590  1.00 20.00     0.012 C 
HETATM    2  C2  UNL     1     -33.719   8.027   4.492  1.00 20.00    -0.113 C 
HETATM    3  C3  UNL     1     -32.210   5.769   1.187  1.00 20.00     0.127 C 
HETATM    4  C4  UNL     1     -33.509   5.308   1.809  1.00 20.00     0.079 C 
HETATM    5  C5  UNL     1     -31.954   7.259   1.185  1.00 20.00     0.079 C 
HETATM    6  C6  UNL     1     -33.697   5.933   3.185  1.00 20.00     0.024 C 
HETATM    7  C7  UNL     1     -32.174   7.843   2.575  1.00 20.00     0.024 C 
HETATM    8  C8  UNL     1     -33.548   7.460   3.142  1.00 20.00     0.065 C 
HETATM    9  O9  UNL     1     -31.452   4.983   0.619  1.00 20.00    -0.298 OA
ENDROOT
TORSDOF 0
ENDMDL
MODEL 7
REMARK VINA RESULT:       0.8      2.321      3.945
REMARK  0 active torsions:
REMARK  status: ('A' for Active; 'I' for Inactive)
ROOT
HETATM    1  C1  UNL     1     -35.687   5.439   4.734  1.00 20.00     0.012 C 
HETATM    2  C2  UNL     1     -35.034   6.146   4.017  1.00 20.00    -0.113 C 
HETATM    3  C3  UNL     1     -31.742   7.864   1.894  1.00 20.00     0.127 C 
HETATM    4  C4  UNL     1     -32.734   7.049   1.096  1.00 20.00     0.079 C 
HETATM    5  C5  UNL     1     -32.295   8.642   3.066  1.00 20.00     0.079 C 
HETATM    6  C6  UNL     1     -33.586   6.186   2.018  1.00 20.00     0.024 C 
HETATM    7  C7  UNL     1     -33.155   7.745   3.948  1.00 20.00     0.024 C 
HETATM    8  C8  UNL     1     -34.233   7.014   3.136  1.00 20.00     0.065 C 
HETATM    9  O9  UNL     1     -30.567   7.971   1.545  1.00 20.00    -0.298 OA
ENDROOT
TORSDOF 0
ENDMDL
