MODEL 1
REMARK VINA RESULT:      -1.3      0.000      0.000
REMARK  2 active torsions:
REMARK  status: ('A' for Active; 'I' for Inactive)
REMARK    1  A    between atoms: C3_3  and  C4_4 
REMARK    2  A    between atoms: C4_4  and  S7_7 
ROOT
HETATM    1  C4  UNL     1     -33.384   7.740   3.311  1.00 20.00     0.162 C 
ENDROOT
BRANCH   1   2
HETATM    2  C3  UNL     1     -34.286   6.583   3.051  1.00 20.00     0.001 A 
HETATM    3  C1  UNL     1     -34.186   5.341   3.892  1.00 20.00     0.006 A 
HETATM    4  C2  UNL     1     -35.381   6.244   4.024  1.00 20.00     0.006 A 
ENDBRANCH   1   2
BRANCH   1   5
HETATM    5  S7  UNL     1     -32.069   7.842   2.128  1.00 20.00     0.230 S 
HETATM    6  O5  UNL     1     -32.016   6.599   1.388  1.00 20.00    -0.211 OA
HETATM    7  O6  UNL     1     -30.902   8.397   2.782  1.00 20.00    -0.211 OA
HETATM    8 CL8  UNL     1     -32.634   9.253   0.758  1.00 20.00     0.018 Cl
ENDBRANCH   1   5
TORSDOF 2
ENDMDL
MODEL 2
REMARK VINA RESULT:      -1.1      1.426      1.700
REMARK  2 active torsions:
REMARK  status: ('A' for Active; 'I' for Inactive)
REMARK    1  A    between atoms: C3_3  and  C4_4 
REMARK    2  A    between atoms: C4_4  and  S7_7 
ROOT
HETATM    1  C4  UNL     1     -33.376   7.690   3.406  1.00 20.00     0.162 C 
ENDROOT
BRANCH   1   2
HETATM    2  C3  UNL     1     -34.318   6.570   3.128  1.00 20.00     0.001 A 
HETATM    3  C1  UNL     1     -34.247   5.303   3.934  1.00 20.00     0.006 A 
HETATM    4  C2  UNL     1     -35.410   6.240   4.109  1.00 20.00     0.006 A 
ENDBRANCH   1   2
BRANCH   1   5
HETATM    5  S7  UNL     1     -32.172   7.886   2.120  1.00 20.00     0.230 S 
HETATM    6  O5  UNL     1     -30.894   8.194   2.727  1.00 20.00    -0.211 OA
HETATM    7  O6  UNL     1     -32.744   8.709   1.075  1.00 20.00    -0.211 OA
HETATM    8 CL8  UNL     1     -31.929   6.039   1.273  1.00 20.00     0.018 Cl
ENDBRANCH   1   5
TORSDOF 2
ENDMDL
MODEL 3
REMARK VINA RESULT:      -1.1      3.510      4.055
REMARK  2 active torsions:
REMARK  status: ('A' for Active; 'I' for Inactive)
REMARK    1  A    between atoms: C3_3  and  C4_4 
REMARK    2  A    between atoms: C4_4  and  S7_7 
ROOT
HETATM    1  C4  UNL     1     -33.529   6.620   2.274  1.00 20.00     0.162 C 
ENDROOT
BRANCH   1   2
HETATM    2  C3  UNL     1     -32.541   7.731   2.362  1.00 20.00     0.001 A 
HETATM    3  C1  UNL     1     -31.306   7.716   1.504  1.00 20.00     0.006 A 
HETATM    4  C2  UNL     1     -32.401   8.709   1.229  1.00 20.00     0.006 A 
ENDBRANCH   1   2
BRANCH   1   5
HETATM    5  S7  UNL     1     -34.568   6.534   3.708  1.00 20.00     0.230 S 
HETATM    6  O5  UNL     1     -35.949   6.631   3.284  1.00 20.00    -0.211 OA
HETATM    7  O6  UNL     1     -34.015   7.399   4.729  1.00 20.00    -0.211 OA
HETATM    8 CL8  UNL     1     -34.371   4.638   4.451  1.00 20.00     0.018 Cl
ENDBRANCH   1   5
TORSDOF 2
ENDMDL
MODEL 4
REMARK VINA RESULT:      -1.0      1.901      2.132
REMARK  2 active torsions:
REMARK  status: ('A' for Active; 'I' for Inactive)
REMARK    1  A    between atoms: C3_3  and  C4_4 
REMARK    2  A    between atoms: C4_4  and  S7_7 
ROOT
HETATM    1  C4  UNL     1     -33.386   5.481   2.853  1.00 20.00     0.162 C 
ENDROOT
BRANCH   1   2
HETATM    2  C3  UNL     1     -34.435   6.495   3.155  1.00 20.00     0.001 A 
HETATM    3  C1  UNL     1     -35.360   6.302   4.325  1.00 20.00     0.006 A 
HETATM    4  C2  UNL     1     -34.308   7.376   4.366  1.00 20.00     0.006 A 
ENDBRANCH   1   2
BRANCH   1   5
HETATM    5  S7  UNL     1     -32.525   5.838   1.345  1.00 20.00     0.230 S 
HETATM    6  O5  UNL     1     -33.484   5.862   0.260  1.00 20.00    -0.211 OA
HETATM    7  O6  UNL     1     -31.328   5.026   1.294  1.00 20.00    -0.211 OA
HETATM    8 CL8  UNL     1     -31.856   7.765   1.506  1.00 20.00     0.018 Cl
ENDBRANCH   1   5
TORSDOF 2
ENDMDL
MODEL 5
REMARK VINA RESULT:      -0.9      3.253      3.945
REMARK  2 active torsions:
REMARK  status: ('A' for Active; 'I' for Inactive)
REMARK    1  A    between atoms: C3_3  and  C4_4 
REMARK    2  A    between atoms: C4_4  and  S7_7 
ROOT
HETATM    1  C4  UNL     1     -33.487   6.584   2.145  1.00 20.00     0.162 C 
ENDROOT
BRANCH   1   2
HETATM    2  C3  UNL     1     -32.533   7.721   2.275  1.00 20.00     0.001 A 
HETATM    3  C1  UNL     1     -31.275   7.753   1.450  1.00 20.00     0.006 A 
HETATM    4  C2  UNL     1     -32.390   8.719   1.159  1.00 20.00     0.006 A 
ENDBRANCH   1   2
BRANCH   1   5
HETATM    5  S7  UNL     1     -34.456   6.354   3.612  1.00 20.00     0.230 S 
HETATM    6  O5  UNL     1     -34.097   5.084   4.207  1.00 20.00    -0.211 OA
HETATM    7  O6  UNL     1     -35.829   6.704   3.316  1.00 20.00    -0.211 OA
HETATM    8 CL8  UNL     1     -33.821   7.767   4.949  1.00 20.00     0.018 Cl
ENDBRANCH   1   5
TORSDOF 2
ENDMDL
MODEL 6
REMARK VINA RESULT:      -0.9      3.108      3.759
REMARK  2 active torsions:
REMARK  status: ('A' for Active; 'I' for Inactive)
REMARK    1  A    between atoms: C3_3  and  C4_4 
REMARK    2  A    between atoms: C4_4  and  S7_7 
ROOT
HETATM    1  C4  UNL     1     -34.597   4.689   4.477  1.00 20.00     0.162 C 
ENDROOT
BRANCH   1   2
HETATM    2  C3  UNL     1     -33.401   3.847   4.191  1.00 20.00     0.001 A 
HETATM    3  C1  UNL     1     -32.615   3.239   5.320  1.00 20.00     0.006 A 
HETATM    4  C2  UNL     1     -33.449   2.363   4.427  1.00 20.00     0.006 A 
ENDBRANCH   1   2
BRANCH   1   5
HETATM    5  S7  UNL     1     -34.576   6.210   3.566  1.00 20.00     0.230 S 
HETATM    6  O5  UNL     1     -35.943   6.617   3.317  1.00 20.00    -0.211 OA
HETATM    7  O6  UNL     1     -33.604   6.095   2.500  1.00 20.00    -0.211 OA
HETATM    8 CL8  UNL     1     -33.818   7.629   4.830  1.00 20.00     0.018 Cl
ENDBRANCH   1   5
TORSDOF 2
ENDMDL
MODEL 7
REMARK VINA RESULT:      -0.7      3.213      3.980
REMARK  2 active torsions:
REMARK  status: ('A' for Active; 'I' for Inactive)
REMARK    1  A    between atoms: C3_3  and  C4_4 
REMARK    2  A    between atoms: C4_4  and  S7_7 
ROOT
HETATM    1  C4  UNL     1     -33.363   6.561   2.257  1.00 20.00     0.162 C 
ENDROOT
BRANCH   1   2
HETATM    2  C3  UNL     1     -32.439   7.728   2.311  1.00 20.00     0.001 A 
HETATM    3  C1  UNL     1     -31.257   7.802   1.384  1.00 20.00     0.006 A 
HETATM    4  C2  UNL     1     -32.423   8.731   1.191  1.00 20.00     0.006 A 
ENDBRANCH   1   2
BRANCH   1   5
HETATM    5  S7  UNL     1     -34.397   6.460   3.694  1.00 20.00     0.230 S 
HETATM    6  O5  UNL     1     -34.114   7.596   4.546  1.00 20.00    -0.211 OA
HETATM    7  O6  UNL     1     -34.365   5.100   4.190  1.00 20.00    -0.211 OA
HETATM    8 CL8  UNL     1     -36.316   6.746   3.044  1.00 20.00     0.018 Cl
ENDBRANCH   1   5
TORSDOF 2
ENDMDL
MODEL 8
REMARK VINA RESULT:      -0.7      3.128      3.803
REMARK  2 active torsions:
REMARK  status: ('A' for Active; 'I' for Inactive)
REMARK    1  A    between atoms: C3_3  and  C4_4 
REMARK    2  A    between atoms: C4_4  and  S7_7 
ROOT
HETATM    1  C4  UNL     1     -34.704   4.731   4.521  1.00 20.00     0.162 C 
ENDROOT
BRANCH   1   2
HETATM    2  C3  UNL     1     -33.517   3.912   4.148  1.00 20.00     0.001 A 
HETATM    3  C1  UNL     1     -32.615   3.355   5.214  1.00 20.00     0.006 A 
HETATM    4  C2  UNL     1     -33.502   2.434   4.424  1.00 20.00     0.006 A 
ENDBRANCH   1   2
BRANCH   1   5
HETATM    5  S7  UNL     1     -34.673   6.335   3.769  1.00 20.00     0.230 S 
HETATM    6  O5  UNL     1     -34.034   7.261   4.681  1.00 20.00    -0.211 OA
HETATM    7  O6  UNL     1     -35.975   6.600   3.194  1.00 20.00    -0.211 OA
HETATM    8 CL8  UNL     1     -33.402   6.198   2.171  1.00 20.00     0.018 Cl
ENDBRANCH   1   5
TORSDOF 2
ENDMDL
MODEL 9
REMARK VINA RESULT:      -0.7      3.242      4.101
REMARK  2 active torsions:
REMARK  status: ('A' for Active; 'I' for Inactive)
REMARK    1  A    between atoms: C3_3  and  C4_4 
REMARK    2  A    between atoms: C4_4  and  S7_7 
ROOT
HETATM    1  C4  UNL     1     -31.970   8.006   1.571  1.00 20.00     0.162 C 
ENDROOT
BRANCH   1   2
HETATM    2  C3  UNL     1     -32.833   8.979   0.845  1.00 20.00     0.001 A 
HETATM    3  C1  UNL     1     -32.486  10.443   0.842  1.00 20.00     0.006 A 
HETATM    4  C2  UNL     1     -32.339   9.633  -0.416  1.00 20.00     0.006 A 
ENDBRANCH   1   2
BRANCH   1   5
HETATM    5  S7  UNL     1     -32.691   6.387   1.628  1.00 20.00     0.230 S 
HETATM    6  O5  UNL     1     -31.640   5.422   1.875  1.00 20.00    -0.211 OA
HETATM    7  O6  UNL     1     -33.612   6.253   0.519  1.00 20.00    -0.211 OA
HETATM    8 CL8  UNL     1     -33.864   6.338   3.304  1.00 20.00     0.018 Cl
ENDBRANCH   1   5
TORSDOF 2
ENDMDL
