MODEL 1
REMARK VINA RESULT:      -0.8      0.000      0.000
REMARK  1 active torsions:
REMARK  status: ('A' for Active; 'I' for Inactive)
REMARK    1  A    between atoms: C5_5  and  C10_10 
ROOT
HETATM    1  C1  UNL     1     -33.275   4.931   3.166  1.00 20.00     0.027 A 
HETATM    2  C2  UNL     1     -34.251   7.121   3.351  1.00 20.00     0.027 A 
HETATM    3  C3  UNL     1     -34.325   4.457   3.935  1.00 20.00     0.116 A 
HETATM    4  C4  UNL     1     -35.257   6.549   4.112  1.00 20.00     0.116 A 
HETATM    5  C5  UNL     1     -33.244   6.289   2.872  1.00 20.00    -0.051 A 
HETATM    6  N11 UNL     1     -35.320   5.234   4.418  1.00 20.00    -0.273 NA
ENDROOT
BRANCH   5   7
HETATM    7  C10 UNL     1     -32.051   6.897   1.984  1.00 20.00     0.026 C 
HETATM    8  C8  UNL     1     -32.358   7.344   0.519  1.00 20.00     0.043 C 
HETATM    9  C6  UNL     1     -32.263   8.747   1.062  1.00 20.00    -0.088 C 
HETATM   10  C7  UNL     1     -32.675   9.928   0.601  1.00 20.00     0.014 C 
HETATM   11  C9  UNL     1     -31.529   8.332   2.312  1.00 20.00     0.043 C 
ENDBRANCH   5   7
TORSDOF 1
ENDMDL
MODEL 2
REMARK VINA RESULT:      -0.8      0.053      1.419
REMARK  1 active torsions:
REMARK  status: ('A' for Active; 'I' for Inactive)
REMARK    1  A    between atoms: C5_5  and  C10_10 
ROOT
HETATM    1  C1  UNL     1     -34.243   7.125   3.346  1.00 20.00     0.027 A 
HETATM    2  C2  UNL     1     -33.266   4.940   3.111  1.00 20.00     0.027 A 
HETATM    3  C3  UNL     1     -35.240   6.538   4.110  1.00 20.00     0.116 A 
HETATM    4  C4  UNL     1     -34.306   4.451   3.885  1.00 20.00     0.116 A 
HETATM    5  C5  UNL     1     -33.242   6.304   2.841  1.00 20.00    -0.051 A 
HETATM    6  N11 UNL     1     -35.298   5.218   4.393  1.00 20.00    -0.273 NA
ENDROOT
BRANCH   5   7
HETATM    7  C10 UNL     1     -32.061   6.928   1.949  1.00 20.00     0.026 C 
HETATM    8  C8  UNL     1     -32.389   7.416   0.502  1.00 20.00     0.043 C 
HETATM    9  C6  UNL     1     -32.276   8.803   1.080  1.00 20.00    -0.088 C 
HETATM   10  C7  UNL     1     -32.689   9.999   0.658  1.00 20.00     0.014 C 
HETATM   11  C9  UNL     1     -31.524   8.351   2.306  1.00 20.00     0.043 C 
ENDBRANCH   5   7
TORSDOF 1
ENDMDL
MODEL 3
REMARK VINA RESULT:      -0.7      0.931      1.798
REMARK  1 active torsions:
REMARK  status: ('A' for Active; 'I' for Inactive)
REMARK    1  A    between atoms: C5_5  and  C10_10 
ROOT
HETATM    1  C1  UNL     1     -33.779   7.785   3.698  1.00 20.00     0.027 A 
HETATM    2  C2  UNL     1     -32.978   6.032   2.260  1.00 20.00     0.027 A 
HETATM    3  C3  UNL     1     -34.679   6.871   4.221  1.00 20.00     0.116 A 
HETATM    4  C4  UNL     1     -33.914   5.196   2.848  1.00 20.00     0.116 A 
HETATM    5  C5  UNL     1     -32.916   7.350   2.699  1.00 20.00    -0.051 A 
HETATM    6  N11 UNL     1     -34.770   5.584   3.821  1.00 20.00    -0.273 NA
ENDROOT
BRANCH   5   7
HETATM    7  C10 UNL     1     -31.851   8.365   2.053  1.00 20.00     0.026 C 
HETATM    8  C8  UNL     1     -31.512   8.232   0.534  1.00 20.00     0.043 C 
HETATM    9  C6  UNL     1     -32.345   9.477   0.369  1.00 20.00    -0.088 C 
HETATM   10  C7  UNL     1     -32.929  10.045  -0.687  1.00 20.00     0.014 C 
HETATM   11  C9  UNL     1     -32.274   9.851   1.828  1.00 20.00     0.043 C 
ENDBRANCH   5   7
TORSDOF 1
ENDMDL
MODEL 4
REMARK VINA RESULT:      -0.7      0.974      1.321
REMARK  1 active torsions:
REMARK  status: ('A' for Active; 'I' for Inactive)
REMARK    1  A    between atoms: C5_5  and  C10_10 
ROOT
HETATM    1  C1  UNL     1     -32.945   6.104   2.187  1.00 20.00     0.027 A 
HETATM    2  C2  UNL     1     -33.781   7.815   3.656  1.00 20.00     0.027 A 
HETATM    3  C3  UNL     1     -33.861   5.239   2.761  1.00 20.00     0.116 A 
HETATM    4  C4  UNL     1     -34.661   6.872   4.164  1.00 20.00     0.116 A 
HETATM    5  C5  UNL     1     -32.910   7.415   2.649  1.00 20.00    -0.051 A 
HETATM    6  N11 UNL     1     -34.723   5.589   3.741  1.00 20.00    -0.273 NA
ENDROOT
BRANCH   5   7
HETATM    7  C10 UNL     1     -31.868   8.464   2.022  1.00 20.00     0.026 C 
HETATM    8  C8  UNL     1     -31.475   8.325   0.516  1.00 20.00     0.043 C 
HETATM    9  C6  UNL     1     -32.353   9.531   0.306  1.00 20.00    -0.088 C 
HETATM   10  C7  UNL     1     -32.926  10.059  -0.777  1.00 20.00     0.014 C 
HETATM   11  C9  UNL     1     -32.345   9.929   1.760  1.00 20.00     0.043 C 
ENDBRANCH   5   7
TORSDOF 1
ENDMDL
MODEL 5
REMARK VINA RESULT:       0.2      2.044      4.711
REMARK  1 active torsions:
REMARK  status: ('A' for Active; 'I' for Inactive)
REMARK    1  A    between atoms: C5_5  and  C10_10 
ROOT
HETATM    1  C1  UNL     1     -32.668   6.010   1.717  1.00 20.00     0.027 A 
HETATM    2  C2  UNL     1     -33.627   7.215   3.565  1.00 20.00     0.027 A 
HETATM    3  C3  UNL     1     -32.016   7.180   1.362  1.00 20.00     0.116 A 
HETATM    4  C4  UNL     1     -32.931   8.331   3.128  1.00 20.00     0.116 A 
HETATM    5  C5  UNL     1     -33.486   6.036   2.840  1.00 20.00    -0.051 A 
HETATM    6  N11 UNL     1     -32.127   8.344   2.041  1.00 20.00    -0.273 NA
ENDROOT
BRANCH   5   7
HETATM    7  C10 UNL     1     -34.268   4.710   3.300  1.00 20.00     0.026 C 
HETATM    8  C8  UNL     1     -33.495   3.353   3.325  1.00 20.00     0.043 C 
HETATM    9  C6  UNL     1     -33.511   3.517   4.823  1.00 20.00    -0.088 C 
HETATM   10  C7  UNL     1     -32.801   2.959   5.804  1.00 20.00     0.014 C 
HETATM   11  C9  UNL     1     -34.622   4.535   4.811  1.00 20.00     0.043 C 
ENDBRANCH   5   7
TORSDOF 1
ENDMDL
MODEL 6
REMARK VINA RESULT:       0.2      2.045      4.852
REMARK  1 active torsions:
REMARK  status: ('A' for Active; 'I' for Inactive)
REMARK    1  A    between atoms: C5_5  and  C10_10 
ROOT
HETATM    1  C1  UNL     1     -33.622   7.220   3.564  1.00 20.00     0.027 A 
HETATM    2  C2  UNL     1     -32.656   6.016   1.720  1.00 20.00     0.027 A 
HETATM    3  C3  UNL     1     -32.927   8.337   3.128  1.00 20.00     0.116 A 
HETATM    4  C4  UNL     1     -32.004   7.186   1.367  1.00 20.00     0.116 A 
HETATM    5  C5  UNL     1     -33.479   6.042   2.841  1.00 20.00    -0.051 A 
HETATM    6  N11 UNL     1     -32.118   8.350   2.045  1.00 20.00    -0.273 NA
ENDROOT
BRANCH   5   7
HETATM    7  C10 UNL     1     -34.260   4.714   3.298  1.00 20.00     0.026 C 
HETATM    8  C8  UNL     1     -33.483   3.360   3.333  1.00 20.00     0.043 C 
HETATM    9  C6  UNL     1     -33.511   3.528   4.831  1.00 20.00    -0.088 C 
HETATM   10  C7  UNL     1     -32.807   2.976   5.819  1.00 20.00     0.014 C 
HETATM   11  C9  UNL     1     -34.626   4.543   4.807  1.00 20.00     0.043 C 
ENDBRANCH   5   7
TORSDOF 1
ENDMDL
MODEL 7
REMARK VINA RESULT:       0.3      2.537      4.915
REMARK  1 active torsions:
REMARK  status: ('A' for Active; 'I' for Inactive)
REMARK    1  A    between atoms: C5_5  and  C10_10 
ROOT
HETATM    1  C1  UNL     1     -33.014   9.706   1.707  1.00 20.00     0.027 A 
HETATM    2  C2  UNL     1     -31.682   8.121   0.484  1.00 20.00     0.027 A 
HETATM    3  C3  UNL     1     -32.920  10.549   0.611  1.00 20.00     0.116 A 
HETATM    4  C4  UNL     1     -31.648   9.034  -0.557  1.00 20.00     0.116 A 
HETATM    5  C5  UNL     1     -32.381   8.471   1.634  1.00 20.00    -0.051 A 
HETATM    6  N11 UNL     1     -32.251  10.244  -0.523  1.00 20.00    -0.273 NA
ENDROOT
BRANCH   5   7
HETATM    7  C10 UNL     1     -32.455   7.452   2.874  1.00 20.00     0.026 C 
HETATM    8  C8  UNL     1     -33.378   7.806   4.084  1.00 20.00     0.043 C 
HETATM    9  C6  UNL     1     -34.289   6.737   3.539  1.00 20.00    -0.088 C 
HETATM   10  C7  UNL     1     -35.576   6.452   3.741  1.00 20.00     0.014 C 
HETATM   11  C9  UNL     1     -33.218   6.102   2.689  1.00 20.00     0.043 C 
ENDBRANCH   5   7
TORSDOF 1
ENDMDL
MODEL 8
REMARK VINA RESULT:       0.3      2.505      4.703
REMARK  1 active torsions:
REMARK  status: ('A' for Active; 'I' for Inactive)
REMARK    1  A    between atoms: C5_5  and  C10_10 
ROOT
HETATM    1  C1  UNL     1     -31.670   8.032   0.727  1.00 20.00     0.027 A 
HETATM    2  C2  UNL     1     -33.039   9.687   1.808  1.00 20.00     0.027 A 
HETATM    3  C3  UNL     1     -31.561   8.901  -0.346  1.00 20.00     0.116 A 
HETATM    4  C4  UNL     1     -32.868  10.482   0.687  1.00 20.00     0.116 A 
HETATM    5  C5  UNL     1     -32.424   8.440   1.821  1.00 20.00    -0.051 A 
HETATM    6  N11 UNL     1     -32.143  10.120  -0.396  1.00 20.00    -0.273 NA
ENDROOT
BRANCH   5   7
HETATM    7  C10 UNL     1     -32.587   7.474   3.094  1.00 20.00     0.026 C 
HETATM    8  C8  UNL     1     -33.631   7.851   4.194  1.00 20.00     0.043 C 
HETATM    9  C6  UNL     1     -34.454   6.728   3.617  1.00 20.00    -0.088 C 
HETATM   10  C7  UNL     1     -35.746   6.410   3.710  1.00 20.00     0.014 C 
HETATM   11  C9  UNL     1     -33.290   6.092   2.902  1.00 20.00     0.043 C 
ENDBRANCH   5   7
TORSDOF 1
ENDMDL
MODEL 9
REMARK VINA RESULT:       2.0      2.332      4.801
REMARK  1 active torsions:
REMARK  status: ('A' for Active; 'I' for Inactive)
REMARK    1  A    between atoms: C5_5  and  C10_10 
ROOT
HETATM    1  C1  UNL     1     -33.197   9.548   1.526  1.00 20.00     0.027 A 
HETATM    2  C2  UNL     1     -32.117   7.443   1.957  1.00 20.00     0.027 A 
HETATM    3  C3  UNL     1     -32.276   9.750   0.510  1.00 20.00     0.116 A 
HETATM    4  C4  UNL     1     -31.245   7.739   0.922  1.00 20.00     0.116 A 
HETATM    5  C5  UNL     1     -33.109   8.370   2.258  1.00 20.00    -0.051 A 
HETATM    6  N11 UNL     1     -31.299   8.874   0.188  1.00 20.00    -0.273 NA
ENDROOT
BRANCH   5   7
HETATM    7  C10 UNL     1     -34.148   8.080   3.448  1.00 20.00     0.026 C 
HETATM    8  C8  UNL     1     -35.317   7.075   3.196  1.00 20.00     0.043 C 
HETATM    9  C6  UNL     1     -34.525   6.132   4.065  1.00 20.00    -0.088 C 
HETATM   10  C7  UNL     1     -34.565   4.811   4.241  1.00 20.00     0.014 C 
HETATM   11  C9  UNL     1     -33.674   7.222   4.665  1.00 20.00     0.043 C 
ENDBRANCH   5   7
TORSDOF 1
ENDMDL
