MODEL 1
REMARK VINA RESULT:       2.8      0.000      0.000
REMARK  1 active torsions:
REMARK  status: ('A' for Active; 'I' for Inactive)
REMARK    1  A    between atoms: C1_1  and  C7_7 
ROOT
HETATM    1  C2  UNL     1     -33.402   8.436   3.952  1.00 20.00     0.007 C 
HETATM    2  C3  UNL     1     -33.568   7.008   4.471  1.00 20.00     0.020 C 
HETATM    3  C4  UNL     1     -33.649   6.014   2.158  1.00 20.00     0.026 C 
HETATM    4  C5  UNL     1     -33.276   8.575   2.464  1.00 20.00    -0.002 A 
HETATM    5  C6  UNL     1     -33.420   7.371   1.561  1.00 20.00    -0.000 A 
HETATM    6  C7  UNL     1     -34.347   6.100   3.518  1.00 20.00     0.045 C 
HETATM    7  C8  UNL     1     -32.087   8.112   1.637  1.00 20.00    -0.040 A 
HETATM    8  C9  UNL     1     -35.821   6.482   3.404  1.00 20.00     0.027 C 
HETATM    9  C10 UNL     1     -31.719   8.962   0.442  1.00 20.00     0.015 C 
HETATM   10  C11 UNL     1     -30.883   7.501   2.303  1.00 20.00     0.015 C 
ENDROOT
BRANCH   6  11
HETATM   11  C1  UNL     1     -34.289   4.704   4.128  1.00 20.00     0.181 C 
HETATM   12  O12 UNL     1     -33.258   4.034   3.844  1.00 20.00    -0.647 OA
HETATM   13  O13 UNL     1     -35.284   4.396   4.843  1.00 20.00    -0.647 OA
ENDBRANCH   6  11
TORSDOF 1
ENDMDL
MODEL 2
REMARK VINA RESULT:       3.0      2.794      4.645
REMARK  1 active torsions:
REMARK  status: ('A' for Active; 'I' for Inactive)
REMARK    1  A    between atoms: C1_1  and  C7_7 
ROOT
HETATM    1  C2  UNL     1     -32.782   8.123   4.132  1.00 20.00     0.007 C 
HETATM    2  C3  UNL     1     -32.846   8.999   2.880  1.00 20.00     0.020 C 
HETATM    3  C4  UNL     1     -33.205   7.037   1.342  1.00 20.00     0.026 C 
HETATM    4  C5  UNL     1     -33.035   6.661   3.914  1.00 20.00    -0.002 A 
HETATM    5  C6  UNL     1     -33.225   6.109   2.520  1.00 20.00    -0.000 A 
HETATM    6  C7  UNL     1     -32.364   8.287   1.614  1.00 20.00     0.045 C 
HETATM    7  C8  UNL     1     -34.371   6.049   3.527  1.00 20.00    -0.040 A 
HETATM    8  C9  UNL     1     -30.865   8.003   1.626  1.00 20.00     0.027 C 
HETATM    9  C10 UNL     1     -34.689   4.689   4.106  1.00 20.00     0.015 C 
HETATM   10  C11 UNL     1     -35.595   6.914   3.380  1.00 20.00     0.015 C 
ENDROOT
BRANCH   6  11
HETATM   11  C1  UNL     1     -32.631   9.253   0.464  1.00 20.00     0.181 C 
HETATM   12  O12 UNL     1     -32.624  10.476   0.775  1.00 20.00    -0.647 OA
HETATM   13  O13 UNL     1     -32.826   8.703  -0.655  1.00 20.00    -0.647 OA
ENDBRANCH   6  11
TORSDOF 1
ENDMDL
MODEL 3
REMARK VINA RESULT:       3.8      1.328      2.493
REMARK  1 active torsions:
REMARK  status: ('A' for Active; 'I' for Inactive)
REMARK    1  A    between atoms: C1_1  and  C7_7 
ROOT
HETATM    1  C2  UNL     1     -32.706   5.703   0.999  1.00 20.00     0.007 C 
HETATM    2  C3  UNL     1     -34.027   5.596   1.762  1.00 20.00     0.020 C 
HETATM    3  C4  UNL     1     -33.416   7.430   3.378  1.00 20.00     0.026 C 
HETATM    4  C5  UNL     1     -31.785   6.800   1.446  1.00 20.00    -0.002 A 
HETATM    5  C6  UNL     1     -32.125   7.652   2.648  1.00 20.00    -0.000 A 
HETATM    6  C7  UNL     1     -33.911   5.988   3.236  1.00 20.00     0.045 C 
HETATM    7  C8  UNL     1     -32.038   8.287   1.262  1.00 20.00    -0.040 A 
HETATM    8  C9  UNL     1     -33.087   4.996   4.053  1.00 20.00     0.027 C 
HETATM    9  C10 UNL     1     -30.829   9.153   0.992  1.00 20.00     0.015 C 
HETATM   10  C11 UNL     1     -33.266   8.771   0.538  1.00 20.00     0.015 C 
ENDROOT
BRANCH   6  11
HETATM   11  C1  UNL     1     -35.332   5.957   3.790  1.00 20.00     0.181 C 
HETATM   12  O12 UNL     1     -36.099   6.862   3.359  1.00 20.00    -0.647 OA
HETATM   13  O13 UNL     1     -35.560   5.026   4.611  1.00 20.00    -0.647 OA
ENDBRANCH   6  11
TORSDOF 1
ENDMDL
MODEL 4
REMARK VINA RESULT:       4.4      1.368      2.535
REMARK  1 active torsions:
REMARK  status: ('A' for Active; 'I' for Inactive)
REMARK    1  A    between atoms: C1_1  and  C7_7 
ROOT
HETATM    1  C2  UNL     1     -31.271   7.480   1.901  1.00 20.00     0.007 C 
HETATM    2  C3  UNL     1     -32.400   6.574   2.394  1.00 20.00     0.020 C 
HETATM    3  C4  UNL     1     -34.072   8.455   2.487  1.00 20.00     0.026 C 
HETATM    4  C5  UNL     1     -31.654   8.904   1.629  1.00 20.00    -0.002 A 
HETATM    5  C6  UNL     1     -33.046   9.402   1.941  1.00 20.00    -0.000 A 
HETATM    6  C7  UNL     1     -33.428   7.301   3.261  1.00 20.00     0.045 C 
HETATM    7  C8  UNL     1     -32.553   9.371   0.496  1.00 20.00    -0.040 A 
HETATM    8  C9  UNL     1     -32.868   7.735   4.613  1.00 20.00     0.027 C 
HETATM    9  C10 UNL     1     -32.218  10.705  -0.132  1.00 20.00     0.015 C 
HETATM   10  C11 UNL     1     -33.100   8.385  -0.502  1.00 20.00     0.015 C 
ENDROOT
BRANCH   6  11
HETATM   11  C1  UNL     1     -34.535   6.287   3.536  1.00 20.00     0.181 C 
HETATM   12  O12 UNL     1     -35.704   6.762   3.573  1.00 20.00    -0.647 OA
HETATM   13  O13 UNL     1     -34.137   5.099   3.691  1.00 20.00    -0.647 OA
ENDBRANCH   6  11
TORSDOF 1
ENDMDL
MODEL 5
REMARK VINA RESULT:       5.3      2.255      3.733
REMARK  1 active torsions:
REMARK  status: ('A' for Active; 'I' for Inactive)
REMARK    1  A    between atoms: C1_1  and  C7_7 
ROOT
HETATM    1  C2  UNL     1     -32.142   8.079   1.816  1.00 20.00     0.007 C 
HETATM    2  C3  UNL     1     -32.768   7.185   0.745  1.00 20.00     0.020 C 
HETATM    3  C4  UNL     1     -33.690   5.554   2.429  1.00 20.00     0.026 C 
HETATM    4  C5  UNL     1     -32.415   7.679   3.236  1.00 20.00    -0.002 A 
HETATM    5  C6  UNL     1     -33.170   6.406   3.548  1.00 20.00    -0.000 A 
HETATM    6  C7  UNL     1     -32.855   5.714   1.155  1.00 20.00     0.045 C 
HETATM    7  C8  UNL     1     -33.767   7.760   3.926  1.00 20.00    -0.040 A 
HETATM    8  C9  UNL     1     -31.489   5.041   1.254  1.00 20.00     0.027 C 
HETATM    9  C10 UNL     1     -33.759   8.114   5.396  1.00 20.00     0.015 C 
HETATM   10  C11 UNL     1     -34.962   8.323   3.204  1.00 20.00     0.015 C 
ENDROOT
BRANCH   6  11
HETATM   11  C1  UNL     1     -33.624   5.014   0.038  1.00 20.00     0.181 C 
HETATM   12  O12 UNL     1     -33.135   3.915  -0.345  1.00 20.00    -0.647 OA
HETATM   13  O13 UNL     1     -34.653   5.626  -0.361  1.00 20.00    -0.647 OA
ENDBRANCH   6  11
TORSDOF 1
ENDMDL
MODEL 6
REMARK VINA RESULT:       5.8      1.484      2.458
REMARK  1 active torsions:
REMARK  status: ('A' for Active; 'I' for Inactive)
REMARK    1  A    between atoms: C1_1  and  C7_7 
ROOT
HETATM    1  C2  UNL     1     -31.314   8.756   2.600  1.00 20.00     0.007 C 
HETATM    2  C3  UNL     1     -31.530   7.242   2.580  1.00 20.00     0.020 C 
HETATM    3  C4  UNL     1     -33.462   7.388   0.970  1.00 20.00     0.026 C 
HETATM    4  C5  UNL     1     -32.190   9.549   1.676  1.00 20.00    -0.002 A 
HETATM    5  C6  UNL     1     -33.280   8.873   0.876  1.00 20.00    -0.000 A 
HETATM    6  C7  UNL     1     -32.981   6.839   2.316  1.00 20.00     0.045 C 
HETATM    7  C8  UNL     1     -32.105   9.535   0.159  1.00 20.00    -0.040 A 
HETATM    8  C9  UNL     1     -33.916   7.194   3.470  1.00 20.00     0.027 C 
HETATM    9  C10 UNL     1     -32.395  10.838  -0.551  1.00 20.00     0.015 C 
HETATM   10  C11 UNL     1     -31.049   8.721  -0.542  1.00 20.00     0.015 C 
ENDROOT
BRANCH   6  11
HETATM   11  C1  UNL     1     -32.976   5.318   2.192  1.00 20.00     0.181 C 
HETATM   12  O12 UNL     1     -33.503   4.697   3.156  1.00 20.00    -0.647 OA
HETATM   13  O13 UNL     1     -32.444   4.875   1.136  1.00 20.00    -0.647 OA
ENDBRANCH   6  11
TORSDOF 1
ENDMDL
MODEL 7
REMARK VINA RESULT:       5.8      3.326      5.078
REMARK  1 active torsions:
REMARK  status: ('A' for Active; 'I' for Inactive)
REMARK    1  A    between atoms: C1_1  and  C7_7 
ROOT
HETATM    1  C2  UNL     1     -31.564   7.131   1.877  1.00 20.00     0.007 C 
HETATM    2  C3  UNL     1     -31.349   8.589   1.470  1.00 20.00     0.020 C 
HETATM    3  C4  UNL     1     -33.797   9.157   1.653  1.00 20.00     0.026 C 
HETATM    4  C5  UNL     1     -32.967   6.762   2.256  1.00 20.00    -0.002 A 
HETATM    5  C6  UNL     1     -34.091   7.765   2.126  1.00 20.00    -0.000 A 
HETATM    6  C7  UNL     1     -32.555   9.205   0.758  1.00 20.00     0.045 C 
HETATM    7  C8  UNL     1     -33.693   7.239   3.503  1.00 20.00    -0.040 A 
HETATM    8  C9  UNL     1     -32.799   8.609  -0.626  1.00 20.00     0.027 C 
HETATM    9  C10 UNL     1     -34.644   6.260   4.153  1.00 20.00     0.015 C 
HETATM   10  C11 UNL     1     -32.993   8.115   4.508  1.00 20.00     0.015 C 
ENDROOT
BRANCH   6  11
HETATM   11  C1  UNL     1     -32.215  10.679   0.561  1.00 20.00     0.181 C 
HETATM   12  O12 UNL     1     -32.457  11.425   1.549  1.00 20.00    -0.647 OA
HETATM   13  O13 UNL     1     -31.734  10.964  -0.571  1.00 20.00    -0.647 OA
ENDBRANCH   6  11
TORSDOF 1
ENDMDL
