MODEL 1
REMARK VINA RESULT:      -2.8      0.000      0.000
REMARK  1 active torsions:
REMARK  status: ('A' for Active; 'I' for Inactive)
REMARK    1  A    between atoms: C1_1  and  C3_3 
ROOT
HETATM    1  C1  UNL     1     -33.364   6.021   2.641  1.00 20.00     0.064 C 
HETATM    2  C2  UNL     1     -32.397   6.412   1.801  1.00 20.00     0.184 C 
HETATM    3  F4  UNL     1     -31.641   5.489   1.165  1.00 20.00    -0.193 F 
HETATM    4 CL5  UNL     1     -32.091   8.082   1.507  1.00 20.00    -0.052 Cl
ENDROOT
BRANCH   1   5
HETATM    5  C3  UNL     1     -34.249   6.968   3.387  1.00 20.00     0.205 C 
HETATM    6 CL6  UNL     1     -35.549   6.065   4.197  1.00 20.00    -0.104 Cl
HETATM    7 CL7  UNL     1     -33.291   7.865   4.588  1.00 20.00    -0.104 Cl
ENDBRANCH   1   5
TORSDOF 1
ENDMDL
MODEL 2
REMARK VINA RESULT:      -2.7      2.537      3.659
REMARK  1 active torsions:
REMARK  status: ('A' for Active; 'I' for Inactive)
REMARK    1  A    between atoms: C1_1  and  C3_3 
ROOT
HETATM    1  C1  UNL     1     -33.982   6.701   3.091  1.00 20.00     0.064 C 
HETATM    2  C2  UNL     1     -34.584   5.768   3.840  1.00 20.00     0.184 C 
HETATM    3  F4  UNL     1     -35.733   6.060   4.489  1.00 20.00    -0.193 F 
HETATM    4 CL5  UNL     1     -33.924   4.183   3.994  1.00 20.00    -0.052 Cl
ENDROOT
BRANCH   1   5
HETATM    5  C3  UNL     1     -32.712   6.468   2.338  1.00 20.00     0.205 C 
HETATM    6 CL6  UNL     1     -33.034   5.450   0.916  1.00 20.00    -0.104 Cl
HETATM    7 CL7  UNL     1     -32.022   8.027   1.827  1.00 20.00    -0.104 Cl
ENDBRANCH   1   5
TORSDOF 1
ENDMDL
MODEL 3
REMARK VINA RESULT:      -2.5      2.186      3.500
REMARK  1 active torsions:
REMARK  status: ('A' for Active; 'I' for Inactive)
REMARK    1  A    between atoms: C1_1  and  C3_3 
ROOT
HETATM    1  C1  UNL     1     -33.803   6.287   2.607  1.00 20.00     0.064 C 
HETATM    2  C2  UNL     1     -34.417   6.805   3.677  1.00 20.00     0.184 C 
HETATM    3  F4  UNL     1     -35.687   6.444   3.968  1.00 20.00    -0.193 F 
HETATM    4 CL5  UNL     1     -33.619   7.932   4.708  1.00 20.00    -0.052 Cl
ENDROOT
BRANCH   1   5
HETATM    5  C3  UNL     1     -32.402   6.626   2.208  1.00 20.00     0.205 C 
HETATM    6 CL6  UNL     1     -31.801   5.426   1.042  1.00 20.00    -0.104 Cl
HETATM    7 CL7  UNL     1     -32.360   8.251   1.485  1.00 20.00    -0.104 Cl
ENDBRANCH   1   5
TORSDOF 1
ENDMDL
MODEL 4
REMARK VINA RESULT:      -2.4      2.427      3.910
REMARK  1 active torsions:
REMARK  status: ('A' for Active; 'I' for Inactive)
REMARK    1  A    between atoms: C1_1  and  C3_3 
ROOT
HETATM    1  C1  UNL     1     -32.905   7.895   3.215  1.00 20.00     0.064 C 
HETATM    2  C2  UNL     1     -33.832   7.563   4.122  1.00 20.00     0.184 C 
HETATM    3  F4  UNL     1     -33.746   8.042   5.383  1.00 20.00    -0.193 F 
HETATM    4 CL5  UNL     1     -35.150   6.530   3.715  1.00 20.00    -0.052 Cl
ENDROOT
BRANCH   1   5
HETATM    5  C3  UNL     1     -32.919   7.415   1.799  1.00 20.00     0.205 C 
HETATM    6 CL6  UNL     1     -31.894   8.467   0.797  1.00 20.00    -0.104 Cl
HETATM    7 CL7  UNL     1     -32.325   5.739   1.728  1.00 20.00    -0.104 Cl
ENDBRANCH   1   5
TORSDOF 1
ENDMDL
MODEL 5
REMARK VINA RESULT:      -2.0      1.848      3.231
REMARK  1 active torsions:
REMARK  status: ('A' for Active; 'I' for Inactive)
REMARK    1  A    between atoms: C1_1  and  C3_3 
ROOT
HETATM    1  C1  UNL     1     -33.298   5.438   3.053  1.00 20.00     0.064 C 
HETATM    2  C2  UNL     1     -34.137   4.718   3.808  1.00 20.00     0.184 C 
HETATM    3  F4  UNL     1     -33.851   3.427   4.091  1.00 20.00    -0.193 F 
HETATM    4 CL5  UNL     1     -35.586   5.405   4.439  1.00 20.00    -0.052 Cl
ENDROOT
BRANCH   1   5
HETATM    5  C3  UNL     1     -33.530   6.870   2.690  1.00 20.00     0.205 C 
HETATM    6 CL6  UNL     1     -33.735   7.839   4.167  1.00 20.00    -0.104 Cl
HETATM    7 CL7  UNL     1     -32.151   7.482   1.747  1.00 20.00    -0.104 Cl
ENDBRANCH   1   5
TORSDOF 1
ENDMDL
MODEL 6
REMARK VINA RESULT:      -1.9      1.812      2.099
REMARK  1 active torsions:
REMARK  status: ('A' for Active; 'I' for Inactive)
REMARK    1  A    between atoms: C1_1  and  C3_3 
ROOT
HETATM    1  C1  UNL     1     -33.301   6.704   2.909  1.00 20.00     0.064 C 
HETATM    2  C2  UNL     1     -32.406   6.627   1.915  1.00 20.00     0.184 C 
HETATM    3  F4  UNL     1     -31.510   7.622   1.734  1.00 20.00    -0.193 F 
HETATM    4 CL5  UNL     1     -32.367   5.271   0.852  1.00 20.00    -0.052 Cl
ENDROOT
BRANCH   1   5
HETATM    5  C3  UNL     1     -34.327   5.652   3.185  1.00 20.00     0.205 C 
HETATM    6 CL6  UNL     1     -33.556   4.247   3.954  1.00 20.00    -0.104 Cl
HETATM    7 CL7  UNL     1     -35.591   6.312   4.250  1.00 20.00    -0.104 Cl
ENDBRANCH   1   5
TORSDOF 1
ENDMDL
MODEL 7
REMARK VINA RESULT:      -1.9      1.766      2.291
REMARK  1 active torsions:
REMARK  status: ('A' for Active; 'I' for Inactive)
REMARK    1  A    between atoms: C1_1  and  C3_3 
ROOT
HETATM    1  C1  UNL     1     -32.756   8.072   2.758  1.00 20.00     0.064 C 
HETATM    2  C2  UNL     1     -32.197   7.543   1.663  1.00 20.00     0.184 C 
HETATM    3  F4  UNL     1     -31.692   8.352   0.705  1.00 20.00    -0.193 F 
HETATM    4 CL5  UNL     1     -32.101   5.836   1.444  1.00 20.00    -0.052 Cl
ENDROOT
BRANCH   1   5
HETATM    5  C3  UNL     1     -33.339   7.257   3.869  1.00 20.00     0.205 C 
HETATM    6 CL6  UNL     1     -33.365   8.215   5.367  1.00 20.00    -0.104 Cl
HETATM    7 CL7  UNL     1     -34.991   6.752   3.440  1.00 20.00    -0.104 Cl
ENDBRANCH   1   5
TORSDOF 1
ENDMDL
MODEL 8
REMARK VINA RESULT:      -1.7      2.520      3.815
REMARK  1 active torsions:
REMARK  status: ('A' for Active; 'I' for Inactive)
REMARK    1  A    between atoms: C1_1  and  C3_3 
ROOT
HETATM    1  C1  UNL     1     -33.325   6.827   3.080  1.00 20.00     0.064 C 
HETATM    2  C2  UNL     1     -34.264   7.148   3.979  1.00 20.00     0.184 C 
HETATM    3  F4  UNL     1     -34.157   8.294   4.688  1.00 20.00    -0.193 F 
HETATM    4 CL5  UNL     1     -35.623   6.124   4.254  1.00 20.00    -0.052 Cl
ENDROOT
BRANCH   1   5
HETATM    5  C3  UNL     1     -33.359   5.583   2.251  1.00 20.00     0.205 C 
HETATM    6 CL6  UNL     1     -31.919   5.515   1.209  1.00 20.00    -0.104 Cl
HETATM    7 CL7  UNL     1     -33.411   4.155   3.311  1.00 20.00    -0.104 Cl
ENDBRANCH   1   5
TORSDOF 1
ENDMDL
MODEL 9
REMARK VINA RESULT:      -1.6      1.553      1.952
REMARK  1 active torsions:
REMARK  status: ('A' for Active; 'I' for Inactive)
REMARK    1  A    between atoms: C1_1  and  C3_3 
ROOT
HETATM    1  C1  UNL     1     -33.257   6.238   2.384  1.00 20.00     0.064 C 
HETATM    2  C2  UNL     1     -32.500   7.327   2.203  1.00 20.00     0.184 C 
HETATM    3  F4  UNL     1     -31.973   7.589   0.987  1.00 20.00    -0.193 F 
HETATM    4 CL5  UNL     1     -32.179   8.416   3.500  1.00 20.00    -0.052 Cl
ENDROOT
BRANCH   1   5
HETATM    5  C3  UNL     1     -33.881   5.867   3.692  1.00 20.00     0.205 C 
HETATM    6 CL6  UNL     1     -35.540   6.503   3.767  1.00 20.00    -0.104 Cl
HETATM    7 CL7  UNL     1     -33.899   4.097   3.869  1.00 20.00    -0.104 Cl
ENDBRANCH   1   5
TORSDOF 1
ENDMDL
