REMARK  2 active torsions:
REMARK  status: ('A' for Active; 'I' for Inactive)
REMARK    1  A    between atoms: C5_5  and  S7_7 
REMARK    2  A    between atoms: C6_6  and  S8_8 
ROOT
HETATM    1  C1  UNL     1     -35.228   3.934   4.354  1.00 20.00     0.001 A 
HETATM    2  C2  UNL     1     -35.181   3.937   5.748  1.00 20.00     0.001 A 
HETATM    3  C3  UNL     1     -34.595   4.946   3.632  1.00 20.00     0.019 A 
HETATM    4  C4  UNL     1     -34.501   4.953   6.420  1.00 20.00     0.019 A 
HETATM    5  C5  UNL     1     -33.916   5.961   4.304  1.00 20.00     0.014 A 
HETATM    6  C6  UNL     1     -33.868   5.965   5.698  1.00 20.00     0.014 A 
ENDROOT
BRANCH   5   7
HETATM    7  S7  UNL     1     -33.134   7.217   3.290  1.00 20.00    -0.142 SA
HETATM    8  H13 UNL     1     -33.499   6.713   2.103  1.00 20.00     0.107 HD
ENDBRANCH   5   7
BRANCH   6   9
HETATM    9  S8  UNL     1     -33.021   7.226   6.651  1.00 20.00    -0.142 SA
HETATM   10  H14 UNL     1     -33.304   6.728   7.862  1.00 20.00     0.107 HD
ENDBRANCH   6   9
TORSDOF 2
