REMARK  0 active torsions:
REMARK  status: ('A' for Active; 'I' for Inactive)
ROOT
HETATM    1  C1  UNL     1     -34.598   3.684   5.646  1.00 20.00     0.019 A 
HETATM    2  C2  UNL     1     -34.963   4.421   4.492  1.00 20.00     0.019 A 
HETATM    3  C3  UNL     1     -34.047   4.572   6.544  1.00 20.00     0.090 A 
HETATM    4  C4  UNL     1     -34.624   5.736   4.720  1.00 20.00     0.090 A 
HETATM    5  C5  UNL     1     -33.577   7.027   6.588  1.00 20.00     0.154 C 
HETATM    6  N6  UNL     1     -34.068   5.816   5.970  1.00 20.00    -0.371 N 
ENDROOT
TORSDOF 0
