REMARK  1 active torsions:
REMARK  status: ('A' for Active; 'I' for Inactive)
REMARK    1  A    between atoms: C1_1  and  C8_8 
ROOT
HETATM    1  C1  UNL     1     -33.059   7.157   3.019  1.00 20.00    -0.067 C 
HETATM    2  C2  UNL     1     -32.581   7.868   2.177  1.00 20.00    -0.105 C 
HETATM    3  C9  UNL     1     -32.000   8.735   1.152  1.00 20.00     0.112 C 
ENDROOT
BRANCH   1   4
HETATM    4  C8  UNL     1     -33.629   6.312   4.020  1.00 20.00     0.017 A 
HETATM    5  C6  UNL     1     -34.359   5.183   3.647  1.00 20.00     0.020 A 
HETATM    6  C4  UNL     1     -34.916   4.359   4.624  1.00 20.00     0.001 A 
HETATM    7  C3  UNL     1     -34.743   4.662   5.975  1.00 20.00     0.000 A 
HETATM    8  C5  UNL     1     -34.013   5.791   6.348  1.00 20.00     0.001 A 
HETATM    9  C7  UNL     1     -33.456   6.616   5.370  1.00 20.00     0.020 A 
ENDBRANCH   1   4
TORSDOF 1
