REMARK  0 active torsions:
REMARK  status: ('A' for Active; 'I' for Inactive)
ROOT
HETATM    1  C1  UNL     1     -34.763   5.386   2.873  1.00 20.00     0.035 A 
HETATM    2  C2  UNL     1     -35.237   4.727   4.032  1.00 20.00     0.035 A 
HETATM    3  C3  UNL     1     -33.612   6.038   3.248  1.00 20.00     0.049 A 
HETATM    4  C4  UNL     1     -34.342   5.023   5.033  1.00 20.00     0.049 A 
HETATM    5  C5  UNL     1     -32.655   6.887   2.525  1.00 20.00     0.076 C 
HETATM    6  C6  UNL     1     -34.263   4.653   6.453  1.00 20.00     0.076 C 
HETATM    7  O7  UNL     1     -33.348   5.821   4.564  1.00 20.00    -0.320 OA
ENDROOT
TORSDOF 0
