REMARK  1 active torsions:
REMARK  status: ('A' for Active; 'I' for Inactive)
REMARK    1  A    between atoms: C4_4  and  S7_7 
ROOT
HETATM    1  C1  UNL     1     -34.163   6.009   6.228  1.00 20.00     0.009 A 
HETATM    2  C2  UNL     1     -33.225   6.614   5.342  1.00 20.00     0.026 A 
HETATM    3  C3  UNL     1     -34.907   5.031   5.605  1.00 20.00     0.051 A 
HETATM    4  C4  UNL     1     -33.287   6.075   4.076  1.00 20.00     0.040 A 
HETATM    5  S6  UNL     1     -34.473   4.845   3.959  1.00 20.00    -0.095 SA
ENDROOT
BRANCH   4   6
HETATM    6  S7  UNL     1     -32.298   6.544   2.705  1.00 20.00    -0.127 SA
HETATM    7  C5  UNL     1     -32.751   8.292   2.556  1.00 20.00     0.096 C 
ENDBRANCH   4   6
TORSDOF 1
