REMARK  3 active torsions:
REMARK  status: ('A' for Active; 'I' for Inactive)
REMARK    1  A    between atoms: C4_4  and  S10_10 
REMARK    2  A    between atoms: C5_5  and  C7_7 
REMARK    3  A    between atoms: C7_7  and  S10_10 
ROOT
HETATM    1  C1  UNL     1     -34.241   4.561   6.479  1.00 20.00     0.009 A 
HETATM    2  C2  UNL     1     -34.079   5.927   6.108  1.00 20.00     0.026 A 
HETATM    3  C3  UNL     1     -34.527   3.761   5.394  1.00 20.00     0.051 A 
HETATM    4  C4  UNL     1     -34.249   6.120   4.755  1.00 20.00     0.041 A 
HETATM    5  S9  UNL     1     -34.601   4.657   3.937  1.00 20.00    -0.095 SA
ENDROOT
BRANCH   4   6
HETATM    6  S10 UNL     1     -34.128   7.663   3.902  1.00 20.00    -0.115 SA
BRANCH   6   7
HETATM    7  C7  UNL     1     -32.780   7.290   2.758  1.00 20.00     0.157 C 
BRANCH   7   8
HETATM    8  C5  UNL     1     -32.454   8.471   1.875  1.00 20.00     0.132 C 
HETATM    9  C6  UNL     1     -31.352   8.234   0.896  1.00 20.00     0.091 C 
HETATM   10  O8  UNL     1     -33.010   9.561   1.906  1.00 20.00    -0.298 OA
ENDBRANCH   7   8
ENDBRANCH   6   7
ENDBRANCH   4   6
TORSDOF 3
