REMARK  3 active torsions:
REMARK  status: ('A' for Active; 'I' for Inactive)
REMARK    1  A    between atoms: C5_5  and  O9_9 
REMARK    2  A    between atoms: C6_6  and  O10_10 
REMARK    3  A    between atoms: C8_8  and  O10_10 
ROOT
HETATM    1  C1  UNL     1     -35.140   4.897   6.258  1.00 20.00     0.003 A 
HETATM    2  C2  UNL     1     -34.927   4.389   4.976  1.00 20.00     0.003 A 
HETATM    3  C3  UNL     1     -34.394   5.986   6.709  1.00 20.00     0.039 A 
HETATM    4  C4  UNL     1     -33.968   4.969   4.147  1.00 20.00     0.039 A 
HETATM    5  C5  UNL     1     -33.434   6.565   5.880  1.00 20.00     0.099 A 
HETATM    6  C6  UNL     1     -33.221   6.057   4.598  1.00 20.00     0.101 A 
ENDROOT
BRANCH   6   7
HETATM    7  O10 UNL     1     -32.286   6.614   3.779  1.00 20.00    -0.349 OA
BRANCH   7   8
HETATM    8  C8  UNL     1     -32.746   7.144   2.537  1.00 20.00     0.171 C 
HETATM    9  C7  UNL     1     -31.861   8.306   2.139  1.00 20.00     0.034 C 
ENDBRANCH   7   8
ENDBRANCH   6   7
BRANCH   5  10
HETATM   10  O9  UNL     1     -32.711   7.627   6.333  1.00 20.00    -0.358 OA
HETATM   11  H20 UNL     1     -32.979   7.854   7.237  1.00 20.00     0.217 HD
ENDBRANCH   5  10
TORSDOF 3
