REMARK  1 active torsions:
REMARK  status: ('A' for Active; 'I' for Inactive)
REMARK    1  A    between atoms: C4_4  and  C6_6 
ROOT
HETATM    1  C1  UNL     1     -34.700   4.572   6.366  1.00 20.00     0.027 A 
HETATM    2  C2  UNL     1     -34.585   4.306   4.981  1.00 20.00     0.034 A 
HETATM    3  C3  UNL     1     -34.201   5.840   6.554  1.00 20.00     0.142 A 
HETATM    4  C4  UNL     1     -34.025   5.431   4.421  1.00 20.00     0.052 A 
HETATM    5  O7  UNL     1     -33.788   6.371   5.373  1.00 20.00    -0.327 OA
ENDROOT
BRANCH   4   6
HETATM    6  C6  UNL     1     -33.651   5.789   3.046  1.00 20.00     0.060 C 
HETATM    7  C5  UNL     1     -32.166   6.148   2.899  1.00 20.00     0.012 C 
ENDBRANCH   4   6
TORSDOF 1
