REMARK  1 active torsions:
REMARK  status: ('A' for Active; 'I' for Inactive)
REMARK    1  A    between atoms: C6_6  and  C9_9 
ROOT
HETATM    1  C1  UNL     1     -32.223   6.787   2.818  1.00 20.00     0.001 A 
HETATM    2  C2  UNL     1     -33.063   5.903   2.141  1.00 20.00     0.001 A 
HETATM    3  C3  UNL     1     -32.389   6.998   4.186  1.00 20.00     0.007 A 
HETATM    4  C4  UNL     1     -34.070   5.229   2.833  1.00 20.00     0.007 A 
HETATM    5  C5  UNL     1     -33.396   6.325   4.879  1.00 20.00    -0.056 A 
HETATM    6  C6  UNL     1     -34.236   5.440   4.202  1.00 20.00    -0.053 A 
HETATM    7  C7  UNL     1     -33.554   6.566   6.344  1.00 20.00     0.049 C 
ENDROOT
BRANCH   6   8
HETATM    8  C9  UNL     1     -35.321   4.709   4.922  1.00 20.00     0.034 C 
HETATM    9  C8  UNL     1     -34.785   3.536   5.738  1.00 20.00     0.010 C 
ENDBRANCH   6   8
TORSDOF 1
