REMARK  0 active torsions:
REMARK  status: ('A' for Active; 'I' for Inactive)
ROOT
HETATM    1  C1  UNL     1     -34.924   5.324   6.146  1.00 20.00     0.001 A 
HETATM    2  C2  UNL     1     -34.048   6.330   6.554  1.00 20.00     0.001 A 
HETATM    3  C3  UNL     1     -34.998   4.969   4.799  1.00 20.00     0.008 A 
HETATM    4  C4  UNL     1     -33.247   6.981   5.616  1.00 20.00     0.019 A 
HETATM    5  C5  UNL     1     -34.197   5.620   3.861  1.00 20.00    -0.045 A 
HETATM    6  C6  UNL     1     -33.321   6.626   4.269  1.00 20.00     0.012 A 
HETATM    7  C7  UNL     1     -34.319   5.196   2.432  1.00 20.00     0.049 C 
HETATM    8  I8  UNL     1     -32.092   7.641   2.915  1.00 20.00    -0.044 I 
ENDROOT
TORSDOF 0
