REMARK  0 active torsions:
REMARK  status: ('A' for Active; 'I' for Inactive)
ROOT
HETATM    1  C1  UNL     1     -34.692   5.742   6.456  1.00 20.00     0.021 C 
HETATM    2  C2  UNL     1     -34.966   3.486   5.373  1.00 20.00     0.021 C 
HETATM    3  C3  UNL     1     -34.998   4.997   5.160  1.00 20.00     0.045 C 
HETATM    4  I4  UNL     1     -33.559   5.548   3.648  1.00 20.00    -0.086 I 
ENDROOT
TORSDOF 0
