REMARK  0 active torsions:
REMARK  status: ('A' for Active; 'I' for Inactive)
ROOT
HETATM    1  C1  UNL     1     -34.922   4.366   5.715  1.00 20.00     0.001 A 
HETATM    2  C2  UNL     1     -34.385   5.320   6.582  1.00 20.00     0.003 A 
HETATM    3  C3  UNL     1     -34.716   4.450   4.331  1.00 20.00     0.014 A 
HETATM    4  C4  UNL     1     -33.623   6.390   6.103  1.00 20.00     0.038 A 
HETATM    5  C5  UNL     1     -33.529   5.945   2.540  1.00 20.00     0.046 A 
HETATM    6  C6  UNL     1     -33.953   5.518   3.826  1.00 20.00     0.000 A 
HETATM    7  C7  UNL     1     -33.435   6.447   4.723  1.00 20.00     0.086 A 
HETATM    8  C8  UNL     1     -32.791   7.090   2.735  1.00 20.00     0.050 A 
HETATM    9  C9  UNL     1     -32.088   7.998   1.819  1.00 20.00     0.077 C 
HETATM   10  O10 UNL     1     -32.728   7.403   4.056  1.00 20.00    -0.315 OA
ENDROOT
TORSDOF 0
