REMARK  3 active torsions:
REMARK  status: ('A' for Active; 'I' for Inactive)
REMARK    1  A    between atoms: C6_6  and  C9_9 
REMARK    2  A    between atoms: C8_8  and  C9_9 
REMARK    3  A    between atoms: C8_8  and  O10_10 
ROOT
HETATM    1  C1  UNL     1     -35.359   4.830   5.246  1.00 20.00     0.000 A 
HETATM    2  C2  UNL     1     -35.200   4.515   3.897  1.00 20.00     0.001 A 
HETATM    3  C3  UNL     1     -34.572   5.824   5.828  1.00 20.00     0.001 A 
HETATM    4  C4  UNL     1     -34.255   5.195   3.129  1.00 20.00     0.007 A 
HETATM    5  C5  UNL     1     -33.626   6.503   5.060  1.00 20.00     0.007 A 
HETATM    6  C6  UNL     1     -33.468   6.189   3.710  1.00 20.00    -0.052 A 
ENDROOT
BRANCH   6   7
HETATM    7  C9  UNL     1     -32.456   6.915   2.890  1.00 20.00     0.038 C 
HETATM    8  C7  UNL     1     -31.250   7.378   3.733  1.00 20.00     0.017 C 
BRANCH   7   9
HETATM    9  C8  UNL     1     -33.050   8.124   2.130  1.00 20.00     0.173 C 
BRANCH   9  10
HETATM   10  O10 UNL     1     -32.172   8.486   1.070  1.00 20.00    -0.400 OA
HETATM   11  H22 UNL     1     -32.577   9.244   0.620  1.00 20.00     0.209 HD
ENDBRANCH   9  10
ENDBRANCH   7   9
ENDBRANCH   6   7
TORSDOF 3
