REMARK  0 active torsions:
REMARK  status: ('A' for Active; 'I' for Inactive)
ROOT
HETATM    1  C1  UNL     1     -34.778   4.544   3.366  1.00 20.00     0.002 A 
HETATM    2  C2  UNL     1     -34.720   4.654   4.755  1.00 20.00     0.007 A 
HETATM    3  C3  UNL     1     -34.153   5.499   2.564  1.00 20.00     0.018 A 
HETATM    4  C4  UNL     1     -33.412   6.674   4.541  1.00 20.00     0.025 A 
HETATM    5  C5  UNL     1     -34.037   5.719   5.343  1.00 20.00    -0.061 A 
HETATM    6  C6  UNL     1     -33.470   6.564   3.151  1.00 20.00     0.006 A 
HETATM    7  C7  UNL     1     -33.977   5.836   6.828  1.00 20.00     0.048 C 
HETATM    8  I8  UNL     1     -32.537   7.985   1.957  1.00 20.00    -0.045 I 
ENDROOT
TORSDOF 0
