REMARK  4 active torsions:
REMARK  status: ('A' for Active; 'I' for Inactive)
REMARK    1  A    between atoms: C6_6  and  C7_7 
REMARK    2  A    between atoms: C7_7  and  C8_8 
REMARK    3  A    between atoms: C8_8  and  C9_9 
REMARK    4  A    between atoms: C9_9  and  O10_10 
ROOT
HETATM    1  C1  UNL     1     -35.156   5.234   5.553  1.00 20.00     0.000 A 
HETATM    2  C2  UNL     1     -34.109   6.040   6.000  1.00 20.00     0.001 A 
HETATM    3  C3  UNL     1     -35.257   4.908   4.200  1.00 20.00     0.001 A 
HETATM    4  C4  UNL     1     -33.163   6.520   5.094  1.00 20.00     0.007 A 
HETATM    5  C5  UNL     1     -34.311   5.388   3.295  1.00 20.00     0.007 A 
HETATM    6  C6  UNL     1     -33.264   6.194   3.741  1.00 20.00    -0.058 A 
ENDROOT
BRANCH   6   7
HETATM    7  C7  UNL     1     -32.253   6.708   2.773  1.00 20.00     0.041 C 
BRANCH   7   8
HETATM    8  C8  UNL     1     -32.659   8.064   2.178  1.00 20.00     0.030 C 
BRANCH   8   9
HETATM    9  C9  UNL     1     -32.774   9.146   3.243  1.00 20.00     0.164 C 
BRANCH   9  10
HETATM   10  O10 UNL     1     -33.166  10.362   2.621  1.00 20.00    -0.401 OA
HETATM   11  H22 UNL     1     -33.230  11.029   3.324  1.00 20.00     0.209 HD
ENDBRANCH   9  10
ENDBRANCH   8   9
ENDBRANCH   7   8
ENDBRANCH   6   7
TORSDOF 4
