REMARK  4 active torsions:
REMARK  status: ('A' for Active; 'I' for Inactive)
REMARK    1  A    between atoms: C6_6  and  C7_7 
REMARK    2  A    between atoms: C7_7  and  C8_8 
REMARK    3  A    between atoms: C8_8  and  C9_9 
REMARK    4  A    between atoms: C9_9  and  S10_10 
ROOT
HETATM    1  C1  UNL     1     -34.756   5.008   4.949  1.00 20.00     0.000 A 
HETATM    2  C2  UNL     1     -33.737   5.840   5.411  1.00 20.00     0.001 A 
HETATM    3  C3  UNL     1     -34.977   4.870   3.579  1.00 20.00     0.001 A 
HETATM    4  C4  UNL     1     -32.938   6.535   4.503  1.00 20.00     0.007 A 
HETATM    5  C5  UNL     1     -34.178   5.565   2.671  1.00 20.00     0.007 A 
HETATM    6  C6  UNL     1     -33.159   6.397   3.133  1.00 20.00    -0.058 A 
ENDROOT
BRANCH   6   7
HETATM    7  C7  UNL     1     -32.305   7.140   2.161  1.00 20.00     0.039 C 
BRANCH   7   8
HETATM    8  C8  UNL     1     -32.838   8.536   1.783  1.00 20.00     0.014 C 
BRANCH   8   9
HETATM    9  C9  UNL     1     -31.942   9.247   0.768  1.00 20.00     0.071 C 
BRANCH   9  10
HETATM   10  S10 UNL     1     -32.620  10.880   0.350  1.00 20.00    -0.182 SA
HETATM   11  H22 UNL     1     -31.651  11.217  -0.511  1.00 20.00     0.101 HD
ENDBRANCH   9  10
ENDBRANCH   8   9
ENDBRANCH   7   8
ENDBRANCH   6   7
TORSDOF 4
