REMARK  2 active torsions:
REMARK  status: ('A' for Active; 'I' for Inactive)
REMARK    1  A    between atoms: C5_5  and  N8_8 
REMARK    2  A    between atoms: C6_6  and  S11_11 
ROOT
HETATM    1  C1  UNL     1     -31.883   6.320   2.769  1.00 20.00     0.037 A 
HETATM    2  C2  UNL     1     -33.977   7.466   3.140  1.00 20.00     0.037 A 
HETATM    3  C3  UNL     1     -32.233   5.369   3.727  1.00 20.00     0.021 A 
HETATM    4  C4  UNL     1     -34.328   6.515   4.098  1.00 20.00     0.021 A 
HETATM    5  C5  UNL     1     -32.755   7.369   2.475  1.00 20.00     0.102 A 
HETATM    6  C6  UNL     1     -33.456   5.466   4.392  1.00 20.00    -0.000 A 
ENDROOT
BRANCH   5   7
HETATM    7  N8  UNL     1     -32.398   8.336   1.499  1.00 20.00    -0.116 N 
HETATM    8  O9  UNL     1     -31.295   8.230   0.912  1.00 20.00    -0.532 OA
HETATM    9  O10 UNL     1     -33.197   9.272   1.250  1.00 20.00    -0.532 OA
ENDBRANCH   5   7
BRANCH   6  10
HETATM   10  S11 UNL     1     -33.903   4.252   5.616  1.00 20.00    -0.134 SA
HETATM   11  C7  UNL     1     -34.932   5.273   6.693  1.00 20.00     0.095 C 
ENDBRANCH   6  10
TORSDOF 2
