REMARK  0 active torsions:
REMARK  status: ('A' for Active; 'I' for Inactive)
ROOT
HETATM    1  C1  UNL     1     -33.812   5.984   5.613  1.00 20.00     0.008 A 
HETATM    2  C2  UNL     1     -34.568   4.667   3.734  1.00 20.00     0.008 A 
HETATM    3  C3  UNL     1     -33.082   6.799   4.748  1.00 20.00     0.019 A 
HETATM    4  C4  UNL     1     -33.837   5.481   2.869  1.00 20.00     0.019 A 
HETATM    5  C5  UNL     1     -34.556   4.918   5.106  1.00 20.00    -0.062 A 
HETATM    6  C6  UNL     1     -33.094   6.547   3.376  1.00 20.00     0.006 A 
HETATM    7  C7  UNL     1     -35.335   4.046   6.030  1.00 20.00     0.048 C 
HETATM    8  I8  UNL     1     -32.003   7.759   2.089  1.00 20.00    -0.045 I 
ENDROOT
TORSDOF 0
