REMARK  3 active torsions:
REMARK  status: ('A' for Active; 'I' for Inactive)
REMARK    1  A    between atoms: C2_2  and  C7_7 
REMARK    2  A    between atoms: C3_3  and  C8_8 
REMARK    3  A    between atoms: C7_7  and  C8_8 
ROOT
HETATM    1  C3  UNL     1     -32.823   6.146   4.099  1.00 20.00    -0.024 C 
HETATM    2  C4  UNL     1     -33.872   5.418   4.526  1.00 20.00    -0.091 C 
HETATM    3  C5  UNL     1     -33.998   5.043   5.979  1.00 20.00     0.042 C 
HETATM    4  C6  UNL     1     -34.996   4.924   3.659  1.00 20.00     0.042 C 
ENDROOT
BRANCH   1   5
HETATM    5  C8  UNL     1     -32.516   6.594   2.696  1.00 20.00     0.031 C 
BRANCH   5   6
HETATM    6  C7  UNL     1     -32.429   8.118   2.571  1.00 20.00     0.030 C 
BRANCH   6   7
HETATM    7  C2  UNL     1     -32.090   8.566   1.178  1.00 20.00    -0.037 C 
HETATM    8  C1  UNL     1     -32.874   9.354   0.434  1.00 20.00     0.007 C 
ENDBRANCH   6   7
ENDBRANCH   5   6
ENDBRANCH   1   5
TORSDOF 3
