REMARK  4 active torsions:
REMARK  status: ('A' for Active; 'I' for Inactive)
REMARK    1  A    between atoms: C6_6  and  C8_8 
REMARK    2  A    between atoms: C8_8  and  C10_10 
REMARK    3  A    between atoms: C9_9  and  C11_11 
REMARK    4  A    between atoms: C10_10  and  C11_11 
ROOT
HETATM    1  C1  UNL     1     -35.092   4.707   5.135  1.00 20.00     0.000 A 
HETATM    2  C2  UNL     1     -34.423   5.750   5.776  1.00 20.00     0.001 A 
HETATM    3  C3  UNL     1     -34.805   4.410   3.802  1.00 20.00     0.001 A 
HETATM    4  C4  UNL     1     -33.468   6.496   5.086  1.00 20.00     0.007 A 
HETATM    5  C5  UNL     1     -33.850   5.156   3.111  1.00 20.00     0.007 A 
HETATM    6  C6  UNL     1     -33.182   6.199   3.753  1.00 20.00    -0.058 A 
ENDROOT
BRANCH   6   7
HETATM    7  C8  UNL     1     -32.156   7.000   3.010  1.00 20.00     0.038 C 
BRANCH   7   8
HETATM    8  C10 UNL     1     -32.739   8.222   2.294  1.00 20.00     0.005 C 
BRANCH   8   9
HETATM    9  C11 UNL     1     -31.701   8.993   1.472  1.00 20.00    -0.000 C 
BRANCH   9  10
HETATM   10  C9  UNL     1     -32.337  10.187   0.758  1.00 20.00    -0.005 C 
HETATM   11  C7  UNL     1     -31.320  10.934  -0.091  1.00 20.00     0.005 C 
ENDBRANCH   9  10
ENDBRANCH   8   9
ENDBRANCH   7   8
ENDBRANCH   6   7
TORSDOF 4
