REMARK  1 active torsions:
REMARK  status: ('A' for Active; 'I' for Inactive)
REMARK    1  A    between atoms: C6_6  and  O8_8 
ROOT
HETATM    1  C1  UNL     1     -35.340   4.661   5.754  1.00 20.00     0.000 A 
HETATM    2  C2  UNL     1     -34.886   4.405   4.460  1.00 20.00     0.003 A 
HETATM    3  C3  UNL     1     -34.869   5.774   6.451  1.00 20.00     0.003 A 
HETATM    4  C4  UNL     1     -33.961   5.261   3.863  1.00 20.00     0.037 A 
HETATM    5  C5  UNL     1     -33.944   6.630   5.853  1.00 20.00     0.037 A 
HETATM    6  C6  UNL     1     -33.490   6.374   4.560  1.00 20.00     0.068 A 
ENDROOT
BRANCH   6   7
HETATM    7  O8  UNL     1     -32.586   7.209   3.978  1.00 20.00    -0.356 OA
HETATM    8  C7  UNL     1     -32.163   6.887   2.654  1.00 20.00     0.210 C 
ENDBRANCH   6   7
TORSDOF 1
