REMARK  0 active torsions:
REMARK  status: ('A' for Active; 'I' for Inactive)
ROOT
HETATM    1  C1  UNL     1     -34.062   5.702   6.280  1.00 20.00     0.000 A 
HETATM    2  C2  UNL     1     -34.382   6.314   5.068  1.00 20.00     0.000 A 
HETATM    3  C3  UNL     1     -34.321   4.344   6.466  1.00 20.00     0.000 A 
HETATM    4  C4  UNL     1     -34.962   5.568   4.042  1.00 20.00     0.000 A 
HETATM    5  C5  UNL     1     -34.901   3.598   5.439  1.00 20.00     0.000 A 
HETATM    6  C6  UNL     1     -35.221   4.210   4.227  1.00 20.00     0.000 A 
ENDROOT
TORSDOF 0
