REMARK  2 active torsions:
REMARK  status: ('A' for Active; 'I' for Inactive)
REMARK    1  A    between atoms: C6_6  and  C7_7 
REMARK    2  A    between atoms: C7_7  and  S8_8 
ROOT
HETATM    1  C1  UNL     1     -35.541   4.808   4.958  1.00 20.00     0.000 A 
HETATM    2  C2  UNL     1     -34.721   5.355   5.944  1.00 20.00     0.001 A 
HETATM    3  C3  UNL     1     -35.226   4.987   3.611  1.00 20.00     0.001 A 
HETATM    4  C4  UNL     1     -33.586   6.082   5.584  1.00 20.00     0.008 A 
HETATM    5  C5  UNL     1     -34.092   5.714   3.251  1.00 20.00     0.008 A 
HETATM    6  C6  UNL     1     -33.272   6.261   4.237  1.00 20.00    -0.049 A 
ENDROOT
BRANCH   6   7
HETATM    7  C7  UNL     1     -32.058   7.038   3.852  1.00 20.00     0.109 C 
BRANCH   7   8
HETATM    8  S8  UNL     1     -32.047   7.482   2.088  1.00 20.00    -0.178 SA
HETATM    9  H16 UNL     1     -30.876   8.132   2.116  1.00 20.00     0.101 HD
ENDBRANCH   7   8
ENDBRANCH   6   7
TORSDOF 2
