REMARK  0 active torsions:
REMARK  status: ('A' for Active; 'I' for Inactive)
ROOT
HETATM    1  C1  UNL     1     -32.819   7.354   2.583  1.00 20.00     0.016 C 
HETATM    2  C2  UNL     1     -31.646   8.048   1.932  1.00 20.00     0.081 C 
HETATM    3 BR3  UNL     1     -32.273   9.550   0.868  1.00 20.00    -0.097 Br
ENDROOT
TORSDOF 0
