REMARK  0 active torsions:
REMARK  status: ('A' for Active; 'I' for Inactive)
ROOT
HETATM    1  C1  UNL     1     -34.939   3.829   4.889  1.00 20.00    -0.030 C 
HETATM    2  C2  UNL     1     -34.921   4.798   3.964  1.00 20.00    -0.030 C 
HETATM    3  C3  UNL     1     -34.632   4.071   6.337  1.00 20.00     0.026 C 
HETATM    4  C4  UNL     1     -34.557   6.220   4.275  1.00 20.00     0.026 C 
HETATM    5  C5  UNL     1     -34.618   5.556   6.709  1.00 20.00     0.004 C 
HETATM    6  C6  UNL     1     -33.902   6.387   5.648  1.00 20.00     0.004 C 
ENDROOT
TORSDOF 0
