REMARK  3 active torsions:
REMARK  status: ('A' for Active; 'I' for Inactive)
REMARK    1  A    between atoms: C5_5  and  S7_7 
REMARK    2  A    between atoms: C6_6  and  S8_8 
REMARK    3  A    between atoms: S7_7  and  S8_8 
ROOT
HETATM    1  S7  UNL     1     -33.015   6.517   2.777  1.00 20.00    -0.093 SA
ENDROOT
BRANCH   1   2
HETATM    2  C5  UNL     1     -34.382   6.519   3.985  1.00 20.00     0.050 C 
HETATM    3  C1  UNL     1     -35.457   5.531   3.547  1.00 20.00     0.022 C 
HETATM    4  C2  UNL     1     -33.845   6.179   5.370  1.00 20.00     0.022 C 
ENDBRANCH   1   2
BRANCH   1   5
HETATM    5  S8  UNL     1     -32.118   8.319   3.181  1.00 20.00    -0.093 SA
BRANCH   5   6
HETATM    6  C6  UNL     1     -33.006   9.432   2.065  1.00 20.00     0.050 C 
HETATM    7  C3  UNL     1     -32.851  10.871   2.543  1.00 20.00     0.022 C 
HETATM    8  C4  UNL     1     -32.484   9.259   0.643  1.00 20.00     0.022 C 
ENDBRANCH   5   6
ENDBRANCH   1   5
TORSDOF 3
