REMARK  1 active torsions:
REMARK  status: ('A' for Active; 'I' for Inactive)
REMARK    1  A    between atoms: C6_6  and  C8_8 
ROOT
HETATM    1  C1  UNL     1     -34.577   4.339   6.370  1.00 20.00     0.000 A 
HETATM    2  C2  UNL     1     -34.692   3.925   5.043  1.00 20.00     0.001 A 
HETATM    3  C3  UNL     1     -34.354   5.684   6.664  1.00 20.00     0.001 A 
HETATM    4  C4  UNL     1     -34.582   4.856   4.010  1.00 20.00     0.007 A 
HETATM    5  C5  UNL     1     -34.244   6.615   5.631  1.00 20.00     0.007 A 
HETATM    6  C6  UNL     1     -34.359   6.201   4.304  1.00 20.00    -0.059 A 
ENDROOT
BRANCH   6   7
HETATM    7  C8  UNL     1     -34.241   7.197   3.200  1.00 20.00     0.034 C 
HETATM    8  C7  UNL     1     -32.802   7.364   2.719  1.00 20.00     0.010 C 
ENDBRANCH   6   7
TORSDOF 1
