REMARK  0 active torsions:
REMARK  status: ('A' for Active; 'I' for Inactive)
ROOT
HETATM    1  C1  UNL     1     -34.944   3.926   5.905  1.00 20.00     0.000 A 
HETATM    2  C2  UNL     1     -35.219   3.855   4.540  1.00 20.00     0.001 A 
HETATM    3  C3  UNL     1     -34.148   4.958   6.404  1.00 20.00     0.001 A 
HETATM    4  C4  UNL     1     -34.698   4.814   3.672  1.00 20.00     0.018 A 
HETATM    5  C5  UNL     1     -33.627   5.918   5.536  1.00 20.00     0.018 A 
HETATM    6  C6  UNL     1     -33.902   5.846   4.170  1.00 20.00     0.006 A 
HETATM    7  I7  UNL     1     -33.126   7.276   2.878  1.00 20.00    -0.045 I 
ENDROOT
TORSDOF 0
