REMARK  0 active torsions:
REMARK  status: ('A' for Active; 'I' for Inactive)
ROOT
HETATM    1  C1  UNL     1     -34.699   3.956   6.155  1.00 20.00     0.016 C 
HETATM    2  C2  UNL     1     -35.041   4.291   4.714  1.00 20.00     0.075 C 
HETATM    3  I3  UNL     1     -33.610   5.637   3.887  1.00 20.00    -0.090 I 
ENDROOT
TORSDOF 0
