REMARK  2 active torsions:
REMARK  status: ('A' for Active; 'I' for Inactive)
REMARK    1  A    between atoms: C6_6  and  C9_9 
REMARK    2  A    between atoms: C9_9  and  C10_10 
ROOT
HETATM    1  C1  UNL     1     -35.037   4.558   5.546  1.00 20.00     0.000 A 
HETATM    2  C2  UNL     1     -35.033   4.067   4.241  1.00 20.00     0.001 A 
HETATM    3  C3  UNL     1     -34.605   5.859   5.804  1.00 20.00     0.001 A 
HETATM    4  C4  UNL     1     -34.596   4.877   3.193  1.00 20.00     0.007 A 
HETATM    5  C5  UNL     1     -34.168   6.669   4.755  1.00 20.00     0.007 A 
HETATM    6  C6  UNL     1     -34.164   6.178   3.450  1.00 20.00    -0.058 A 
ENDROOT
BRANCH   6   7
HETATM    7  C9  UNL     1     -33.690   7.054   2.316  1.00 20.00     0.042 C 
BRANCH   7   8
HETATM    8  C10 UNL     1     -32.621   8.085   2.729  1.00 20.00    -0.019 C 
HETATM    9  C7  UNL     1     -31.365   7.415   3.290  1.00 20.00     0.010 C 
HETATM   10  C8  UNL     1     -32.248   8.955   1.526  1.00 20.00     0.010 C 
ENDBRANCH   7   8
ENDBRANCH   6   7
TORSDOF 2
