REMARK  0 active torsions:
REMARK  status: ('A' for Active; 'I' for Inactive)
ROOT
HETATM    1  C1  UNL     1     -34.480   5.080   2.922  1.00 20.00     0.001 A 
HETATM    2  C2  UNL     1     -34.868   4.874   4.246  1.00 20.00     0.007 A 
HETATM    3  C3  UNL     1     -33.494   6.020   2.622  1.00 20.00     0.007 A 
HETATM    4  C4  UNL     1     -33.284   6.548   4.970  1.00 20.00     0.013 A 
HETATM    5  C5  UNL     1     -34.270   5.608   5.270  1.00 20.00    -0.061 A 
HETATM    6  C6  UNL     1     -32.896   6.754   3.647  1.00 20.00    -0.061 A 
HETATM    7  C7  UNL     1     -34.684   5.386   6.686  1.00 20.00     0.048 C 
HETATM    8  C8  UNL     1     -31.842   7.760   3.326  1.00 20.00     0.048 C 
ENDROOT
TORSDOF 0
