REMARK  0 active torsions:
REMARK  status: ('A' for Active; 'I' for Inactive)
ROOT
HETATM    1  C1  UNL     1     -35.112   4.727   5.604  1.00 20.00     0.000 C 
HETATM    2  C2  UNL     1     -35.709   4.975   4.222  1.00 20.00     0.000 C 
HETATM    3  C3  UNL     1     -34.451   5.983   6.162  1.00 20.00     0.000 C 
HETATM    4  C4  UNL     1     -34.673   5.539   3.253  1.00 20.00     0.004 C 
HETATM    5  C5  UNL     1     -33.412   6.550   5.196  1.00 20.00     0.004 C 
HETATM    6  C6  UNL     1     -34.011   6.808   3.807  1.00 20.00    -0.018 C 
HETATM    7  C7  UNL     1     -32.942   7.323   2.846  1.00 20.00     0.010 C 
ENDROOT
TORSDOF 0
