REMARK  3 active torsions:
REMARK  status: ('A' for Active; 'I' for Inactive)
REMARK    1  A    between atoms: C6_6  and  C8_8 
REMARK    2  A    between atoms: C8_8  and  C10_10 
REMARK    3  A    between atoms: C9_9  and  C10_10 
ROOT
HETATM    1  C1  UNL     1     -35.108   5.206   6.492  1.00 20.00     0.000 A 
HETATM    2  C2  UNL     1     -34.234   6.252   6.790  1.00 20.00     0.001 A 
HETATM    3  C3  UNL     1     -35.058   4.591   5.241  1.00 20.00     0.001 A 
HETATM    4  C4  UNL     1     -33.311   6.682   5.837  1.00 20.00     0.007 A 
HETATM    5  C5  UNL     1     -34.135   5.022   4.288  1.00 20.00     0.007 A 
HETATM    6  C6  UNL     1     -33.261   6.067   4.586  1.00 20.00    -0.058 A 
ENDROOT
BRANCH   6   7
HETATM    7  C8  UNL     1     -32.264   6.532   3.555  1.00 20.00     0.038 C 
BRANCH   7   8
HETATM    8  C10 UNL     1     -32.843   7.642   2.674  1.00 20.00     0.004 C 
BRANCH   8   9
HETATM    9  C9  UNL     1     -31.840   8.085   1.608  1.00 20.00    -0.004 C 
HETATM   10  C7  UNL     1     -32.425   9.159   0.705  1.00 20.00     0.005 C 
ENDBRANCH   8   9
ENDBRANCH   7   8
ENDBRANCH   6   7
TORSDOF 3
