REMARK  5 active torsions:
REMARK  status: ('A' for Active; 'I' for Inactive)
REMARK    1  A    between atoms: C6_6  and  C8_8 
REMARK    2  A    between atoms: C8_8  and  C10_10 
REMARK    3  A    between atoms: C9_9  and  C11_11 
REMARK    4  A    between atoms: C10_10  and  C12_12 
REMARK    5  A    between atoms: C11_11  and  C12_12 
ROOT
HETATM    1  C1  UNL     1     -34.427   4.881   7.062  1.00 20.00     0.000 A 
HETATM    2  C2  UNL     1     -34.891   3.964   6.119  1.00 20.00     0.001 A 
HETATM    3  C3  UNL     1     -34.002   6.146   6.655  1.00 20.00     0.001 A 
HETATM    4  C4  UNL     1     -34.929   4.311   4.769  1.00 20.00     0.007 A 
HETATM    5  C5  UNL     1     -34.041   6.493   5.305  1.00 20.00     0.007 A 
HETATM    6  C6  UNL     1     -34.504   5.575   4.361  1.00 20.00    -0.058 A 
ENDROOT
BRANCH   6   7
HETATM    7  C8  UNL     1     -34.545   5.949   2.912  1.00 20.00     0.038 C 
BRANCH   7   8
HETATM    8  C10 UNL     1     -33.239   5.593   2.198  1.00 20.00     0.005 C 
BRANCH   8   9
HETATM    9  C12 UNL     1     -32.054   6.349   2.801  1.00 20.00     0.000 C 
BRANCH   9  10
HETATM   10  C11 UNL     1     -32.229   7.862   2.659  1.00 20.00    -0.000 C 
BRANCH  10  11
HETATM   11  C9  UNL     1     -32.373   8.270   1.193  1.00 20.00    -0.005 C 
HETATM   12  C7  UNL     1     -32.581   9.769   1.050  1.00 20.00     0.005 C 
ENDBRANCH  10  11
ENDBRANCH   9  10
ENDBRANCH   8   9
ENDBRANCH   7   8
ENDBRANCH   6   7
TORSDOF 5
