REMARK  2 active torsions:
REMARK  status: ('A' for Active; 'I' for Inactive)
REMARK    1  A    between atoms: C6_6  and  C8_8 
REMARK    2  A    between atoms: C8_8  and  C9_9 
ROOT
HETATM    1  C1  UNL     1     -34.674   4.178   6.347  1.00 20.00     0.000 A 
HETATM    2  C2  UNL     1     -34.848   3.864   5.000  1.00 20.00     0.001 A 
HETATM    3  C3  UNL     1     -34.208   5.440   6.714  1.00 20.00     0.001 A 
HETATM    4  C4  UNL     1     -34.557   4.812   4.019  1.00 20.00     0.007 A 
HETATM    5  C5  UNL     1     -33.916   6.388   5.734  1.00 20.00     0.007 A 
HETATM    6  C6  UNL     1     -34.090   6.074   4.386  1.00 20.00    -0.058 A 
ENDROOT
BRANCH   6   7
HETATM    7  C8  UNL     1     -33.778   7.088   3.338  1.00 20.00     0.038 C 
BRANCH   7   8
HETATM    8  C9  UNL     1     -32.317   7.004   2.870  1.00 20.00     0.000 C 
HETATM    9  C7  UNL     1     -32.010   8.015   1.777  1.00 20.00     0.005 C 
ENDBRANCH   7   8
ENDBRANCH   6   7
TORSDOF 2
