REMARK  0 active torsions:
REMARK  status: ('A' for Active; 'I' for Inactive)
ROOT
HETATM    1  C1  UNL     1     -34.988   4.610   6.234  1.00 20.00     0.001 A 
HETATM    2  C2  UNL     1     -34.174   5.609   6.769  1.00 20.00     0.001 A 
HETATM    3  C3  UNL     1     -35.060   4.434   4.853  1.00 20.00     0.007 A 
HETATM    4  C4  UNL     1     -33.432   6.432   5.922  1.00 20.00     0.007 A 
HETATM    5  C5  UNL     1     -34.318   5.257   4.005  1.00 20.00    -0.056 A 
HETATM    6  C6  UNL     1     -33.504   6.256   4.540  1.00 20.00    -0.056 A 
HETATM    7  C7  UNL     1     -34.410   5.050   2.529  1.00 20.00     0.049 C 
HETATM    8  C8  UNL     1     -32.701   7.150   3.653  1.00 20.00     0.049 C 
ENDROOT
TORSDOF 0
