REMARK  1 active torsions:
REMARK  status: ('A' for Active; 'I' for Inactive)
REMARK    1  A    between atoms: C6_6  and  N9_9 
ROOT
HETATM    1  N8  UNL     1     -32.775   9.818   2.173  1.00 20.00     0.068 N 
HETATM    2  N9  UNL     1     -32.542   7.439   2.105  1.00 20.00    -0.073 NA
HETATM    3  N10 UNL     1     -32.666   8.682   2.144  1.00 20.00    -0.162 NA
ENDROOT
BRANCH   2   4
HETATM    4  C6  UNL     1     -33.243   6.792   3.128  1.00 20.00     0.093 A 
HETATM    5  C3  UNL     1     -33.745   5.507   2.924  1.00 20.00     0.035 A 
HETATM    6  C1  UNL     1     -34.443   4.861   3.945  1.00 20.00     0.009 A 
HETATM    7  C5  UNL     1     -34.639   5.500   5.169  1.00 20.00    -0.062 A 
HETATM    8  C2  UNL     1     -34.136   6.785   5.373  1.00 20.00     0.009 A 
HETATM    9  C7  UNL     1     -35.386   4.810   6.260  1.00 20.00     0.048 C 
HETATM   10  C4  UNL     1     -33.438   7.431   4.352  1.00 20.00     0.035 A 
ENDBRANCH   2   4
TORSDOF 1
