REMARK  0 active torsions:
REMARK  status: ('A' for Active; 'I' for Inactive)
ROOT
HETATM    1  C1  UNL     1     -33.905   5.823   2.880  1.00 20.00     0.007 A 
HETATM    2  C2  UNL     1     -34.550   4.953   3.760  1.00 20.00     0.007 A 
HETATM    3  C3  UNL     1     -33.175   7.171   4.747  1.00 20.00     0.007 A 
HETATM    4  C4  UNL     1     -33.820   6.302   5.627  1.00 20.00     0.007 A 
HETATM    5  C5  UNL     1     -33.218   6.931   3.374  1.00 20.00    -0.062 A 
HETATM    6  C6  UNL     1     -34.507   5.193   5.134  1.00 20.00    -0.062 A 
HETATM    7  C7  UNL     1     -32.528   7.861   2.434  1.00 20.00     0.048 C 
HETATM    8  C8  UNL     1     -35.199   4.264   6.074  1.00 20.00     0.048 C 
ENDROOT
TORSDOF 0
