REMARK  0 active torsions:
REMARK  status: ('A' for Active; 'I' for Inactive)
ROOT
HETATM    1  C1  UNL     1     -31.962   7.416   2.560  1.00 20.00     0.018 C 
HETATM    2  C2  UNL     1     -32.661   6.954   3.421  1.00 20.00    -0.078 C 
HETATM    3  C3  UNL     1     -35.116   5.330   6.443  1.00 20.00     0.000 A 
HETATM    4  C4  UNL     1     -34.145   6.278   6.767  1.00 20.00     0.001 A 
HETATM    5  C5  UNL     1     -35.276   4.919   5.120  1.00 20.00     0.001 A 
HETATM    6  C6  UNL     1     -33.334   6.814   5.768  1.00 20.00     0.020 A 
HETATM    7  C7  UNL     1     -34.464   5.456   4.120  1.00 20.00     0.020 A 
HETATM    8  C8  UNL     1     -33.493   6.404   4.444  1.00 20.00     0.016 A 
ENDROOT
TORSDOF 0
