REMARK  2 active torsions:
REMARK  status: ('A' for Active; 'I' for Inactive)
REMARK    1  A    between atoms: C6_6  and  C10_10 
REMARK    2  A    between atoms: C9_9  and  C10_10 
ROOT
HETATM    1  C1  UNL     1     -35.020   5.588   5.945  1.00 20.00     0.000 A 
HETATM    2  C2  UNL     1     -33.906   6.377   6.231  1.00 20.00     0.001 A 
HETATM    3  C3  UNL     1     -35.229   5.122   4.647  1.00 20.00     0.001 A 
HETATM    4  C4  UNL     1     -33.002   6.700   5.220  1.00 20.00     0.007 A 
HETATM    5  C5  UNL     1     -34.325   5.445   3.636  1.00 20.00     0.007 A 
HETATM    6  C6  UNL     1     -33.211   6.234   3.922  1.00 20.00    -0.054 A 
ENDROOT
BRANCH   6   7
HETATM    7  C10 UNL     1     -32.227   6.585   2.820  1.00 20.00     0.014 C 
HETATM    8  C8  UNL     1     -32.181   5.472   1.766  1.00 20.00     0.015 C 
BRANCH   7   9
HETATM    9  C9  UNL     1     -32.524   7.943   2.152  1.00 20.00     0.004 C 
HETATM   10  C7  UNL     1     -31.533   8.297   1.049  1.00 20.00     0.006 C 
ENDBRANCH   7   9
ENDBRANCH   6   7
TORSDOF 2
