REMARK  1 active torsions:
REMARK  status: ('A' for Active; 'I' for Inactive)
REMARK    1  A    between atoms: C6_6  and  C8_8 
ROOT
HETATM    1  C1  UNL     1     -35.368   4.695   5.659  1.00 20.00     0.000 A 
HETATM    2  C2  UNL     1     -35.344   4.319   4.316  1.00 20.00     0.001 A 
HETATM    3  C3  UNL     1     -34.578   5.756   6.101  1.00 20.00     0.001 A 
HETATM    4  C4  UNL     1     -34.530   5.006   3.414  1.00 20.00     0.011 A 
HETATM    5  C5  UNL     1     -33.764   6.442   5.200  1.00 20.00     0.011 A 
HETATM    6  C6  UNL     1     -33.740   6.067   3.856  1.00 20.00    -0.037 A 
ENDROOT
BRANCH   6   7
HETATM    7  C8  UNL     1     -32.891   6.783   2.917  1.00 20.00     0.001 C 
HETATM    8  C7  UNL     1     -31.731   7.334   3.245  1.00 20.00     0.012 C 
ENDBRANCH   6   7
TORSDOF 1
