REMARK  1 active torsions:
REMARK  status: ('A' for Active; 'I' for Inactive)
REMARK    1  A    between atoms: C4_4  and  S6_6 
ROOT
HETATM    1  C1  UNL     1     -35.327   4.534   6.218  1.00 20.00     0.009 A 
HETATM    2  C2  UNL     1     -35.144   4.225   4.839  1.00 20.00     0.026 A 
HETATM    3  C3  UNL     1     -34.826   5.776   6.541  1.00 20.00     0.051 A 
HETATM    4  C4  UNL     1     -34.510   5.242   4.161  1.00 20.00     0.038 A 
HETATM    5  S5  UNL     1     -34.139   6.564   5.185  1.00 20.00    -0.095 SA
ENDROOT
BRANCH   4   6
HETATM    6  S6  UNL     1     -34.105   5.248   2.454  1.00 20.00    -0.136 SA
HETATM    7  H10 UNL     1     -33.526   6.461   2.391  1.00 20.00     0.107 HD
ENDBRANCH   4   6
TORSDOF 1
