REMARK  1 active torsions:
REMARK  status: ('A' for Active; 'I' for Inactive)
REMARK    1  A    between atoms: C6_6  and  S8_8 
ROOT
HETATM    1  C1  UNL     1     -35.515   4.895   4.836  1.00 20.00     0.000 A 
HETATM    2  C2  UNL     1     -35.082   5.057   3.520  1.00 20.00     0.001 A 
HETATM    3  C3  UNL     1     -34.803   5.483   5.882  1.00 20.00     0.001 A 
HETATM    4  C4  UNL     1     -33.938   5.808   3.250  1.00 20.00     0.018 A 
HETATM    5  C5  UNL     1     -33.659   6.234   5.611  1.00 20.00     0.018 A 
HETATM    6  C6  UNL     1     -33.226   6.396   4.295  1.00 20.00    -0.000 A 
ENDROOT
BRANCH   6   7
HETATM    7  S8  UNL     1     -31.764   7.354   3.949  1.00 20.00    -0.134 SA
HETATM    8  C7  UNL     1     -32.194   7.979   2.310  1.00 20.00     0.095 C 
ENDBRANCH   6   7
TORSDOF 1
