REMARK  0 active torsions:
REMARK  status: ('A' for Active; 'I' for Inactive)
ROOT
HETATM    1  C1  UNL     1     -34.703   5.639   6.537  1.00 20.00     0.000 A 
HETATM    2  C2  UNL     1     -33.852   6.545   5.904  1.00 20.00     0.001 A 
HETATM    3  C3  UNL     1     -35.297   4.611   5.806  1.00 20.00     0.001 A 
HETATM    4  C4  UNL     1     -33.595   6.422   4.538  1.00 20.00     0.007 A 
HETATM    5  C5  UNL     1     -35.041   4.489   4.440  1.00 20.00     0.007 A 
HETATM    6  C6  UNL     1     -34.189   5.394   3.806  1.00 20.00    -0.062 A 
HETATM    7  C7  UNL     1     -33.916   5.262   2.346  1.00 20.00     0.048 C 
ENDROOT
TORSDOF 0
