@<TRIPOS>MOLECULE
butylbenzene_1.pdb
   21    21     0     0     0
SMALL
NO_CHARGES

@<TRIPOS>ATOM
      1 C1        -40.5790   19.9630   12.3790 C.ar      1 <0>         0.0000
      2 C2        -41.1410   19.4740   11.2060 C.ar      1 <0>         0.0000
      3 C3        -42.5230   19.4100   11.0690 C.ar      1 <0>         0.0000
      4 C4        -43.3490   19.8390   12.0970 C.ar      1 <0>         0.0000
      5 C5        -42.7880   20.3280   13.2720 C.ar      1 <0>         0.0000
      6 C6        -41.4010   20.3940   13.4090 C.ar      1 <0>         0.0000
      7 C7        -39.0570   20.0330   12.5260 C.3       1 <0>         0.0000
      8 O1        -38.4730   18.7000   12.9950 O.3       1 <0>         0.0000
      9 C8        -39.0030   18.2620   14.3630 C.2       1 <0>         0.0000
     10 C9        -38.6610   19.2680   15.4690 C.3       1 <0>         0.0000
     11 H1        -40.5033   19.1432   10.3996 H         1 <0>         0.0000
     12 H2        -42.9554   19.0243   10.1576 H         1 <0>         0.0000
     13 H3        -44.4223   19.7936   11.9858 H         1 <0>         0.0000
     14 H4        -43.4263   20.6568   14.0788 H         1 <0>         0.0000
     15 H5        -40.9670   20.7815   14.3189 H         1 <0>         0.0000
     16 H6        -38.6203   20.2899   11.5609 H         1 <0>         0.0000
     17 H7        -38.8038   20.8077   13.2497 H         1 <0>         0.0000
     18 H8        -39.0583   18.9125   16.4197 H         1 <0>         0.0000
     19 H9        -39.1032   20.2351   15.2296 H         1 <0>         0.0000
     20 H10       -37.5785   19.3719   15.5436 H         1 <0>         0.0000
     21 O2        -39.6359   17.2146   14.5547 O.2       1 <0>         0.0000
@<TRIPOS>BOND
     1    1    2 ar
     2    1    6 ar
     3    1    7 1
     4    2    3 ar
     5    3    4 ar
     6    4    5 ar
     7    5    6 ar
     8    7    8 1
     9    8    9 1
    10    9   10 1
    11    2   11 1
    12    3   12 1
    13    4   13 1
    14    5   14 1
    15    6   15 1
    16    7   16 1
    17    7   17 1
    18   10   18 1
    19   10   19 1
    20   10   20 1
    21    9   21 2
