MODEL 1
REMARK VINA RESULT:      -6.2      0.000      0.000
REMARK  0 active torsions:
REMARK  status: ('A' for Active; 'I' for Inactive)
ROOT
HETATM    1  C1  UNL     1     -34.917   5.461   4.603  1.00 20.00     0.001 A 
HETATM    2  C2  UNL     1     -34.548   6.113   5.784  1.00 20.00     0.003 A 
HETATM    3  C3  UNL     1     -34.314   5.785   3.378  1.00 20.00     0.016 A 
HETATM    4  C4  UNL     1     -33.567   7.111   5.789  1.00 20.00     0.040 A 
HETATM    5  C5  UNL     1     -32.497   7.407   2.419  1.00 20.00     0.161 A 
HETATM    6  C6  UNL     1     -33.329   6.783   3.367  1.00 20.00     0.019 A 
HETATM    7  C7  UNL     1     -32.991   7.406   4.556  1.00 20.00     0.113 A 
HETATM    8  N8  UNL     1     -31.709   8.338   2.966  1.00 20.00    -0.140 NA
HETATM    9  O9  UNL     1     -32.025   8.335   4.320  1.00 20.00    -0.213 OA
ENDROOT
TORSDOF 0
ENDMDL
MODEL 2
REMARK VINA RESULT:      -6.0      0.973      1.933
REMARK  0 active torsions:
REMARK  status: ('A' for Active; 'I' for Inactive)
ROOT
HETATM    1  C1  UNL     1     -34.459   6.225   5.791  1.00 20.00     0.001 A 
HETATM    2  C2  UNL     1     -34.872   5.534   4.647  1.00 20.00     0.003 A 
HETATM    3  C3  UNL     1     -33.477   7.223   5.720  1.00 20.00     0.016 A 
HETATM    4  C4  UNL     1     -34.321   5.811   3.391  1.00 20.00     0.040 A 
HETATM    5  C5  UNL     1     -31.945   8.388   3.944  1.00 20.00     0.161 A 
HETATM    6  C6  UNL     1     -32.915   7.512   4.468  1.00 20.00     0.019 A 
HETATM    7  C7  UNL     1     -33.348   6.807   3.358  1.00 20.00     0.113 A 
HETATM    8  N8  UNL     1     -31.787   8.244   2.625  1.00 20.00    -0.140 NA
HETATM    9  O9  UNL     1     -32.677   7.241   2.257  1.00 20.00    -0.213 OA
ENDROOT
TORSDOF 0
ENDMDL
MODEL 3
REMARK VINA RESULT:      -5.3      2.467      3.632
REMARK  0 active torsions:
REMARK  status: ('A' for Active; 'I' for Inactive)
ROOT
HETATM    1  C1  UNL     1     -32.770   8.202   4.790  1.00 20.00     0.001 A 
HETATM    2  C2  UNL     1     -32.421   7.830   3.488  1.00 20.00     0.003 A 
HETATM    3  C3  UNL     1     -33.530   7.353   5.607  1.00 20.00     0.016 A 
HETATM    4  C4  UNL     1     -32.816   6.600   2.952  1.00 20.00     0.040 A 
HETATM    5  C5  UNL     1     -34.673   4.999   5.517  1.00 20.00     0.161 A 
HETATM    6  C6  UNL     1     -33.934   6.117   5.084  1.00 20.00     0.019 A 
HETATM    7  C7  UNL     1     -33.569   5.783   3.791  1.00 20.00     0.113 A 
HETATM    8  N8  UNL     1     -34.762   4.052   4.579  1.00 20.00    -0.140 NA
HETATM    9  O9  UNL     1     -34.063   4.551   3.487  1.00 20.00    -0.213 OA
ENDROOT
TORSDOF 0
ENDMDL
MODEL 4
REMARK VINA RESULT:      -5.2      2.340      3.211
REMARK  0 active torsions:
REMARK  status: ('A' for Active; 'I' for Inactive)
ROOT
HETATM    1  C1  UNL     1     -32.810   6.951   2.304  1.00 20.00     0.001 A 
HETATM    2  C2  UNL     1     -32.579   7.902   3.303  1.00 20.00     0.003 A 
HETATM    3  C3  UNL     1     -33.511   5.767   2.579  1.00 20.00     0.016 A 
HETATM    4  C4  UNL     1     -33.037   7.710   4.611  1.00 20.00     0.040 A 
HETATM    5  C5  UNL     1     -34.689   4.570   4.587  1.00 20.00     0.161 A 
HETATM    6  C6  UNL     1     -33.976   5.561   3.885  1.00 20.00     0.019 A 
HETATM    7  C7  UNL     1     -33.728   6.525   4.847  1.00 20.00     0.113 A 
HETATM    8  N8  UNL     1     -34.871   4.886   5.873  1.00 20.00    -0.140 NA
HETATM    9  O9  UNL     1     -34.261   6.125   6.034  1.00 20.00    -0.213 OA
ENDROOT
TORSDOF 0
ENDMDL
MODEL 5
REMARK VINA RESULT:      -5.0      2.473      3.195
REMARK  0 active torsions:
REMARK  status: ('A' for Active; 'I' for Inactive)
ROOT
HETATM    1  C1  UNL     1     -32.376   7.750   3.392  1.00 20.00     0.001 A 
HETATM    2  C2  UNL     1     -32.669   8.206   4.681  1.00 20.00     0.003 A 
HETATM    3  C3  UNL     1     -32.858   6.515   2.934  1.00 20.00     0.016 A 
HETATM    4  C4  UNL     1     -33.451   7.450   5.561  1.00 20.00     0.040 A 
HETATM    5  C5  UNL     1     -34.308   4.505   3.777  1.00 20.00     0.161 A 
HETATM    6  C6  UNL     1     -33.643   5.746   3.804  1.00 20.00     0.019 A 
HETATM    7  C7  UNL     1     -33.911   6.230   5.072  1.00 20.00     0.113 A 
HETATM    8  N8  UNL     1     -34.935   4.238   4.926  1.00 20.00    -0.140 NA
HETATM    9  O9  UNL     1     -34.682   5.332   5.744  1.00 20.00    -0.213 OA
ENDROOT
TORSDOF 0
ENDMDL
MODEL 6
REMARK VINA RESULT:      -4.9      2.280      3.589
REMARK  0 active torsions:
REMARK  status: ('A' for Active; 'I' for Inactive)
ROOT
HETATM    1  C1  UNL     1     -32.191   7.902   2.799  1.00 20.00     0.001 A 
HETATM    2  C2  UNL     1     -32.843   6.923   2.041  1.00 20.00     0.003 A 
HETATM    3  C3  UNL     1     -32.445   8.044   4.170  1.00 20.00     0.016 A 
HETATM    4  C4  UNL     1     -33.770   6.052   2.621  1.00 20.00     0.040 A 
HETATM    5  C5  UNL     1     -33.918   6.964   6.047  1.00 20.00     0.161 A 
HETATM    6  C6  UNL     1     -33.373   7.178   4.766  1.00 20.00     0.019 A 
HETATM    7  C7  UNL     1     -33.998   6.222   3.984  1.00 20.00     0.113 A 
HETATM    8  N8  UNL     1     -34.805   5.965   6.063  1.00 20.00    -0.140 NA
HETATM    9  O9  UNL     1     -34.853   5.497   4.755  1.00 20.00    -0.213 OA
ENDROOT
TORSDOF 0
ENDMDL
MODEL 7
REMARK VINA RESULT:      -4.7     11.537     12.555
REMARK  0 active torsions:
REMARK  status: ('A' for Active; 'I' for Inactive)
ROOT
HETATM    1  C1  UNL     1     -33.304  16.357  -4.957  1.00 20.00     0.001 A 
HETATM    2  C2  UNL     1     -33.956  15.875  -3.817  1.00 20.00     0.003 A 
HETATM    3  C3  UNL     1     -33.386  15.677  -6.180  1.00 20.00     0.016 A 
HETATM    4  C4  UNL     1     -34.711  14.698  -3.854  1.00 20.00     0.040 A 
HETATM    5  C5  UNL     1     -34.483  13.527  -7.195  1.00 20.00     0.161 A 
HETATM    6  C6  UNL     1     -34.139  14.495  -6.233  1.00 20.00     0.019 A 
HETATM    7  C7  UNL     1     -34.769  14.049  -5.084  1.00 20.00     0.113 A 
HETATM    8  N8  UNL     1     -35.258  12.561  -6.693  1.00 20.00    -0.140 NA
HETATM    9  O9  UNL     1     -35.438  12.895  -5.355  1.00 20.00    -0.213 OA
ENDROOT
TORSDOF 0
ENDMDL
MODEL 8
REMARK VINA RESULT:      -4.6      1.314      2.380
REMARK  0 active torsions:
REMARK  status: ('A' for Active; 'I' for Inactive)
ROOT
HETATM    1  C1  UNL     1     -34.677   4.245   4.574  1.00 20.00     0.001 A 
HETATM    2  C2  UNL     1     -34.049   4.390   3.332  1.00 20.00     0.003 A 
HETATM    3  C3  UNL     1     -34.585   5.244   5.553  1.00 20.00     0.016 A 
HETATM    4  C4  UNL     1     -33.307   5.535   3.021  1.00 20.00     0.040 A 
HETATM    5  C5  UNL     1     -33.494   7.599   5.901  1.00 20.00     0.161 A 
HETATM    6  C6  UNL     1     -33.844   6.397   5.256  1.00 20.00     0.019 A 
HETATM    7  C7  UNL     1     -33.237   6.505   4.017  1.00 20.00     0.113 A 
HETATM    8  N8  UNL     1     -32.736   8.388   5.133  1.00 20.00    -0.140 NA
HETATM    9  O9  UNL     1     -32.575   7.692   3.941  1.00 20.00    -0.213 OA
ENDROOT
TORSDOF 0
ENDMDL
MODEL 9
REMARK VINA RESULT:      -4.6      2.231      2.688
REMARK  0 active torsions:
REMARK  status: ('A' for Active; 'I' for Inactive)
ROOT
HETATM    1  C1  UNL     1     -33.775   7.530   5.743  1.00 20.00     0.001 A 
HETATM    2  C2  UNL     1     -34.475   6.431   6.252  1.00 20.00     0.003 A 
HETATM    3  C3  UNL     1     -33.170   7.481   4.479  1.00 20.00     0.016 A 
HETATM    4  C4  UNL     1     -34.598   5.245   5.521  1.00 20.00     0.040 A 
HETATM    5  C5  UNL     1     -32.859   5.816   2.481  1.00 20.00     0.161 A 
HETATM    6  C6  UNL     1     -33.284   6.298   3.735  1.00 20.00     0.019 A 
HETATM    7  C7  UNL     1     -33.985   5.231   4.272  1.00 20.00     0.113 A 
HETATM    8  N8  UNL     1     -33.259   4.561   2.256  1.00 20.00    -0.140 NA
HETATM    9  O9  UNL     1     -33.971   4.193   3.391  1.00 20.00    -0.213 OA
ENDROOT
TORSDOF 0
ENDMDL
