MODEL 1
REMARK VINA RESULT:      -4.1      0.000      0.000
REMARK  2 active torsions:
REMARK  status: ('A' for Active; 'I' for Inactive)
REMARK    1  A    between atoms: C5_5  and  S7_7 
REMARK    2  A    between atoms: C6_6  and  S8_8 
ROOT
HETATM    1  C1  UNL     1     -34.367   6.533   6.033  1.00 20.00     0.001 A 
HETATM    2  C2  UNL     1     -34.693   5.209   5.738  1.00 20.00     0.001 A 
HETATM    3  C3  UNL     1     -33.672   7.305   5.101  1.00 20.00     0.019 A 
HETATM    4  C4  UNL     1     -34.324   4.656   4.512  1.00 20.00     0.019 A 
HETATM    5  C5  UNL     1     -33.304   6.752   3.874  1.00 20.00     0.014 A 
HETATM    6  C6  UNL     1     -33.629   5.428   3.579  1.00 20.00     0.014 A 
ENDROOT
BRANCH   5   7
HETATM    7  S7  UNL     1     -32.413   7.821   2.743  1.00 20.00    -0.142 SA
HETATM    8  H13 UNL     1     -33.275   8.847   2.781  1.00 20.00     0.107 HD
ENDBRANCH   5   7
BRANCH   6   9
HETATM    9  S8  UNL     1     -33.200   4.630   2.032  1.00 20.00    -0.142 SA
HETATM   10  H14 UNL     1     -33.748   5.546   1.222  1.00 20.00     0.107 HD
ENDBRANCH   6   9
TORSDOF 2
ENDMDL
MODEL 2
REMARK VINA RESULT:      -4.1      0.010      2.397
REMARK  2 active torsions:
REMARK  status: ('A' for Active; 'I' for Inactive)
REMARK    1  A    between atoms: C5_5  and  S7_7 
REMARK    2  A    between atoms: C6_6  and  S8_8 
ROOT
HETATM    1  C1  UNL     1     -34.694   5.219   5.743  1.00 20.00     0.001 A 
HETATM    2  C2  UNL     1     -34.372   6.545   6.033  1.00 20.00     0.001 A 
HETATM    3  C3  UNL     1     -34.322   4.661   4.519  1.00 20.00     0.019 A 
HETATM    4  C4  UNL     1     -33.677   7.313   5.099  1.00 20.00     0.019 A 
HETATM    5  C5  UNL     1     -33.626   5.430   3.586  1.00 20.00     0.014 A 
HETATM    6  C6  UNL     1     -33.303   6.756   3.875  1.00 20.00     0.014 A 
ENDROOT
BRANCH   5   7
HETATM    7  S7  UNL     1     -33.191   4.626   2.043  1.00 20.00    -0.142 SA
HETATM    8  H13 UNL     1     -32.473   3.630   2.579  1.00 20.00     0.107 HD
ENDBRANCH   5   7
BRANCH   6   9
HETATM    9  S8  UNL     1     -32.413   7.822   2.742  1.00 20.00    -0.142 SA
HETATM   10  H14 UNL     1     -32.545   8.953   3.449  1.00 20.00     0.107 HD
ENDBRANCH   6   9
TORSDOF 2
ENDMDL
MODEL 3
REMARK VINA RESULT:      -3.6      1.370      2.619
REMARK  2 active torsions:
REMARK  status: ('A' for Active; 'I' for Inactive)
REMARK    1  A    between atoms: C5_5  and  S7_7 
REMARK    2  A    between atoms: C6_6  and  S8_8 
ROOT
HETATM    1  C1  UNL     1     -34.079   4.215   3.460  1.00 20.00     0.001 A 
HETATM    2  C2  UNL     1     -34.565   4.283   4.766  1.00 20.00     0.001 A 
HETATM    3  C3  UNL     1     -33.426   5.314   2.900  1.00 20.00     0.019 A 
HETATM    4  C4  UNL     1     -34.397   5.449   5.513  1.00 20.00     0.019 A 
HETATM    5  C5  UNL     1     -33.257   6.480   3.648  1.00 20.00     0.014 A 
HETATM    6  C6  UNL     1     -33.743   6.548   4.954  1.00 20.00     0.014 A 
ENDROOT
BRANCH   5   7
HETATM    7  S7  UNL     1     -32.405   7.837   2.843  1.00 20.00    -0.142 SA
HETATM    8  H13 UNL     1     -32.802   8.798   3.688  1.00 20.00     0.107 HD
ENDBRANCH   5   7
BRANCH   6   9
HETATM    9  S8  UNL     1     -33.576   8.000   5.992  1.00 20.00    -0.142 SA
HETATM   10  H14 UNL     1     -32.913   7.405   6.993  1.00 20.00     0.107 HD
ENDBRANCH   6   9
TORSDOF 2
ENDMDL
MODEL 4
REMARK VINA RESULT:      -3.6      1.359      2.418
REMARK  2 active torsions:
REMARK  status: ('A' for Active; 'I' for Inactive)
REMARK    1  A    between atoms: C5_5  and  S7_7 
REMARK    2  A    between atoms: C6_6  and  S8_8 
ROOT
HETATM    1  C1  UNL     1     -34.546   4.289   4.793  1.00 20.00     0.001 A 
HETATM    2  C2  UNL     1     -34.083   4.213   3.479  1.00 20.00     0.001 A 
HETATM    3  C3  UNL     1     -34.372   5.463   5.527  1.00 20.00     0.019 A 
HETATM    4  C4  UNL     1     -33.448   5.310   2.898  1.00 20.00     0.019 A 
HETATM    5  C5  UNL     1     -33.737   6.561   4.946  1.00 20.00     0.014 A 
HETATM    6  C6  UNL     1     -33.275   6.485   3.632  1.00 20.00     0.014 A 
ENDROOT
BRANCH   5   7
HETATM    7  S7  UNL     1     -33.561   8.024   5.968  1.00 20.00    -0.142 SA
HETATM    8  H13 UNL     1     -33.497   7.388   7.146  1.00 20.00     0.107 HD
ENDBRANCH   5   7
BRANCH   6   9
HETATM    9  S8  UNL     1     -32.447   7.841   2.800  1.00 20.00    -0.142 SA
HETATM   10  H14 UNL     1     -31.460   7.115   2.257  1.00 20.00     0.107 HD
ENDBRANCH   6   9
TORSDOF 2
ENDMDL
MODEL 5
REMARK VINA RESULT:      -3.4     12.592     13.128
REMARK  2 active torsions:
REMARK  status: ('A' for Active; 'I' for Inactive)
REMARK    1  A    between atoms: C5_5  and  S7_7 
REMARK    2  A    between atoms: C6_6  and  S8_8 
ROOT
HETATM    1  C1  UNL     1     -34.913  16.601  -2.171  1.00 20.00     0.001 A 
HETATM    2  C2  UNL     1     -33.610  17.012  -2.450  1.00 20.00     0.001 A 
HETATM    3  C3  UNL     1     -35.530  16.994  -0.983  1.00 20.00     0.019 A 
HETATM    4  C4  UNL     1     -32.923  17.817  -1.541  1.00 20.00     0.019 A 
HETATM    5  C5  UNL     1     -34.844  17.800  -0.074  1.00 20.00     0.014 A 
HETATM    6  C6  UNL     1     -33.540  18.211  -0.353  1.00 20.00     0.014 A 
ENDROOT
BRANCH   5   7
HETATM    7  S7  UNL     1     -35.719  18.252   1.423  1.00 20.00    -0.142 SA
HETATM    8  H13 UNL     1     -36.850  17.586   1.155  1.00 20.00     0.107 HD
ENDBRANCH   5   7
BRANCH   6   9
HETATM    9  S8  UNL     1     -32.577  19.245   0.751  1.00 20.00    -0.142 SA
HETATM   10  H14 UNL     1     -31.386  19.023   0.179  1.00 20.00     0.107 HD
ENDBRANCH   6   9
TORSDOF 2
ENDMDL
MODEL 6
REMARK VINA RESULT:      -3.4     12.590     13.044
REMARK  2 active torsions:
REMARK  status: ('A' for Active; 'I' for Inactive)
REMARK    1  A    between atoms: C5_5  and  S7_7 
REMARK    2  A    between atoms: C6_6  and  S8_8 
ROOT
HETATM    1  C1  UNL     1     -33.640  17.008  -2.500  1.00 20.00     0.001 A 
HETATM    2  C2  UNL     1     -34.934  16.596  -2.184  1.00 20.00     0.001 A 
HETATM    3  C3  UNL     1     -32.930  17.820  -1.614  1.00 20.00     0.019 A 
HETATM    4  C4  UNL     1     -35.520  16.994  -0.983  1.00 20.00     0.019 A 
HETATM    5  C5  UNL     1     -33.516  18.219  -0.412  1.00 20.00     0.014 A 
HETATM    6  C6  UNL     1     -34.811  17.806  -0.096  1.00 20.00     0.014 A 
ENDROOT
BRANCH   5   7
HETATM    7  S7  UNL     1     -32.527  19.261   0.660  1.00 20.00    -0.142 SA
HETATM    8  H13 UNL     1     -32.180  18.307   1.535  1.00 20.00     0.107 HD
ENDBRANCH   5   7
BRANCH   6   9
HETATM    9  S8  UNL     1     -35.647  18.265   1.422  1.00 20.00    -0.142 SA
HETATM   10  H14 UNL     1     -35.420  19.583   1.337  1.00 20.00     0.107 HD
ENDBRANCH   6   9
TORSDOF 2
ENDMDL
MODEL 7
REMARK VINA RESULT:      -3.1     12.900     13.276
REMARK  2 active torsions:
REMARK  status: ('A' for Active; 'I' for Inactive)
REMARK    1  A    between atoms: C5_5  and  S7_7 
REMARK    2  A    between atoms: C6_6  and  S8_8 
ROOT
HETATM    1  C1  UNL     1     -33.133  18.101  -1.179  1.00 20.00     0.001 A 
HETATM    2  C2  UNL     1     -34.423  17.914  -0.681  1.00 20.00     0.001 A 
HETATM    3  C3  UNL     1     -32.109  18.513  -0.325  1.00 20.00     0.019 A 
HETATM    4  C4  UNL     1     -34.689  18.138   0.670  1.00 20.00     0.019 A 
HETATM    5  C5  UNL     1     -32.374  18.736   1.026  1.00 20.00     0.014 A 
HETATM    6  C6  UNL     1     -33.664  18.549   1.524  1.00 20.00     0.014 A 
ENDROOT
BRANCH   5   7
HETATM    7  S7  UNL     1     -30.994  19.263   2.043  1.00 20.00    -0.142 SA
HETATM    8  H13 UNL     1     -30.075  18.457   1.494  1.00 20.00     0.107 HD
ENDBRANCH   5   7
BRANCH   6   9
HETATM    9  S8  UNL     1     -34.103  18.811   3.243  1.00 20.00    -0.142 SA
HETATM   10  H14 UNL     1     -33.940  17.543   3.644  1.00 20.00     0.107 HD
ENDBRANCH   6   9
TORSDOF 2
ENDMDL
MODEL 8
REMARK VINA RESULT:      -3.1     12.663     12.865
REMARK  2 active torsions:
REMARK  status: ('A' for Active; 'I' for Inactive)
REMARK    1  A    between atoms: C5_5  and  S7_7 
REMARK    2  A    between atoms: C6_6  and  S8_8 
ROOT
HETATM    1  C1  UNL     1     -34.481  15.862  -3.263  1.00 20.00     0.001 A 
HETATM    2  C2  UNL     1     -33.421  15.345  -4.009  1.00 20.00     0.001 A 
HETATM    3  C3  UNL     1     -35.797  15.604  -3.649  1.00 20.00     0.019 A 
HETATM    4  C4  UNL     1     -33.676  14.571  -5.140  1.00 20.00     0.019 A 
HETATM    5  C5  UNL     1     -36.052  14.829  -4.781  1.00 20.00     0.014 A 
HETATM    6  C6  UNL     1     -34.992  14.312  -5.527  1.00 20.00     0.014 A 
ENDROOT
BRANCH   5   7
HETATM    7  S7  UNL     1     -37.774  14.553  -5.197  1.00 20.00    -0.142 SA
HETATM    8  H13 UNL     1     -37.789  15.292  -6.315  1.00 20.00     0.107 HD
ENDBRANCH   5   7
BRANCH   6   9
HETATM    9  S8  UNL     1     -35.219  13.307  -6.994  1.00 20.00    -0.142 SA
HETATM   10  H14 UNL     1     -34.556  12.229  -6.553  1.00 20.00     0.107 HD
ENDBRANCH   6   9
TORSDOF 2
ENDMDL
MODEL 9
REMARK VINA RESULT:      -3.1     12.691     12.950
REMARK  2 active torsions:
REMARK  status: ('A' for Active; 'I' for Inactive)
REMARK    1  A    between atoms: C5_5  and  S7_7 
REMARK    2  A    between atoms: C6_6  and  S8_8 
ROOT
HETATM    1  C1  UNL     1     -33.393  15.373  -4.030  1.00 20.00     0.001 A 
HETATM    2  C2  UNL     1     -34.422  15.914  -3.260  1.00 20.00     0.001 A 
HETATM    3  C3  UNL     1     -33.693  14.594  -5.148  1.00 20.00     0.019 A 
HETATM    4  C4  UNL     1     -35.752  15.677  -3.607  1.00 20.00     0.019 A 
HETATM    5  C5  UNL     1     -35.023  14.356  -5.496  1.00 20.00     0.014 A 
HETATM    6  C6  UNL     1     -36.053  14.897  -4.725  1.00 20.00     0.014 A 
ENDROOT
BRANCH   5   7
HETATM    7  S7  UNL     1     -35.309  13.343  -6.947  1.00 20.00    -0.142 SA
HETATM    8  H13 UNL     1     -35.204  14.327  -7.851  1.00 20.00     0.107 HD
ENDBRANCH   5   7
BRANCH   6   9
HETATM    9  S8  UNL     1     -37.791  14.648  -5.090  1.00 20.00    -0.142 SA
HETATM   10  H14 UNL     1     -38.261  15.623  -4.300  1.00 20.00     0.107 HD
ENDBRANCH   6   9
TORSDOF 2
ENDMDL
