MODEL 1
REMARK VINA RESULT:      -5.7      0.000      0.000
REMARK  0 active torsions:
REMARK  status: ('A' for Active; 'I' for Inactive)
ROOT
HETATM    1  C1  UNL     1     -34.673   5.113   5.633  1.00 20.00     0.002 A 
HETATM    2  C2  UNL     1     -34.379   6.448   5.904  1.00 20.00     0.002 A 
HETATM    3  C3  UNL     1     -34.279   4.543   4.422  1.00 20.00     0.025 A 
HETATM    4  C4  UNL     1     -33.691   7.216   4.964  1.00 20.00     0.025 A 
HETATM    5  C5  UNL     1     -33.590   5.310   3.482  1.00 20.00     0.055 A 
HETATM    6  C6  UNL     1     -33.296   6.647   3.753  1.00 20.00     0.055 A 
HETATM    7 CL7  UNL     1     -33.128   4.549   2.001  1.00 20.00    -0.083 Cl
HETATM    8 CL8  UNL     1     -32.447   7.648   2.629  1.00 20.00    -0.083 Cl
ENDROOT
TORSDOF 0
ENDMDL
MODEL 2
REMARK VINA RESULT:      -5.6      0.022      2.353
REMARK  0 active torsions:
REMARK  status: ('A' for Active; 'I' for Inactive)
ROOT
HETATM    1  C1  UNL     1     -34.377   6.449   5.882  1.00 20.00     0.002 A 
HETATM    2  C2  UNL     1     -34.676   5.114   5.612  1.00 20.00     0.002 A 
HETATM    3  C3  UNL     1     -33.683   7.213   4.943  1.00 20.00     0.025 A 
HETATM    4  C4  UNL     1     -34.281   4.542   4.403  1.00 20.00     0.025 A 
HETATM    5  C5  UNL     1     -33.289   6.641   3.733  1.00 20.00     0.055 A 
HETATM    6  C6  UNL     1     -33.588   5.304   3.464  1.00 20.00     0.055 A 
HETATM    7 CL7  UNL     1     -32.432   7.636   2.610  1.00 20.00    -0.083 Cl
HETATM    8 CL8  UNL     1     -33.125   4.539   1.984  1.00 20.00    -0.083 Cl
ENDROOT
TORSDOF 0
ENDMDL
MODEL 3
REMARK VINA RESULT:      -5.2      1.402      2.477
REMARK  0 active torsions:
REMARK  status: ('A' for Active; 'I' for Inactive)
ROOT
HETATM    1  C1  UNL     1     -34.051   4.311   3.481  1.00 20.00     0.002 A 
HETATM    2  C2  UNL     1     -34.552   4.332   4.782  1.00 20.00     0.002 A 
HETATM    3  C3  UNL     1     -33.425   5.441   2.955  1.00 20.00     0.025 A 
HETATM    4  C4  UNL     1     -34.428   5.484   5.558  1.00 20.00     0.025 A 
HETATM    5  C5  UNL     1     -33.299   6.593   3.732  1.00 20.00     0.055 A 
HETATM    6  C6  UNL     1     -33.801   6.615   5.034  1.00 20.00     0.055 A 
HETATM    7 CL7  UNL     1     -32.513   7.961   3.026  1.00 20.00    -0.083 Cl
HETATM    8 CL8  UNL     1     -33.677   8.011   6.045  1.00 20.00    -0.083 Cl
ENDROOT
TORSDOF 0
ENDMDL
MODEL 4
REMARK VINA RESULT:      -5.1      1.403      2.608
REMARK  0 active torsions:
REMARK  status: ('A' for Active; 'I' for Inactive)
ROOT
HETATM    1  C1  UNL     1     -34.550   4.335   4.778  1.00 20.00     0.002 A 
HETATM    2  C2  UNL     1     -34.057   4.319   3.474  1.00 20.00     0.002 A 
HETATM    3  C3  UNL     1     -34.421   5.484   5.559  1.00 20.00     0.025 A 
HETATM    4  C4  UNL     1     -33.432   5.451   2.950  1.00 20.00     0.025 A 
HETATM    5  C5  UNL     1     -33.797   6.617   5.035  1.00 20.00     0.055 A 
HETATM    6  C6  UNL     1     -33.302   6.600   3.730  1.00 20.00     0.055 A 
HETATM    7 CL7  UNL     1     -33.666   8.009   6.050  1.00 20.00    -0.083 Cl
HETATM    8 CL8  UNL     1     -32.520   7.970   3.025  1.00 20.00    -0.083 Cl
ENDROOT
TORSDOF 0
ENDMDL
MODEL 5
REMARK VINA RESULT:      -4.8      2.215      2.910
REMARK  0 active torsions:
REMARK  status: ('A' for Active; 'I' for Inactive)
ROOT
HETATM    1  C1  UNL     1     -33.271   5.838   2.228  1.00 20.00     0.002 A 
HETATM    2  C2  UNL     1     -32.744   7.104   2.480  1.00 20.00     0.002 A 
HETATM    3  C3  UNL     1     -33.926   5.140   3.243  1.00 20.00     0.025 A 
HETATM    4  C4  UNL     1     -32.872   7.674   3.747  1.00 20.00     0.025 A 
HETATM    5  C5  UNL     1     -34.055   5.709   4.510  1.00 20.00     0.055 A 
HETATM    6  C6  UNL     1     -33.527   6.977   4.762  1.00 20.00     0.055 A 
HETATM    7 CL7  UNL     1     -34.877   4.797   5.726  1.00 20.00    -0.083 Cl
HETATM    8 CL8  UNL     1     -33.654   7.734   6.311  1.00 20.00    -0.083 Cl
ENDROOT
TORSDOF 0
ENDMDL
MODEL 6
REMARK VINA RESULT:      -4.7      2.220      3.731
REMARK  0 active torsions:
REMARK  status: ('A' for Active; 'I' for Inactive)
ROOT
HETATM    1  C1  UNL     1     -32.756   7.097   2.488  1.00 20.00     0.002 A 
HETATM    2  C2  UNL     1     -33.272   5.824   2.248  1.00 20.00     0.002 A 
HETATM    3  C3  UNL     1     -32.885   7.676   3.751  1.00 20.00     0.025 A 
HETATM    4  C4  UNL     1     -33.919   5.129   3.270  1.00 20.00     0.025 A 
HETATM    5  C5  UNL     1     -33.531   6.981   4.774  1.00 20.00     0.055 A 
HETATM    6  C6  UNL     1     -34.049   5.708   4.533  1.00 20.00     0.055 A 
HETATM    7 CL7  UNL     1     -33.661   7.750   6.316  1.00 20.00    -0.083 Cl
HETATM    8 CL8  UNL     1     -34.860   4.798   5.758  1.00 20.00    -0.083 Cl
ENDROOT
TORSDOF 0
ENDMDL
MODEL 7
REMARK VINA RESULT:      -4.4      1.492      2.629
REMARK  0 active torsions:
REMARK  status: ('A' for Active; 'I' for Inactive)
ROOT
HETATM    1  C1  UNL     1     -32.539   8.083   4.224  1.00 20.00     0.002 A 
HETATM    2  C2  UNL     1     -33.298   7.876   5.375  1.00 20.00     0.002 A 
HETATM    3  C3  UNL     1     -32.503   7.107   3.227  1.00 20.00     0.025 A 
HETATM    4  C4  UNL     1     -34.020   6.693   5.531  1.00 20.00     0.025 A 
HETATM    5  C5  UNL     1     -33.226   5.924   3.383  1.00 20.00     0.055 A 
HETATM    6  C6  UNL     1     -33.985   5.717   4.536  1.00 20.00     0.055 A 
HETATM    7 CL7  UNL     1     -33.141   4.753   2.115  1.00 20.00    -0.083 Cl
HETATM    8 CL8  UNL     1     -34.901   4.273   4.787  1.00 20.00    -0.083 Cl
ENDROOT
TORSDOF 0
ENDMDL
MODEL 8
REMARK VINA RESULT:      -4.4      1.513      2.574
REMARK  0 active torsions:
REMARK  status: ('A' for Active; 'I' for Inactive)
ROOT
HETATM    1  C1  UNL     1     -33.246   7.916   5.283  1.00 20.00     0.002 A 
HETATM    2  C2  UNL     1     -32.500   8.080   4.117  1.00 20.00     0.002 A 
HETATM    3  C3  UNL     1     -33.979   6.746   5.484  1.00 20.00     0.025 A 
HETATM    4  C4  UNL     1     -32.486   7.074   3.150  1.00 20.00     0.025 A 
HETATM    5  C5  UNL     1     -33.965   5.740   4.518  1.00 20.00     0.055 A 
HETATM    6  C6  UNL     1     -33.219   5.904   3.350  1.00 20.00     0.055 A 
HETATM    7 CL7  UNL     1     -34.892   4.314   4.823  1.00 20.00    -0.083 Cl
HETATM    8 CL8  UNL     1     -33.162   4.695   2.116  1.00 20.00    -0.083 Cl
ENDROOT
TORSDOF 0
ENDMDL
MODEL 9
REMARK VINA RESULT:      -3.7     12.637     13.188
REMARK  0 active torsions:
REMARK  status: ('A' for Active; 'I' for Inactive)
ROOT
HETATM    1  C1  UNL     1     -33.653  17.027  -2.477  1.00 20.00     0.002 A 
HETATM    2  C2  UNL     1     -34.936  16.640  -2.091  1.00 20.00     0.002 A 
HETATM    3  C3  UNL     1     -32.882  17.827  -1.633  1.00 20.00     0.025 A 
HETATM    4  C4  UNL     1     -35.449  17.051  -0.861  1.00 20.00     0.025 A 
HETATM    5  C5  UNL     1     -33.394  18.238  -0.402  1.00 20.00     0.055 A 
HETATM    6  C6  UNL     1     -34.678  17.850  -0.017  1.00 20.00     0.055 A 
HETATM    7 CL7  UNL     1     -32.392  19.226   0.600  1.00 20.00    -0.083 Cl
HETATM    8 CL8  UNL     1     -35.368  18.328   1.495  1.00 20.00    -0.083 Cl
ENDROOT
TORSDOF 0
ENDMDL
