MODEL 1
REMARK VINA RESULT:      -4.2      0.000      0.000
REMARK  0 active torsions:
REMARK  status: ('A' for Active; 'I' for Inactive)
ROOT
HETATM    1  C1  UNL     1     -34.364   6.258   5.844  1.00 20.00     0.019 A 
HETATM    2  C2  UNL     1     -34.733   5.289   4.879  1.00 20.00     0.019 A 
HETATM    3  C3  UNL     1     -33.618   7.219   5.198  1.00 20.00     0.090 A 
HETATM    4  C4  UNL     1     -34.202   5.687   3.673  1.00 20.00     0.090 A 
HETATM    5  C5  UNL     1     -32.822   7.606   2.859  1.00 20.00     0.154 C 
HETATM    6  N6  UNL     1     -33.526   6.861   3.878  1.00 20.00    -0.371 N 
ENDROOT
TORSDOF 0
ENDMDL
MODEL 2
REMARK VINA RESULT:      -4.2      0.029      1.530
REMARK  0 active torsions:
REMARK  status: ('A' for Active; 'I' for Inactive)
ROOT
HETATM    1  C1  UNL     1     -34.741   5.317   4.907  1.00 20.00     0.019 A 
HETATM    2  C2  UNL     1     -34.352   6.294   5.856  1.00 20.00     0.019 A 
HETATM    3  C3  UNL     1     -34.218   5.695   3.689  1.00 20.00     0.090 A 
HETATM    4  C4  UNL     1     -33.604   7.239   5.190  1.00 20.00     0.090 A 
HETATM    5  C5  UNL     1     -32.833   7.595   2.839  1.00 20.00     0.154 C 
HETATM    6  N6  UNL     1     -33.529   6.865   3.875  1.00 20.00    -0.371 N 
ENDROOT
TORSDOF 0
ENDMDL
MODEL 3
REMARK VINA RESULT:      -3.8      1.158      2.112
REMARK  0 active torsions:
REMARK  status: ('A' for Active; 'I' for Inactive)
ROOT
HETATM    1  C1  UNL     1     -34.577   4.451   4.449  1.00 20.00     0.019 A 
HETATM    2  C2  UNL     1     -34.071   5.198   3.356  1.00 20.00     0.019 A 
HETATM    3  C3  UNL     1     -34.509   5.256   5.565  1.00 20.00     0.090 A 
HETATM    4  C4  UNL     1     -33.708   6.436   3.838  1.00 20.00     0.090 A 
HETATM    5  C5  UNL     1     -33.739   7.584   6.058  1.00 20.00     0.154 C 
HETATM    6  N6  UNL     1     -33.979   6.461   5.180  1.00 20.00    -0.371 N 
ENDROOT
TORSDOF 0
ENDMDL
MODEL 4
REMARK VINA RESULT:      -3.8      1.161      2.159
REMARK  0 active torsions:
REMARK  status: ('A' for Active; 'I' for Inactive)
ROOT
HETATM    1  C1  UNL     1     -34.051   5.188   3.337  1.00 20.00     0.019 A 
HETATM    2  C2  UNL     1     -34.553   4.428   4.422  1.00 20.00     0.019 A 
HETATM    3  C3  UNL     1     -33.704   6.427   3.827  1.00 20.00     0.090 A 
HETATM    4  C4  UNL     1     -34.497   5.227   5.543  1.00 20.00     0.090 A 
HETATM    5  C5  UNL     1     -33.762   7.560   6.055  1.00 20.00     0.154 C 
HETATM    6  N6  UNL     1     -33.980   6.439   5.169  1.00 20.00    -0.371 N 
ENDROOT
TORSDOF 0
ENDMDL
MODEL 5
REMARK VINA RESULT:      -3.7      0.888      2.663
REMARK  0 active torsions:
REMARK  status: ('A' for Active; 'I' for Inactive)
ROOT
HETATM    1  C1  UNL     1     -33.866   5.852   2.689  1.00 20.00     0.019 A 
HETATM    2  C2  UNL     1     -32.880   6.862   2.571  1.00 20.00     0.019 A 
HETATM    3  C3  UNL     1     -34.342   5.889   3.981  1.00 20.00     0.090 A 
HETATM    4  C4  UNL     1     -32.782   7.486   3.795  1.00 20.00     0.090 A 
HETATM    5  C5  UNL     1     -33.880   7.250   6.028  1.00 20.00     0.154 C 
HETATM    6  N6  UNL     1     -33.675   6.887   4.644  1.00 20.00    -0.371 N 
ENDROOT
TORSDOF 0
ENDMDL
MODEL 6
REMARK VINA RESULT:      -3.7      0.900      2.375
REMARK  0 active torsions:
REMARK  status: ('A' for Active; 'I' for Inactive)
ROOT
HETATM    1  C1  UNL     1     -32.901   6.842   2.544  1.00 20.00     0.019 A 
HETATM    2  C2  UNL     1     -33.905   5.852   2.689  1.00 20.00     0.019 A 
HETATM    3  C3  UNL     1     -32.772   7.479   3.759  1.00 20.00     0.090 A 
HETATM    4  C4  UNL     1     -34.359   5.915   3.988  1.00 20.00     0.090 A 
HETATM    5  C5  UNL     1     -33.845   7.292   6.010  1.00 20.00     0.154 C 
HETATM    6  N6  UNL     1     -33.664   6.907   4.629  1.00 20.00    -0.371 N 
ENDROOT
TORSDOF 0
ENDMDL
MODEL 7
REMARK VINA RESULT:      -3.5      1.070      2.578
REMARK  0 active torsions:
REMARK  status: ('A' for Active; 'I' for Inactive)
ROOT
HETATM    1  C1  UNL     1     -33.316   7.575   4.100  1.00 20.00     0.019 A 
HETATM    2  C2  UNL     1     -33.694   7.533   5.465  1.00 20.00     0.019 A 
HETATM    3  C3  UNL     1     -33.582   6.335   3.561  1.00 20.00     0.090 A 
HETATM    4  C4  UNL     1     -34.178   6.269   5.719  1.00 20.00     0.090 A 
HETATM    5  C5  UNL     1     -34.516   4.172   4.401  1.00 20.00     0.154 C 
HETATM    6  N6  UNL     1     -34.105   5.550   4.555  1.00 20.00    -0.371 N 
ENDROOT
TORSDOF 0
ENDMDL
MODEL 8
REMARK VINA RESULT:      -3.4      1.124      2.538
REMARK  0 active torsions:
REMARK  status: ('A' for Active; 'I' for Inactive)
ROOT
HETATM    1  C1  UNL     1     -33.386   7.630   3.841  1.00 20.00     0.019 A 
HETATM    2  C2  UNL     1     -32.983   6.937   2.673  1.00 20.00     0.019 A 
HETATM    3  C3  UNL     1     -34.003   6.718   4.668  1.00 20.00     0.090 A 
HETATM    4  C4  UNL     1     -33.368   5.624   2.821  1.00 20.00     0.090 A 
HETATM    5  C5  UNL     1     -34.540   4.278   4.571  1.00 20.00     0.154 C 
HETATM    6  N6  UNL     1     -33.987   5.502   4.037  1.00 20.00    -0.371 N 
ENDROOT
TORSDOF 0
ENDMDL
MODEL 9
REMARK VINA RESULT:      -3.0     15.326     16.280
REMARK  0 active torsions:
REMARK  status: ('A' for Active; 'I' for Inactive)
ROOT
HETATM    1  C1  UNL     1     -23.638  17.334  10.602  1.00 20.00     0.019 A 
HETATM    2  C2  UNL     1     -23.670  18.687  11.020  1.00 20.00     0.019 A 
HETATM    3  C3  UNL     1     -24.816  16.748  11.009  1.00 20.00     0.090 A 
HETATM    4  C4  UNL     1     -24.867  18.887  11.671  1.00 20.00     0.090 A 
HETATM    5  C5  UNL     1     -26.861  17.492  12.242  1.00 20.00     0.154 C 
HETATM    6  N6  UNL     1     -25.556  17.703  11.658  1.00 20.00    -0.371 N 
ENDROOT
TORSDOF 0
ENDMDL
