MODEL 1
REMARK VINA RESULT:      -7.3      0.000      0.000
REMARK  1 active torsions:
REMARK  status: ('A' for Active; 'I' for Inactive)
REMARK    1  A    between atoms: C1_1  and  C8_8 
ROOT
HETATM    1  C1  UNL     1     -32.884   7.630   2.667  1.00 20.00    -0.067 C 
HETATM    2  C2  UNL     1     -32.391   8.339   1.831  1.00 20.00    -0.105 C 
HETATM    3  C9  UNL     1     -31.793   9.202   0.814  1.00 20.00     0.112 C 
ENDROOT
BRANCH   1   4
HETATM    4  C8  UNL     1     -33.470   6.785   3.659  1.00 20.00     0.017 A 
HETATM    5  C6  UNL     1     -33.668   7.263   4.955  1.00 20.00     0.020 A 
HETATM    6  C4  UNL     1     -34.240   6.438   5.923  1.00 20.00     0.001 A 
HETATM    7  C3  UNL     1     -34.614   5.135   5.595  1.00 20.00     0.000 A 
HETATM    8  C5  UNL     1     -34.418   4.657   4.300  1.00 20.00     0.001 A 
HETATM    9  C7  UNL     1     -33.845   5.482   3.332  1.00 20.00     0.020 A 
ENDBRANCH   1   4
TORSDOF 1
ENDMDL
MODEL 2
REMARK VINA RESULT:      -4.4     11.569     11.958
REMARK  1 active torsions:
REMARK  status: ('A' for Active; 'I' for Inactive)
REMARK    1  A    between atoms: C1_1  and  C8_8 
ROOT
HETATM    1  C1  UNL     1     -33.971  16.196  -3.128  1.00 20.00    -0.067 C 
HETATM    2  C2  UNL     1     -33.866  15.561  -4.142  1.00 20.00    -0.105 C 
HETATM    3  C9  UNL     1     -33.739  14.786  -5.375  1.00 20.00     0.112 C 
ENDROOT
BRANCH   1   4
HETATM    4  C8  UNL     1     -34.094  16.952  -1.921  1.00 20.00     0.017 A 
HETATM    5  C6  UNL     1     -33.034  17.747  -1.484  1.00 20.00     0.020 A 
HETATM    6  C4  UNL     1     -33.154  18.484  -0.306  1.00 20.00     0.001 A 
HETATM    7  C3  UNL     1     -34.334  18.425   0.436  1.00 20.00     0.000 A 
HETATM    8  C5  UNL     1     -35.393  17.630   0.000  1.00 20.00     0.001 A 
HETATM    9  C7  UNL     1     -35.273  16.893  -1.178  1.00 20.00     0.020 A 
ENDBRANCH   1   4
TORSDOF 1
ENDMDL
MODEL 3
REMARK VINA RESULT:      -4.4     11.568     11.983
REMARK  1 active torsions:
REMARK  status: ('A' for Active; 'I' for Inactive)
REMARK    1  A    between atoms: C1_1  and  C8_8 
ROOT
HETATM    1  C1  UNL     1     -33.959  16.196  -3.125  1.00 20.00    -0.067 C 
HETATM    2  C2  UNL     1     -33.850  15.560  -4.138  1.00 20.00    -0.105 C 
HETATM    3  C9  UNL     1     -33.720  14.785  -5.371  1.00 20.00     0.112 C 
ENDROOT
BRANCH   1   4
HETATM    4  C8  UNL     1     -34.088  16.951  -1.919  1.00 20.00     0.017 A 
HETATM    5  C6  UNL     1     -35.270  16.892  -1.181  1.00 20.00     0.020 A 
HETATM    6  C4  UNL     1     -35.396  17.629  -0.004  1.00 20.00     0.001 A 
HETATM    7  C3  UNL     1     -34.339  18.426   0.435  1.00 20.00     0.000 A 
HETATM    8  C5  UNL     1     -33.157  18.485  -0.301  1.00 20.00     0.001 A 
HETATM    9  C7  UNL     1     -33.031  17.748  -1.479  1.00 20.00     0.020 A 
ENDBRANCH   1   4
TORSDOF 1
ENDMDL
MODEL 4
REMARK VINA RESULT:      -4.4      1.104      4.876
REMARK  1 active torsions:
REMARK  status: ('A' for Active; 'I' for Inactive)
REMARK    1  A    between atoms: C1_1  and  C8_8 
ROOT
HETATM    1  C1  UNL     1     -33.418   7.514   3.635  1.00 20.00    -0.067 C 
HETATM    2  C2  UNL     1     -33.838   6.867   4.555  1.00 20.00    -0.105 C 
HETATM    3  C9  UNL     1     -34.349   6.078   5.675  1.00 20.00     0.112 C 
ENDROOT
BRANCH   1   4
HETATM    4  C8  UNL     1     -32.921   8.286   2.539  1.00 20.00     0.017 A 
HETATM    5  C6  UNL     1     -33.579   9.454   2.153  1.00 20.00     0.020 A 
HETATM    6  C4  UNL     1     -33.094  10.207   1.083  1.00 20.00     0.001 A 
HETATM    7  C3  UNL     1     -31.952   9.790   0.399  1.00 20.00     0.000 A 
HETATM    8  C5  UNL     1     -31.294   8.623   0.785  1.00 20.00     0.001 A 
HETATM    9  C7  UNL     1     -31.779   7.870   1.855  1.00 20.00     0.020 A 
ENDBRANCH   1   4
TORSDOF 1
ENDMDL
MODEL 5
REMARK VINA RESULT:      -4.3     11.377     11.948
REMARK  1 active torsions:
REMARK  status: ('A' for Active; 'I' for Inactive)
REMARK    1  A    between atoms: C1_1  and  C8_8 
ROOT
HETATM    1  C1  UNL     1     -33.769  17.006  -2.150  1.00 20.00    -0.067 C 
HETATM    2  C2  UNL     1     -33.118  17.715  -1.431  1.00 20.00    -0.105 C 
HETATM    3  C9  UNL     1     -32.327  18.578  -0.556  1.00 20.00     0.112 C 
ENDROOT
BRANCH   1   4
HETATM    4  C8  UNL     1     -34.545  16.164  -3.006  1.00 20.00     0.017 A 
HETATM    5  C6  UNL     1     -35.916  16.380  -3.140  1.00 20.00     0.020 A 
HETATM    6  C4  UNL     1     -36.674  15.558  -3.975  1.00 20.00     0.001 A 
HETATM    7  C3  UNL     1     -36.059  14.520  -4.674  1.00 20.00     0.000 A 
HETATM    8  C5  UNL     1     -34.688  14.304  -4.540  1.00 20.00     0.001 A 
HETATM    9  C7  UNL     1     -33.930  15.126  -3.706  1.00 20.00     0.020 A 
ENDBRANCH   1   4
TORSDOF 1
ENDMDL
MODEL 6
REMARK VINA RESULT:      -4.3     11.432     12.011
REMARK  1 active torsions:
REMARK  status: ('A' for Active; 'I' for Inactive)
REMARK    1  A    between atoms: C1_1  and  C8_8 
ROOT
HETATM    1  C1  UNL     1     -33.741  17.023  -2.142  1.00 20.00    -0.067 C 
HETATM    2  C2  UNL     1     -33.096  17.733  -1.419  1.00 20.00    -0.105 C 
HETATM    3  C9  UNL     1     -32.312  18.598  -0.539  1.00 20.00     0.112 C 
ENDROOT
BRANCH   1   4
HETATM    4  C8  UNL     1     -34.509  16.180  -3.004  1.00 20.00     0.017 A 
HETATM    5  C6  UNL     1     -33.880  15.175  -3.738  1.00 20.00     0.020 A 
HETATM    6  C4  UNL     1     -34.630  14.352  -4.580  1.00 20.00     0.001 A 
HETATM    7  C3  UNL     1     -36.009  14.536  -4.685  1.00 20.00     0.000 A 
HETATM    8  C5  UNL     1     -36.637  15.541  -3.951  1.00 20.00     0.001 A 
HETATM    9  C7  UNL     1     -35.888  16.363  -3.110  1.00 20.00     0.020 A 
ENDBRANCH   1   4
TORSDOF 1
ENDMDL
