MODEL 1
REMARK VINA RESULT:      -4.7      0.000      0.000
REMARK  0 active torsions:
REMARK  status: ('A' for Active; 'I' for Inactive)
ROOT
HETATM    1  C1  UNL     1     -33.966   6.855   5.775  1.00 20.00     0.035 A 
HETATM    2  C2  UNL     1     -33.146   7.844   5.181  1.00 20.00     0.035 A 
HETATM    3  C3  UNL     1     -34.177   5.901   4.805  1.00 20.00     0.049 A 
HETATM    4  C4  UNL     1     -32.914   7.425   3.891  1.00 20.00     0.049 A 
HETATM    5  C5  UNL     1     -34.929   4.639   4.783  1.00 20.00     0.076 C 
HETATM    6  C6  UNL     1     -32.150   7.992   2.772  1.00 20.00     0.076 C 
HETATM    7  O7  UNL     1     -33.539   6.241   3.655  1.00 20.00    -0.320 OA
ENDROOT
TORSDOF 0
ENDMDL
MODEL 2
REMARK VINA RESULT:      -4.7      0.093      2.917
REMARK  0 active torsions:
REMARK  status: ('A' for Active; 'I' for Inactive)
ROOT
HETATM    1  C1  UNL     1     -33.187   7.790   5.127  1.00 20.00     0.035 A 
HETATM    2  C2  UNL     1     -33.980   6.778   5.717  1.00 20.00     0.035 A 
HETATM    3  C3  UNL     1     -32.954   7.386   3.832  1.00 20.00     0.049 A 
HETATM    4  C4  UNL     1     -34.175   5.827   4.743  1.00 20.00     0.049 A 
HETATM    5  C5  UNL     1     -32.211   7.979   2.711  1.00 20.00     0.076 C 
HETATM    6  C6  UNL     1     -34.900   4.549   4.716  1.00 20.00     0.076 C 
HETATM    7  O7  UNL     1     -33.554   6.191   3.590  1.00 20.00    -0.320 OA
ENDROOT
TORSDOF 0
ENDMDL
MODEL 3
REMARK VINA RESULT:      -4.7      1.263      2.049
REMARK  0 active torsions:
REMARK  status: ('A' for Active; 'I' for Inactive)
ROOT
HETATM    1  C1  UNL     1     -34.121   5.905   3.710  1.00 20.00     0.035 A 
HETATM    2  C2  UNL     1     -33.501   6.266   2.490  1.00 20.00     0.035 A 
HETATM    3  C3  UNL     1     -33.707   6.834   4.638  1.00 20.00     0.049 A 
HETATM    4  C4  UNL     1     -32.754   7.389   2.758  1.00 20.00     0.049 A 
HETATM    5  C5  UNL     1     -33.986   7.019   6.069  1.00 20.00     0.076 C 
HETATM    6  C6  UNL     1     -31.889   8.242   1.931  1.00 20.00     0.076 C 
HETATM    7  O7  UNL     1     -32.874   7.742   4.065  1.00 20.00    -0.320 OA
ENDROOT
TORSDOF 0
ENDMDL
MODEL 4
REMARK VINA RESULT:      -4.7      1.270      3.306
REMARK  0 active torsions:
REMARK  status: ('A' for Active; 'I' for Inactive)
ROOT
HETATM    1  C1  UNL     1     -33.503   6.277   2.495  1.00 20.00     0.035 A 
HETATM    2  C2  UNL     1     -34.116   5.930   3.722  1.00 20.00     0.035 A 
HETATM    3  C3  UNL     1     -32.746   7.399   2.749  1.00 20.00     0.049 A 
HETATM    4  C4  UNL     1     -33.691   6.863   4.639  1.00 20.00     0.049 A 
HETATM    5  C5  UNL     1     -31.881   8.239   1.910  1.00 20.00     0.076 C 
HETATM    6  C6  UNL     1     -33.959   7.060   6.070  1.00 20.00     0.076 C 
HETATM    7  O7  UNL     1     -32.856   7.762   4.054  1.00 20.00    -0.320 OA
ENDROOT
TORSDOF 0
ENDMDL
MODEL 5
REMARK VINA RESULT:      -4.5      1.650      2.641
REMARK  0 active torsions:
REMARK  status: ('A' for Active; 'I' for Inactive)
ROOT
HETATM    1  C1  UNL     1     -34.469   4.326   4.471  1.00 20.00     0.035 A 
HETATM    2  C2  UNL     1     -34.670   5.151   5.603  1.00 20.00     0.035 A 
HETATM    3  C3  UNL     1     -33.713   5.065   3.590  1.00 20.00     0.049 A 
HETATM    4  C4  UNL     1     -34.024   6.334   5.334  1.00 20.00     0.049 A 
HETATM    5  C5  UNL     1     -33.172   4.788   2.252  1.00 20.00     0.076 C 
HETATM    6  C6  UNL     1     -33.855   7.582   6.091  1.00 20.00     0.076 C 
HETATM    7  O7  UNL     1     -33.437   6.290   4.109  1.00 20.00    -0.320 OA
ENDROOT
TORSDOF 0
ENDMDL
MODEL 6
REMARK VINA RESULT:      -4.5      1.645      2.620
REMARK  0 active torsions:
REMARK  status: ('A' for Active; 'I' for Inactive)
ROOT
HETATM    1  C1  UNL     1     -34.672   5.176   5.614  1.00 20.00     0.035 A 
HETATM    2  C2  UNL     1     -34.479   4.348   4.482  1.00 20.00     0.035 A 
HETATM    3  C3  UNL     1     -34.016   6.355   5.342  1.00 20.00     0.049 A 
HETATM    4  C4  UNL     1     -33.719   5.079   3.600  1.00 20.00     0.049 A 
HETATM    5  C5  UNL     1     -33.838   7.603   6.096  1.00 20.00     0.076 C 
HETATM    6  C6  UNL     1     -33.184   4.797   2.261  1.00 20.00     0.076 C 
HETATM    7  O7  UNL     1     -33.433   6.304   4.116  1.00 20.00    -0.320 OA
ENDROOT
TORSDOF 0
ENDMDL
MODEL 7
REMARK VINA RESULT:      -4.1      1.455      2.001
REMARK  0 active torsions:
REMARK  status: ('A' for Active; 'I' for Inactive)
ROOT
HETATM    1  C1  UNL     1     -32.583   7.578   4.335  1.00 20.00     0.035 A 
HETATM    2  C2  UNL     1     -31.716   8.366   3.541  1.00 20.00     0.035 A 
HETATM    3  C3  UNL     1     -33.472   6.992   3.463  1.00 20.00     0.049 A 
HETATM    4  C4  UNL     1     -32.136   8.206   2.241  1.00 20.00     0.049 A 
HETATM    5  C5  UNL     1     -34.605   6.074   3.648  1.00 20.00     0.076 C 
HETATM    6  C6  UNL     1     -31.664   8.745   0.959  1.00 20.00     0.076 C 
HETATM    7  O7  UNL     1     -33.206   7.369   2.185  1.00 20.00    -0.320 OA
ENDROOT
TORSDOF 0
ENDMDL
MODEL 8
REMARK VINA RESULT:      -3.7      1.513      2.482
REMARK  0 active torsions:
REMARK  status: ('A' for Active; 'I' for Inactive)
ROOT
HETATM    1  C1  UNL     1     -32.851   7.878   3.747  1.00 20.00     0.035 A 
HETATM    2  C2  UNL     1     -32.641   7.050   2.619  1.00 20.00     0.035 A 
HETATM    3  C3  UNL     1     -33.463   7.087   4.692  1.00 20.00     0.049 A 
HETATM    4  C4  UNL     1     -33.139   5.813   2.954  1.00 20.00     0.049 A 
HETATM    5  C5  UNL     1     -33.938   7.340   6.060  1.00 20.00     0.076 C 
HETATM    6  C6  UNL     1     -33.224   4.535   2.234  1.00 20.00     0.076 C 
HETATM    7  O7  UNL     1     -33.642   5.827   4.217  1.00 20.00    -0.320 OA
ENDROOT
TORSDOF 0
ENDMDL
MODEL 9
REMARK VINA RESULT:      -3.7      1.554      2.511
REMARK  0 active torsions:
REMARK  status: ('A' for Active; 'I' for Inactive)
ROOT
HETATM    1  C1  UNL     1     -32.811   6.999   2.520  1.00 20.00     0.035 A 
HETATM    2  C2  UNL     1     -33.034   7.853   3.627  1.00 20.00     0.035 A 
HETATM    3  C3  UNL     1     -33.171   5.737   2.934  1.00 20.00     0.049 A 
HETATM    4  C4  UNL     1     -33.514   7.053   4.637  1.00 20.00     0.049 A 
HETATM    5  C5  UNL     1     -33.178   4.425   2.271  1.00 20.00     0.076 C 
HETATM    6  C6  UNL     1     -33.934   7.322   6.019  1.00 20.00     0.076 C 
HETATM    7  O7  UNL     1     -33.602   5.761   4.222  1.00 20.00    -0.320 OA
ENDROOT
TORSDOF 0
ENDMDL
