MODEL 1
REMARK VINA RESULT:      -6.2      0.000      0.000
REMARK  1 active torsions:
REMARK  status: ('A' for Active; 'I' for Inactive)
REMARK    1  A    between atoms: C4_4  and  C7_7 
ROOT
HETATM    1  C1  UNL     1     -34.563   4.524   5.464  1.00 20.00     0.006 A 
HETATM    2  C2  UNL     1     -34.495   5.840   5.920  1.00 20.00     0.043 A 
HETATM    3  C3  UNL     1     -34.184   4.218   4.157  1.00 20.00     0.043 A 
HETATM    4  C4  UNL     1     -33.671   6.546   3.760  1.00 20.00     0.029 A 
HETATM    5  C5  UNL     1     -34.050   6.852   5.068  1.00 20.00     0.126 A 
HETATM    6  C6  UNL     1     -33.739   5.229   3.306  1.00 20.00     0.126 A 
HETATM    7  F8  UNL     1     -33.990   8.114   5.514  1.00 20.00    -0.205 F 
HETATM    8  F9  UNL     1     -33.376   4.925   2.051  1.00 20.00    -0.205 F 
ENDROOT
BRANCH   4   9
HETATM    9  C7  UNL     1     -33.195   7.627   2.850  1.00 20.00     0.130 C 
HETATM   10 BR10 UNL     1     -31.408   8.184   3.380  1.00 20.00    -0.091 Br
ENDBRANCH   4   9
TORSDOF 1
ENDMDL
MODEL 2
REMARK VINA RESULT:      -6.2      0.006      2.616
REMARK  1 active torsions:
REMARK  status: ('A' for Active; 'I' for Inactive)
REMARK    1  A    between atoms: C4_4  and  C7_7 
ROOT
HETATM    1  C1  UNL     1     -34.565   4.525   5.462  1.00 20.00     0.006 A 
HETATM    2  C2  UNL     1     -34.183   4.217   4.156  1.00 20.00     0.043 A 
HETATM    3  C3  UNL     1     -34.501   5.843   5.915  1.00 20.00     0.043 A 
HETATM    4  C4  UNL     1     -33.670   6.545   3.757  1.00 20.00     0.029 A 
HETATM    5  C5  UNL     1     -33.735   5.227   3.304  1.00 20.00     0.126 A 
HETATM    6  C6  UNL     1     -34.053   6.852   5.063  1.00 20.00     0.126 A 
HETATM    7  F8  UNL     1     -33.369   4.921   2.051  1.00 20.00    -0.205 F 
HETATM    8  F9  UNL     1     -33.994   8.115   5.508  1.00 20.00    -0.205 F 
ENDROOT
BRANCH   4   9
HETATM    9  C7  UNL     1     -33.192   7.624   2.846  1.00 20.00     0.130 C 
HETATM   10 BR10 UNL     1     -31.411   8.190   3.387  1.00 20.00    -0.091 Br
ENDBRANCH   4   9
TORSDOF 1
ENDMDL
MODEL 3
REMARK VINA RESULT:      -5.9      1.454      2.893
REMARK  1 active torsions:
REMARK  status: ('A' for Active; 'I' for Inactive)
REMARK    1  A    between atoms: C4_4  and  C7_7 
ROOT
HETATM    1  C1  UNL     1     -34.556   6.261   5.461  1.00 20.00     0.006 A 
HETATM    2  C2  UNL     1     -34.681   5.744   4.172  1.00 20.00     0.043 A 
HETATM    3  C3  UNL     1     -33.597   7.239   5.730  1.00 20.00     0.043 A 
HETATM    4  C4  UNL     1     -32.887   7.178   3.421  1.00 20.00     0.029 A 
HETATM    5  C5  UNL     1     -33.846   6.201   3.152  1.00 20.00     0.126 A 
HETATM    6  C6  UNL     1     -32.763   7.696   4.711  1.00 20.00     0.126 A 
HETATM    7  F8  UNL     1     -33.973   5.697   1.916  1.00 20.00    -0.205 F 
HETATM    8  F9  UNL     1     -31.844   8.635   4.979  1.00 20.00    -0.205 F 
ENDROOT
BRANCH   4   9
HETATM    9  C7  UNL     1     -31.995   7.668   2.331  1.00 20.00     0.130 C 
HETATM   10 BR10 UNL     1     -32.708   9.325   1.602  1.00 20.00    -0.091 Br
ENDBRANCH   4   9
TORSDOF 1
ENDMDL
MODEL 4
REMARK VINA RESULT:      -5.4      2.095      4.041
REMARK  1 active torsions:
REMARK  status: ('A' for Active; 'I' for Inactive)
REMARK    1  A    between atoms: C4_4  and  C7_7 
ROOT
HETATM    1  C1  UNL     1     -31.679   8.379   3.335  1.00 20.00     0.006 A 
HETATM    2  C2  UNL     1     -32.311   7.595   2.370  1.00 20.00     0.043 A 
HETATM    3  C3  UNL     1     -32.117   8.342   4.660  1.00 20.00     0.043 A 
HETATM    4  C4  UNL     1     -33.819   6.738   4.052  1.00 20.00     0.029 A 
HETATM    5  C5  UNL     1     -33.382   6.775   2.728  1.00 20.00     0.126 A 
HETATM    6  C6  UNL     1     -33.187   7.522   5.017  1.00 20.00     0.126 A 
HETATM    7  F8  UNL     1     -33.983   6.026   1.793  1.00 20.00    -0.205 F 
HETATM    8  F9  UNL     1     -33.600   7.493   6.292  1.00 20.00    -0.205 F 
ENDROOT
BRANCH   4   9
HETATM    9  C7  UNL     1     -34.963   5.861   4.435  1.00 20.00     0.130 C 
HETATM   10 BR10 UNL     1     -34.339   4.030   4.639  1.00 20.00    -0.091 Br
ENDBRANCH   4   9
TORSDOF 1
ENDMDL
MODEL 5
REMARK VINA RESULT:      -5.3      2.102      3.200
REMARK  1 active torsions:
REMARK  status: ('A' for Active; 'I' for Inactive)
REMARK    1  A    between atoms: C4_4  and  C7_7 
ROOT
HETATM    1  C1  UNL     1     -31.714   8.342   3.238  1.00 20.00     0.006 A 
HETATM    2  C2  UNL     1     -32.133   8.317   4.568  1.00 20.00     0.043 A 
HETATM    3  C3  UNL     1     -32.364   7.554   2.287  1.00 20.00     0.043 A 
HETATM    4  C4  UNL     1     -33.849   6.714   3.998  1.00 20.00     0.029 A 
HETATM    5  C5  UNL     1     -33.200   7.502   4.949  1.00 20.00     0.126 A 
HETATM    6  C6  UNL     1     -33.430   6.740   2.668  1.00 20.00     0.126 A 
HETATM    7  F8  UNL     1     -33.594   7.484   6.230  1.00 20.00    -0.205 F 
HETATM    8  F9  UNL     1     -34.048   5.986   1.747  1.00 20.00    -0.205 F 
ENDROOT
BRANCH   4   9
HETATM    9  C7  UNL     1     -34.990   5.844   4.404  1.00 20.00     0.130 C 
HETATM   10 BR10 UNL     1     -34.358   4.023   4.667  1.00 20.00    -0.091 Br
ENDBRANCH   4   9
TORSDOF 1
ENDMDL
MODEL 6
REMARK VINA RESULT:      -4.7      2.175      2.903
REMARK  1 active torsions:
REMARK  status: ('A' for Active; 'I' for Inactive)
REMARK    1  A    between atoms: C4_4  and  C7_7 
ROOT
HETATM    1  C1  UNL     1     -33.739   7.289   6.166  1.00 20.00     0.006 A 
HETATM    2  C2  UNL     1     -34.477   6.129   5.930  1.00 20.00     0.043 A 
HETATM    3  C3  UNL     1     -33.057   7.908   5.118  1.00 20.00     0.043 A 
HETATM    4  C4  UNL     1     -33.849   6.204   3.598  1.00 20.00     0.029 A 
HETATM    5  C5  UNL     1     -34.531   5.586   4.646  1.00 20.00     0.126 A 
HETATM    6  C6  UNL     1     -33.112   7.364   3.835  1.00 20.00     0.126 A 
HETATM    7  F8  UNL     1     -35.242   4.471   4.429  1.00 20.00    -0.205 F 
HETATM    8  F9  UNL     1     -32.452   7.965   2.834  1.00 20.00    -0.205 F 
ENDROOT
BRANCH   4   9
HETATM    9  C7  UNL     1     -33.908   5.624   2.225  1.00 20.00     0.130 C 
HETATM   10 BR10 UNL     1     -32.770   4.048   2.136  1.00 20.00    -0.091 Br
ENDBRANCH   4   9
TORSDOF 1
ENDMDL
MODEL 7
REMARK VINA RESULT:      -4.7      2.175      2.691
REMARK  1 active torsions:
REMARK  status: ('A' for Active; 'I' for Inactive)
REMARK    1  A    between atoms: C4_4  and  C7_7 
ROOT
HETATM    1  C1  UNL     1     -33.738   7.290   6.167  1.00 20.00     0.006 A 
HETATM    2  C2  UNL     1     -33.055   7.908   5.119  1.00 20.00     0.043 A 
HETATM    3  C3  UNL     1     -34.476   6.130   5.931  1.00 20.00     0.043 A 
HETATM    4  C4  UNL     1     -33.848   6.206   3.598  1.00 20.00     0.029 A 
HETATM    5  C5  UNL     1     -33.110   7.366   3.834  1.00 20.00     0.126 A 
HETATM    6  C6  UNL     1     -34.531   5.589   4.646  1.00 20.00     0.126 A 
HETATM    7  F8  UNL     1     -32.451   7.967   2.834  1.00 20.00    -0.205 F 
HETATM    8  F9  UNL     1     -35.242   4.473   4.429  1.00 20.00    -0.205 F 
ENDROOT
BRANCH   4   9
HETATM    9  C7  UNL     1     -33.907   5.627   2.225  1.00 20.00     0.130 C 
HETATM   10 BR10 UNL     1     -32.772   4.049   2.135  1.00 20.00    -0.091 Br
ENDBRANCH   4   9
TORSDOF 1
ENDMDL
MODEL 8
REMARK VINA RESULT:      -4.1     12.232     12.870
REMARK  1 active torsions:
REMARK  status: ('A' for Active; 'I' for Inactive)
REMARK    1  A    between atoms: C4_4  and  C7_7 
ROOT
HETATM    1  C1  UNL     1     -34.163  16.937  -1.915  1.00 20.00     0.006 A 
HETATM    2  C2  UNL     1     -35.302  16.912  -1.109  1.00 20.00     0.043 A 
HETATM    3  C3  UNL     1     -33.067  17.718  -1.548  1.00 20.00     0.043 A 
HETATM    4  C4  UNL     1     -34.249  18.450   0.428  1.00 20.00     0.029 A 
HETATM    5  C5  UNL     1     -35.346  17.669   0.062  1.00 20.00     0.126 A 
HETATM    6  C6  UNL     1     -33.111  18.474  -0.377  1.00 20.00     0.126 A 
HETATM    7  F8  UNL     1     -36.445  17.639   0.828  1.00 20.00    -0.205 F 
HETATM    8  F9  UNL     1     -32.052  19.222  -0.033  1.00 20.00    -0.205 F 
ENDROOT
BRANCH   4   9
HETATM    9  C7  UNL     1     -34.296  19.259   1.680  1.00 20.00     0.130 C 
HETATM   10 BR10 UNL     1     -33.560  18.222   3.153  1.00 20.00    -0.091 Br
ENDBRANCH   4   9
TORSDOF 1
ENDMDL
MODEL 9
REMARK VINA RESULT:      -3.9     12.452     12.911
REMARK  1 active torsions:
REMARK  status: ('A' for Active; 'I' for Inactive)
REMARK    1  A    between atoms: C4_4  and  C7_7 
ROOT
HETATM    1  C1  UNL     1     -34.444  16.801  -2.144  1.00 20.00     0.006 A 
HETATM    2  C2  UNL     1     -33.215  17.388  -1.842  1.00 20.00     0.043 A 
HETATM    3  C3  UNL     1     -35.542  17.013  -1.310  1.00 20.00     0.043 A 
HETATM    4  C4  UNL     1     -34.182  18.399   0.129  1.00 20.00     0.029 A 
HETATM    5  C5  UNL     1     -33.084  18.187  -0.705  1.00 20.00     0.126 A 
HETATM    6  C6  UNL     1     -35.410  17.811  -0.174  1.00 20.00     0.126 A 
HETATM    7  F8  UNL     1     -31.899  18.746  -0.423  1.00 20.00    -0.205 F 
HETATM    8  F9  UNL     1     -36.472  18.010   0.622  1.00 20.00    -0.205 F 
ENDROOT
BRANCH   4   9
HETATM    9  C7  UNL     1     -34.042  19.253   1.343  1.00 20.00     0.130 C 
HETATM   10 BR10 UNL     1     -33.599  18.138   2.875  1.00 20.00    -0.091 Br
ENDBRANCH   4   9
TORSDOF 1
ENDMDL
