MODEL 1
REMARK VINA RESULT:      -4.2      0.000      0.000
REMARK  1 active torsions:
REMARK  status: ('A' for Active; 'I' for Inactive)
REMARK    1  A    between atoms: C4_4  and  S7_7 
ROOT
HETATM    1  C1  UNL     1     -34.424   6.217   5.407  1.00 20.00     0.009 A 
HETATM    2  C2  UNL     1     -33.446   7.231   5.193  1.00 20.00     0.026 A 
HETATM    3  C3  UNL     1     -34.637   5.457   4.279  1.00 20.00     0.051 A 
HETATM    4  C4  UNL     1     -32.949   7.206   3.908  1.00 20.00     0.040 A 
HETATM    5  S6  UNL     1     -33.661   5.965   2.968  1.00 20.00    -0.095 SA
ENDROOT
BRANCH   4   6
HETATM    6  S7  UNL     1     -31.731   8.286   3.252  1.00 20.00    -0.127 SA
HETATM    7  C5  UNL     1     -32.463   8.666   1.640  1.00 20.00     0.096 C 
ENDBRANCH   4   6
TORSDOF 1
ENDMDL
MODEL 2
REMARK VINA RESULT:      -4.2      1.511      1.927
REMARK  1 active torsions:
REMARK  status: ('A' for Active; 'I' for Inactive)
REMARK    1  A    between atoms: C4_4  and  S7_7 
ROOT
HETATM    1  C1  UNL     1     -34.792   5.024   4.905  1.00 20.00     0.009 A 
HETATM    2  C2  UNL     1     -34.254   5.514   3.680  1.00 20.00     0.026 A 
HETATM    3  C3  UNL     1     -34.545   5.876   5.957  1.00 20.00     0.051 A 
HETATM    4  C4  UNL     1     -33.616   6.724   3.844  1.00 20.00     0.040 A 
HETATM    5  S6  UNL     1     -33.668   7.263   5.468  1.00 20.00    -0.095 SA
ENDROOT
BRANCH   4   6
HETATM    6  S7  UNL     1     -32.828   7.654   2.582  1.00 20.00    -0.127 SA
HETATM    7  C5  UNL     1     -31.445   8.363   3.510  1.00 20.00     0.096 C 
ENDBRANCH   4   6
TORSDOF 1
ENDMDL
MODEL 3
REMARK VINA RESULT:      -4.1      1.204      1.574
REMARK  1 active torsions:
REMARK  status: ('A' for Active; 'I' for Inactive)
REMARK    1  A    between atoms: C4_4  and  S7_7 
ROOT
HETATM    1  C1  UNL     1     -34.500   5.387   3.757  1.00 20.00     0.009 A 
HETATM    2  C2  UNL     1     -33.529   6.129   3.024  1.00 20.00     0.026 A 
HETATM    3  C3  UNL     1     -34.645   5.853   5.044  1.00 20.00     0.051 A 
HETATM    4  C4  UNL     1     -32.970   7.136   3.780  1.00 20.00     0.040 A 
HETATM    5  S6  UNL     1     -33.614   7.182   5.366  1.00 20.00    -0.095 SA
ENDROOT
BRANCH   4   6
HETATM    6  S7  UNL     1     -31.743   8.269   3.243  1.00 20.00    -0.127 SA
HETATM    7  C5  UNL     1     -32.421   8.750   1.634  1.00 20.00     0.096 C 
ENDBRANCH   4   6
TORSDOF 1
ENDMDL
MODEL 4
REMARK VINA RESULT:      -3.3      1.655      3.732
REMARK  1 active torsions:
REMARK  status: ('A' for Active; 'I' for Inactive)
REMARK    1  A    between atoms: C4_4  and  S7_7 
ROOT
HETATM    1  C1  UNL     1     -31.982   7.893   2.750  1.00 20.00     0.009 A 
HETATM    2  C2  UNL     1     -33.066   6.982   2.589  1.00 20.00     0.026 A 
HETATM    3  C3  UNL     1     -31.870   8.342   4.046  1.00 20.00     0.051 A 
HETATM    4  C4  UNL     1     -33.741   6.769   3.771  1.00 20.00     0.040 A 
HETATM    5  S6  UNL     1     -33.069   7.666   5.066  1.00 20.00    -0.095 SA
ENDROOT
BRANCH   4   6
HETATM    6  S7  UNL     1     -35.128   5.717   3.993  1.00 20.00    -0.127 SA
HETATM    7  C5  UNL     1     -34.301   4.176   4.459  1.00 20.00     0.096 C 
ENDBRANCH   4   6
TORSDOF 1
ENDMDL
MODEL 5
REMARK VINA RESULT:      -3.2      1.468      3.411
REMARK  1 active torsions:
REMARK  status: ('A' for Active; 'I' for Inactive)
REMARK    1  A    between atoms: C4_4  and  S7_7 
ROOT
HETATM    1  C1  UNL     1     -31.858   8.355   3.387  1.00 20.00     0.009 A 
HETATM    2  C2  UNL     1     -32.502   7.943   4.590  1.00 20.00     0.026 A 
HETATM    3  C3  UNL     1     -32.288   7.633   2.297  1.00 20.00     0.051 A 
HETATM    4  C4  UNL     1     -33.401   6.923   4.371  1.00 20.00     0.040 A 
HETATM    5  S6  UNL     1     -33.464   6.464   2.723  1.00 20.00    -0.095 SA
ENDROOT
BRANCH   4   6
HETATM    6  S7  UNL     1     -34.393   6.143   5.590  1.00 20.00    -0.127 SA
HETATM    7  C5  UNL     1     -34.565   4.491   4.868  1.00 20.00     0.096 C 
ENDBRANCH   4   6
TORSDOF 1
ENDMDL
MODEL 6
REMARK VINA RESULT:      -2.9     11.442     11.769
REMARK  1 active torsions:
REMARK  status: ('A' for Active; 'I' for Inactive)
REMARK    1  A    between atoms: C4_4  and  S7_7 
ROOT
HETATM    1  C1  UNL     1     -35.356  17.263  -0.644  1.00 20.00     0.009 A 
HETATM    2  C2  UNL     1     -35.280  16.582  -1.893  1.00 20.00     0.026 A 
HETATM    3  C3  UNL     1     -34.217  17.990  -0.381  1.00 20.00     0.051 A 
HETATM    4  C4  UNL     1     -34.086  16.816  -2.538  1.00 20.00     0.040 A 
HETATM    5  S6  UNL     1     -33.062  17.852  -1.637  1.00 20.00    -0.095 SA
ENDROOT
BRANCH   4   6
HETATM    6  S7  UNL     1     -33.609  16.164  -4.095  1.00 20.00    -0.127 SA
HETATM    7  C5  UNL     1     -34.528  14.604  -4.095  1.00 20.00     0.096 C 
ENDBRANCH   4   6
TORSDOF 1
ENDMDL
MODEL 7
REMARK VINA RESULT:      -2.8     11.300     11.674
REMARK  1 active torsions:
REMARK  status: ('A' for Active; 'I' for Inactive)
REMARK    1  A    between atoms: C4_4  and  S7_7 
ROOT
HETATM    1  C1  UNL     1     -35.553  13.655  -4.926  1.00 20.00     0.009 A 
HETATM    2  C2  UNL     1     -34.551  14.336  -4.175  1.00 20.00     0.026 A 
HETATM    3  C3  UNL     1     -36.741  14.350  -4.954  1.00 20.00     0.051 A 
HETATM    4  C4  UNL     1     -35.012  15.527  -3.659  1.00 20.00     0.040 A 
HETATM    5  S6  UNL     1     -36.647  15.819  -4.078  1.00 20.00    -0.095 SA
ENDROOT
BRANCH   4   6
HETATM    6  S7  UNL     1     -34.089  16.655  -2.683  1.00 20.00    -0.127 SA
HETATM    7  C5  UNL     1     -35.255  16.951  -1.330  1.00 20.00     0.096 C 
ENDBRANCH   4   6
TORSDOF 1
ENDMDL
MODEL 8
REMARK VINA RESULT:      -2.8     11.715     11.915
REMARK  1 active torsions:
REMARK  status: ('A' for Active; 'I' for Inactive)
REMARK    1  A    between atoms: C4_4  and  S7_7 
ROOT
HETATM    1  C1  UNL     1     -34.276  17.322  -1.189  1.00 20.00     0.009 A 
HETATM    2  C2  UNL     1     -33.403  17.071  -2.287  1.00 20.00     0.026 A 
HETATM    3  C3  UNL     1     -35.579  16.981  -1.474  1.00 20.00     0.051 A 
HETATM    4  C4  UNL     1     -34.074  16.547  -3.370  1.00 20.00     0.040 A 
HETATM    5  S6  UNL     1     -35.748  16.360  -3.061  1.00 20.00    -0.095 SA
ENDROOT
BRANCH   4   6
HETATM    6  S7  UNL     1     -33.360  16.101  -4.909  1.00 20.00    -0.127 SA
HETATM    7  C5  UNL     1     -34.314  14.612  -5.297  1.00 20.00     0.096 C 
ENDBRANCH   4   6
TORSDOF 1
ENDMDL
MODEL 9
REMARK VINA RESULT:      -2.8     11.621     12.027
REMARK  1 active torsions:
REMARK  status: ('A' for Active; 'I' for Inactive)
REMARK    1  A    between atoms: C4_4  and  S7_7 
ROOT
HETATM    1  C1  UNL     1     -34.282  17.364  -1.133  1.00 20.00     0.009 A 
HETATM    2  C2  UNL     1     -35.395  16.701  -1.727  1.00 20.00     0.026 A 
HETATM    3  C3  UNL     1     -33.280  17.611  -2.044  1.00 20.00     0.051 A 
HETATM    4  C4  UNL     1     -35.200  16.467  -3.070  1.00 20.00     0.040 A 
HETATM    5  S6  UNL     1     -33.681  17.044  -3.609  1.00 20.00    -0.095 SA
ENDROOT
BRANCH   4   6
HETATM    6  S7  UNL     1     -36.332  15.679  -4.155  1.00 20.00    -0.127 SA
HETATM    7  C5  UNL     1     -35.376  14.212  -4.618  1.00 20.00     0.096 C 
ENDBRANCH   4   6
TORSDOF 1
ENDMDL
