MODEL 1
REMARK VINA RESULT:      -5.3      0.000      0.000
REMARK  3 active torsions:
REMARK  status: ('A' for Active; 'I' for Inactive)
REMARK    1  A    between atoms: C4_4  and  S10_10 
REMARK    2  A    between atoms: C5_5  and  C7_7 
REMARK    3  A    between atoms: C7_7  and  S10_10 
ROOT
HETATM    1  C1  UNL     1     -34.431   6.198   5.417  1.00 20.00     0.009 A 
HETATM    2  C2  UNL     1     -33.490   7.250   5.230  1.00 20.00     0.026 A 
HETATM    3  C3  UNL     1     -34.610   5.454   4.271  1.00 20.00     0.051 A 
HETATM    4  C4  UNL     1     -32.984   7.271   3.949  1.00 20.00     0.041 A 
HETATM    5  S9  UNL     1     -33.644   6.024   2.977  1.00 20.00    -0.095 SA
ENDROOT
BRANCH   4   6
HETATM    6  S10 UNL     1     -31.794   8.416   3.319  1.00 20.00    -0.115 SA
BRANCH   6   7
HETATM    7  C7  UNL     1     -32.101   8.249   1.546  1.00 20.00     0.157 C 
BRANCH   7   8
HETATM    8  C5  UNL     1     -32.580   9.545   0.938  1.00 20.00     0.132 C 
HETATM    9  C6  UNL     1     -33.124   9.423  -0.448  1.00 20.00     0.091 C 
HETATM   10  O8  UNL     1     -32.556  10.641   1.482  1.00 20.00    -0.298 OA
ENDBRANCH   7   8
ENDBRANCH   6   7
ENDBRANCH   4   6
TORSDOF 3
ENDMDL
MODEL 2
REMARK VINA RESULT:      -5.2      1.012      1.321
REMARK  3 active torsions:
REMARK  status: ('A' for Active; 'I' for Inactive)
REMARK    1  A    between atoms: C4_4  and  S10_10 
REMARK    2  A    between atoms: C5_5  and  C7_7 
REMARK    3  A    between atoms: C7_7  and  S10_10 
ROOT
HETATM    1  C1  UNL     1     -34.386   5.403   3.710  1.00 20.00     0.009 A 
HETATM    2  C2  UNL     1     -33.434   6.206   3.019  1.00 20.00     0.026 A 
HETATM    3  C3  UNL     1     -34.596   5.843   4.998  1.00 20.00     0.051 A 
HETATM    4  C4  UNL     1     -32.953   7.230   3.805  1.00 20.00     0.041 A 
HETATM    5  S9  UNL     1     -33.648   7.220   5.370  1.00 20.00    -0.095 SA
ENDROOT
BRANCH   4   6
HETATM    6  S10 UNL     1     -31.763   8.444   3.319  1.00 20.00    -0.115 SA
BRANCH   6   7
HETATM    7  C7  UNL     1     -31.917   8.337   1.521  1.00 20.00     0.157 C 
BRANCH   7   8
HETATM    8  C5  UNL     1     -32.539   9.584   0.940  1.00 20.00     0.132 C 
HETATM    9  C6  UNL     1     -33.131   9.411  -0.420  1.00 20.00     0.091 C 
HETATM   10  O8  UNL     1     -32.590  10.678   1.486  1.00 20.00    -0.298 OA
ENDBRANCH   7   8
ENDBRANCH   6   7
ENDBRANCH   4   6
TORSDOF 3
ENDMDL
MODEL 3
REMARK VINA RESULT:      -5.1      0.881      1.064
REMARK  3 active torsions:
REMARK  status: ('A' for Active; 'I' for Inactive)
REMARK    1  A    between atoms: C4_4  and  S10_10 
REMARK    2  A    between atoms: C5_5  and  C7_7 
REMARK    3  A    between atoms: C7_7  and  S10_10 
ROOT
HETATM    1  C1  UNL     1     -34.419   6.198   5.362  1.00 20.00     0.009 A 
HETATM    2  C2  UNL     1     -33.514   7.274   5.139  1.00 20.00     0.026 A 
HETATM    3  C3  UNL     1     -34.598   5.429   4.233  1.00 20.00     0.051 A 
HETATM    4  C4  UNL     1     -33.034   7.287   3.848  1.00 20.00     0.041 A 
HETATM    5  S9  UNL     1     -33.675   6.006   2.911  1.00 20.00    -0.095 SA
ENDROOT
BRANCH   4   6
HETATM    6  S10 UNL     1     -31.891   8.457   3.176  1.00 20.00    -0.115 SA
BRANCH   6   7
HETATM    7  C7  UNL     1     -32.071   8.098   1.414  1.00 20.00     0.157 C 
BRANCH   7   8
HETATM    8  C5  UNL     1     -32.617   9.285   0.657  1.00 20.00     0.132 C 
HETATM    9  C6  UNL     1     -32.662  10.558   1.437  1.00 20.00     0.091 C 
HETATM   10  O8  UNL     1     -33.007   9.275  -0.503  1.00 20.00    -0.298 OA
ENDBRANCH   7   8
ENDBRANCH   6   7
ENDBRANCH   4   6
TORSDOF 3
ENDMDL
MODEL 4
REMARK VINA RESULT:      -4.1     10.201     10.758
REMARK  3 active torsions:
REMARK  status: ('A' for Active; 'I' for Inactive)
REMARK    1  A    between atoms: C4_4  and  S10_10 
REMARK    2  A    between atoms: C5_5  and  C7_7 
REMARK    3  A    between atoms: C7_7  and  S10_10 
ROOT
HETATM    1  C1  UNL     1     -35.420  17.163  -0.877  1.00 20.00     0.009 A 
HETATM    2  C2  UNL     1     -35.384  16.456  -2.113  1.00 20.00     0.026 A 
HETATM    3  C3  UNL     1     -34.252  17.854  -0.642  1.00 20.00     0.051 A 
HETATM    4  C4  UNL     1     -34.191  16.635  -2.777  1.00 20.00     0.041 A 
HETATM    5  S9  UNL     1     -33.118  17.650  -1.909  1.00 20.00    -0.095 SA
ENDROOT
BRANCH   4   6
HETATM    6  S10 UNL     1     -33.754  15.932  -4.339  1.00 20.00    -0.115 SA
BRANCH   6   7
HETATM    7  C7  UNL     1     -34.317  14.233  -4.091  1.00 20.00     0.157 C 
BRANCH   7   8
HETATM    8  C5  UNL     1     -35.484  13.896  -4.988  1.00 20.00     0.132 C 
HETATM    9  C6  UNL     1     -36.136  15.075  -5.634  1.00 20.00     0.091 C 
HETATM   10  O8  UNL     1     -35.912  12.772  -5.212  1.00 20.00    -0.298 OA
ENDBRANCH   7   8
ENDBRANCH   6   7
ENDBRANCH   4   6
TORSDOF 3
ENDMDL
MODEL 5
REMARK VINA RESULT:      -4.1     10.696     11.016
REMARK  3 active torsions:
REMARK  status: ('A' for Active; 'I' for Inactive)
REMARK    1  A    between atoms: C4_4  and  S10_10 
REMARK    2  A    between atoms: C5_5  and  C7_7 
REMARK    3  A    between atoms: C7_7  and  S10_10 
ROOT
HETATM    1  C1  UNL     1     -34.403  17.321  -1.221  1.00 20.00     0.009 A 
HETATM    2  C2  UNL     1     -35.570  16.740  -1.793  1.00 20.00     0.026 A 
HETATM    3  C3  UNL     1     -33.319  17.244  -2.068  1.00 20.00     0.051 A 
HETATM    4  C4  UNL     1     -35.336  16.243  -3.056  1.00 20.00     0.041 A 
HETATM    5  S9  UNL     1     -33.711  16.475  -3.546  1.00 20.00    -0.095 SA
ENDROOT
BRANCH   4   6
HETATM    6  S10 UNL     1     -36.522  15.449  -4.098  1.00 20.00    -0.115 SA
BRANCH   6   7
HETATM    7  C7  UNL     1     -35.509  15.153  -5.565  1.00 20.00     0.157 C 
BRANCH   7   8
HETATM    8  C5  UNL     1     -35.457  13.686  -5.920  1.00 20.00     0.132 C 
HETATM    9  C6  UNL     1     -34.738  13.375  -7.191  1.00 20.00     0.091 C 
HETATM   10  O8  UNL     1     -35.943  12.775  -5.263  1.00 20.00    -0.298 OA
ENDBRANCH   7   8
ENDBRANCH   6   7
ENDBRANCH   4   6
TORSDOF 3
ENDMDL
MODEL 6
REMARK VINA RESULT:      -4.0     10.661     11.446
REMARK  3 active torsions:
REMARK  status: ('A' for Active; 'I' for Inactive)
REMARK    1  A    between atoms: C4_4  and  S10_10 
REMARK    2  A    between atoms: C5_5  and  C7_7 
REMARK    3  A    between atoms: C7_7  and  S10_10 
ROOT
HETATM    1  C1  UNL     1     -33.658  17.582  -1.649  1.00 20.00     0.009 A 
HETATM    2  C2  UNL     1     -33.879  16.536  -2.591  1.00 20.00     0.026 A 
HETATM    3  C3  UNL     1     -33.361  18.778  -2.265  1.00 20.00     0.051 A 
HETATM    4  C4  UNL     1     -33.744  16.973  -3.890  1.00 20.00     0.041 A 
HETATM    5  S9  UNL     1     -33.351  18.637  -3.972  1.00 20.00    -0.095 SA
ENDROOT
BRANCH   4   6
HETATM    6  S10 UNL     1     -33.940  15.986  -5.344  1.00 20.00    -0.115 SA
BRANCH   6   7
HETATM    7  C7  UNL     1     -34.194  14.362  -4.593  1.00 20.00     0.157 C 
BRANCH   7   8
HETATM    8  C5  UNL     1     -35.586  13.838  -4.856  1.00 20.00     0.132 C 
HETATM    9  C6  UNL     1     -36.681  14.826  -4.617  1.00 20.00     0.091 C 
HETATM   10  O8  UNL     1     -35.864  12.709  -5.236  1.00 20.00    -0.298 OA
ENDBRANCH   7   8
ENDBRANCH   6   7
ENDBRANCH   4   6
TORSDOF 3
ENDMDL
MODEL 7
REMARK VINA RESULT:      -3.8      2.583      5.061
REMARK  3 active torsions:
REMARK  status: ('A' for Active; 'I' for Inactive)
REMARK    1  A    between atoms: C4_4  and  S10_10 
REMARK    2  A    between atoms: C5_5  and  C7_7 
REMARK    3  A    between atoms: C7_7  and  S10_10 
ROOT
HETATM    1  C1  UNL     1     -32.420   9.260   1.211  1.00 20.00     0.009 A 
HETATM    2  C2  UNL     1     -33.048   7.982   1.240  1.00 20.00     0.026 A 
HETATM    3  C3  UNL     1     -31.651   9.484   2.332  1.00 20.00     0.051 A 
HETATM    4  C4  UNL     1     -32.734   7.277   2.380  1.00 20.00     0.041 A 
HETATM    5  S9  UNL     1     -31.687   8.155   3.412  1.00 20.00    -0.095 SA
ENDROOT
BRANCH   4   6
HETATM    6  S10 UNL     1     -33.308   5.656   2.791  1.00 20.00    -0.115 SA
BRANCH   6   7
HETATM    7  C7  UNL     1     -34.748   6.075   3.799  1.00 20.00     0.157 C 
BRANCH   7   8
HETATM    8  C5  UNL     1     -34.482   5.859   5.269  1.00 20.00     0.132 C 
HETATM    9  C6  UNL     1     -33.975   7.062   5.996  1.00 20.00     0.091 C 
HETATM   10  O8  UNL     1     -34.647   4.811   5.879  1.00 20.00    -0.298 OA
ENDBRANCH   7   8
ENDBRANCH   6   7
ENDBRANCH   4   6
TORSDOF 3
ENDMDL
MODEL 8
REMARK VINA RESULT:      -3.7      2.119      5.066
REMARK  3 active torsions:
REMARK  status: ('A' for Active; 'I' for Inactive)
REMARK    1  A    between atoms: C4_4  and  S10_10 
REMARK    2  A    between atoms: C5_5  and  C7_7 
REMARK    3  A    between atoms: C7_7  and  S10_10 
ROOT
HETATM    1  C1  UNL     1     -32.172   8.996  -0.261  1.00 20.00     0.009 A 
HETATM    2  C2  UNL     1     -31.857   8.173   0.858  1.00 20.00     0.026 A 
HETATM    3  C3  UNL     1     -32.741  10.191   0.120  1.00 20.00     0.051 A 
HETATM    4  C4  UNL     1     -32.196   8.770   2.052  1.00 20.00     0.041 A 
HETATM    5  S9  UNL     1     -32.894  10.317   1.821  1.00 20.00    -0.095 SA
ENDROOT
BRANCH   4   6
HETATM    6  S10 UNL     1     -31.967   8.080   3.663  1.00 20.00    -0.115 SA
BRANCH   6   7
HETATM    7  C7  UNL     1     -33.375   6.948   3.726  1.00 20.00     0.157 C 
BRANCH   7   8
HETATM    8  C5  UNL     1     -33.877   6.761   5.138  1.00 20.00     0.132 C 
HETATM    9  C6  UNL     1     -34.647   5.502   5.366  1.00 20.00     0.091 C 
HETATM   10  O8  UNL     1     -33.700   7.537   6.068  1.00 20.00    -0.298 OA
ENDBRANCH   7   8
ENDBRANCH   6   7
ENDBRANCH   4   6
TORSDOF 3
ENDMDL
MODEL 9
REMARK VINA RESULT:      -3.7     10.305     10.786
REMARK  3 active torsions:
REMARK  status: ('A' for Active; 'I' for Inactive)
REMARK    1  A    between atoms: C4_4  and  S10_10 
REMARK    2  A    between atoms: C5_5  and  C7_7 
REMARK    3  A    between atoms: C7_7  and  S10_10 
ROOT
HETATM    1  C1  UNL     1     -33.247  18.446  -0.214  1.00 20.00     0.009 A 
HETATM    2  C2  UNL     1     -32.849  18.005  -1.508  1.00 20.00     0.026 A 
HETATM    3  C3  UNL     1     -34.539  18.072   0.086  1.00 20.00     0.051 A 
HETATM    4  C4  UNL     1     -33.851  17.309  -2.148  1.00 20.00     0.041 A 
HETATM    5  S9  UNL     1     -35.265  17.191  -1.190  1.00 20.00    -0.095 SA
ENDROOT
BRANCH   4   6
HETATM    6  S10 UNL     1     -33.754  16.596  -3.763  1.00 20.00    -0.115 SA
BRANCH   6   7
HETATM    7  C7  UNL     1     -35.003  15.299  -3.613  1.00 20.00     0.157 C 
BRANCH   7   8
HETATM    8  C5  UNL     1     -34.720  14.143  -4.543  1.00 20.00     0.132 C 
HETATM    9  C6  UNL     1     -35.925  13.581  -5.225  1.00 20.00     0.091 C 
HETATM   10  O8  UNL     1     -33.619  13.659  -4.768  1.00 20.00    -0.298 OA
ENDBRANCH   7   8
ENDBRANCH   6   7
ENDBRANCH   4   6
TORSDOF 3
ENDMDL
