MODEL 1
REMARK VINA RESULT:      -6.6      0.000      0.000
REMARK  1 active torsions:
REMARK  status: ('A' for Active; 'I' for Inactive)
REMARK    1  A    between atoms: C6_6  and  C9_9 
ROOT
HETATM    1  C1  UNL     1     -34.654   5.129   5.639  1.00 20.00     0.001 A 
HETATM    2  C2  UNL     1     -34.344   6.466   5.886  1.00 20.00     0.001 A 
HETATM    3  C3  UNL     1     -34.305   4.544   4.422  1.00 20.00     0.007 A 
HETATM    4  C4  UNL     1     -33.683   7.218   4.914  1.00 20.00     0.007 A 
HETATM    5  C5  UNL     1     -33.644   5.296   3.451  1.00 20.00    -0.056 A 
HETATM    6  C6  UNL     1     -33.334   6.634   3.697  1.00 20.00    -0.053 A 
HETATM    7  C7  UNL     1     -33.279   4.648   2.156  1.00 20.00     0.049 C 
ENDROOT
BRANCH   6   8
HETATM    8  C9  UNL     1     -32.628   7.459   2.672  1.00 20.00     0.034 C 
HETATM    9  C8  UNL     1     -31.543   8.340   3.284  1.00 20.00     0.010 C 
ENDBRANCH   6   8
TORSDOF 1
ENDMDL
MODEL 2
REMARK VINA RESULT:      -6.2      0.804      2.450
REMARK  1 active torsions:
REMARK  status: ('A' for Active; 'I' for Inactive)
REMARK    1  A    between atoms: C6_6  and  C9_9 
ROOT
HETATM    1  C1  UNL     1     -34.574   4.433   4.403  1.00 20.00     0.001 A 
HETATM    2  C2  UNL     1     -33.900   4.551   3.187  1.00 20.00     0.001 A 
HETATM    3  C3  UNL     1     -34.513   5.466   5.338  1.00 20.00     0.007 A 
HETATM    4  C4  UNL     1     -33.166   5.703   2.907  1.00 20.00     0.007 A 
HETATM    5  C5  UNL     1     -33.779   6.619   5.057  1.00 20.00    -0.056 A 
HETATM    6  C6  UNL     1     -33.105   6.737   3.841  1.00 20.00    -0.053 A 
HETATM    7  C7  UNL     1     -33.729   7.713   6.073  1.00 20.00     0.049 C 
ENDROOT
BRANCH   6   8
HETATM    8  C9  UNL     1     -32.311   7.960   3.520  1.00 20.00     0.034 C 
HETATM    9  C8  UNL     1     -32.247   8.231   2.019  1.00 20.00     0.010 C 
ENDBRANCH   6   8
TORSDOF 1
ENDMDL
MODEL 3
REMARK VINA RESULT:      -6.0      1.043      3.882
REMARK  1 active torsions:
REMARK  status: ('A' for Active; 'I' for Inactive)
REMARK    1  A    between atoms: C6_6  and  C9_9 
ROOT
HETATM    1  C1  UNL     1     -31.776   8.264   3.144  1.00 20.00     0.001 A 
HETATM    2  C2  UNL     1     -32.338   7.446   2.164  1.00 20.00     0.001 A 
HETATM    3  C3  UNL     1     -32.257   8.218   4.452  1.00 20.00     0.007 A 
HETATM    4  C4  UNL     1     -33.381   6.580   2.494  1.00 20.00     0.007 A 
HETATM    5  C5  UNL     1     -33.300   7.353   4.781  1.00 20.00    -0.056 A 
HETATM    6  C6  UNL     1     -33.862   6.535   3.802  1.00 20.00    -0.053 A 
HETATM    7  C7  UNL     1     -33.798   7.320   6.189  1.00 20.00     0.049 C 
ENDROOT
BRANCH   6   8
HETATM    8  C9  UNL     1     -34.981   5.602   4.131  1.00 20.00     0.034 C 
HETATM    9  C8  UNL     1     -34.482   4.220   4.542  1.00 20.00     0.010 C 
ENDBRANCH   6   8
TORSDOF 1
ENDMDL
MODEL 4
REMARK VINA RESULT:      -5.9      0.978      1.076
REMARK  1 active torsions:
REMARK  status: ('A' for Active; 'I' for Inactive)
REMARK    1  A    between atoms: C6_6  and  C9_9 
ROOT
HETATM    1  C1  UNL     1     -34.465   6.275   5.866  1.00 20.00     0.001 A 
HETATM    2  C2  UNL     1     -33.631   7.385   6.001  1.00 20.00     0.001 A 
HETATM    3  C3  UNL     1     -34.556   5.615   4.641  1.00 20.00     0.007 A 
HETATM    4  C4  UNL     1     -32.888   7.835   4.909  1.00 20.00     0.007 A 
HETATM    5  C5  UNL     1     -33.813   6.065   3.549  1.00 20.00    -0.056 A 
HETATM    6  C6  UNL     1     -32.979   7.175   3.684  1.00 20.00    -0.053 A 
HETATM    7  C7  UNL     1     -33.926   5.342   2.247  1.00 20.00     0.049 C 
ENDROOT
BRANCH   6   8
HETATM    8  C9  UNL     1     -32.176   7.676   2.529  1.00 20.00     0.034 C 
HETATM    9  C8  UNL     1     -32.623   9.060   2.068  1.00 20.00     0.010 C 
ENDBRANCH   6   8
TORSDOF 1
ENDMDL
MODEL 5
REMARK VINA RESULT:      -5.7      0.761      2.661
REMARK  1 active torsions:
REMARK  status: ('A' for Active; 'I' for Inactive)
REMARK    1  A    between atoms: C6_6  and  C9_9 
ROOT
HETATM    1  C1  UNL     1     -33.986   7.109   6.179  1.00 20.00     0.001 A 
HETATM    2  C2  UNL     1     -34.653   5.926   5.863  1.00 20.00     0.001 A 
HETATM    3  C3  UNL     1     -33.221   7.759   5.212  1.00 20.00     0.007 A 
HETATM    4  C4  UNL     1     -34.555   5.393   4.577  1.00 20.00     0.007 A 
HETATM    5  C5  UNL     1     -33.123   7.227   3.926  1.00 20.00    -0.056 A 
HETATM    6  C6  UNL     1     -33.790   6.043   3.610  1.00 20.00    -0.053 A 
HETATM    7  C7  UNL     1     -32.298   7.941   2.906  1.00 20.00     0.049 C 
ENDROOT
BRANCH   6   8
HETATM    8  C9  UNL     1     -33.698   5.453   2.241  1.00 20.00     0.034 C 
HETATM    9  C8  UNL     1     -32.813   4.211   2.203  1.00 20.00     0.010 C 
ENDBRANCH   6   8
TORSDOF 1
ENDMDL
MODEL 6
REMARK VINA RESULT:      -5.1      0.979      3.216
REMARK  1 active torsions:
REMARK  status: ('A' for Active; 'I' for Inactive)
REMARK    1  A    between atoms: C6_6  and  C9_9 
ROOT
HETATM    1  C1  UNL     1     -31.719   8.329   3.555  1.00 20.00     0.001 A 
HETATM    2  C2  UNL     1     -32.224   8.384   4.854  1.00 20.00     0.001 A 
HETATM    3  C3  UNL     1     -32.274   7.448   2.627  1.00 20.00     0.007 A 
HETATM    4  C4  UNL     1     -33.285   7.557   5.225  1.00 20.00     0.007 A 
HETATM    5  C5  UNL     1     -33.335   6.622   2.997  1.00 20.00    -0.056 A 
HETATM    6  C6  UNL     1     -33.840   6.677   4.297  1.00 20.00    -0.053 A 
HETATM    7  C7  UNL     1     -33.915   5.688   1.986  1.00 20.00     0.049 C 
ENDROOT
BRANCH   6   8
HETATM    8  C9  UNL     1     -34.974   5.800   4.717  1.00 20.00     0.034 C 
HETATM    9  C8  UNL     1     -34.522   4.663   5.628  1.00 20.00     0.010 C 
ENDBRANCH   6   8
TORSDOF 1
ENDMDL
MODEL 7
REMARK VINA RESULT:      -4.9      0.989      2.612
REMARK  1 active torsions:
REMARK  status: ('A' for Active; 'I' for Inactive)
REMARK    1  A    between atoms: C6_6  and  C9_9 
ROOT
HETATM    1  C1  UNL     1     -33.336   7.747   5.972  1.00 20.00     0.001 A 
HETATM    2  C2  UNL     1     -32.669   8.151   4.815  1.00 20.00     0.001 A 
HETATM    3  C3  UNL     1     -34.149   6.615   5.950  1.00 20.00     0.007 A 
HETATM    4  C4  UNL     1     -32.817   7.421   3.635  1.00 20.00     0.007 A 
HETATM    5  C5  UNL     1     -34.297   5.885   4.770  1.00 20.00    -0.056 A 
HETATM    6  C6  UNL     1     -33.630   6.288   3.613  1.00 20.00    -0.053 A 
HETATM    7  C7  UNL     1     -35.172   4.675   4.770  1.00 20.00     0.049 C 
ENDROOT
BRANCH   6   8
HETATM    8  C9  UNL     1     -33.774   5.524   2.338  1.00 20.00     0.034 C 
HETATM    9  C8  UNL     1     -32.797   4.355   2.250  1.00 20.00     0.010 C 
ENDBRANCH   6   8
TORSDOF 1
ENDMDL
MODEL 8
REMARK VINA RESULT:      -4.8      0.950      2.535
REMARK  1 active torsions:
REMARK  status: ('A' for Active; 'I' for Inactive)
REMARK    1  A    between atoms: C6_6  and  C9_9 
ROOT
HETATM    1  C1  UNL     1     -33.632   3.870   3.198  1.00 20.00     0.001 A 
HETATM    2  C2  UNL     1     -34.356   4.015   4.382  1.00 20.00     0.001 A 
HETATM    3  C3  UNL     1     -33.061   4.987   2.589  1.00 20.00     0.007 A 
HETATM    4  C4  UNL     1     -34.508   5.277   4.956  1.00 20.00     0.007 A 
HETATM    5  C5  UNL     1     -33.213   6.249   3.163  1.00 20.00    -0.056 A 
HETATM    6  C6  UNL     1     -33.937   6.394   4.346  1.00 20.00    -0.053 A 
HETATM    7  C7  UNL     1     -32.591   7.431   2.493  1.00 20.00     0.049 C 
ENDROOT
BRANCH   6   8
HETATM    8  C9  UNL     1     -34.115   7.735   4.979  1.00 20.00     0.034 C 
HETATM    9  C8  UNL     1     -33.474   7.813   6.361  1.00 20.00     0.010 C 
ENDBRANCH   6   8
TORSDOF 1
ENDMDL
MODEL 9
REMARK VINA RESULT:      -4.5     12.199     12.804
REMARK  1 active torsions:
REMARK  status: ('A' for Active; 'I' for Inactive)
REMARK    1  A    between atoms: C6_6  and  C9_9 
ROOT
HETATM    1  C1  UNL     1     -34.788  16.619  -2.246  1.00 20.00     0.001 A 
HETATM    2  C2  UNL     1     -33.494  17.104  -2.440  1.00 20.00     0.001 A 
HETATM    3  C3  UNL     1     -35.480  16.930  -1.075  1.00 20.00     0.007 A 
HETATM    4  C4  UNL     1     -32.894  17.899  -1.465  1.00 20.00     0.007 A 
HETATM    5  C5  UNL     1     -34.880  17.725  -0.100  1.00 20.00    -0.056 A 
HETATM    6  C6  UNL     1     -33.586  18.210  -0.295  1.00 20.00    -0.053 A 
HETATM    7  C7  UNL     1     -35.641  18.046   1.145  1.00 20.00     0.049 C 
ENDROOT
BRANCH   6   8
HETATM    8  C9  UNL     1     -32.922  19.062   0.736  1.00 20.00     0.034 C 
HETATM    9  C8  UNL     1     -31.431  18.764   0.862  1.00 20.00     0.010 C 
ENDBRANCH   6   8
TORSDOF 1
ENDMDL
