MODEL 1
REMARK VINA RESULT:      -5.0      0.000      0.000
REMARK  1 active torsions:
REMARK  status: ('A' for Active; 'I' for Inactive)
REMARK    1  A    between atoms: C4_4  and  C6_6 
ROOT
HETATM    1  C1  UNL     1     -34.621   5.363   5.601  1.00 20.00     0.027 A 
HETATM    2  C2  UNL     1     -34.126   6.611   5.151  1.00 20.00     0.034 A 
HETATM    3  C3  UNL     1     -34.478   4.494   4.544  1.00 20.00     0.142 A 
HETATM    4  C4  UNL     1     -33.716   6.415   3.853  1.00 20.00     0.052 A 
HETATM    5  O7  UNL     1     -33.928   5.127   3.475  1.00 20.00    -0.327 OA
ENDROOT
BRANCH   4   6
HETATM    6  C6  UNL     1     -33.118   7.300   2.844  1.00 20.00     0.060 C 
HETATM    7  C5  UNL     1     -31.845   8.003   3.337  1.00 20.00     0.012 C 
ENDBRANCH   4   6
TORSDOF 1
ENDMDL
MODEL 2
REMARK VINA RESULT:      -4.8      1.255      1.605
REMARK  1 active torsions:
REMARK  status: ('A' for Active; 'I' for Inactive)
REMARK    1  A    between atoms: C4_4  and  C6_6 
ROOT
HETATM    1  C1  UNL     1     -34.760   5.746   5.357  1.00 20.00     0.027 A 
HETATM    2  C2  UNL     1     -34.451   5.742   3.975  1.00 20.00     0.034 A 
HETATM    3  C3  UNL     1     -34.032   6.776   5.907  1.00 20.00     0.142 A 
HETATM    4  C4  UNL     1     -33.558   6.770   3.781  1.00 20.00     0.052 A 
HETATM    5  O7  UNL     1     -33.297   7.404   4.953  1.00 20.00    -0.327 OA
ENDROOT
BRANCH   4   6
HETATM    6  C6  UNL     1     -32.864   7.286   2.592  1.00 20.00     0.060 C 
HETATM    7  C5  UNL     1     -31.746   8.282   2.933  1.00 20.00     0.012 C 
ENDBRANCH   4   6
TORSDOF 1
ENDMDL
MODEL 3
REMARK VINA RESULT:      -4.7      1.514      3.562
REMARK  1 active torsions:
REMARK  status: ('A' for Active; 'I' for Inactive)
REMARK    1  A    between atoms: C4_4  and  C6_6 
ROOT
HETATM    1  C1  UNL     1     -32.520   7.532   2.382  1.00 20.00     0.027 A 
HETATM    2  C2  UNL     1     -33.544   6.886   3.116  1.00 20.00     0.034 A 
HETATM    3  C3  UNL     1     -31.745   8.192   3.308  1.00 20.00     0.142 A 
HETATM    4  C4  UNL     1     -33.320   7.196   4.437  1.00 20.00     0.052 A 
HETATM    5  O7  UNL     1     -32.227   7.992   4.562  1.00 20.00    -0.327 OA
ENDROOT
BRANCH   4   6
HETATM    6  C6  UNL     1     -34.015   6.842   5.683  1.00 20.00     0.060 C 
HETATM    7  C5  UNL     1     -34.586   5.416   5.671  1.00 20.00     0.012 C 
ENDBRANCH   4   6
TORSDOF 1
ENDMDL
MODEL 4
REMARK VINA RESULT:      -4.6      1.052      1.251
REMARK  1 active torsions:
REMARK  status: ('A' for Active; 'I' for Inactive)
REMARK    1  A    between atoms: C4_4  and  C6_6 
ROOT
HETATM    1  C1  UNL     1     -34.487   6.214   5.246  1.00 20.00     0.027 A 
HETATM    2  C2  UNL     1     -33.486   7.215   5.226  1.00 20.00     0.034 A 
HETATM    3  C3  UNL     1     -34.533   5.696   3.973  1.00 20.00     0.142 A 
HETATM    4  C4  UNL     1     -32.992   7.236   3.942  1.00 20.00     0.052 A 
HETATM    5  O7  UNL     1     -33.627   6.314   3.172  1.00 20.00    -0.327 OA
ENDROOT
BRANCH   4   6
HETATM    6  C6  UNL     1     -31.954   8.037   3.278  1.00 20.00     0.060 C 
HETATM    7  C5  UNL     1     -32.321   8.426   1.839  1.00 20.00     0.012 C 
ENDBRANCH   4   6
TORSDOF 1
ENDMDL
MODEL 5
REMARK VINA RESULT:      -4.4      1.019      3.150
REMARK  1 active torsions:
REMARK  status: ('A' for Active; 'I' for Inactive)
REMARK    1  A    between atoms: C4_4  and  C6_6 
ROOT
HETATM    1  C1  UNL     1     -32.212   8.051   3.686  1.00 20.00     0.027 A 
HETATM    2  C2  UNL     1     -33.085   7.513   4.662  1.00 20.00     0.034 A 
HETATM    3  C3  UNL     1     -32.520   7.413   2.506  1.00 20.00     0.142 A 
HETATM    4  C4  UNL     1     -33.864   6.587   4.010  1.00 20.00     0.052 A 
HETATM    5  O7  UNL     1     -33.526   6.519   2.695  1.00 20.00    -0.327 OA
ENDROOT
BRANCH   4   6
HETATM    6  C6  UNL     1     -34.946   5.695   4.450  1.00 20.00     0.060 C 
HETATM    7  C5  UNL     1     -34.502   4.231   4.589  1.00 20.00     0.012 C 
ENDBRANCH   4   6
TORSDOF 1
ENDMDL
MODEL 6
REMARK VINA RESULT:      -4.4      1.671      2.241
REMARK  1 active torsions:
REMARK  status: ('A' for Active; 'I' for Inactive)
REMARK    1  A    between atoms: C4_4  and  C6_6 
ROOT
HETATM    1  C1  UNL     1     -34.552   6.266   6.151  1.00 20.00     0.027 A 
HETATM    2  C2  UNL     1     -34.697   5.529   4.950  1.00 20.00     0.034 A 
HETATM    3  C3  UNL     1     -33.726   7.324   5.850  1.00 20.00     0.142 A 
HETATM    4  C4  UNL     1     -33.950   6.190   4.004  1.00 20.00     0.052 A 
HETATM    5  O7  UNL     1     -33.354   7.285   4.544  1.00 20.00    -0.327 OA
ENDROOT
BRANCH   4   6
HETATM    6  C6  UNL     1     -33.687   5.942   2.579  1.00 20.00     0.060 C 
HETATM    7  C5  UNL     1     -32.951   4.619   2.324  1.00 20.00     0.012 C 
ENDBRANCH   4   6
TORSDOF 1
ENDMDL
MODEL 7
REMARK VINA RESULT:      -3.9      1.422      2.728
REMARK  1 active torsions:
REMARK  status: ('A' for Active; 'I' for Inactive)
REMARK    1  A    between atoms: C4_4  and  C6_6 
ROOT
HETATM    1  C1  UNL     1     -33.453   4.627   2.616  1.00 20.00     0.027 A 
HETATM    2  C2  UNL     1     -33.982   4.464   3.920  1.00 20.00     0.034 A 
HETATM    3  C3  UNL     1     -33.199   5.972   2.474  1.00 20.00     0.142 A 
HETATM    4  C4  UNL     1     -34.011   5.720   4.480  1.00 20.00     0.052 A 
HETATM    5  O7  UNL     1     -33.537   6.644   3.604  1.00 20.00    -0.327 OA
ENDROOT
BRANCH   4   6
HETATM    6  C6  UNL     1     -34.443   6.225   5.791  1.00 20.00     0.060 C 
HETATM    7  C5  UNL     1     -33.734   7.525   6.199  1.00 20.00     0.012 C 
ENDBRANCH   4   6
TORSDOF 1
ENDMDL
MODEL 8
REMARK VINA RESULT:      -3.7      2.813      4.891
REMARK  1 active torsions:
REMARK  status: ('A' for Active; 'I' for Inactive)
REMARK    1  A    between atoms: C4_4  and  C6_6 
ROOT
HETATM    1  C1  UNL     1     -31.977   9.693   0.245  1.00 20.00     0.027 A 
HETATM    2  C2  UNL     1     -31.565   8.507   0.901  1.00 20.00     0.034 A 
HETATM    3  C3  UNL     1     -32.920  10.271   1.062  1.00 20.00     0.142 A 
HETATM    4  C4  UNL     1     -32.285   8.447   2.071  1.00 20.00     0.052 A 
HETATM    5  O7  UNL     1     -33.114   9.518   2.176  1.00 20.00    -0.327 OA
ENDROOT
BRANCH   4   6
HETATM    6  C6  UNL     1     -32.324   7.482   3.178  1.00 20.00     0.060 C 
HETATM    7  C5  UNL     1     -33.209   6.262   2.884  1.00 20.00     0.012 C 
ENDBRANCH   4   6
TORSDOF 1
ENDMDL
MODEL 9
REMARK VINA RESULT:      -3.4     12.639     13.141
REMARK  1 active torsions:
REMARK  status: ('A' for Active; 'I' for Inactive)
REMARK    1  A    between atoms: C4_4  and  C6_6 
ROOT
HETATM    1  C1  UNL     1     -32.197  18.953   1.775  1.00 20.00     0.027 A 
HETATM    2  C2  UNL     1     -33.172  18.719   0.775  1.00 20.00     0.034 A 
HETATM    3  C3  UNL     1     -30.977  18.757   1.172  1.00 20.00     0.142 A 
HETATM    4  C4  UNL     1     -32.477  18.398  -0.368  1.00 20.00     0.052 A 
HETATM    5  O7  UNL     1     -31.139  18.418  -0.134  1.00 20.00    -0.327 OA
ENDROOT
BRANCH   4   6
HETATM    6  C6  UNL     1     -32.894  18.052  -1.733  1.00 20.00     0.060 C 
HETATM    7  C5  UNL     1     -34.057  17.049  -1.772  1.00 20.00     0.012 C 
ENDBRANCH   4   6
TORSDOF 1
ENDMDL
