MODEL 1
REMARK VINA RESULT:      -5.7      0.000      0.000
REMARK  3 active torsions:
REMARK  status: ('A' for Active; 'I' for Inactive)
REMARK    1  A    between atoms: C5_5  and  O9_9 
REMARK    2  A    between atoms: C6_6  and  O10_10 
REMARK    3  A    between atoms: C8_8  and  O10_10 
ROOT
HETATM    1  C1  UNL     1     -34.600   5.481   5.677  1.00 20.00     0.003 A 
HETATM    2  C2  UNL     1     -34.141   6.797   5.736  1.00 20.00     0.003 A 
HETATM    3  C3  UNL     1     -34.370   4.714   4.534  1.00 20.00     0.039 A 
HETATM    4  C4  UNL     1     -33.452   7.345   4.654  1.00 20.00     0.039 A 
HETATM    5  C5  UNL     1     -33.681   5.262   3.453  1.00 20.00     0.099 A 
HETATM    6  C6  UNL     1     -33.222   6.577   3.513  1.00 20.00     0.101 A 
ENDROOT
BRANCH   6   7
HETATM    7  O10 UNL     1     -32.549   7.125   2.462  1.00 20.00    -0.349 OA
BRANCH   7   8
HETATM    8  C8  UNL     1     -31.914   8.382   2.683  1.00 20.00     0.171 C 
HETATM    9  C7  UNL     1     -32.229   9.305   1.526  1.00 20.00     0.034 C 
ENDBRANCH   7   8
ENDBRANCH   6   7
BRANCH   5  10
HETATM   10  O9  UNL     1     -33.465   4.503   2.342  1.00 20.00    -0.358 OA
HETATM   11  H20 UNL     1     -32.568   4.131   2.360  1.00 20.00     0.217 HD
ENDBRANCH   5  10
TORSDOF 3
ENDMDL
MODEL 2
REMARK VINA RESULT:      -5.7      1.392      2.274
REMARK  3 active torsions:
REMARK  status: ('A' for Active; 'I' for Inactive)
REMARK    1  A    between atoms: C5_5  and  O9_9 
REMARK    2  A    between atoms: C6_6  and  O10_10 
REMARK    3  A    between atoms: C8_8  and  O10_10 
ROOT
HETATM    1  C1  UNL     1     -34.434   4.314   4.715  1.00 20.00     0.003 A 
HETATM    2  C2  UNL     1     -33.982   4.470   3.404  1.00 20.00     0.003 A 
HETATM    3  C3  UNL     1     -34.437   5.404   5.585  1.00 20.00     0.039 A 
HETATM    4  C4  UNL     1     -33.534   5.716   2.964  1.00 20.00     0.039 A 
HETATM    5  C5  UNL     1     -33.990   6.650   5.145  1.00 20.00     0.099 A 
HETATM    6  C6  UNL     1     -33.539   6.805   3.835  1.00 20.00     0.101 A 
ENDROOT
BRANCH   6   7
HETATM    7  O10 UNL     1     -33.098   8.017   3.393  1.00 20.00    -0.349 OA
BRANCH   7   8
HETATM    8  C8  UNL     1     -31.877   8.034   2.657  1.00 20.00     0.171 C 
HETATM    9  C7  UNL     1     -32.067   8.860   1.404  1.00 20.00     0.034 C 
ENDBRANCH   7   8
ENDBRANCH   6   7
BRANCH   5  10
HETATM   10  O9  UNL     1     -33.997   7.706   6.005  1.00 20.00    -0.358 OA
HETATM   11  H20 UNL     1     -33.284   7.613   6.657  1.00 20.00     0.217 HD
ENDBRANCH   5  10
TORSDOF 3
ENDMDL
MODEL 3
REMARK VINA RESULT:      -4.6      1.780      4.161
REMARK  3 active torsions:
REMARK  status: ('A' for Active; 'I' for Inactive)
REMARK    1  A    between atoms: C5_5  and  O9_9 
REMARK    2  A    between atoms: C6_6  and  O10_10 
REMARK    3  A    between atoms: C8_8  and  O10_10 
ROOT
HETATM    1  C1  UNL     1     -31.717   8.249   2.932  1.00 20.00     0.003 A 
HETATM    2  C2  UNL     1     -32.577   7.536   2.096  1.00 20.00     0.003 A 
HETATM    3  C3  UNL     1     -31.932   8.256   4.310  1.00 20.00     0.039 A 
HETATM    4  C4  UNL     1     -33.653   6.832   2.638  1.00 20.00     0.039 A 
HETATM    5  C5  UNL     1     -33.007   7.551   4.852  1.00 20.00     0.099 A 
HETATM    6  C6  UNL     1     -33.867   6.840   4.016  1.00 20.00     0.101 A 
ENDROOT
BRANCH   6   7
HETATM    7  O10 UNL     1     -34.921   6.148   4.533  1.00 20.00    -0.349 OA
BRANCH   7   8
HETATM    8  C8  UNL     1     -34.621   4.987   5.305  1.00 20.00     0.171 C 
HETATM    9  C7  UNL     1     -34.150   3.888   4.378  1.00 20.00     0.034 C 
ENDBRANCH   7   8
ENDBRANCH   6   7
BRANCH   5  10
HETATM   10  O9  UNL     1     -33.207   7.568   6.200  1.00 20.00    -0.358 OA
HETATM   11  H20 UNL     1     -34.059   7.984   6.407  1.00 20.00     0.217 HD
ENDBRANCH   5  10
TORSDOF 3
ENDMDL
MODEL 4
REMARK VINA RESULT:      -4.4     11.317     12.045
REMARK  3 active torsions:
REMARK  status: ('A' for Active; 'I' for Inactive)
REMARK    1  A    between atoms: C5_5  and  O9_9 
REMARK    2  A    between atoms: C6_6  and  O10_10 
REMARK    3  A    between atoms: C8_8  and  O10_10 
ROOT
HETATM    1  C1  UNL     1     -34.981  16.289  -3.168  1.00 20.00     0.003 A 
HETATM    2  C2  UNL     1     -36.207  15.911  -3.716  1.00 20.00     0.003 A 
HETATM    3  C3  UNL     1     -33.835  15.543  -3.443  1.00 20.00     0.039 A 
HETATM    4  C4  UNL     1     -36.286  14.787  -4.539  1.00 20.00     0.039 A 
HETATM    5  C5  UNL     1     -33.914  14.420  -4.266  1.00 20.00     0.099 A 
HETATM    6  C6  UNL     1     -35.139  14.042  -4.814  1.00 20.00     0.101 A 
ENDROOT
BRANCH   6   7
HETATM    7  O10 UNL     1     -35.230  12.946  -5.618  1.00 20.00    -0.349 OA
BRANCH   7   8
HETATM    8  C8  UNL     1     -35.552  13.171  -6.989  1.00 20.00     0.171 C 
HETATM    9  C7  UNL     1     -34.355  13.784  -7.682  1.00 20.00     0.034 C 
ENDBRANCH   7   8
ENDBRANCH   6   7
BRANCH   5  10
HETATM   10  O9  UNL     1     -32.787  13.699  -4.526  1.00 20.00    -0.358 OA
HETATM   11  H20 UNL     1     -32.603  13.696  -5.478  1.00 20.00     0.217 HD
ENDBRANCH   5  10
TORSDOF 3
ENDMDL
MODEL 5
REMARK VINA RESULT:      -4.4      1.407      3.658
REMARK  3 active torsions:
REMARK  status: ('A' for Active; 'I' for Inactive)
REMARK    1  A    between atoms: C5_5  and  O9_9 
REMARK    2  A    between atoms: C6_6  and  O10_10 
REMARK    3  A    between atoms: C8_8  and  O10_10 
ROOT
HETATM    1  C1  UNL     1     -31.664   8.341   3.452  1.00 20.00     0.003 A 
HETATM    2  C2  UNL     1     -32.109   8.395   4.773  1.00 20.00     0.003 A 
HETATM    3  C3  UNL     1     -32.324   7.531   2.528  1.00 20.00     0.039 A 
HETATM    4  C4  UNL     1     -33.213   7.639   5.169  1.00 20.00     0.039 A 
HETATM    5  C5  UNL     1     -33.427   6.776   2.924  1.00 20.00     0.099 A 
HETATM    6  C6  UNL     1     -33.872   6.830   4.244  1.00 20.00     0.101 A 
ENDROOT
BRANCH   6   7
HETATM    7  O10 UNL     1     -34.948   6.096   4.644  1.00 20.00    -0.349 OA
BRANCH   7   8
HETATM    8  C8  UNL     1     -34.689   4.955   5.460  1.00 20.00     0.171 C 
HETATM    9  C7  UNL     1     -34.130   3.847   4.595  1.00 20.00     0.034 C 
ENDBRANCH   7   8
ENDBRANCH   6   7
BRANCH   5  10
HETATM   10  O9  UNL     1     -34.061   5.987   2.011  1.00 20.00    -0.358 OA
HETATM   11  H20 UNL     1     -34.562   6.535   1.385  1.00 20.00     0.217 HD
ENDBRANCH   5  10
TORSDOF 3
ENDMDL
MODEL 6
REMARK VINA RESULT:      -4.2     11.621     12.270
REMARK  3 active torsions:
REMARK  status: ('A' for Active; 'I' for Inactive)
REMARK    1  A    between atoms: C5_5  and  O9_9 
REMARK    2  A    between atoms: C6_6  and  O10_10 
REMARK    3  A    between atoms: C8_8  and  O10_10 
ROOT
HETATM    1  C1  UNL     1     -35.388  16.185  -3.369  1.00 20.00     0.003 A 
HETATM    2  C2  UNL     1     -34.216  15.557  -3.793  1.00 20.00     0.003 A 
HETATM    3  C3  UNL     1     -36.629  15.674  -3.748  1.00 20.00     0.039 A 
HETATM    4  C4  UNL     1     -34.287  14.417  -4.595  1.00 20.00     0.039 A 
HETATM    5  C5  UNL     1     -36.699  14.535  -4.549  1.00 20.00     0.099 A 
HETATM    6  C6  UNL     1     -35.529  13.907  -4.973  1.00 20.00     0.101 A 
ENDROOT
BRANCH   6   7
HETATM    7  O10 UNL     1     -35.584  12.794  -5.757  1.00 20.00    -0.349 OA
BRANCH   7   8
HETATM    8  C8  UNL     1     -35.038  12.898  -7.070  1.00 20.00     0.171 C 
HETATM    9  C7  UNL     1     -35.951  13.757  -7.918  1.00 20.00     0.034 C 
ENDBRANCH   7   8
ENDBRANCH   6   7
BRANCH   5  10
HETATM   10  O9  UNL     1     -37.918  14.047  -4.913  1.00 20.00    -0.358 OA
HETATM   11  H20 UNL     1     -38.380  13.687  -4.139  1.00 20.00     0.217 HD
ENDBRANCH   5  10
TORSDOF 3
ENDMDL
MODEL 7
REMARK VINA RESULT:      -4.0     11.735     12.214
REMARK  3 active torsions:
REMARK  status: ('A' for Active; 'I' for Inactive)
REMARK    1  A    between atoms: C5_5  and  O9_9 
REMARK    2  A    between atoms: C6_6  and  O10_10 
REMARK    3  A    between atoms: C8_8  and  O10_10 
ROOT
HETATM    1  C1  UNL     1     -34.948  18.221   0.847  1.00 20.00     0.003 A 
HETATM    2  C2  UNL     1     -35.751  17.447   0.009  1.00 20.00     0.003 A 
HETATM    3  C3  UNL     1     -33.642  18.532   0.468  1.00 20.00     0.039 A 
HETATM    4  C4  UNL     1     -35.248  16.983  -1.207  1.00 20.00     0.039 A 
HETATM    5  C5  UNL     1     -33.140  18.069  -0.748  1.00 20.00     0.099 A 
HETATM    6  C6  UNL     1     -33.943  17.295  -1.585  1.00 20.00     0.101 A 
ENDROOT
BRANCH   6   7
HETATM    7  O10 UNL     1     -33.463  16.835  -2.775  1.00 20.00    -0.349 OA
BRANCH   7   8
HETATM    8  C8  UNL     1     -34.270  15.894  -3.480  1.00 20.00     0.171 C 
HETATM    9  C7  UNL     1     -33.370  14.925  -4.214  1.00 20.00     0.034 C 
ENDBRANCH   7   8
ENDBRANCH   6   7
BRANCH   5  10
HETATM   10  O9  UNL     1     -31.862  18.378  -1.106  1.00 20.00    -0.358 OA
HETATM   11  H20 UNL     1     -31.803  18.502  -2.066  1.00 20.00     0.217 HD
ENDBRANCH   5  10
TORSDOF 3
ENDMDL
MODEL 8
REMARK VINA RESULT:      -4.0     11.456     12.415
REMARK  3 active torsions:
REMARK  status: ('A' for Active; 'I' for Inactive)
REMARK    1  A    between atoms: C5_5  and  O9_9 
REMARK    2  A    between atoms: C6_6  and  O10_10 
REMARK    3  A    between atoms: C8_8  and  O10_10 
ROOT
HETATM    1  C1  UNL     1     -34.136  15.514  -3.741  1.00 20.00     0.003 A 
HETATM    2  C2  UNL     1     -35.286  16.229  -3.401  1.00 20.00     0.003 A 
HETATM    3  C3  UNL     1     -34.243  14.326  -4.464  1.00 20.00     0.039 A 
HETATM    4  C4  UNL     1     -36.541  15.755  -3.785  1.00 20.00     0.039 A 
HETATM    5  C5  UNL     1     -35.497  13.853  -4.848  1.00 20.00     0.099 A 
HETATM    6  C6  UNL     1     -36.646  14.567  -4.508  1.00 20.00     0.101 A 
ENDROOT
BRANCH   6   7
HETATM    7  O10 UNL     1     -37.877  14.114  -4.876  1.00 20.00    -0.349 OA
BRANCH   7   8
HETATM    8  C8  UNL     1     -38.842  15.093  -5.255  1.00 20.00     0.171 C 
HETATM    9  C7  UNL     1     -38.576  15.521  -6.682  1.00 20.00     0.034 C 
ENDBRANCH   7   8
ENDBRANCH   6   7
BRANCH   5  10
HETATM   10  O9  UNL     1     -35.587  12.690  -5.553  1.00 20.00    -0.358 OA
HETATM   11  H20 UNL     1     -35.620  11.933  -4.947  1.00 20.00     0.217 HD
ENDBRANCH   5  10
TORSDOF 3
ENDMDL
MODEL 9
REMARK VINA RESULT:      -4.0     11.510     11.882
REMARK  3 active torsions:
REMARK  status: ('A' for Active; 'I' for Inactive)
REMARK    1  A    between atoms: C5_5  and  O9_9 
REMARK    2  A    between atoms: C6_6  and  O10_10 
REMARK    3  A    between atoms: C8_8  and  O10_10 
ROOT
HETATM    1  C1  UNL     1     -36.811  14.029  -5.177  1.00 20.00     0.003 A 
HETATM    2  C2  UNL     1     -37.123  15.118  -4.364  1.00 20.00     0.003 A 
HETATM    3  C3  UNL     1     -35.487  13.605  -5.297  1.00 20.00     0.039 A 
HETATM    4  C4  UNL     1     -36.112  15.784  -3.671  1.00 20.00     0.039 A 
HETATM    5  C5  UNL     1     -34.477  14.270  -4.604  1.00 20.00     0.099 A 
HETATM    6  C6  UNL     1     -34.789  15.359  -3.791  1.00 20.00     0.101 A 
ENDROOT
BRANCH   6   7
HETATM    7  O10 UNL     1     -33.810  16.019  -3.109  1.00 20.00    -0.349 OA
BRANCH   7   8
HETATM    8  C8  UNL     1     -34.224  16.887  -2.056  1.00 20.00     0.171 C 
HETATM    9  C7  UNL     1     -33.060  17.765  -1.654  1.00 20.00     0.034 C 
ENDBRANCH   7   8
ENDBRANCH   6   7
BRANCH   5  10
HETATM   10  O9  UNL     1     -33.188  13.848  -4.731  1.00 20.00    -0.358 OA
HETATM   11  H20 UNL     1     -32.602  14.386  -4.174  1.00 20.00     0.217 HD
ENDBRANCH   5  10
TORSDOF 3
ENDMDL
