MODEL 1
REMARK VINA RESULT:      -3.6      0.000      0.000
REMARK  0 active torsions:
REMARK  status: ('A' for Active; 'I' for Inactive)
ROOT
HETATM    1  C1  UNL     1     -33.730   7.237   5.821  1.00 20.00     0.021 C 
HETATM    2  C2  UNL     1     -34.563   4.876   5.564  1.00 20.00     0.021 C 
HETATM    3  C3  UNL     1     -34.493   6.263   4.930  1.00 20.00     0.045 C 
HETATM    4  I4  UNL     1     -33.529   6.132   3.003  1.00 20.00    -0.086 I 
ENDROOT
TORSDOF 0
ENDMDL
MODEL 2
REMARK VINA RESULT:      -3.3      1.729      2.259
REMARK  0 active torsions:
REMARK  status: ('A' for Active; 'I' for Inactive)
ROOT
HETATM    1  C1  UNL     1     -32.932   7.128   3.384  1.00 20.00     0.021 C 
HETATM    2  C2  UNL     1     -33.543   7.450   5.804  1.00 20.00     0.021 C 
HETATM    3  C3  UNL     1     -34.009   6.932   4.446  1.00 20.00     0.045 C 
HETATM    4  I4  UNL     1     -34.508   4.838   4.599  1.00 20.00    -0.086 I 
ENDROOT
TORSDOF 0
ENDMDL
MODEL 3
REMARK VINA RESULT:      -3.3      2.003      2.702
REMARK  0 active torsions:
REMARK  status: ('A' for Active; 'I' for Inactive)
ROOT
HETATM    1  C1  UNL     1     -34.433   4.301   4.506  1.00 20.00     0.021 C 
HETATM    2  C2  UNL     1     -33.732   5.948   2.737  1.00 20.00     0.021 C 
HETATM    3  C3  UNL     1     -34.519   5.747   4.029  1.00 20.00     0.045 C 
HETATM    4  I4  UNL     1     -33.754   7.063   5.559  1.00 20.00    -0.086 I 
ENDROOT
TORSDOF 0
ENDMDL
MODEL 4
REMARK VINA RESULT:      -3.2      1.233      1.964
REMARK  0 active torsions:
REMARK  status: ('A' for Active; 'I' for Inactive)
ROOT
HETATM    1  C1  UNL     1     -35.143   5.788   4.093  1.00 20.00     0.021 C 
HETATM    2  C2  UNL     1     -33.897   7.143   5.809  1.00 20.00     0.021 C 
HETATM    3  C3  UNL     1     -33.774   6.264   4.568  1.00 20.00     0.045 C 
HETATM    4  I4  UNL     1     -32.799   7.368   2.990  1.00 20.00    -0.086 I 
ENDROOT
TORSDOF 0
ENDMDL
MODEL 5
REMARK VINA RESULT:      -3.1      2.515      3.153
REMARK  0 active torsions:
REMARK  status: ('A' for Active; 'I' for Inactive)
ROOT
HETATM    1  C1  UNL     1     -33.039   4.865   2.577  1.00 20.00     0.021 C 
HETATM    2  C2  UNL     1     -32.930   7.274   3.298  1.00 20.00     0.021 C 
HETATM    3  C3  UNL     1     -33.812   6.035   3.176  1.00 20.00     0.045 C 
HETATM    4  I4  UNL     1     -34.566   5.486   5.123  1.00 20.00    -0.086 I 
ENDROOT
TORSDOF 0
ENDMDL
MODEL 6
REMARK VINA RESULT:      -2.8      1.763      2.207
REMARK  0 active torsions:
REMARK  status: ('A' for Active; 'I' for Inactive)
ROOT
HETATM    1  C1  UNL     1     -33.664   7.512   5.856  1.00 20.00     0.021 C 
HETATM    2  C2  UNL     1     -33.549   7.433   3.343  1.00 20.00     0.021 C 
HETATM    3  C3  UNL     1     -33.359   6.647   4.638  1.00 20.00     0.045 C 
HETATM    4  I4  UNL     1     -34.650   4.917   4.634  1.00 20.00    -0.086 I 
ENDROOT
TORSDOF 0
ENDMDL
MODEL 7
REMARK VINA RESULT:      -2.7      5.450      5.625
REMARK  0 active torsions:
REMARK  status: ('A' for Active; 'I' for Inactive)
ROOT
HETATM    1  C1  UNL     1     -32.589  10.851   1.445  1.00 20.00     0.021 C 
HETATM    2  C2  UNL     1     -33.014   9.138  -0.350  1.00 20.00     0.021 C 
HETATM    3  C3  UNL     1     -32.169   9.503   0.868  1.00 20.00     0.045 C 
HETATM    4  I4  UNL     1     -32.369   7.972   2.376  1.00 20.00    -0.086 I 
ENDROOT
TORSDOF 0
ENDMDL
MODEL 8
REMARK VINA RESULT:      -2.7      2.694      2.884
REMARK  0 active torsions:
REMARK  status: ('A' for Active; 'I' for Inactive)
ROOT
HETATM    1  C1  UNL     1     -32.571   7.944   2.659  1.00 20.00     0.021 C 
HETATM    2  C2  UNL     1     -33.915   5.816   2.648  1.00 20.00     0.021 C 
HETATM    3  C3  UNL     1     -32.902   6.662   3.415  1.00 20.00     0.045 C 
HETATM    4  I4  UNL     1     -33.691   7.150   5.364  1.00 20.00    -0.086 I 
ENDROOT
TORSDOF 0
ENDMDL
MODEL 9
REMARK VINA RESULT:      -2.7      3.514      4.090
REMARK  0 active torsions:
REMARK  status: ('A' for Active; 'I' for Inactive)
ROOT
HETATM    1  C1  UNL     1     -33.314   7.035   2.646  1.00 20.00     0.021 C 
HETATM    2  C2  UNL     1     -31.453   8.384   3.673  1.00 20.00     0.021 C 
HETATM    3  C3  UNL     1     -32.040   7.830   2.377  1.00 20.00     0.045 C 
HETATM    4  I4  UNL     1     -32.469   9.453   1.021  1.00 20.00    -0.086 I 
ENDROOT
TORSDOF 0
ENDMDL
