MODEL 1
REMARK VINA RESULT:      -5.9      0.000      0.000
REMARK  0 active torsions:
REMARK  status: ('A' for Active; 'I' for Inactive)
ROOT
HETATM    1  C1  UNL     1     -34.678   5.105   5.616  1.00 20.00     0.001 A 
HETATM    2  C2  UNL     1     -34.389   6.425   5.963  1.00 20.00     0.001 A 
HETATM    3  C3  UNL     1     -34.283   4.609   4.374  1.00 20.00     0.008 A 
HETATM    4  C4  UNL     1     -33.706   7.248   5.067  1.00 20.00     0.019 A 
HETATM    5  C5  UNL     1     -33.600   5.432   3.479  1.00 20.00    -0.045 A 
HETATM    6  C6  UNL     1     -33.311   6.752   3.826  1.00 20.00     0.012 A 
HETATM    7  C7  UNL     1     -33.201   4.845   2.163  1.00 20.00     0.049 C 
HETATM    8  I8  UNL     1     -32.289   8.039   2.531  1.00 20.00    -0.044 I 
ENDROOT
TORSDOF 0
ENDMDL
MODEL 2
REMARK VINA RESULT:      -5.6      0.627      2.451
REMARK  0 active torsions:
REMARK  status: ('A' for Active; 'I' for Inactive)
ROOT
HETATM    1  C1  UNL     1     -34.639   4.538   5.113  1.00 20.00     0.001 A 
HETATM    2  C2  UNL     1     -34.238   4.332   3.792  1.00 20.00     0.001 A 
HETATM    3  C3  UNL     1     -34.385   5.760   5.735  1.00 20.00     0.008 A 
HETATM    4  C4  UNL     1     -33.583   5.348   3.096  1.00 20.00     0.019 A 
HETATM    5  C5  UNL     1     -33.731   6.776   5.039  1.00 20.00    -0.045 A 
HETATM    6  C6  UNL     1     -33.330   6.570   3.718  1.00 20.00     0.012 A 
HETATM    7  C7  UNL     1     -33.487   8.063   5.757  1.00 20.00     0.049 C 
HETATM    8  I8  UNL     1     -32.345   8.050   2.616  1.00 20.00    -0.044 I 
ENDROOT
TORSDOF 0
ENDMDL
MODEL 3
REMARK VINA RESULT:      -4.4      2.198      3.914
REMARK  0 active torsions:
REMARK  status: ('A' for Active; 'I' for Inactive)
ROOT
HETATM    1  C1  UNL     1     -31.874   8.351   2.840  1.00 20.00     0.001 A 
HETATM    2  C2  UNL     1     -32.348   7.319   2.029  1.00 20.00     0.001 A 
HETATM    3  C3  UNL     1     -32.244   8.407   4.183  1.00 20.00     0.008 A 
HETATM    4  C4  UNL     1     -33.191   6.345   2.563  1.00 20.00     0.019 A 
HETATM    5  C5  UNL     1     -33.087   7.433   4.717  1.00 20.00    -0.045 A 
HETATM    6  C6  UNL     1     -33.561   6.401   3.906  1.00 20.00     0.012 A 
HETATM    7  C7  UNL     1     -33.449   7.544   6.163  1.00 20.00     0.049 C 
HETATM    8  I8  UNL     1     -34.827   4.907   4.641  1.00 20.00    -0.044 I 
ENDROOT
TORSDOF 0
ENDMDL
MODEL 4
REMARK VINA RESULT:      -4.0     12.461     12.949
REMARK  0 active torsions:
REMARK  status: ('A' for Active; 'I' for Inactive)
ROOT
HETATM    1  C1  UNL     1     -34.871  16.635  -2.299  1.00 20.00     0.001 A 
HETATM    2  C2  UNL     1     -33.567  17.077  -2.525  1.00 20.00     0.001 A 
HETATM    3  C3  UNL     1     -35.512  16.942  -1.099  1.00 20.00     0.008 A 
HETATM    4  C4  UNL     1     -32.906  17.826  -1.551  1.00 20.00     0.019 A 
HETATM    5  C5  UNL     1     -34.852  17.692  -0.126  1.00 20.00    -0.045 A 
HETATM    6  C6  UNL     1     -33.548  18.135  -0.352  1.00 20.00     0.012 A 
HETATM    7  C7  UNL     1     -35.590  17.992   1.138  1.00 20.00     0.049 C 
HETATM    8  I8  UNL     1     -32.500  19.263   1.063  1.00 20.00    -0.044 I 
ENDROOT
TORSDOF 0
ENDMDL
MODEL 5
REMARK VINA RESULT:      -4.0     12.488     13.081
REMARK  0 active torsions:
REMARK  status: ('A' for Active; 'I' for Inactive)
ROOT
HETATM    1  C1  UNL     1     -33.923  17.009  -2.234  1.00 20.00     0.001 A 
HETATM    2  C2  UNL     1     -35.184  16.794  -1.677  1.00 20.00     0.001 A 
HETATM    3  C3  UNL     1     -32.974  17.759  -1.540  1.00 20.00     0.008 A 
HETATM    4  C4  UNL     1     -35.494  17.329  -0.427  1.00 20.00     0.019 A 
HETATM    5  C5  UNL     1     -33.284  18.293  -0.289  1.00 20.00    -0.045 A 
HETATM    6  C6  UNL     1     -34.545  18.078   0.268  1.00 20.00     0.012 A 
HETATM    7  C7  UNL     1     -32.227  19.086   0.408  1.00 20.00     0.049 C 
HETATM    8  I8  UNL     1     -35.076  18.849   2.138  1.00 20.00    -0.044 I 
ENDROOT
TORSDOF 0
ENDMDL
MODEL 6
REMARK VINA RESULT:      -3.8      1.524      2.465
REMARK  0 active torsions:
REMARK  status: ('A' for Active; 'I' for Inactive)
ROOT
HETATM    1  C1  UNL     1     -34.047   7.252   6.224  1.00 20.00     0.001 A 
HETATM    2  C2  UNL     1     -34.642   6.009   6.006  1.00 20.00     0.001 A 
HETATM    3  C3  UNL     1     -33.233   7.817   5.242  1.00 20.00     0.008 A 
HETATM    4  C4  UNL     1     -34.423   5.332   4.806  1.00 20.00     0.019 A 
HETATM    5  C5  UNL     1     -33.014   7.140   4.043  1.00 20.00    -0.045 A 
HETATM    6  C6  UNL     1     -33.609   5.897   3.824  1.00 20.00     0.012 A 
HETATM    7  C7  UNL     1     -32.134   7.794   3.027  1.00 20.00     0.049 C 
HETATM    8  I8  UNL     1     -33.324   4.828   2.049  1.00 20.00    -0.044 I 
ENDROOT
TORSDOF 0
ENDMDL
MODEL 7
REMARK VINA RESULT:      -3.8     12.440     13.051
REMARK  0 active torsions:
REMARK  status: ('A' for Active; 'I' for Inactive)
ROOT
HETATM    1  C1  UNL     1     -32.346  18.903   1.217  1.00 20.00     0.001 A 
HETATM    2  C2  UNL     1     -31.847  18.649  -0.062  1.00 20.00     0.001 A 
HETATM    3  C3  UNL     1     -33.671  18.593   1.521  1.00 20.00     0.008 A 
HETATM    4  C4  UNL     1     -32.674  18.086  -1.034  1.00 20.00     0.019 A 
HETATM    5  C5  UNL     1     -34.497  18.029   0.550  1.00 20.00    -0.045 A 
HETATM    6  C6  UNL     1     -33.999  17.775  -0.728  1.00 20.00     0.012 A 
HETATM    7  C7  UNL     1     -35.907  17.717   0.935  1.00 20.00     0.049 C 
HETATM    8  I8  UNL     1     -35.183  16.932  -2.232  1.00 20.00    -0.044 I 
ENDROOT
TORSDOF 0
ENDMDL
MODEL 8
REMARK VINA RESULT:      -3.8     12.908     13.272
REMARK  0 active torsions:
REMARK  status: ('A' for Active; 'I' for Inactive)
ROOT
HETATM    1  C1  UNL     1     -32.859  18.282  -0.886  1.00 20.00     0.001 A 
HETATM    2  C2  UNL     1     -34.126  18.249  -0.302  1.00 20.00     0.001 A 
HETATM    3  C3  UNL     1     -31.731  18.483  -0.092  1.00 20.00     0.008 A 
HETATM    4  C4  UNL     1     -34.262  18.419   1.076  1.00 20.00     0.019 A 
HETATM    5  C5  UNL     1     -31.867  18.652   1.286  1.00 20.00    -0.045 A 
HETATM    6  C6  UNL     1     -33.134  18.619   1.870  1.00 20.00     0.012 A 
HETATM    7  C7  UNL     1     -30.623  18.862   2.086  1.00 20.00     0.049 C 
HETATM    8  I8  UNL     1     -33.411  18.865   3.929  1.00 20.00    -0.044 I 
ENDROOT
TORSDOF 0
ENDMDL
MODEL 9
REMARK VINA RESULT:      -3.8      2.151      3.075
REMARK  0 active torsions:
REMARK  status: ('A' for Active; 'I' for Inactive)
ROOT
HETATM    1  C1  UNL     1     -31.741   8.415   3.319  1.00 20.00     0.001 A 
HETATM    2  C2  UNL     1     -32.238   8.539   4.617  1.00 20.00     0.001 A 
HETATM    3  C3  UNL     1     -32.101   7.317   2.538  1.00 20.00     0.008 A 
HETATM    4  C4  UNL     1     -33.094   7.566   5.132  1.00 20.00     0.019 A 
HETATM    5  C5  UNL     1     -32.958   6.345   3.053  1.00 20.00    -0.045 A 
HETATM    6  C6  UNL     1     -33.455   6.469   4.351  1.00 20.00     0.012 A 
HETATM    7  C7  UNL     1     -33.310   5.192   2.169  1.00 20.00     0.049 C 
HETATM    8  I8  UNL     1     -34.744   5.048   5.185  1.00 20.00    -0.044 I 
ENDROOT
TORSDOF 0
ENDMDL
