MODEL 1
REMARK VINA RESULT:      -6.8      0.000      0.000
REMARK  0 active torsions:
REMARK  status: ('A' for Active; 'I' for Inactive)
ROOT
HETATM    1  C1  UNL     1     -34.397   6.150   5.918  1.00 20.00     0.001 A 
HETATM    2  C2  UNL     1     -34.910   5.385   4.868  1.00 20.00     0.003 A 
HETATM    3  C3  UNL     1     -33.468   7.171   5.681  1.00 20.00     0.014 A 
HETATM    4  C4  UNL     1     -34.515   5.609   3.545  1.00 20.00     0.038 A 
HETATM    5  C5  UNL     1     -32.168   8.321   3.722  1.00 20.00     0.046 A 
HETATM    6  C6  UNL     1     -33.056   7.415   4.358  1.00 20.00     0.000 A 
HETATM    7  C7  UNL     1     -33.590   6.631   3.340  1.00 20.00     0.086 A 
HETATM    8  C8  UNL     1     -32.218   8.034   2.377  1.00 20.00     0.050 A 
HETATM    9  C9  UNL     1     -31.543   8.605   1.203  1.00 20.00     0.077 C 
HETATM   10  O10 UNL     1     -33.077   7.009   2.136  1.00 20.00    -0.315 OA
ENDROOT
TORSDOF 0
ENDMDL
MODEL 2
REMARK VINA RESULT:      -6.7      0.877      1.867
REMARK  0 active torsions:
REMARK  status: ('A' for Active; 'I' for Inactive)
ROOT
HETATM    1  C1  UNL     1     -34.768   5.072   5.307  1.00 20.00     0.001 A 
HETATM    2  C2  UNL     1     -34.433   6.143   6.139  1.00 20.00     0.003 A 
HETATM    3  C3  UNL     1     -34.390   5.058   3.958  1.00 20.00     0.014 A 
HETATM    4  C4  UNL     1     -33.709   7.238   5.656  1.00 20.00     0.038 A 
HETATM    5  C5  UNL     1     -33.110   6.504   2.192  1.00 20.00     0.046 A 
HETATM    6  C6  UNL     1     -33.661   6.148   3.451  1.00 20.00     0.000 A 
HETATM    7  C7  UNL     1     -33.346   7.196   4.311  1.00 20.00     0.086 A 
HETATM    8  C8  UNL     1     -32.503   7.727   2.366  1.00 20.00     0.050 A 
HETATM    9  C9  UNL     1     -31.766   8.619   1.460  1.00 20.00     0.077 C 
HETATM   10  O10 UNL     1     -32.642   8.156   3.648  1.00 20.00    -0.315 OA
ENDROOT
TORSDOF 0
ENDMDL
MODEL 3
REMARK VINA RESULT:      -4.8      1.288      4.150
REMARK  0 active torsions:
REMARK  status: ('A' for Active; 'I' for Inactive)
ROOT
HETATM    1  C1  UNL     1     -31.973   8.394   1.611  1.00 20.00     0.001 A 
HETATM    2  C2  UNL     1     -31.433   8.904   2.794  1.00 20.00     0.003 A 
HETATM    3  C3  UNL     1     -32.933   7.374   1.635  1.00 20.00     0.014 A 
HETATM    4  C4  UNL     1     -31.829   8.414   4.042  1.00 20.00     0.038 A 
HETATM    5  C5  UNL     1     -34.260   5.873   3.319  1.00 20.00     0.046 A 
HETATM    6  C6  UNL     1     -33.347   6.866   2.880  1.00 20.00     0.000 A 
HETATM    7  C7  UNL     1     -32.785   7.400   4.035  1.00 20.00     0.086 A 
HETATM    8  C8  UNL     1     -34.197   5.867   4.693  1.00 20.00     0.050 A 
HETATM    9  C9  UNL     1     -34.885   5.080   5.726  1.00 20.00     0.077 C 
HETATM   10  O10 UNL     1     -33.303   6.789   5.138  1.00 20.00    -0.315 OA
ENDROOT
TORSDOF 0
ENDMDL
MODEL 4
REMARK VINA RESULT:      -4.7     11.412     11.744
REMARK  0 active torsions:
REMARK  status: ('A' for Active; 'I' for Inactive)
ROOT
HETATM    1  C1  UNL     1     -33.229  18.550   0.044  1.00 20.00     0.001 A 
HETATM    2  C2  UNL     1     -34.518  18.297   0.518  1.00 20.00     0.003 A 
HETATM    3  C3  UNL     1     -32.789  18.015  -1.174  1.00 20.00     0.014 A 
HETATM    4  C4  UNL     1     -35.414  17.501  -0.203  1.00 20.00     0.038 A 
HETATM    5  C5  UNL     1     -33.615  16.509  -3.148  1.00 20.00     0.046 A 
HETATM    6  C6  UNL     1     -33.672  17.211  -1.916  1.00 20.00     0.000 A 
HETATM    7  C7  UNL     1     -34.948  16.982  -1.410  1.00 20.00     0.086 A 
HETATM    8  C8  UNL     1     -34.842  15.907  -3.310  1.00 20.00     0.050 A 
HETATM    9  C9  UNL     1     -35.409  15.052  -4.362  1.00 20.00     0.077 C 
HETATM   10  O10 UNL     1     -35.657  16.187  -2.260  1.00 20.00    -0.315 OA
ENDROOT
TORSDOF 0
ENDMDL
MODEL 5
REMARK VINA RESULT:      -4.5     11.466     11.908
REMARK  0 active torsions:
REMARK  status: ('A' for Active; 'I' for Inactive)
ROOT
HETATM    1  C1  UNL     1     -33.495  18.943   1.161  1.00 20.00     0.001 A 
HETATM    2  C2  UNL     1     -32.276  18.916   0.477  1.00 20.00     0.003 A 
HETATM    3  C3  UNL     1     -34.627  18.298   0.645  1.00 20.00     0.014 A 
HETATM    4  C4  UNL     1     -32.144  18.248  -0.744  1.00 20.00     0.038 A 
HETATM    5  C5  UNL     1     -35.392  16.870  -1.411  1.00 20.00     0.046 A 
HETATM    6  C6  UNL     1     -34.517  17.620  -0.582  1.00 20.00     0.000 A 
HETATM    7  C7  UNL     1     -33.286  17.616  -1.232  1.00 20.00     0.086 A 
HETATM    8  C8  UNL     1     -34.649  16.465  -2.495  1.00 20.00     0.050 A 
HETATM    9  C9  UNL     1     -34.968  15.673  -3.691  1.00 20.00     0.077 C 
HETATM   10  O10 UNL     1     -33.370  16.914  -2.396  1.00 20.00    -0.315 OA
ENDROOT
TORSDOF 0
ENDMDL
MODEL 6
REMARK VINA RESULT:      -4.5     11.404     11.762
REMARK  0 active torsions:
REMARK  status: ('A' for Active; 'I' for Inactive)
ROOT
HETATM    1  C1  UNL     1     -34.690  18.244   0.569  1.00 20.00     0.001 A 
HETATM    2  C2  UNL     1     -33.377  18.538   0.192  1.00 20.00     0.003 A 
HETATM    3  C3  UNL     1     -35.513  17.450  -0.240  1.00 20.00     0.014 A 
HETATM    4  C4  UNL     1     -32.838  18.051  -1.003  1.00 20.00     0.038 A 
HETATM    5  C5  UNL     1     -35.481  16.139  -2.505  1.00 20.00     0.046 A 
HETATM    6  C6  UNL     1     -34.993  16.949  -1.447  1.00 20.00     0.000 A 
HETATM    7  C7  UNL     1     -33.680  17.264  -1.786  1.00 20.00     0.086 A 
HETATM    8  C8  UNL     1     -34.449  16.015  -3.407  1.00 20.00     0.050 A 
HETATM    9  C9  UNL     1     -34.319  15.314  -4.692  1.00 20.00     0.077 C 
HETATM   10  O10 UNL     1     -33.353  16.694  -2.980  1.00 20.00    -0.315 OA
ENDROOT
TORSDOF 0
ENDMDL
MODEL 7
REMARK VINA RESULT:      -4.3     11.492     12.040
REMARK  0 active torsions:
REMARK  status: ('A' for Active; 'I' for Inactive)
ROOT
HETATM    1  C1  UNL     1     -33.472  17.280  -2.689  1.00 20.00     0.001 A 
HETATM    2  C2  UNL     1     -34.754  16.737  -2.576  1.00 20.00     0.003 A 
HETATM    3  C3  UNL     1     -32.879  17.964  -1.619  1.00 20.00     0.014 A 
HETATM    4  C4  UNL     1     -35.491  16.857  -1.393  1.00 20.00     0.038 A 
HETATM    5  C5  UNL     1     -33.367  18.691   0.847  1.00 20.00     0.046 A 
HETATM    6  C6  UNL     1     -33.602  18.096  -0.420  1.00 20.00     0.000 A 
HETATM    7  C7  UNL     1     -34.876  17.541  -0.347  1.00 20.00     0.086 A 
HETATM    8  C8  UNL     1     -34.497  18.463   1.599  1.00 20.00     0.050 A 
HETATM    9  C9  UNL     1     -34.877  18.818   2.973  1.00 20.00     0.077 C 
HETATM   10  O10 UNL     1     -35.419  17.767   0.883  1.00 20.00    -0.315 OA
ENDROOT
TORSDOF 0
ENDMDL
MODEL 8
REMARK VINA RESULT:      -4.3     11.431     12.116
REMARK  0 active torsions:
REMARK  status: ('A' for Active; 'I' for Inactive)
ROOT
HETATM    1  C1  UNL     1     -34.596  16.954  -2.425  1.00 20.00     0.001 A 
HETATM    2  C2  UNL     1     -33.345  17.568  -2.313  1.00 20.00     0.003 A 
HETATM    3  C3  UNL     1     -35.485  16.924  -1.343  1.00 20.00     0.014 A 
HETATM    4  C4  UNL     1     -32.938  18.172  -1.120  1.00 20.00     0.038 A 
HETATM    5  C5  UNL     1     -35.684  17.706   1.147  1.00 20.00     0.046 A 
HETATM    6  C6  UNL     1     -35.097  17.526  -0.133  1.00 20.00     0.000 A 
HETATM    7  C7  UNL     1     -33.844  18.127  -0.062  1.00 20.00     0.086 A 
HETATM    8  C8  UNL     1     -34.763  18.395   1.903  1.00 20.00     0.050 A 
HETATM    9  C9  UNL     1     -34.767  18.880   3.290  1.00 20.00     0.077 C 
HETATM   10  O10 UNL     1     -33.643  18.654   1.179  1.00 20.00    -0.315 OA
ENDROOT
TORSDOF 0
ENDMDL
MODEL 9
REMARK VINA RESULT:      -4.2     11.528     11.891
REMARK  0 active torsions:
REMARK  status: ('A' for Active; 'I' for Inactive)
ROOT
HETATM    1  C1  UNL     1     -35.382  14.440  -5.347  1.00 20.00     0.001 A 
HETATM    2  C2  UNL     1     -33.994  14.520  -5.481  1.00 20.00     0.003 A 
HETATM    3  C3  UNL     1     -36.046  15.086  -4.295  1.00 20.00     0.014 A 
HETATM    4  C4  UNL     1     -33.218  15.246  -4.572  1.00 20.00     0.038 A 
HETATM    5  C5  UNL     1     -35.564  16.592  -2.209  1.00 20.00     0.046 A 
HETATM    6  C6  UNL     1     -35.285  15.822  -3.369  1.00 20.00     0.000 A 
HETATM    7  C7  UNL     1     -33.905  15.878  -3.537  1.00 20.00     0.086 A 
HETATM    8  C8  UNL     1     -34.353  17.060  -1.754  1.00 20.00     0.050 A 
HETATM    9  C9  UNL     1     -33.968  17.900  -0.611  1.00 20.00     0.077 C 
HETATM   10  O10 UNL     1     -33.340  16.631  -2.552  1.00 20.00    -0.315 OA
ENDROOT
TORSDOF 0
ENDMDL
