MODEL 1
REMARK VINA RESULT:      -6.1      0.000      0.000
REMARK  3 active torsions:
REMARK  status: ('A' for Active; 'I' for Inactive)
REMARK    1  A    between atoms: C6_6  and  C9_9 
REMARK    2  A    between atoms: C8_8  and  C9_9 
REMARK    3  A    between atoms: C8_8  and  O10_10 
ROOT
HETATM    1  C1  UNL     1     -34.715   5.197   5.403  1.00 20.00     0.000 A 
HETATM    2  C2  UNL     1     -34.248   6.452   5.793  1.00 20.00     0.001 A 
HETATM    3  C3  UNL     1     -34.411   4.703   4.134  1.00 20.00     0.001 A 
HETATM    4  C4  UNL     1     -33.476   7.213   4.915  1.00 20.00     0.007 A 
HETATM    5  C5  UNL     1     -33.639   5.465   3.256  1.00 20.00     0.007 A 
HETATM    6  C6  UNL     1     -33.172   6.719   3.646  1.00 20.00    -0.052 A 
ENDROOT
BRANCH   6   7
HETATM    7  C9  UNL     1     -32.348   7.533   2.706  1.00 20.00     0.038 C 
HETATM    8  C7  UNL     1     -31.285   8.372   3.444  1.00 20.00     0.017 C 
BRANCH   7   9
HETATM    9  C8  UNL     1     -33.198   8.455   1.802  1.00 20.00     0.173 C 
BRANCH   9  10
HETATM   10  O10 UNL     1     -32.416   9.580   1.416  1.00 20.00    -0.400 OA
HETATM   11  H22 UNL     1     -31.636   9.588   1.993  1.00 20.00     0.209 HD
ENDBRANCH   9  10
ENDBRANCH   7   9
ENDBRANCH   6   7
TORSDOF 3
ENDMDL
MODEL 2
REMARK VINA RESULT:      -6.1      0.009      1.528
REMARK  3 active torsions:
REMARK  status: ('A' for Active; 'I' for Inactive)
REMARK    1  A    between atoms: C6_6  and  C9_9 
REMARK    2  A    between atoms: C8_8  and  C9_9 
REMARK    3  A    between atoms: C8_8  and  O10_10 
ROOT
HETATM    1  C1  UNL     1     -34.718   5.190   5.405  1.00 20.00     0.000 A 
HETATM    2  C2  UNL     1     -34.415   4.697   4.136  1.00 20.00     0.001 A 
HETATM    3  C3  UNL     1     -34.251   6.446   5.794  1.00 20.00     0.001 A 
HETATM    4  C4  UNL     1     -33.646   5.459   3.256  1.00 20.00     0.007 A 
HETATM    5  C5  UNL     1     -33.481   7.208   4.914  1.00 20.00     0.007 A 
HETATM    6  C6  UNL     1     -33.179   6.714   3.645  1.00 20.00    -0.052 A 
ENDROOT
BRANCH   6   7
HETATM    7  C9  UNL     1     -32.356   7.529   2.706  1.00 20.00     0.038 C 
HETATM    8  C7  UNL     1     -31.291   8.365   3.444  1.00 20.00     0.017 C 
BRANCH   7   9
HETATM    9  C8  UNL     1     -33.206   8.455   1.806  1.00 20.00     0.173 C 
BRANCH   9  10
HETATM   10  O10 UNL     1     -32.419   9.572   1.407  1.00 20.00    -0.400 OA
HETATM   11  H22 UNL     1     -32.612   9.728   0.469  1.00 20.00     0.209 HD
ENDBRANCH   9  10
ENDBRANCH   7   9
ENDBRANCH   6   7
TORSDOF 3
ENDMDL
MODEL 3
REMARK VINA RESULT:      -5.4      1.315      2.270
REMARK  3 active torsions:
REMARK  status: ('A' for Active; 'I' for Inactive)
REMARK    1  A    between atoms: C6_6  and  C9_9 
REMARK    2  A    between atoms: C8_8  and  C9_9 
REMARK    3  A    between atoms: C8_8  and  O10_10 
ROOT
HETATM    1  C1  UNL     1     -34.552   4.475   4.766  1.00 20.00     0.000 A 
HETATM    2  C2  UNL     1     -33.909   4.409   3.529  1.00 20.00     0.001 A 
HETATM    3  C3  UNL     1     -34.628   5.689   5.448  1.00 20.00     0.001 A 
HETATM    4  C4  UNL     1     -33.344   5.556   2.975  1.00 20.00     0.007 A 
HETATM    5  C5  UNL     1     -34.062   6.838   4.892  1.00 20.00     0.007 A 
HETATM    6  C6  UNL     1     -33.419   6.771   3.656  1.00 20.00    -0.052 A 
ENDROOT
BRANCH   6   7
HETATM    7  C9  UNL     1     -32.814   7.998   3.064  1.00 20.00     0.038 C 
HETATM    8  C7  UNL     1     -32.782   7.944   1.524  1.00 20.00     0.017 C 
BRANCH   7   9
HETATM    9  C8  UNL     1     -31.393   8.289   3.600  1.00 20.00     0.173 C 
BRANCH   9  10
HETATM   10  O10 UNL     1     -31.488   8.773   4.936  1.00 20.00    -0.400 OA
HETATM   11  H22 UNL     1     -31.984   8.108   5.439  1.00 20.00     0.209 HD
ENDBRANCH   9  10
ENDBRANCH   7   9
ENDBRANCH   6   7
TORSDOF 3
ENDMDL
MODEL 4
REMARK VINA RESULT:      -5.0      2.413      4.377
REMARK  3 active torsions:
REMARK  status: ('A' for Active; 'I' for Inactive)
REMARK    1  A    between atoms: C6_6  and  C9_9 
REMARK    2  A    between atoms: C8_8  and  C9_9 
REMARK    3  A    between atoms: C8_8  and  O10_10 
ROOT
HETATM    1  C1  UNL     1     -31.539   8.626   2.131  1.00 20.00     0.000 A 
HETATM    2  C2  UNL     1     -32.577   7.952   1.488  1.00 20.00     0.001 A 
HETATM    3  C3  UNL     1     -31.417   8.558   3.519  1.00 20.00     0.001 A 
HETATM    4  C4  UNL     1     -33.494   7.210   2.233  1.00 20.00     0.007 A 
HETATM    5  C5  UNL     1     -32.335   7.816   4.264  1.00 20.00     0.007 A 
HETATM    6  C6  UNL     1     -33.373   7.142   3.621  1.00 20.00    -0.052 A 
ENDROOT
BRANCH   6   7
HETATM    7  C9  UNL     1     -34.353   6.351   4.418  1.00 20.00     0.038 C 
HETATM    8  C7  UNL     1     -34.177   6.567   5.934  1.00 20.00     0.017 C 
BRANCH   7   9
HETATM    9  C8  UNL     1     -34.305   4.838   4.104  1.00 20.00     0.173 C 
BRANCH   9  10
HETATM   10  O10 UNL     1     -35.222   4.155   4.951  1.00 20.00    -0.400 OA
HETATM   11  H22 UNL     1     -34.763   3.999   5.792  1.00 20.00     0.209 HD
ENDBRANCH   9  10
ENDBRANCH   7   9
ENDBRANCH   6   7
TORSDOF 3
ENDMDL
MODEL 5
REMARK VINA RESULT:      -5.0      2.408      4.159
REMARK  3 active torsions:
REMARK  status: ('A' for Active; 'I' for Inactive)
REMARK    1  A    between atoms: C6_6  and  C9_9 
REMARK    2  A    between atoms: C8_8  and  C9_9 
REMARK    3  A    between atoms: C8_8  and  O10_10 
ROOT
HETATM    1  C1  UNL     1     -31.538   8.641   2.140  1.00 20.00     0.000 A 
HETATM    2  C2  UNL     1     -31.424   8.579   3.529  1.00 20.00     0.001 A 
HETATM    3  C3  UNL     1     -32.568   7.959   1.493  1.00 20.00     0.001 A 
HETATM    4  C4  UNL     1     -32.341   7.835   4.271  1.00 20.00     0.007 A 
HETATM    5  C5  UNL     1     -33.485   7.214   2.237  1.00 20.00     0.007 A 
HETATM    6  C6  UNL     1     -33.371   7.152   3.625  1.00 20.00    -0.052 A 
ENDROOT
BRANCH   6   7
HETATM    7  C9  UNL     1     -34.351   6.355   4.418  1.00 20.00     0.038 C 
HETATM    8  C7  UNL     1     -34.176   6.565   5.936  1.00 20.00     0.017 C 
BRANCH   7   9
HETATM    9  C8  UNL     1     -34.301   4.844   4.096  1.00 20.00     0.173 C 
BRANCH   9  10
HETATM   10  O10 UNL     1     -35.243   4.160   4.916  1.00 20.00    -0.400 OA
HETATM   11  H22 UNL     1     -35.178   4.552   5.801  1.00 20.00     0.209 HD
ENDBRANCH   9  10
ENDBRANCH   7   9
ENDBRANCH   6   7
TORSDOF 3
ENDMDL
MODEL 6
REMARK VINA RESULT:      -4.7     11.200     11.735
REMARK  3 active torsions:
REMARK  status: ('A' for Active; 'I' for Inactive)
REMARK    1  A    between atoms: C6_6  and  C9_9 
REMARK    2  A    between atoms: C8_8  and  C9_9 
REMARK    3  A    between atoms: C8_8  and  O10_10 
ROOT
HETATM    1  C1  UNL     1     -34.412  17.708  -0.644  1.00 20.00     0.000 A 
HETATM    2  C2  UNL     1     -35.560  17.054  -1.091  1.00 20.00     0.001 A 
HETATM    3  C3  UNL     1     -33.249  17.677  -1.413  1.00 20.00     0.001 A 
HETATM    4  C4  UNL     1     -35.545  16.369  -2.305  1.00 20.00     0.007 A 
HETATM    5  C5  UNL     1     -33.234  16.991  -2.629  1.00 20.00     0.007 A 
HETATM    6  C6  UNL     1     -34.382  16.337  -3.074  1.00 20.00    -0.052 A 
ENDROOT
BRANCH   6   7
HETATM    7  C9  UNL     1     -34.365  15.604  -4.373  1.00 20.00     0.038 C 
HETATM    8  C7  UNL     1     -35.246  14.340  -4.337  1.00 20.00     0.017 C 
BRANCH   7   9
HETATM    9  C8  UNL     1     -32.938  15.227  -4.834  1.00 20.00     0.173 C 
BRANCH   9  10
HETATM   10  O10 UNL     1     -32.702  13.853  -4.545  1.00 20.00    -0.400 OA
HETATM   11  H22 UNL     1     -32.090  13.526  -5.224  1.00 20.00     0.209 HD
ENDBRANCH   9  10
ENDBRANCH   7   9
ENDBRANCH   6   7
TORSDOF 3
ENDMDL
MODEL 7
REMARK VINA RESULT:      -4.6     11.281     11.853
REMARK  3 active torsions:
REMARK  status: ('A' for Active; 'I' for Inactive)
REMARK    1  A    between atoms: C6_6  and  C9_9 
REMARK    2  A    between atoms: C8_8  and  C9_9 
REMARK    3  A    between atoms: C8_8  and  O10_10 
ROOT
HETATM    1  C1  UNL     1     -34.511  18.207  -0.000  1.00 20.00     0.000 A 
HETATM    2  C2  UNL     1     -35.493  17.371  -0.531  1.00 20.00     0.001 A 
HETATM    3  C3  UNL     1     -33.277  18.326  -0.639  1.00 20.00     0.001 A 
HETATM    4  C4  UNL     1     -35.242  16.655  -1.701  1.00 20.00     0.007 A 
HETATM    5  C5  UNL     1     -33.025  17.609  -1.810  1.00 20.00     0.007 A 
HETATM    6  C6  UNL     1     -34.008  16.773  -2.340  1.00 20.00    -0.052 A 
ENDROOT
BRANCH   6   7
HETATM    7  C9  UNL     1     -33.738  16.007  -3.590  1.00 20.00     0.038 C 
HETATM    8  C7  UNL     1     -33.456  16.934  -4.790  1.00 20.00     0.017 C 
BRANCH   7   9
HETATM    9  C8  UNL     1     -34.875  15.024  -3.953  1.00 20.00     0.173 C 
BRANCH   9  10
HETATM   10  O10 UNL     1     -34.343  13.707  -4.044  1.00 20.00    -0.400 OA
HETATM   11  H22 UNL     1     -35.101  13.102  -4.083  1.00 20.00     0.209 HD
ENDBRANCH   9  10
ENDBRANCH   7   9
ENDBRANCH   6   7
TORSDOF 3
ENDMDL
MODEL 8
REMARK VINA RESULT:      -4.6     11.172     11.709
REMARK  3 active torsions:
REMARK  status: ('A' for Active; 'I' for Inactive)
REMARK    1  A    between atoms: C6_6  and  C9_9 
REMARK    2  A    between atoms: C8_8  and  C9_9 
REMARK    3  A    between atoms: C8_8  and  O10_10 
ROOT
HETATM    1  C1  UNL     1     -34.408  17.731  -0.700  1.00 20.00     0.000 A 
HETATM    2  C2  UNL     1     -33.235  17.679  -1.453  1.00 20.00     0.001 A 
HETATM    3  C3  UNL     1     -35.553  17.069  -1.145  1.00 20.00     0.001 A 
HETATM    4  C4  UNL     1     -33.206  16.966  -2.651  1.00 20.00     0.007 A 
HETATM    5  C5  UNL     1     -35.523  16.356  -2.345  1.00 20.00     0.007 A 
HETATM    6  C6  UNL     1     -34.350  16.305  -3.097  1.00 20.00    -0.052 A 
ENDROOT
BRANCH   6   7
HETATM    7  C9  UNL     1     -34.320  15.543  -4.379  1.00 20.00     0.038 C 
HETATM    8  C7  UNL     1     -35.216  14.289  -4.329  1.00 20.00     0.017 C 
BRANCH   7   9
HETATM    9  C8  UNL     1     -32.891  15.140  -4.808  1.00 20.00     0.173 C 
BRANCH   9  10
HETATM   10  O10 UNL     1     -32.680  13.767  -4.499  1.00 20.00    -0.400 OA
HETATM   11  H22 UNL     1     -33.048  13.621  -3.613  1.00 20.00     0.209 HD
ENDBRANCH   9  10
ENDBRANCH   7   9
ENDBRANCH   6   7
TORSDOF 3
ENDMDL
MODEL 9
REMARK VINA RESULT:      -4.5     11.079     11.888
REMARK  3 active torsions:
REMARK  status: ('A' for Active; 'I' for Inactive)
REMARK    1  A    between atoms: C6_6  and  C9_9 
REMARK    2  A    between atoms: C8_8  and  C9_9 
REMARK    3  A    between atoms: C8_8  and  O10_10 
ROOT
HETATM    1  C1  UNL     1     -34.285  17.573  -1.223  1.00 20.00     0.000 A 
HETATM    2  C2  UNL     1     -33.370  17.032  -2.126  1.00 20.00     0.001 A 
HETATM    3  C3  UNL     1     -35.650  17.337  -1.388  1.00 20.00     0.001 A 
HETATM    4  C4  UNL     1     -33.819  16.256  -3.194  1.00 20.00     0.007 A 
HETATM    5  C5  UNL     1     -36.100  16.561  -2.458  1.00 20.00     0.007 A 
HETATM    6  C6  UNL     1     -35.184  16.020  -3.360  1.00 20.00    -0.052 A 
ENDROOT
BRANCH   6   7
HETATM    7  C9  UNL     1     -35.665  15.191  -4.503  1.00 20.00     0.038 C 
HETATM    8  C7  UNL     1     -37.196  15.010  -4.483  1.00 20.00     0.017 C 
BRANCH   7   9
HETATM    9  C8  UNL     1     -34.982  13.807  -4.573  1.00 20.00     0.173 C 
BRANCH   9  10
HETATM   10  O10 UNL     1     -35.941  12.832  -4.970  1.00 20.00    -0.400 OA
HETATM   11  H22 UNL     1     -36.612  12.800  -4.270  1.00 20.00     0.209 HD
ENDBRANCH   9  10
ENDBRANCH   7   9
ENDBRANCH   6   7
TORSDOF 3
ENDMDL
