MODEL 1
REMARK VINA RESULT:      -5.9      0.000      0.000
REMARK  1 active torsions:
REMARK  status: ('A' for Active; 'I' for Inactive)
REMARK    1  A    between atoms: C6_6  and  C9_9 
ROOT
HETATM    1  C1  UNL     1     -33.441   7.590   5.768  1.00 20.00     0.001 A 
HETATM    2  C2  UNL     1     -34.150   6.392   5.665  1.00 20.00     0.007 A 
HETATM    3  C3  UNL     1     -32.728   8.073   4.671  1.00 20.00     0.007 A 
HETATM    4  C4  UNL     1     -33.432   6.163   3.370  1.00 20.00     0.013 A 
HETATM    5  C5  UNL     1     -34.145   5.679   4.467  1.00 20.00    -0.061 A 
HETATM    6  C6  UNL     1     -32.723   7.360   3.472  1.00 20.00    -0.058 A 
HETATM    7  C7  UNL     1     -34.905   4.400   4.358  1.00 20.00     0.048 C 
ENDROOT
BRANCH   6   8
HETATM    8  C9  UNL     1     -31.959   7.878   2.300  1.00 20.00     0.034 C 
HETATM    9  C8  UNL     1     -32.579   9.145   1.715  1.00 20.00     0.010 C 
ENDBRANCH   6   8
TORSDOF 1
ENDMDL
MODEL 2
REMARK VINA RESULT:      -5.9      0.879      2.198
REMARK  1 active torsions:
REMARK  status: ('A' for Active; 'I' for Inactive)
REMARK    1  A    between atoms: C6_6  and  C9_9 
ROOT
HETATM    1  C1  UNL     1     -34.079   5.564   2.930  1.00 20.00     0.001 A 
HETATM    2  C2  UNL     1     -34.317   5.837   4.278  1.00 20.00     0.007 A 
HETATM    3  C3  UNL     1     -33.229   6.389   2.192  1.00 20.00     0.007 A 
HETATM    4  C4  UNL     1     -32.856   7.756   4.149  1.00 20.00     0.013 A 
HETATM    5  C5  UNL     1     -33.707   6.932   4.886  1.00 20.00    -0.061 A 
HETATM    6  C6  UNL     1     -32.617   7.484   2.802  1.00 20.00    -0.058 A 
HETATM    7  C7  UNL     1     -33.961   7.221   6.327  1.00 20.00     0.048 C 
ENDROOT
BRANCH   6   8
HETATM    8  C9  UNL     1     -31.709   8.366   2.012  1.00 20.00     0.034 C 
HETATM    9  C8  UNL     1     -32.474   9.324   1.104  1.00 20.00     0.010 C 
ENDBRANCH   6   8
TORSDOF 1
ENDMDL
MODEL 3
REMARK VINA RESULT:      -5.5      0.882      3.628
REMARK  1 active torsions:
REMARK  status: ('A' for Active; 'I' for Inactive)
REMARK    1  A    between atoms: C6_6  and  C9_9 
ROOT
HETATM    1  C1  UNL     1     -32.518   8.185   5.154  1.00 20.00     0.001 A 
HETATM    2  C2  UNL     1     -31.924   8.547   3.944  1.00 20.00     0.007 A 
HETATM    3  C3  UNL     1     -33.521   7.216   5.174  1.00 20.00     0.007 A 
HETATM    4  C4  UNL     1     -33.338   6.973   2.778  1.00 20.00     0.013 A 
HETATM    5  C5  UNL     1     -32.334   7.942   2.757  1.00 20.00    -0.061 A 
HETATM    6  C6  UNL     1     -33.931   6.610   3.987  1.00 20.00    -0.058 A 
HETATM    7  C7  UNL     1     -31.697   8.330   1.465  1.00 20.00     0.048 C 
ENDROOT
BRANCH   6   8
HETATM    8  C9  UNL     1     -35.005   5.575   4.010  1.00 20.00     0.034 C 
HETATM    9  C8  UNL     1     -34.562   4.294   4.711  1.00 20.00     0.010 C 
ENDBRANCH   6   8
TORSDOF 1
ENDMDL
MODEL 4
REMARK VINA RESULT:      -4.9      1.119      4.143
REMARK  1 active torsions:
REMARK  status: ('A' for Active; 'I' for Inactive)
REMARK    1  A    between atoms: C6_6  and  C9_9 
ROOT
HETATM    1  C1  UNL     1     -33.841   5.959   2.186  1.00 20.00     0.001 A 
HETATM    2  C2  UNL     1     -32.909   6.966   1.931  1.00 20.00     0.007 A 
HETATM    3  C3  UNL     1     -34.318   5.764   3.482  1.00 20.00     0.007 A 
HETATM    4  C4  UNL     1     -32.931   7.580   4.267  1.00 20.00     0.013 A 
HETATM    5  C5  UNL     1     -32.454   7.775   2.970  1.00 20.00    -0.061 A 
HETATM    6  C6  UNL     1     -33.863   6.575   4.522  1.00 20.00    -0.058 A 
HETATM    7  C7  UNL     1     -31.459   8.852   2.695  1.00 20.00     0.048 C 
ENDROOT
BRANCH   6   8
HETATM    8  C9  UNL     1     -34.374   6.365   5.909  1.00 20.00     0.034 C 
HETATM    9  C8  UNL     1     -34.738   4.908   6.179  1.00 20.00     0.010 C 
ENDBRANCH   6   8
TORSDOF 1
ENDMDL
MODEL 5
REMARK VINA RESULT:      -4.6     11.397     12.047
REMARK  1 active torsions:
REMARK  status: ('A' for Active; 'I' for Inactive)
REMARK    1  A    between atoms: C6_6  and  C9_9 
ROOT
HETATM    1  C1  UNL     1     -35.527  17.366  -0.348  1.00 20.00     0.001 A 
HETATM    2  C2  UNL     1     -34.545  18.109   0.309  1.00 20.00     0.007 A 
HETATM    3  C3  UNL     1     -35.252  16.792  -1.590  1.00 20.00     0.007 A 
HETATM    4  C4  UNL     1     -33.016  17.705  -1.518  1.00 20.00     0.013 A 
HETATM    5  C5  UNL     1     -33.291  18.278  -0.276  1.00 20.00    -0.061 A 
HETATM    6  C6  UNL     1     -33.997  16.961  -2.174  1.00 20.00    -0.058 A 
HETATM    7  C7  UNL     1     -32.242  19.071   0.428  1.00 20.00     0.048 C 
ENDROOT
BRANCH   6   8
HETATM    8  C9  UNL     1     -33.705  16.349  -3.503  1.00 20.00     0.034 C 
HETATM    9  C8  UNL     1     -34.570  15.122  -3.780  1.00 20.00     0.010 C 
ENDBRANCH   6   8
TORSDOF 1
ENDMDL
MODEL 6
REMARK VINA RESULT:      -4.6     11.581     12.047
REMARK  1 active torsions:
REMARK  status: ('A' for Active; 'I' for Inactive)
REMARK    1  A    between atoms: C6_6  and  C9_9 
ROOT
HETATM    1  C1  UNL     1     -35.552  17.403  -0.288  1.00 20.00     0.001 A 
HETATM    2  C2  UNL     1     -35.300  16.794  -1.518  1.00 20.00     0.007 A 
HETATM    3  C3  UNL     1     -34.552  18.145   0.340  1.00 20.00     0.007 A 
HETATM    4  C4  UNL     1     -33.048  17.667  -1.490  1.00 20.00     0.013 A 
HETATM    5  C5  UNL     1     -34.049  16.925  -2.118  1.00 20.00    -0.061 A 
HETATM    6  C6  UNL     1     -33.300  18.277  -0.262  1.00 20.00    -0.058 A 
HETATM    7  C7  UNL     1     -33.782  16.274  -3.434  1.00 20.00     0.048 C 
ENDROOT
BRANCH   6   8
HETATM    8  C9  UNL     1     -32.230  19.070   0.411  1.00 20.00     0.034 C 
HETATM    9  C8  UNL     1     -32.136  18.769   1.905  1.00 20.00     0.010 C 
ENDBRANCH   6   8
TORSDOF 1
ENDMDL
MODEL 7
REMARK VINA RESULT:      -4.5     11.409     11.844
REMARK  1 active torsions:
REMARK  status: ('A' for Active; 'I' for Inactive)
REMARK    1  A    between atoms: C6_6  and  C9_9 
ROOT
HETATM    1  C1  UNL     1     -32.912  18.103  -1.189  1.00 20.00     0.001 A 
HETATM    2  C2  UNL     1     -33.800  18.271  -0.126  1.00 20.00     0.007 A 
HETATM    3  C3  UNL     1     -33.268  17.303  -2.275  1.00 20.00     0.007 A 
HETATM    4  C4  UNL     1     -35.399  16.840  -1.234  1.00 20.00     0.013 A 
HETATM    5  C5  UNL     1     -35.042  17.640  -0.149  1.00 20.00    -0.061 A 
HETATM    6  C6  UNL     1     -34.512  16.672  -2.297  1.00 20.00    -0.058 A 
HETATM    7  C7  UNL     1     -35.992  17.822   0.988  1.00 20.00     0.048 C 
ENDROOT
BRANCH   6   8
HETATM    8  C9  UNL     1     -34.892  15.816  -3.459  1.00 20.00     0.034 C 
HETATM    9  C8  UNL     1     -33.693  15.089  -4.062  1.00 20.00     0.010 C 
ENDBRANCH   6   8
TORSDOF 1
ENDMDL
MODEL 8
REMARK VINA RESULT:      -4.3     11.467     12.062
REMARK  1 active torsions:
REMARK  status: ('A' for Active; 'I' for Inactive)
REMARK    1  A    between atoms: C6_6  and  C9_9 
ROOT
HETATM    1  C1  UNL     1     -32.588  18.262  -1.048  1.00 20.00     0.001 A 
HETATM    2  C2  UNL     1     -33.232  17.485  -2.013  1.00 20.00     0.007 A 
HETATM    3  C3  UNL     1     -33.227  18.542   0.160  1.00 20.00     0.007 A 
HETATM    4  C4  UNL     1     -35.152  17.273  -0.562  1.00 20.00     0.013 A 
HETATM    5  C5  UNL     1     -34.513  16.992  -1.770  1.00 20.00    -0.061 A 
HETATM    6  C6  UNL     1     -34.508  18.047   0.403  1.00 20.00    -0.058 A 
HETATM    7  C7  UNL     1     -35.199  16.161  -2.802  1.00 20.00     0.048 C 
ENDROOT
BRANCH   6   8
HETATM    8  C9  UNL     1     -35.191  18.349   1.695  1.00 20.00     0.034 C 
HETATM    9  C8  UNL     1     -34.217  18.397   2.869  1.00 20.00     0.010 C 
ENDBRANCH   6   8
TORSDOF 1
ENDMDL
MODEL 9
REMARK VINA RESULT:      -4.3     11.600     12.070
REMARK  1 active torsions:
REMARK  status: ('A' for Active; 'I' for Inactive)
REMARK    1  A    between atoms: C6_6  and  C9_9 
ROOT
HETATM    1  C1  UNL     1     -32.331  18.550  -0.524  1.00 20.00     0.001 A 
HETATM    2  C2  UNL     1     -32.890  18.862   0.716  1.00 20.00     0.007 A 
HETATM    3  C3  UNL     1     -33.064  17.812  -1.453  1.00 20.00     0.007 A 
HETATM    4  C4  UNL     1     -34.913  17.695   0.097  1.00 20.00     0.013 A 
HETATM    5  C5  UNL     1     -34.180  18.433   1.026  1.00 20.00    -0.061 A 
HETATM    6  C6  UNL     1     -34.355  17.385  -1.143  1.00 20.00    -0.058 A 
HETATM    7  C7  UNL     1     -34.778  18.768   2.352  1.00 20.00     0.048 C 
ENDROOT
BRANCH   6   8
HETATM    8  C9  UNL     1     -35.137  16.594  -2.137  1.00 20.00     0.034 C 
HETATM    9  C8  UNL     1     -34.261  16.038  -3.257  1.00 20.00     0.010 C 
ENDBRANCH   6   8
TORSDOF 1
ENDMDL
