MODEL 1
REMARK VINA RESULT:      -5.5      0.000      0.000
REMARK  0 active torsions:
REMARK  status: ('A' for Active; 'I' for Inactive)
ROOT
HETATM    1  C1  UNL     1     -33.741   7.324   5.910  1.00 20.00     0.002 A 
HETATM    2  C2  UNL     1     -34.220   6.028   5.716  1.00 20.00     0.007 A 
HETATM    3  C3  UNL     1     -33.146   8.013   4.853  1.00 20.00     0.018 A 
HETATM    4  C4  UNL     1     -33.511   6.113   3.407  1.00 20.00     0.025 A 
HETATM    5  C5  UNL     1     -34.105   5.423   4.464  1.00 20.00    -0.061 A 
HETATM    6  C6  UNL     1     -33.031   7.408   3.603  1.00 20.00     0.006 A 
HETATM    7  C7  UNL     1     -34.617   4.037   4.258  1.00 20.00     0.048 C 
HETATM    8  I8  UNL     1     -32.148   8.436   2.028  1.00 20.00    -0.045 I 
ENDROOT
TORSDOF 0
ENDMDL
MODEL 2
REMARK VINA RESULT:      -5.0      0.906      2.363
REMARK  0 active torsions:
REMARK  status: ('A' for Active; 'I' for Inactive)
ROOT
HETATM    1  C1  UNL     1     -33.959   5.192   3.154  1.00 20.00     0.002 A 
HETATM    2  C2  UNL     1     -34.210   5.520   4.487  1.00 20.00     0.007 A 
HETATM    3  C3  UNL     1     -33.338   6.116   2.314  1.00 20.00     0.018 A 
HETATM    4  C4  UNL     1     -33.217   7.695   4.137  1.00 20.00     0.025 A 
HETATM    5  C5  UNL     1     -33.839   6.772   4.978  1.00 20.00    -0.061 A 
HETATM    6  C6  UNL     1     -32.967   7.366   2.805  1.00 20.00     0.006 A 
HETATM    7  C7  UNL     1     -34.109   7.123   6.403  1.00 20.00     0.048 C 
HETATM    8  I8  UNL     1     -32.038   8.741   1.553  1.00 20.00    -0.045 I 
ENDROOT
TORSDOF 0
ENDMDL
MODEL 3
REMARK VINA RESULT:      -4.1     12.008     12.515
REMARK  0 active torsions:
REMARK  status: ('A' for Active; 'I' for Inactive)
ROOT
HETATM    1  C1  UNL     1     -35.616  17.282  -0.530  1.00 20.00     0.002 A 
HETATM    2  C2  UNL     1     -34.599  18.019   0.076  1.00 20.00     0.007 A 
HETATM    3  C3  UNL     1     -35.391  16.660  -1.758  1.00 20.00     0.018 A 
HETATM    4  C4  UNL     1     -33.129  17.510  -1.773  1.00 20.00     0.025 A 
HETATM    5  C5  UNL     1     -33.356  18.132  -0.546  1.00 20.00    -0.061 A 
HETATM    6  C6  UNL     1     -34.148  16.774  -2.379  1.00 20.00     0.006 A 
HETATM    7  C7  UNL     1     -32.268  18.921   0.103  1.00 20.00     0.048 C 
HETATM    8  I8  UNL     1     -33.810  15.844  -4.207  1.00 20.00    -0.045 I 
ENDROOT
TORSDOF 0
ENDMDL
MODEL 4
REMARK VINA RESULT:      -4.1     11.925     12.342
REMARK  0 active torsions:
REMARK  status: ('A' for Active; 'I' for Inactive)
ROOT
HETATM    1  C1  UNL     1     -32.862  18.384  -0.633  1.00 20.00     0.002 A 
HETATM    2  C2  UNL     1     -33.875  18.447   0.324  1.00 20.00     0.007 A 
HETATM    3  C3  UNL     1     -33.044  17.631  -1.793  1.00 20.00     0.018 A 
HETATM    4  C4  UNL     1     -35.253  17.006  -1.041  1.00 20.00     0.025 A 
HETATM    5  C5  UNL     1     -35.070  17.758   0.120  1.00 20.00    -0.061 A 
HETATM    6  C6  UNL     1     -34.239  16.943  -1.997  1.00 20.00     0.006 A 
HETATM    7  C7  UNL     1     -36.153  17.825   1.144  1.00 20.00     0.048 C 
HETATM    8  I8  UNL     1     -34.512  15.825  -3.727  1.00 20.00    -0.045 I 
ENDROOT
TORSDOF 0
ENDMDL
MODEL 5
REMARK VINA RESULT:      -3.9     12.242     12.460
REMARK  0 active torsions:
REMARK  status: ('A' for Active; 'I' for Inactive)
ROOT
HETATM    1  C1  UNL     1     -35.775  17.339  -0.671  1.00 20.00     0.002 A 
HETATM    2  C2  UNL     1     -35.362  16.762  -1.872  1.00 20.00     0.007 A 
HETATM    3  C3  UNL     1     -34.863  18.043   0.115  1.00 20.00     0.018 A 
HETATM    4  C4  UNL     1     -33.124  17.595  -1.501  1.00 20.00     0.025 A 
HETATM    5  C5  UNL     1     -34.036  16.890  -2.286  1.00 20.00    -0.061 A 
HETATM    6  C6  UNL     1     -33.539  18.171  -0.299  1.00 20.00     0.006 A 
HETATM    7  C7  UNL     1     -33.594  16.273  -3.571  1.00 20.00     0.048 C 
HETATM    8  I8  UNL     1     -32.181  19.223   0.871  1.00 20.00    -0.045 I 
ENDROOT
TORSDOF 0
ENDMDL
MODEL 6
REMARK VINA RESULT:      -3.9     12.198     12.604
REMARK  0 active torsions:
REMARK  status: ('A' for Active; 'I' for Inactive)
ROOT
HETATM    1  C1  UNL     1     -32.251  18.475  -0.628  1.00 20.00     0.002 A 
HETATM    2  C2  UNL     1     -33.078  17.758  -1.493  1.00 20.00     0.007 A 
HETATM    3  C3  UNL     1     -32.720  18.857   0.628  1.00 20.00     0.018 A 
HETATM    4  C4  UNL     1     -34.843  17.804   0.157  1.00 20.00     0.025 A 
HETATM    5  C5  UNL     1     -34.373  17.423  -1.100  1.00 20.00    -0.061 A 
HETATM    6  C6  UNL     1     -34.015  18.522   1.021  1.00 20.00     0.006 A 
HETATM    7  C7  UNL     1     -35.257  16.656  -2.026  1.00 20.00     0.048 C 
HETATM    8  I8  UNL     1     -34.713  19.089   2.895  1.00 20.00    -0.045 I 
ENDROOT
TORSDOF 0
ENDMDL
MODEL 7
REMARK VINA RESULT:      -3.9      2.550      4.010
REMARK  0 active torsions:
REMARK  status: ('A' for Active; 'I' for Inactive)
ROOT
HETATM    1  C1  UNL     1     -31.385   8.487   3.702  1.00 20.00     0.002 A 
HETATM    2  C2  UNL     1     -31.513   8.985   2.405  1.00 20.00     0.007 A 
HETATM    3  C3  UNL     1     -32.301   7.551   4.183  1.00 20.00     0.018 A 
HETATM    4  C4  UNL     1     -33.471   7.609   2.070  1.00 20.00     0.025 A 
HETATM    5  C5  UNL     1     -32.556   8.546   1.590  1.00 20.00    -0.061 A 
HETATM    6  C6  UNL     1     -33.343   7.112   3.368  1.00 20.00     0.006 A 
HETATM    7  C7  UNL     1     -32.692   9.079   0.203  1.00 20.00     0.048 C 
HETATM    8  I8  UNL     1     -34.705   5.715   4.083  1.00 20.00    -0.045 I 
ENDROOT
TORSDOF 0
ENDMDL
MODEL 8
REMARK VINA RESULT:      -3.9      2.279      3.557
REMARK  0 active torsions:
REMARK  status: ('A' for Active; 'I' for Inactive)
ROOT
HETATM    1  C1  UNL     1     -32.136   8.553   4.880  1.00 20.00     0.002 A 
HETATM    2  C2  UNL     1     -31.715   8.832   3.580  1.00 20.00     0.007 A 
HETATM    3  C3  UNL     1     -33.030   7.509   5.115  1.00 20.00     0.018 A 
HETATM    4  C4  UNL     1     -33.083   7.021   2.750  1.00 20.00     0.025 A 
HETATM    5  C5  UNL     1     -32.189   8.066   2.515  1.00 20.00    -0.061 A 
HETATM    6  C6  UNL     1     -33.504   6.744   4.051  1.00 20.00     0.006 A 
HETATM    7  C7  UNL     1     -31.739   8.366   1.124  1.00 20.00     0.048 C 
HETATM    8  I8  UNL     1     -34.834   5.186   4.401  1.00 20.00    -0.045 I 
ENDROOT
TORSDOF 0
ENDMDL
MODEL 9
REMARK VINA RESULT:      -3.8      1.634      2.262
REMARK  0 active torsions:
REMARK  status: ('A' for Active; 'I' for Inactive)
ROOT
HETATM    1  C1  UNL     1     -31.731   8.198   4.099  1.00 20.00     0.002 A 
HETATM    2  C2  UNL     1     -32.728   7.269   4.393  1.00 20.00     0.007 A 
HETATM    3  C3  UNL     1     -31.691   8.805   2.843  1.00 20.00     0.018 A 
HETATM    4  C4  UNL     1     -33.647   7.554   2.176  1.00 20.00     0.025 A 
HETATM    5  C5  UNL     1     -33.686   6.947   3.432  1.00 20.00    -0.061 A 
HETATM    6  C6  UNL     1     -32.648   8.483   1.882  1.00 20.00     0.006 A 
HETATM    7  C7  UNL     1     -34.752   5.952   3.747  1.00 20.00     0.048 C 
HETATM    8  I8  UNL     1     -32.591   9.388   0.013  1.00 20.00    -0.045 I 
ENDROOT
TORSDOF 0
ENDMDL
