MODEL 1
REMARK VINA RESULT:      -6.1      0.000      0.000
REMARK  2 active torsions:
REMARK  status: ('A' for Active; 'I' for Inactive)
REMARK    1  A    between atoms: C6_6  and  C8_8 
REMARK    2  A    between atoms: C8_8  and  N10_10 
ROOT
HETATM    1  N9  UNL     1     -33.132   9.548  -0.382  1.00 20.00     0.068 N 
HETATM    2  N10 UNL     1     -32.379   9.222   1.856  1.00 20.00    -0.111 NA
HETATM    3  N11 UNL     1     -32.771   9.387   0.688  1.00 20.00    -0.167 NA
ENDROOT
BRANCH   2   4
HETATM    4  C8  UNL     1     -32.014   7.846   2.216  1.00 20.00     0.227 C 
BRANCH   4   5
HETATM    5  C6  UNL     1     -32.753   7.360   3.417  1.00 20.00    -0.035 A 
HETATM    6  C3  UNL     1     -32.719   8.096   4.601  1.00 20.00     0.009 A 
HETATM    7  C1  UNL     1     -33.410   7.641   5.724  1.00 20.00     0.001 A 
HETATM    8  C2  UNL     1     -34.135   6.451   5.664  1.00 20.00     0.007 A 
HETATM    9  C5  UNL     1     -34.169   5.716   4.478  1.00 20.00    -0.061 A 
HETATM   10  C4  UNL     1     -33.478   6.170   3.356  1.00 20.00     0.015 A 
HETATM   11  C7  UNL     1     -34.944   4.443   4.413  1.00 20.00     0.048 C 
ENDBRANCH   4   5
ENDBRANCH   2   4
TORSDOF 2
ENDMDL
MODEL 2
REMARK VINA RESULT:      -6.0      0.744      1.961
REMARK  2 active torsions:
REMARK  status: ('A' for Active; 'I' for Inactive)
REMARK    1  A    between atoms: C6_6  and  C8_8 
REMARK    2  A    between atoms: C8_8  and  N10_10 
ROOT
HETATM    1  N9  UNL     1     -33.238   9.568  -0.509  1.00 20.00     0.068 N 
HETATM    2  N10 UNL     1     -32.259   9.419   1.660  1.00 20.00    -0.111 NA
HETATM    3  N11 UNL     1     -32.768   9.492   0.528  1.00 20.00    -0.167 NA
ENDROOT
BRANCH   2   4
HETATM    4  C8  UNL     1     -31.702   8.111   2.023  1.00 20.00     0.227 C 
BRANCH   4   5
HETATM    5  C6  UNL     1     -32.638   7.312   2.866  1.00 20.00    -0.035 A 
HETATM    6  C3  UNL     1     -33.277   6.194   2.330  1.00 20.00     0.009 A 
HETATM    7  C1  UNL     1     -34.153   5.447   3.118  1.00 20.00     0.001 A 
HETATM    8  C2  UNL     1     -34.391   5.818   4.442  1.00 20.00     0.007 A 
HETATM    9  C5  UNL     1     -33.751   6.937   4.977  1.00 20.00    -0.061 A 
HETATM   10  C4  UNL     1     -32.876   7.683   4.189  1.00 20.00     0.015 A 
HETATM   11  C7  UNL     1     -34.005   7.333   6.392  1.00 20.00     0.048 C 
ENDBRANCH   4   5
ENDBRANCH   2   4
TORSDOF 2
ENDMDL
MODEL 3
REMARK VINA RESULT:      -5.1     11.189     11.681
REMARK  2 active torsions:
REMARK  status: ('A' for Active; 'I' for Inactive)
REMARK    1  A    between atoms: C6_6  and  C8_8 
REMARK    2  A    between atoms: C8_8  and  N10_10 
ROOT
HETATM    1  N9  UNL     1     -30.357  18.571   2.363  1.00 20.00     0.068 N 
HETATM    2  N10 UNL     1     -31.120  18.539   0.105  1.00 20.00    -0.111 NA
HETATM    3  N11 UNL     1     -30.727  18.559   1.284  1.00 20.00    -0.167 NA
ENDROOT
BRANCH   2   4
HETATM    4  C8  UNL     1     -32.416  19.184  -0.143  1.00 20.00     0.227 C 
BRANCH   4   5
HETATM    5  C6  UNL     1     -33.403  18.251  -0.758  1.00 20.00    -0.035 A 
HETATM    6  C3  UNL     1     -34.636  18.034  -0.143  1.00 20.00     0.009 A 
HETATM    7  C1  UNL     1     -35.559  17.161  -0.719  1.00 20.00     0.001 A 
HETATM    8  C2  UNL     1     -35.249  16.504  -1.910  1.00 20.00     0.007 A 
HETATM    9  C5  UNL     1     -34.016  16.721  -2.525  1.00 20.00    -0.061 A 
HETATM   10  C4  UNL     1     -33.093  17.593  -1.949  1.00 20.00     0.015 A 
HETATM   11  C7  UNL     1     -33.685  16.018  -3.798  1.00 20.00     0.048 C 
ENDBRANCH   4   5
ENDBRANCH   2   4
TORSDOF 2
ENDMDL
MODEL 4
REMARK VINA RESULT:      -5.0     10.803     11.214
REMARK  2 active torsions:
REMARK  status: ('A' for Active; 'I' for Inactive)
REMARK    1  A    between atoms: C6_6  and  C8_8 
REMARK    2  A    between atoms: C8_8  and  N10_10 
ROOT
HETATM    1  N9  UNL     1     -35.974  13.240  -5.443  1.00 20.00     0.068 N 
HETATM    2  N10 UNL     1     -34.268  14.090  -4.011  1.00 20.00    -0.111 NA
HETATM    3  N11 UNL     1     -35.158  13.652  -4.760  1.00 20.00    -0.167 NA
ENDROOT
BRANCH   2   4
HETATM    4  C8  UNL     1     -33.933  15.509  -4.184  1.00 20.00     0.227 C 
BRANCH   4   5
HETATM    5  C6  UNL     1     -34.188  16.304  -2.948  1.00 20.00    -0.035 A 
HETATM    6  C3  UNL     1     -35.461  16.320  -2.379  1.00 20.00     0.009 A 
HETATM    7  C1  UNL     1     -35.699  17.064  -1.222  1.00 20.00     0.001 A 
HETATM    8  C2  UNL     1     -34.663  17.791  -0.635  1.00 20.00     0.007 A 
HETATM    9  C5  UNL     1     -33.389  17.773  -1.204  1.00 20.00    -0.061 A 
HETATM   10  C4  UNL     1     -33.152  17.031  -2.360  1.00 20.00     0.015 A 
HETATM   11  C7  UNL     1     -32.282  18.550  -0.576  1.00 20.00     0.048 C 
ENDBRANCH   4   5
ENDBRANCH   2   4
TORSDOF 2
ENDMDL
MODEL 5
REMARK VINA RESULT:      -4.8     10.979     11.337
REMARK  2 active torsions:
REMARK  status: ('A' for Active; 'I' for Inactive)
REMARK    1  A    between atoms: C6_6  and  C8_8 
REMARK    2  A    between atoms: C8_8  and  N10_10 
ROOT
HETATM    1  N9  UNL     1     -35.139  12.673  -7.450  1.00 20.00     0.068 N 
HETATM    2  N10 UNL     1     -35.880  12.988  -5.206  1.00 20.00    -0.111 NA
HETATM    3  N11 UNL     1     -35.495  12.829  -6.378  1.00 20.00    -0.167 NA
ENDROOT
BRANCH   2   4
HETATM    4  C8  UNL     1     -36.435  14.311  -4.894  1.00 20.00     0.227 C 
BRANCH   4   5
HETATM    5  C6  UNL     1     -35.495  15.142  -4.088  1.00 20.00    -0.035 A 
HETATM    6  C3  UNL     1     -34.148  15.214  -4.442  1.00 20.00     0.009 A 
HETATM    7  C1  UNL     1     -33.269  15.991  -3.688  1.00 20.00     0.001 A 
HETATM    8  C2  UNL     1     -33.736  16.697  -2.579  1.00 20.00     0.007 A 
HETATM    9  C5  UNL     1     -35.084  16.625  -2.225  1.00 20.00    -0.061 A 
HETATM   10  C4  UNL     1     -35.963  15.848  -2.979  1.00 20.00     0.015 A 
HETATM   11  C7  UNL     1     -35.584  17.380  -1.040  1.00 20.00     0.048 C 
ENDBRANCH   4   5
ENDBRANCH   2   4
TORSDOF 2
ENDMDL
MODEL 6
REMARK VINA RESULT:      -4.8      3.182      4.775
REMARK  2 active torsions:
REMARK  status: ('A' for Active; 'I' for Inactive)
REMARK    1  A    between atoms: C6_6  and  C8_8 
REMARK    2  A    between atoms: C8_8  and  N10_10 
ROOT
HETATM    1  N9  UNL     1     -34.693   5.017   5.961  1.00 20.00     0.068 N 
HETATM    2  N10 UNL     1     -34.956   5.834   3.737  1.00 20.00    -0.111 NA
HETATM    3  N11 UNL     1     -34.814   5.406   4.896  1.00 20.00    -0.167 NA
ENDROOT
BRANCH   2   4
HETATM    4  C8  UNL     1     -33.803   5.654   2.847  1.00 20.00     0.227 C 
BRANCH   4   5
HETATM    5  C6  UNL     1     -33.074   6.931   2.601  1.00 20.00    -0.035 A 
HETATM    6  C3  UNL     1     -32.141   7.392   3.530  1.00 20.00     0.009 A 
HETATM    7  C1  UNL     1     -31.459   8.587   3.300  1.00 20.00     0.001 A 
HETATM    8  C2  UNL     1     -31.711   9.322   2.141  1.00 20.00     0.007 A 
HETATM    9  C5  UNL     1     -32.643   8.860   1.211  1.00 20.00    -0.061 A 
HETATM   10  C4  UNL     1     -33.325   7.666   1.442  1.00 20.00     0.015 A 
HETATM   11  C7  UNL     1     -32.911   9.646  -0.028  1.00 20.00     0.048 C 
ENDBRANCH   4   5
ENDBRANCH   2   4
TORSDOF 2
ENDMDL
MODEL 7
REMARK VINA RESULT:      -4.8     10.847     11.174
REMARK  2 active torsions:
REMARK  status: ('A' for Active; 'I' for Inactive)
REMARK    1  A    between atoms: C6_6  and  C8_8 
REMARK    2  A    between atoms: C8_8  and  N10_10 
ROOT
HETATM    1  N9  UNL     1     -35.878  13.276  -5.266  1.00 20.00     0.068 N 
HETATM    2  N10 UNL     1     -34.776  14.941  -3.963  1.00 20.00    -0.111 NA
HETATM    3  N11 UNL     1     -35.356  14.075  -4.641  1.00 20.00    -0.167 NA
ENDROOT
BRANCH   2   4
HETATM    4  C8  UNL     1     -35.651  15.879  -3.248  1.00 20.00     0.227 C 
BRANCH   4   5
HETATM    5  C6  UNL     1     -34.909  16.683  -2.235  1.00 20.00    -0.035 A 
HETATM    6  C3  UNL     1     -33.614  17.123  -2.506  1.00 20.00     0.009 A 
HETATM    7  C1  UNL     1     -32.920  17.875  -1.558  1.00 20.00     0.001 A 
HETATM    8  C2  UNL     1     -33.521  18.187  -0.339  1.00 20.00     0.007 A 
HETATM    9  C5  UNL     1     -34.817  17.747  -0.068  1.00 20.00    -0.061 A 
HETATM   10  C4  UNL     1     -35.510  16.995  -1.015  1.00 20.00     0.015 A 
HETATM   11  C7  UNL     1     -35.459  18.081   1.236  1.00 20.00     0.048 C 
ENDBRANCH   4   5
ENDBRANCH   2   4
TORSDOF 2
ENDMDL
MODEL 8
REMARK VINA RESULT:      -4.6      3.516      4.550
REMARK  2 active torsions:
REMARK  status: ('A' for Active; 'I' for Inactive)
REMARK    1  A    between atoms: C6_6  and  C8_8 
REMARK    2  A    between atoms: C8_8  and  N10_10 
ROOT
HETATM    1  N9  UNL     1     -33.636   3.191   4.202  1.00 20.00     0.068 N 
HETATM    2  N10 UNL     1     -35.120   4.981   4.726  1.00 20.00    -0.111 NA
HETATM    3  N11 UNL     1     -34.345   4.050   4.448  1.00 20.00    -0.167 NA
ENDROOT
BRANCH   2   4
HETATM    4  C8  UNL     1     -35.205   6.056   3.730  1.00 20.00     0.227 C 
BRANCH   4   5
HETATM    5  C6  UNL     1     -33.986   6.915   3.720  1.00 20.00    -0.035 A 
HETATM    6  C3  UNL     1     -33.447   7.375   4.921  1.00 20.00     0.009 A 
HETATM    7  C1  UNL     1     -32.306   8.179   4.912  1.00 20.00     0.001 A 
HETATM    8  C2  UNL     1     -31.705   8.522   3.701  1.00 20.00     0.007 A 
HETATM    9  C5  UNL     1     -32.244   8.061   2.500  1.00 20.00    -0.061 A 
HETATM   10  C4  UNL     1     -33.384   7.258   2.509  1.00 20.00     0.015 A 
HETATM   11  C7  UNL     1     -31.600   8.428   1.205  1.00 20.00     0.048 C 
ENDBRANCH   4   5
ENDBRANCH   2   4
TORSDOF 2
ENDMDL
MODEL 9
REMARK VINA RESULT:      -4.3     11.217     11.834
REMARK  2 active torsions:
REMARK  status: ('A' for Active; 'I' for Inactive)
REMARK    1  A    between atoms: C6_6  and  C8_8 
REMARK    2  A    between atoms: C8_8  and  N10_10 
ROOT
HETATM    1  N9  UNL     1     -39.831  15.468  -5.574  1.00 20.00     0.068 N 
HETATM    2  N10 UNL     1     -38.041  14.027  -4.939  1.00 20.00    -0.111 NA
HETATM    3  N11 UNL     1     -38.971  14.781  -5.274  1.00 20.00    -0.167 NA
ENDROOT
BRANCH   2   4
HETATM    4  C8  UNL     1     -36.811  14.143  -5.734  1.00 20.00     0.227 C 
BRANCH   4   5
HETATM    5  C6  UNL     1     -35.678  14.702  -4.943  1.00 20.00    -0.035 A 
HETATM    6  C3  UNL     1     -34.363  14.467  -5.346  1.00 20.00     0.009 A 
HETATM    7  C1  UNL     1     -33.302  14.990  -4.605  1.00 20.00     0.001 A 
HETATM    8  C2  UNL     1     -33.556  15.748  -3.462  1.00 20.00     0.007 A 
HETATM    9  C5  UNL     1     -34.871  15.984  -3.060  1.00 20.00    -0.061 A 
HETATM   10  C4  UNL     1     -35.931  15.461  -3.800  1.00 20.00     0.015 A 
HETATM   11  C7  UNL     1     -35.142  16.795  -1.838  1.00 20.00     0.048 C 
ENDBRANCH   4   5
ENDBRANCH   2   4
TORSDOF 2
ENDMDL
