MODEL 1
REMARK VINA RESULT:      -6.3      0.000      0.000
REMARK  4 active torsions:
REMARK  status: ('A' for Active; 'I' for Inactive)
REMARK    1  A    between atoms: C6_6  and  C7_7 
REMARK    2  A    between atoms: C7_7  and  C8_8 
REMARK    3  A    between atoms: C8_8  and  C9_9 
REMARK    4  A    between atoms: C9_9  and  S10_10 
ROOT
HETATM    1  C1  UNL     1     -34.637   5.436   5.950  1.00 20.00     0.000 A 
HETATM    2  C2  UNL     1     -34.617   4.648   4.799  1.00 20.00     0.001 A 
HETATM    3  C3  UNL     1     -34.122   6.733   5.915  1.00 20.00     0.001 A 
HETATM    4  C4  UNL     1     -34.084   5.155   3.614  1.00 20.00     0.007 A 
HETATM    5  C5  UNL     1     -33.589   7.241   4.730  1.00 20.00     0.007 A 
HETATM    6  C6  UNL     1     -33.570   6.452   3.580  1.00 20.00    -0.058 A 
ENDROOT
BRANCH   6   7
HETATM    7  C7  UNL     1     -32.999   6.995   2.313  1.00 20.00     0.039 C 
BRANCH   7   8
HETATM    8  C8  UNL     1     -32.013   8.163   2.509  1.00 20.00     0.014 C 
BRANCH   8   9
HETATM    9  C9  UNL     1     -31.629   8.828   1.187  1.00 20.00     0.071 C 
BRANCH   9  10
HETATM   10  S10 UNL     1     -32.726  10.234   0.837  1.00 20.00    -0.182 SA
HETATM   11  H22 UNL     1     -33.372   9.656  -0.185  1.00 20.00     0.101 HD
ENDBRANCH   9  10
ENDBRANCH   8   9
ENDBRANCH   7   8
ENDBRANCH   6   7
TORSDOF 4
ENDMDL
MODEL 2
REMARK VINA RESULT:      -6.3      0.086      1.530
REMARK  4 active torsions:
REMARK  status: ('A' for Active; 'I' for Inactive)
REMARK    1  A    between atoms: C6_6  and  C7_7 
REMARK    2  A    between atoms: C7_7  and  C8_8 
REMARK    3  A    between atoms: C8_8  and  C9_9 
REMARK    4  A    between atoms: C9_9  and  S10_10 
ROOT
HETATM    1  C1  UNL     1     -34.625   5.515   5.932  1.00 20.00     0.000 A 
HETATM    2  C2  UNL     1     -34.038   6.780   5.890  1.00 20.00     0.001 A 
HETATM    3  C3  UNL     1     -34.655   4.722   4.784  1.00 20.00     0.001 A 
HETATM    4  C4  UNL     1     -33.480   7.252   4.702  1.00 20.00     0.007 A 
HETATM    5  C5  UNL     1     -34.097   5.194   3.595  1.00 20.00     0.007 A 
HETATM    6  C6  UNL     1     -33.510   6.459   3.555  1.00 20.00    -0.058 A 
ENDROOT
BRANCH   6   7
HETATM    7  C7  UNL     1     -32.915   6.964   2.283  1.00 20.00     0.039 C 
BRANCH   7   8
HETATM    8  C8  UNL     1     -31.964   8.165   2.458  1.00 20.00     0.014 C 
BRANCH   8   9
HETATM    9  C9  UNL     1     -31.665   8.867   1.133  1.00 20.00     0.071 C 
BRANCH   9  10
HETATM   10  S10 UNL     1     -32.752  10.306   0.913  1.00 20.00    -0.182 SA
HETATM   11  H22 UNL     1     -31.899  11.012   0.158  1.00 20.00     0.101 HD
ENDBRANCH   9  10
ENDBRANCH   8   9
ENDBRANCH   7   8
ENDBRANCH   6   7
TORSDOF 4
ENDMDL
MODEL 3
REMARK VINA RESULT:      -6.3      0.906      1.266
REMARK  4 active torsions:
REMARK  status: ('A' for Active; 'I' for Inactive)
REMARK    1  A    between atoms: C6_6  and  C7_7 
REMARK    2  A    between atoms: C7_7  and  C8_8 
REMARK    3  A    between atoms: C8_8  and  C9_9 
REMARK    4  A    between atoms: C9_9  and  S10_10 
ROOT
HETATM    1  C1  UNL     1     -34.739   5.541   4.864  1.00 20.00     0.000 A 
HETATM    2  C2  UNL     1     -34.291   5.424   3.548  1.00 20.00     0.001 A 
HETATM    3  C3  UNL     1     -34.227   6.544   5.688  1.00 20.00     0.001 A 
HETATM    4  C4  UNL     1     -33.333   6.309   3.055  1.00 20.00     0.007 A 
HETATM    5  C5  UNL     1     -33.268   7.430   5.195  1.00 20.00     0.007 A 
HETATM    6  C6  UNL     1     -32.821   7.312   3.879  1.00 20.00    -0.058 A 
ENDROOT
BRANCH   6   7
HETATM    7  C7  UNL     1     -31.795   8.259   3.353  1.00 20.00     0.039 C 
BRANCH   7   8
HETATM    8  C8  UNL     1     -31.786   8.400   1.818  1.00 20.00     0.014 C 
BRANCH   8   9
HETATM    9  C9  UNL     1     -32.552   9.634   1.342  1.00 20.00     0.071 C 
BRANCH   9  10
HETATM   10  S10 UNL     1     -33.085   9.429  -0.383  1.00 20.00    -0.182 SA
HETATM   11  H22 UNL     1     -34.162  10.222  -0.292  1.00 20.00     0.101 HD
ENDBRANCH   9  10
ENDBRANCH   8   9
ENDBRANCH   7   8
ENDBRANCH   6   7
TORSDOF 4
ENDMDL
MODEL 4
REMARK VINA RESULT:      -6.3      0.901      1.869
REMARK  4 active torsions:
REMARK  status: ('A' for Active; 'I' for Inactive)
REMARK    1  A    between atoms: C6_6  and  C7_7 
REMARK    2  A    between atoms: C7_7  and  C8_8 
REMARK    3  A    between atoms: C8_8  and  C9_9 
REMARK    4  A    between atoms: C9_9  and  S10_10 
ROOT
HETATM    1  C1  UNL     1     -34.746   5.532   4.871  1.00 20.00     0.000 A 
HETATM    2  C2  UNL     1     -34.241   6.538   5.695  1.00 20.00     0.001 A 
HETATM    3  C3  UNL     1     -34.295   5.416   3.556  1.00 20.00     0.001 A 
HETATM    4  C4  UNL     1     -33.286   7.428   5.205  1.00 20.00     0.007 A 
HETATM    5  C5  UNL     1     -33.339   6.306   3.065  1.00 20.00     0.007 A 
HETATM    6  C6  UNL     1     -32.835   7.312   3.889  1.00 20.00    -0.058 A 
ENDROOT
BRANCH   6   7
HETATM    7  C7  UNL     1     -31.814   8.265   3.364  1.00 20.00     0.039 C 
BRANCH   7   8
HETATM    8  C8  UNL     1     -31.793   8.393   1.828  1.00 20.00     0.014 C 
BRANCH   8   9
HETATM    9  C9  UNL     1     -32.541   9.633   1.338  1.00 20.00     0.071 C 
BRANCH   9  10
HETATM   10  S10 UNL     1     -33.075   9.417  -0.385  1.00 20.00    -0.182 SA
HETATM   11  H22 UNL     1     -31.844   9.404  -0.914  1.00 20.00     0.101 HD
ENDBRANCH   9  10
ENDBRANCH   8   9
ENDBRANCH   7   8
ENDBRANCH   6   7
TORSDOF 4
ENDMDL
MODEL 5
REMARK VINA RESULT:      -4.5     11.042     11.704
REMARK  4 active torsions:
REMARK  status: ('A' for Active; 'I' for Inactive)
REMARK    1  A    between atoms: C6_6  and  C7_7 
REMARK    2  A    between atoms: C7_7  and  C8_8 
REMARK    3  A    between atoms: C8_8  and  C9_9 
REMARK    4  A    between atoms: C9_9  and  S10_10 
ROOT
HETATM    1  C1  UNL     1     -34.268  18.381   0.504  1.00 20.00     0.000 A 
HETATM    2  C2  UNL     1     -35.300  17.586   0.007  1.00 20.00     0.001 A 
HETATM    3  C3  UNL     1     -33.079  18.511  -0.215  1.00 20.00     0.001 A 
HETATM    4  C4  UNL     1     -35.146  16.921  -1.210  1.00 20.00     0.007 A 
HETATM    5  C5  UNL     1     -32.924  17.846  -1.432  1.00 20.00     0.007 A 
HETATM    6  C6  UNL     1     -33.958  17.051  -1.929  1.00 20.00    -0.058 A 
ENDROOT
BRANCH   6   7
HETATM    7  C7  UNL     1     -33.791  16.340  -3.230  1.00 20.00     0.039 C 
BRANCH   7   8
HETATM    8  C8  UNL     1     -35.022  15.524  -3.672  1.00 20.00     0.014 C 
BRANCH   8   9
HETATM    9  C9  UNL     1     -34.639  14.174  -4.277  1.00 20.00     0.071 C 
BRANCH   9  10
HETATM   10  S10 UNL     1     -35.952  13.572  -5.379  1.00 20.00    -0.182 SA
HETATM   11  H22 UNL     1     -35.260  12.534  -5.868  1.00 20.00     0.101 HD
ENDBRANCH   9  10
ENDBRANCH   8   9
ENDBRANCH   7   8
ENDBRANCH   6   7
TORSDOF 4
ENDMDL
MODEL 6
REMARK VINA RESULT:      -4.5     11.011     11.751
REMARK  4 active torsions:
REMARK  status: ('A' for Active; 'I' for Inactive)
REMARK    1  A    between atoms: C6_6  and  C7_7 
REMARK    2  A    between atoms: C7_7  and  C8_8 
REMARK    3  A    between atoms: C8_8  and  C9_9 
REMARK    4  A    between atoms: C9_9  and  S10_10 
ROOT
HETATM    1  C1  UNL     1     -34.215  18.386   0.485  1.00 20.00     0.000 A 
HETATM    2  C2  UNL     1     -33.038  18.509  -0.253  1.00 20.00     0.001 A 
HETATM    3  C3  UNL     1     -35.259  17.593   0.005  1.00 20.00     0.001 A 
HETATM    4  C4  UNL     1     -32.903  17.840  -1.469  1.00 20.00     0.007 A 
HETATM    5  C5  UNL     1     -35.125  16.924  -1.212  1.00 20.00     0.007 A 
HETATM    6  C6  UNL     1     -33.947  17.048  -1.949  1.00 20.00    -0.058 A 
ENDROOT
BRANCH   6   7
HETATM    7  C7  UNL     1     -33.804  16.333  -3.251  1.00 20.00     0.039 C 
BRANCH   7   8
HETATM    8  C8  UNL     1     -35.028  15.486  -3.650  1.00 20.00     0.014 C 
BRANCH   8   9
HETATM    9  C9  UNL     1     -34.632  14.141  -4.256  1.00 20.00     0.071 C 
BRANCH   9  10
HETATM   10  S10 UNL     1     -35.922  13.545  -5.388  1.00 20.00    -0.182 SA
HETATM   11  H22 UNL     1     -35.205  12.536  -5.901  1.00 20.00     0.101 HD
ENDBRANCH   9  10
ENDBRANCH   8   9
ENDBRANCH   7   8
ENDBRANCH   6   7
TORSDOF 4
ENDMDL
MODEL 7
REMARK VINA RESULT:      -4.3     11.347     11.810
REMARK  4 active torsions:
REMARK  status: ('A' for Active; 'I' for Inactive)
REMARK    1  A    between atoms: C6_6  and  C7_7 
REMARK    2  A    between atoms: C7_7  and  C8_8 
REMARK    3  A    between atoms: C8_8  and  C9_9 
REMARK    4  A    between atoms: C9_9  and  S10_10 
ROOT
HETATM    1  C1  UNL     1     -34.554  18.170   0.224  1.00 20.00     0.000 A 
HETATM    2  C2  UNL     1     -35.512  17.368  -0.398  1.00 20.00     0.001 A 
HETATM    3  C3  UNL     1     -33.303  18.348  -0.368  1.00 20.00     0.001 A 
HETATM    4  C4  UNL     1     -35.219  16.745  -1.611  1.00 20.00     0.007 A 
HETATM    5  C5  UNL     1     -33.010  17.724  -1.581  1.00 20.00     0.007 A 
HETATM    6  C6  UNL     1     -33.968  16.923  -2.202  1.00 20.00    -0.058 A 
ENDROOT
BRANCH   6   7
HETATM    7  C7  UNL     1     -33.654  16.255  -3.499  1.00 20.00     0.039 C 
BRANCH   7   8
HETATM    8  C8  UNL     1     -34.544  15.038  -3.820  1.00 20.00     0.014 C 
BRANCH   8   9
HETATM    9  C9  UNL     1     -34.482  14.646  -5.297  1.00 20.00     0.071 C 
BRANCH   9  10
HETATM   10  S10 UNL     1     -33.420  15.796  -6.219  1.00 20.00    -0.182 SA
HETATM   11  H22 UNL     1     -32.258  15.323  -5.747  1.00 20.00     0.101 HD
ENDBRANCH   9  10
ENDBRANCH   8   9
ENDBRANCH   7   8
ENDBRANCH   6   7
TORSDOF 4
ENDMDL
MODEL 8
REMARK VINA RESULT:      -4.3     11.562     12.219
REMARK  4 active torsions:
REMARK  status: ('A' for Active; 'I' for Inactive)
REMARK    1  A    between atoms: C6_6  and  C7_7 
REMARK    2  A    between atoms: C7_7  and  C8_8 
REMARK    3  A    between atoms: C8_8  and  C9_9 
REMARK    4  A    between atoms: C9_9  and  S10_10 
ROOT
HETATM    1  C1  UNL     1     -34.919  16.605  -2.020  1.00 20.00     0.000 A 
HETATM    2  C2  UNL     1     -35.463  17.094  -0.832  1.00 20.00     0.001 A 
HETATM    3  C3  UNL     1     -33.628  16.971  -2.399  1.00 20.00     0.001 A 
HETATM    4  C4  UNL     1     -34.716  17.950  -0.023  1.00 20.00     0.007 A 
HETATM    5  C5  UNL     1     -32.880  17.828  -1.590  1.00 20.00     0.007 A 
HETATM    6  C6  UNL     1     -33.425  18.317  -0.402  1.00 20.00    -0.058 A 
ENDROOT
BRANCH   6   7
HETATM    7  C7  UNL     1     -32.626  19.233   0.463  1.00 20.00     0.039 C 
BRANCH   7   8
HETATM    8  C8  UNL     1     -31.262  18.666   0.903  1.00 20.00     0.014 C 
BRANCH   8   9
HETATM    9  C9  UNL     1     -30.927  19.013   2.353  1.00 20.00     0.071 C 
BRANCH   9  10
HETATM   10  S10 UNL     1     -32.436  19.055   3.364  1.00 20.00    -0.182 SA
HETATM   11  H22 UNL     1     -32.573  17.727   3.468  1.00 20.00     0.101 HD
ENDBRANCH   9  10
ENDBRANCH   8   9
ENDBRANCH   7   8
ENDBRANCH   6   7
TORSDOF 4
ENDMDL
MODEL 9
REMARK VINA RESULT:      -4.2      2.274      5.124
REMARK  4 active torsions:
REMARK  status: ('A' for Active; 'I' for Inactive)
REMARK    1  A    between atoms: C6_6  and  C7_7 
REMARK    2  A    between atoms: C7_7  and  C8_8 
REMARK    3  A    between atoms: C8_8  and  C9_9 
REMARK    4  A    between atoms: C9_9  and  S10_10 
ROOT
HETATM    1  C1  UNL     1     -32.347  10.261   0.413  1.00 20.00     0.000 A 
HETATM    2  C2  UNL     1     -33.267  10.336   1.460  1.00 20.00     0.001 A 
HETATM    3  C3  UNL     1     -31.515   9.148   0.294  1.00 20.00     0.001 A 
HETATM    4  C4  UNL     1     -33.355   9.297   2.386  1.00 20.00     0.007 A 
HETATM    5  C5  UNL     1     -31.603   8.108   1.220  1.00 20.00     0.007 A 
HETATM    6  C6  UNL     1     -32.523   8.183   2.266  1.00 20.00    -0.058 A 
ENDROOT
BRANCH   6   7
HETATM    7  C7  UNL     1     -32.617   7.072   3.257  1.00 20.00     0.039 C 
BRANCH   7   8
HETATM    8  C8  UNL     1     -33.843   6.156   3.074  1.00 20.00     0.014 C 
BRANCH   8   9
HETATM    9  C9  UNL     1     -34.620   5.958   4.375  1.00 20.00     0.071 C 
BRANCH   9  10
HETATM   10  S10 UNL     1     -33.916   6.979   5.702  1.00 20.00    -0.182 SA
HETATM   11  H22 UNL     1     -32.673   7.020   5.204  1.00 20.00     0.101 HD
ENDBRANCH   9  10
ENDBRANCH   8   9
ENDBRANCH   7   8
ENDBRANCH   6   7
TORSDOF 4
ENDMDL
