MODEL 1
REMARK VINA RESULT:      -6.4      0.000      0.000
REMARK  4 active torsions:
REMARK  status: ('A' for Active; 'I' for Inactive)
REMARK    1  A    between atoms: C6_6  and  C7_7 
REMARK    2  A    between atoms: C7_7  and  C8_8 
REMARK    3  A    between atoms: C8_8  and  C9_9 
REMARK    4  A    between atoms: C9_9  and  O10_10 
ROOT
HETATM    1  C1  UNL     1     -34.568   5.967   5.867  1.00 20.00     0.000 A 
HETATM    2  C2  UNL     1     -33.794   7.127   5.831  1.00 20.00     0.001 A 
HETATM    3  C3  UNL     1     -34.740   5.206   4.712  1.00 20.00     0.001 A 
HETATM    4  C4  UNL     1     -33.191   7.525   4.639  1.00 20.00     0.007 A 
HETATM    5  C5  UNL     1     -34.136   5.605   3.518  1.00 20.00     0.007 A 
HETATM    6  C6  UNL     1     -33.362   6.765   3.482  1.00 20.00    -0.058 A 
ENDROOT
BRANCH   6   7
HETATM    7  C7  UNL     1     -32.718   7.191   2.206  1.00 20.00     0.041 C 
BRANCH   7   8
HETATM    8  C8  UNL     1     -32.056   8.569   2.325  1.00 20.00     0.030 C 
BRANCH   8   9
HETATM    9  C9  UNL     1     -32.114   9.349   1.019  1.00 20.00     0.164 C 
BRANCH   9  10
HETATM   10  O10 UNL     1     -32.809  10.569   1.241  1.00 20.00    -0.401 OA
HETATM   11  H22 UNL     1     -32.260  11.101   1.839  1.00 20.00     0.209 HD
ENDBRANCH   9  10
ENDBRANCH   8   9
ENDBRANCH   7   8
ENDBRANCH   6   7
TORSDOF 4
ENDMDL
MODEL 2
REMARK VINA RESULT:      -6.4      0.027      1.528
REMARK  4 active torsions:
REMARK  status: ('A' for Active; 'I' for Inactive)
REMARK    1  A    between atoms: C6_6  and  C7_7 
REMARK    2  A    between atoms: C7_7  and  C8_8 
REMARK    3  A    between atoms: C8_8  and  C9_9 
REMARK    4  A    between atoms: C9_9  and  O10_10 
ROOT
HETATM    1  C1  UNL     1     -34.559   5.982   5.860  1.00 20.00     0.000 A 
HETATM    2  C2  UNL     1     -34.742   5.228   4.700  1.00 20.00     0.001 A 
HETATM    3  C3  UNL     1     -33.775   7.135   5.827  1.00 20.00     0.001 A 
HETATM    4  C4  UNL     1     -34.140   5.627   3.508  1.00 20.00     0.007 A 
HETATM    5  C5  UNL     1     -33.174   7.534   4.633  1.00 20.00     0.007 A 
HETATM    6  C6  UNL     1     -33.356   6.781   3.473  1.00 20.00    -0.058 A 
ENDROOT
BRANCH   6   7
HETATM    7  C7  UNL     1     -32.712   7.208   2.198  1.00 20.00     0.041 C 
BRANCH   7   8
HETATM    8  C8  UNL     1     -32.057   8.591   2.316  1.00 20.00     0.030 C 
BRANCH   8   9
HETATM    9  C9  UNL     1     -32.121   9.370   1.011  1.00 20.00     0.164 C 
BRANCH   9  10
HETATM   10  O10 UNL     1     -32.773  10.611   1.247  1.00 20.00    -0.401 OA
HETATM   11  H22 UNL     1     -32.109  11.210   1.624  1.00 20.00     0.209 HD
ENDBRANCH   9  10
ENDBRANCH   8   9
ENDBRANCH   7   8
ENDBRANCH   6   7
TORSDOF 4
ENDMDL
MODEL 3
REMARK VINA RESULT:      -5.5      1.544      2.164
REMARK  4 active torsions:
REMARK  status: ('A' for Active; 'I' for Inactive)
REMARK    1  A    between atoms: C6_6  and  C7_7 
REMARK    2  A    between atoms: C7_7  and  C8_8 
REMARK    3  A    between atoms: C8_8  and  C9_9 
REMARK    4  A    between atoms: C9_9  and  O10_10 
ROOT
HETATM    1  C1  UNL     1     -34.636   5.019   5.844  1.00 20.00     0.000 A 
HETATM    2  C2  UNL     1     -34.430   4.232   4.711  1.00 20.00     0.001 A 
HETATM    3  C3  UNL     1     -34.356   6.385   5.807  1.00 20.00     0.001 A 
HETATM    4  C4  UNL     1     -33.943   4.812   3.540  1.00 20.00     0.007 A 
HETATM    5  C5  UNL     1     -33.868   6.964   4.635  1.00 20.00     0.007 A 
HETATM    6  C6  UNL     1     -33.661   6.178   3.502  1.00 20.00    -0.058 A 
ENDROOT
BRANCH   6   7
HETATM    7  C7  UNL     1     -33.139   6.798   2.250  1.00 20.00     0.041 C 
BRANCH   7   8
HETATM    8  C8  UNL     1     -32.820   8.287   2.432  1.00 20.00     0.030 C 
BRANCH   8   9
HETATM    9  C9  UNL     1     -31.340   8.530   2.689  1.00 20.00     0.164 C 
BRANCH   9  10
HETATM   10  O10 UNL     1     -31.103   8.489   4.090  1.00 20.00    -0.401 OA
HETATM   11  H22 UNL     1     -31.897   8.111   4.499  1.00 20.00     0.209 HD
ENDBRANCH   9  10
ENDBRANCH   8   9
ENDBRANCH   7   8
ENDBRANCH   6   7
TORSDOF 4
ENDMDL
MODEL 4
REMARK VINA RESULT:      -4.9      2.546      4.558
REMARK  4 active torsions:
REMARK  status: ('A' for Active; 'I' for Inactive)
REMARK    1  A    between atoms: C6_6  and  C7_7 
REMARK    2  A    between atoms: C7_7  and  C8_8 
REMARK    3  A    between atoms: C8_8  and  C9_9 
REMARK    4  A    between atoms: C9_9  and  O10_10 
ROOT
HETATM    1  C1  UNL     1     -31.855   8.228   1.914  1.00 20.00     0.000 A 
HETATM    2  C2  UNL     1     -31.372   8.644   3.155  1.00 20.00     0.001 A 
HETATM    3  C3  UNL     1     -32.968   7.391   1.843  1.00 20.00     0.001 A 
HETATM    4  C4  UNL     1     -32.003   8.222   4.325  1.00 20.00     0.007 A 
HETATM    5  C5  UNL     1     -33.599   6.970   3.013  1.00 20.00     0.007 A 
HETATM    6  C6  UNL     1     -33.117   7.385   4.255  1.00 20.00    -0.058 A 
ENDROOT
BRANCH   6   7
HETATM    7  C7  UNL     1     -33.792   6.933   5.506  1.00 20.00     0.041 C 
BRANCH   7   8
HETATM    8  C8  UNL     1     -34.889   5.897   5.228  1.00 20.00     0.030 C 
BRANCH   8   9
HETATM    9  C9  UNL     1     -34.420   4.476   5.506  1.00 20.00     0.164 C 
BRANCH   9  10
HETATM   10  O10 UNL     1     -34.341   3.768   4.276  1.00 20.00    -0.401 OA
HETATM   11  H22 UNL     1     -34.639   4.377   3.582  1.00 20.00     0.209 HD
ENDBRANCH   9  10
ENDBRANCH   8   9
ENDBRANCH   7   8
ENDBRANCH   6   7
TORSDOF 4
ENDMDL
MODEL 5
REMARK VINA RESULT:      -4.9      2.547      4.790
REMARK  4 active torsions:
REMARK  status: ('A' for Active; 'I' for Inactive)
REMARK    1  A    between atoms: C6_6  and  C7_7 
REMARK    2  A    between atoms: C7_7  and  C8_8 
REMARK    3  A    between atoms: C8_8  and  C9_9 
REMARK    4  A    between atoms: C9_9  and  O10_10 
ROOT
HETATM    1  C1  UNL     1     -31.855   8.208   1.911  1.00 20.00     0.000 A 
HETATM    2  C2  UNL     1     -32.960   7.359   1.843  1.00 20.00     0.001 A 
HETATM    3  C3  UNL     1     -31.381   8.640   3.149  1.00 20.00     0.001 A 
HETATM    4  C4  UNL     1     -33.591   6.943   3.014  1.00 20.00     0.007 A 
HETATM    5  C5  UNL     1     -32.014   8.223   4.321  1.00 20.00     0.007 A 
HETATM    6  C6  UNL     1     -33.119   7.375   4.254  1.00 20.00    -0.058 A 
ENDROOT
BRANCH   6   7
HETATM    7  C7  UNL     1     -33.794   6.930   5.507  1.00 20.00     0.041 C 
BRANCH   7   8
HETATM    8  C8  UNL     1     -34.890   5.891   5.235  1.00 20.00     0.030 C 
BRANCH   8   9
HETATM    9  C9  UNL     1     -34.419   4.472   5.515  1.00 20.00     0.164 C 
BRANCH   9  10
HETATM   10  O10 UNL     1     -34.337   3.763   4.285  1.00 20.00    -0.401 OA
HETATM   11  H22 UNL     1     -34.337   2.818   4.505  1.00 20.00     0.209 HD
ENDBRANCH   9  10
ENDBRANCH   8   9
ENDBRANCH   7   8
ENDBRANCH   6   7
TORSDOF 4
ENDMDL
MODEL 6
REMARK VINA RESULT:      -4.9     10.784     11.347
REMARK  4 active torsions:
REMARK  status: ('A' for Active; 'I' for Inactive)
REMARK    1  A    between atoms: C6_6  and  C7_7 
REMARK    2  A    between atoms: C7_7  and  C8_8 
REMARK    3  A    between atoms: C8_8  and  C9_9 
REMARK    4  A    between atoms: C9_9  and  O10_10 
ROOT
HETATM    1  C1  UNL     1     -33.604  18.078  -0.539  1.00 20.00     0.000 A 
HETATM    2  C2  UNL     1     -32.934  17.725  -1.710  1.00 20.00     0.001 A 
HETATM    3  C3  UNL     1     -34.918  17.658  -0.332  1.00 20.00     0.001 A 
HETATM    4  C4  UNL     1     -33.579  16.953  -2.675  1.00 20.00     0.007 A 
HETATM    5  C5  UNL     1     -35.562  16.885  -1.298  1.00 20.00     0.007 A 
HETATM    6  C6  UNL     1     -34.893  16.533  -2.470  1.00 20.00    -0.058 A 
ENDROOT
BRANCH   6   7
HETATM    7  C7  UNL     1     -35.583  15.707  -3.503  1.00 20.00     0.041 C 
BRANCH   7   8
HETATM    8  C8  UNL     1     -34.687  14.582  -4.036  1.00 20.00     0.030 C 
BRANCH   8   9
HETATM    9  C9  UNL     1     -35.254  13.945  -5.297  1.00 20.00     0.164 C 
BRANCH   9  10
HETATM   10  O10 UNL     1     -35.905  12.731  -4.947  1.00 20.00    -0.401 OA
HETATM   11  H22 UNL     1     -35.811  12.628  -3.986  1.00 20.00     0.209 HD
ENDBRANCH   9  10
ENDBRANCH   8   9
ENDBRANCH   7   8
ENDBRANCH   6   7
TORSDOF 4
ENDMDL
MODEL 7
REMARK VINA RESULT:      -4.9     10.773     11.343
REMARK  4 active torsions:
REMARK  status: ('A' for Active; 'I' for Inactive)
REMARK    1  A    between atoms: C6_6  and  C7_7 
REMARK    2  A    between atoms: C7_7  and  C8_8 
REMARK    3  A    between atoms: C8_8  and  C9_9 
REMARK    4  A    between atoms: C9_9  and  O10_10 
ROOT
HETATM    1  C1  UNL     1     -33.601  18.072  -0.517  1.00 20.00     0.000 A 
HETATM    2  C2  UNL     1     -34.919  17.660  -0.316  1.00 20.00     0.001 A 
HETATM    3  C3  UNL     1     -32.927  17.714  -1.684  1.00 20.00     0.001 A 
HETATM    4  C4  UNL     1     -35.563  16.890  -1.284  1.00 20.00     0.007 A 
HETATM    5  C5  UNL     1     -33.572  16.943  -2.652  1.00 20.00     0.007 A 
HETATM    6  C6  UNL     1     -34.890  16.531  -2.452  1.00 20.00    -0.058 A 
ENDROOT
BRANCH   6   7
HETATM    7  C7  UNL     1     -35.578  15.706  -3.487  1.00 20.00     0.041 C 
BRANCH   7   8
HETATM    8  C8  UNL     1     -34.682  14.580  -4.018  1.00 20.00     0.030 C 
BRANCH   8   9
HETATM    9  C9  UNL     1     -35.241  13.950  -5.286  1.00 20.00     0.164 C 
BRANCH   9  10
HETATM   10  O10 UNL     1     -35.914  12.746  -4.945  1.00 20.00    -0.401 OA
HETATM   11  H22 UNL     1     -36.328  12.891  -4.079  1.00 20.00     0.209 HD
ENDBRANCH   9  10
ENDBRANCH   8   9
ENDBRANCH   7   8
ENDBRANCH   6   7
TORSDOF 4
ENDMDL
MODEL 8
REMARK VINA RESULT:      -4.8     10.763     11.270
REMARK  4 active torsions:
REMARK  status: ('A' for Active; 'I' for Inactive)
REMARK    1  A    between atoms: C6_6  and  C7_7 
REMARK    2  A    between atoms: C7_7  and  C8_8 
REMARK    3  A    between atoms: C8_8  and  C9_9 
REMARK    4  A    between atoms: C9_9  and  O10_10 
ROOT
HETATM    1  C1  UNL     1     -33.768  18.534   0.277  1.00 20.00     0.000 A 
HETATM    2  C2  UNL     1     -32.844  18.348  -0.752  1.00 20.00     0.001 A 
HETATM    3  C3  UNL     1     -35.011  17.903   0.221  1.00 20.00     0.001 A 
HETATM    4  C4  UNL     1     -33.164  17.533  -1.836  1.00 20.00     0.007 A 
HETATM    5  C5  UNL     1     -35.330  17.087  -0.865  1.00 20.00     0.007 A 
HETATM    6  C6  UNL     1     -34.407  16.902  -1.894  1.00 20.00    -0.058 A 
ENDROOT
BRANCH   6   7
HETATM    7  C7  UNL     1     -34.749  16.029  -3.054  1.00 20.00     0.041 C 
BRANCH   7   8
HETATM    8  C8  UNL     1     -33.523  15.715  -3.921  1.00 20.00     0.030 C 
BRANCH   8   9
HETATM    9  C9  UNL     1     -33.619  14.344  -4.575  1.00 20.00     0.164 C 
BRANCH   9  10
HETATM   10  O10 UNL     1     -32.406  13.639  -4.348  1.00 20.00    -0.401 OA
HETATM   11  H22 UNL     1     -32.042  13.968  -3.511  1.00 20.00     0.209 HD
ENDBRANCH   9  10
ENDBRANCH   8   9
ENDBRANCH   7   8
ENDBRANCH   6   7
TORSDOF 4
ENDMDL
MODEL 9
REMARK VINA RESULT:      -4.4      2.566      4.982
REMARK  4 active torsions:
REMARK  status: ('A' for Active; 'I' for Inactive)
REMARK    1  A    between atoms: C6_6  and  C7_7 
REMARK    2  A    between atoms: C7_7  and  C8_8 
REMARK    3  A    between atoms: C8_8  and  C9_9 
REMARK    4  A    between atoms: C9_9  and  O10_10 
ROOT
HETATM    1  C1  UNL     1     -32.183   9.916   0.406  1.00 20.00     0.000 A 
HETATM    2  C2  UNL     1     -33.219  10.216   1.291  1.00 20.00     0.001 A 
HETATM    3  C3  UNL     1     -31.417   8.766   0.592  1.00 20.00     0.001 A 
HETATM    4  C4  UNL     1     -33.488   9.366   2.362  1.00 20.00     0.007 A 
HETATM    5  C5  UNL     1     -31.687   7.915   1.664  1.00 20.00     0.007 A 
HETATM    6  C6  UNL     1     -32.722   8.215   2.550  1.00 20.00    -0.058 A 
ENDROOT
BRANCH   6   7
HETATM    7  C7  UNL     1     -33.010   7.305   3.696  1.00 20.00     0.041 C 
BRANCH   7   8
HETATM    8  C8  UNL     1     -33.948   6.157   3.301  1.00 20.00     0.030 C 
BRANCH   8   9
HETATM    9  C9  UNL     1     -34.848   5.729   4.451  1.00 20.00     0.164 C 
BRANCH   9  10
HETATM   10  O10 UNL     1     -34.931   4.310   4.468  1.00 20.00    -0.401 OA
HETATM   11  H22 UNL     1     -34.434   4.009   5.245  1.00 20.00     0.209 HD
ENDBRANCH   9  10
ENDBRANCH   8   9
ENDBRANCH   7   8
ENDBRANCH   6   7
TORSDOF 4
ENDMDL
