MODEL 1
REMARK VINA RESULT:      -4.8      0.000      0.000
REMARK  2 active torsions:
REMARK  status: ('A' for Active; 'I' for Inactive)
REMARK    1  A    between atoms: C5_5  and  N8_8 
REMARK    2  A    between atoms: C6_6  and  S11_11 
ROOT
HETATM    1  C1  UNL     1     -33.175   7.268   4.597  1.00 20.00     0.037 A 
HETATM    2  C2  UNL     1     -33.851   5.837   2.772  1.00 20.00     0.037 A 
HETATM    3  C3  UNL     1     -32.507   8.099   3.699  1.00 20.00     0.021 A 
HETATM    4  C4  UNL     1     -33.184   6.669   1.873  1.00 20.00     0.021 A 
HETATM    5  C5  UNL     1     -33.847   6.137   4.134  1.00 20.00     0.102 A 
HETATM    6  C6  UNL     1     -32.511   7.800   2.336  1.00 20.00    -0.000 A 
ENDROOT
BRANCH   5   7
HETATM    7  N8  UNL     1     -34.527   5.291   5.049  1.00 20.00    -0.116 N 
HETATM    8  O9  UNL     1     -34.839   4.130   4.688  1.00 20.00    -0.532 OA
HETATM    9  O10 UNL     1     -34.795   5.725   6.195  1.00 20.00    -0.532 OA
ENDBRANCH   5   7
BRANCH   6  10
HETATM   10  S11 UNL     1     -31.657   8.861   1.188  1.00 20.00    -0.134 SA
HETATM   11  C7  UNL     1     -32.819  10.243   1.132  1.00 20.00     0.095 C 
ENDBRANCH   6  10
TORSDOF 2
ENDMDL
MODEL 2
REMARK VINA RESULT:      -4.6     11.301     11.583
REMARK  2 active torsions:
REMARK  status: ('A' for Active; 'I' for Inactive)
REMARK    1  A    between atoms: C5_5  and  N8_8 
REMARK    2  A    between atoms: C6_6  and  S11_11 
ROOT
HETATM    1  C1  UNL     1     -36.278  15.547  -3.708  1.00 20.00     0.037 A 
HETATM    2  C2  UNL     1     -34.169  14.571  -4.371  1.00 20.00     0.037 A 
HETATM    3  C3  UNL     1     -35.598  16.502  -2.954  1.00 20.00     0.021 A 
HETATM    4  C4  UNL     1     -33.490  15.527  -3.618  1.00 20.00     0.021 A 
HETATM    5  C5  UNL     1     -35.563  14.580  -4.417  1.00 20.00     0.102 A 
HETATM    6  C6  UNL     1     -34.204  16.494  -2.909  1.00 20.00    -0.000 A 
ENDROOT
BRANCH   5   7
HETATM    7  N8  UNL     1     -36.255  13.607  -5.184  1.00 20.00    -0.116 N 
HETATM    8  O9  UNL     1     -35.599  12.698  -5.750  1.00 20.00    -0.532 OA
HETATM    9  O10 UNL     1     -37.504  13.679  -5.275  1.00 20.00    -0.532 OA
ENDBRANCH   5   7
BRANCH   6  10
HETATM   10  S11 UNL     1     -33.335  17.715  -1.945  1.00 20.00    -0.134 SA
HETATM   11  C7  UNL     1     -34.403  17.765  -0.488  1.00 20.00     0.095 C 
ENDBRANCH   6  10
TORSDOF 2
ENDMDL
MODEL 3
REMARK VINA RESULT:      -4.4     11.309     12.178
REMARK  2 active torsions:
REMARK  status: ('A' for Active; 'I' for Inactive)
REMARK    1  A    between atoms: C5_5  and  N8_8 
REMARK    2  A    between atoms: C6_6  and  S11_11 
ROOT
HETATM    1  C1  UNL     1     -34.738  14.835  -3.834  1.00 20.00     0.037 A 
HETATM    2  C2  UNL     1     -34.056  15.704  -5.983  1.00 20.00     0.037 A 
HETATM    3  C3  UNL     1     -34.343  16.026  -3.227  1.00 20.00     0.021 A 
HETATM    4  C4  UNL     1     -33.661  16.896  -5.375  1.00 20.00     0.021 A 
HETATM    5  C5  UNL     1     -34.595  14.674  -5.213  1.00 20.00     0.102 A 
HETATM    6  C6  UNL     1     -33.804  17.057  -3.997  1.00 20.00    -0.000 A 
ENDROOT
BRANCH   5   7
HETATM    7  N8  UNL     1     -34.998  13.461  -5.831  1.00 20.00    -0.116 N 
HETATM    8  O9  UNL     1     -34.444  13.111  -6.903  1.00 20.00    -0.532 OA
HETATM    9  O10 UNL     1     -35.894  12.770  -5.290  1.00 20.00    -0.532 OA
ENDBRANCH   5   7
BRANCH   6  10
HETATM   10  S11 UNL     1     -33.298  18.579  -3.220  1.00 20.00    -0.134 SA
HETATM   11  C7  UNL     1     -32.945  17.967  -1.558  1.00 20.00     0.095 C 
ENDBRANCH   6  10
TORSDOF 2
ENDMDL
MODEL 4
REMARK VINA RESULT:      -4.4     11.302     12.214
REMARK  2 active torsions:
REMARK  status: ('A' for Active; 'I' for Inactive)
REMARK    1  A    between atoms: C5_5  and  N8_8 
REMARK    2  A    between atoms: C6_6  and  S11_11 
ROOT
HETATM    1  C1  UNL     1     -34.117  15.734  -5.976  1.00 20.00     0.037 A 
HETATM    2  C2  UNL     1     -34.719  14.835  -3.815  1.00 20.00     0.037 A 
HETATM    3  C3  UNL     1     -33.720  16.925  -5.369  1.00 20.00     0.021 A 
HETATM    4  C4  UNL     1     -34.321  16.026  -3.209  1.00 20.00     0.021 A 
HETATM    5  C5  UNL     1     -34.616  14.688  -5.199  1.00 20.00     0.102 A 
HETATM    6  C6  UNL     1     -33.822  17.072  -3.986  1.00 20.00    -0.000 A 
ENDROOT
BRANCH   5   7
HETATM    7  N8  UNL     1     -35.020  13.475  -5.816  1.00 20.00    -0.116 N 
HETATM    8  O9  UNL     1     -34.462  13.120  -6.883  1.00 20.00    -0.532 OA
HETATM    9  O10 UNL     1     -35.923  12.790  -5.277  1.00 20.00    -0.532 OA
ENDBRANCH   5   7
BRANCH   6  10
HETATM   10  S11 UNL     1     -33.316  18.595  -3.211  1.00 20.00    -0.134 SA
HETATM   11  C7  UNL     1     -32.936  17.979  -1.556  1.00 20.00     0.095 C 
ENDBRANCH   6  10
TORSDOF 2
ENDMDL
MODEL 5
REMARK VINA RESULT:      -4.1      4.068      5.012
REMARK  2 active torsions:
REMARK  status: ('A' for Active; 'I' for Inactive)
REMARK    1  A    between atoms: C5_5  and  N8_8 
REMARK    2  A    between atoms: C6_6  and  S11_11 
ROOT
HETATM    1  C1  UNL     1     -33.316   7.133   1.933  1.00 20.00     0.037 A 
HETATM    2  C2  UNL     1     -32.253   8.503   3.615  1.00 20.00     0.037 A 
HETATM    3  C3  UNL     1     -33.894   6.353   2.934  1.00 20.00     0.021 A 
HETATM    4  C4  UNL     1     -32.833   7.724   4.616  1.00 20.00     0.021 A 
HETATM    5  C5  UNL     1     -32.495   8.209   2.274  1.00 20.00     0.102 A 
HETATM    6  C6  UNL     1     -33.653   6.648   4.276  1.00 20.00    -0.000 A 
ENDROOT
BRANCH   5   7
HETATM    7  N8  UNL     1     -31.906   9.002   1.255  1.00 20.00    -0.116 N 
HETATM    8  O9  UNL     1     -31.031   8.491   0.514  1.00 20.00    -0.532 OA
HETATM    9  O10 UNL     1     -32.277  10.193   1.121  1.00 20.00    -0.532 OA
ENDBRANCH   5   7
BRANCH   6  10
HETATM   10  S11 UNL     1     -34.392   5.651   5.555  1.00 20.00    -0.134 SA
HETATM   11  C7  UNL     1     -34.431   4.055   4.709  1.00 20.00     0.095 C 
ENDBRANCH   6  10
TORSDOF 2
ENDMDL
MODEL 6
REMARK VINA RESULT:      -4.1      4.051      4.791
REMARK  2 active torsions:
REMARK  status: ('A' for Active; 'I' for Inactive)
REMARK    1  A    between atoms: C5_5  and  N8_8 
REMARK    2  A    between atoms: C6_6  and  S11_11 
ROOT
HETATM    1  C1  UNL     1     -32.331   8.483   3.659  1.00 20.00     0.037 A 
HETATM    2  C2  UNL     1     -33.334   7.107   1.946  1.00 20.00     0.037 A 
HETATM    3  C3  UNL     1     -32.902   7.676   4.642  1.00 20.00     0.021 A 
HETATM    4  C4  UNL     1     -33.905   6.299   2.928  1.00 20.00     0.021 A 
HETATM    5  C5  UNL     1     -32.546   8.198   2.310  1.00 20.00     0.102 A 
HETATM    6  C6  UNL     1     -33.690   6.584   4.277  1.00 20.00    -0.000 A 
ENDROOT
BRANCH   5   7
HETATM    7  N8  UNL     1     -31.965   9.020   1.310  1.00 20.00    -0.116 N 
HETATM    8  O9  UNL     1     -31.078   8.537   0.564  1.00 20.00    -0.532 OA
HETATM    9  O10 UNL     1     -32.354  10.208   1.196  1.00 20.00    -0.532 OA
ENDBRANCH   5   7
BRANCH   6  10
HETATM   10  S11 UNL     1     -34.421   5.553   5.533  1.00 20.00    -0.134 SA
HETATM   11  C7  UNL     1     -34.402   3.966   4.671  1.00 20.00     0.095 C 
ENDBRANCH   6  10
TORSDOF 2
ENDMDL
MODEL 7
REMARK VINA RESULT:      -4.1     11.615     12.147
REMARK  2 active torsions:
REMARK  status: ('A' for Active; 'I' for Inactive)
REMARK    1  A    between atoms: C5_5  and  N8_8 
REMARK    2  A    between atoms: C6_6  and  S11_11 
ROOT
HETATM    1  C1  UNL     1     -35.314  16.813  -1.430  1.00 20.00     0.037 A 
HETATM    2  C2  UNL     1     -33.075  17.690  -1.664  1.00 20.00     0.037 A 
HETATM    3  C3  UNL     1     -35.442  17.467  -0.205  1.00 20.00     0.021 A 
HETATM    4  C4  UNL     1     -33.203  18.344  -0.439  1.00 20.00     0.021 A 
HETATM    5  C5  UNL     1     -34.130  16.925  -2.161  1.00 20.00     0.102 A 
HETATM    6  C6  UNL     1     -34.387  18.232   0.291  1.00 20.00    -0.000 A 
ENDROOT
BRANCH   5   7
HETATM    7  N8  UNL     1     -34.000  16.260  -3.407  1.00 20.00    -0.116 N 
HETATM    8  O9  UNL     1     -33.351  16.813  -4.328  1.00 20.00    -0.532 OA
HETATM    9  O10 UNL     1     -34.536  15.135  -3.555  1.00 20.00    -0.532 OA
ENDBRANCH   5   7
BRANCH   6  10
HETATM   10  S11 UNL     1     -34.549  19.067   1.857  1.00 20.00    -0.134 SA
HETATM   11  C7  UNL     1     -33.010  18.540   2.641  1.00 20.00     0.095 C 
ENDBRANCH   6  10
TORSDOF 2
ENDMDL
MODEL 8
REMARK VINA RESULT:      -4.1     11.616     12.096
REMARK  2 active torsions:
REMARK  status: ('A' for Active; 'I' for Inactive)
REMARK    1  A    between atoms: C5_5  and  N8_8 
REMARK    2  A    between atoms: C6_6  and  S11_11 
ROOT
HETATM    1  C1  UNL     1     -33.064  17.672  -1.665  1.00 20.00     0.037 A 
HETATM    2  C2  UNL     1     -35.307  16.802  -1.445  1.00 20.00     0.037 A 
HETATM    3  C3  UNL     1     -33.193  18.316  -0.435  1.00 20.00     0.021 A 
HETATM    4  C4  UNL     1     -35.436  17.446  -0.215  1.00 20.00     0.021 A 
HETATM    5  C5  UNL     1     -34.121  16.914  -2.170  1.00 20.00     0.102 A 
HETATM    6  C6  UNL     1     -34.379  18.203   0.291  1.00 20.00    -0.000 A 
ENDROOT
BRANCH   5   7
HETATM    7  N8  UNL     1     -33.990  16.259  -3.422  1.00 20.00    -0.116 N 
HETATM    8  O9  UNL     1     -34.522  15.133  -3.579  1.00 20.00    -0.532 OA
HETATM    9  O10 UNL     1     -33.346  16.823  -4.340  1.00 20.00    -0.532 OA
ENDBRANCH   5   7
BRANCH   6  10
HETATM   10  S11 UNL     1     -34.544  19.027   1.862  1.00 20.00    -0.134 SA
HETATM   11  C7  UNL     1     -32.945  18.610   2.592  1.00 20.00     0.095 C 
ENDBRANCH   6  10
TORSDOF 2
ENDMDL
MODEL 9
REMARK VINA RESULT:      -4.0     12.000     12.199
REMARK  2 active torsions:
REMARK  status: ('A' for Active; 'I' for Inactive)
REMARK    1  A    between atoms: C5_5  and  N8_8 
REMARK    2  A    between atoms: C6_6  and  S11_11 
ROOT
HETATM    1  C1  UNL     1     -34.680  17.693  -0.474  1.00 20.00     0.037 A 
HETATM    2  C2  UNL     1     -33.004  17.507  -2.205  1.00 20.00     0.037 A 
HETATM    3  C3  UNL     1     -35.610  17.074  -1.309  1.00 20.00     0.021 A 
HETATM    4  C4  UNL     1     -33.935  16.887  -3.039  1.00 20.00     0.021 A 
HETATM    5  C5  UNL     1     -33.376  17.909  -0.922  1.00 20.00     0.102 A 
HETATM    6  C6  UNL     1     -35.238  16.671  -2.591  1.00 20.00    -0.000 A 
ENDROOT
BRANCH   5   7
HETATM    7  N8  UNL     1     -32.429  18.539  -0.073  1.00 20.00    -0.116 N 
HETATM    8  O9  UNL     1     -31.205  18.357  -0.286  1.00 20.00    -0.532 OA
HETATM    9  O10 UNL     1     -32.841  19.263   0.865  1.00 20.00    -0.532 OA
ENDBRANCH   5   7
BRANCH   6  10
HETATM   10  S11 UNL     1     -36.427  15.881  -3.657  1.00 20.00    -0.134 SA
HETATM   11  C7  UNL     1     -35.308  14.917  -4.696  1.00 20.00     0.095 C 
ENDBRANCH   6  10
TORSDOF 2
ENDMDL
