MODEL 1
REMARK VINA RESULT:      -6.2      0.000      0.000
REMARK  1 active torsions:
REMARK  status: ('A' for Active; 'I' for Inactive)
REMARK    1  A    between atoms: C6_6  and  C9_9 
ROOT
HETATM    1  C1  UNL     1     -34.035   5.697   3.453  1.00 20.00     0.007 A 
HETATM    2  C2  UNL     1     -33.346   7.226   5.193  1.00 20.00     0.007 A 
HETATM    3  C3  UNL     1     -33.299   6.427   2.521  1.00 20.00     0.007 A 
HETATM    4  C4  UNL     1     -32.609   7.956   4.260  1.00 20.00     0.007 A 
HETATM    5  C5  UNL     1     -34.059   6.096   4.789  1.00 20.00    -0.062 A 
HETATM    6  C6  UNL     1     -32.585   7.556   2.924  1.00 20.00    -0.059 A 
HETATM    7  C7  UNL     1     -34.845   5.317   5.788  1.00 20.00     0.048 C 
ENDROOT
BRANCH   6   8
HETATM    8  C9  UNL     1     -31.797   8.334   1.925  1.00 20.00     0.034 C 
HETATM    9  C8  UNL     1     -32.572   9.529   1.376  1.00 20.00     0.010 C 
ENDBRANCH   6   8
TORSDOF 1
ENDMDL
MODEL 2
REMARK VINA RESULT:      -5.7      0.802      3.926
REMARK  1 active torsions:
REMARK  status: ('A' for Active; 'I' for Inactive)
REMARK    1  A    between atoms: C6_6  and  C9_9 
ROOT
HETATM    1  C1  UNL     1     -33.222   6.901   2.251  1.00 20.00     0.007 A 
HETATM    2  C2  UNL     1     -32.027   8.406   3.715  1.00 20.00     0.007 A 
HETATM    3  C3  UNL     1     -33.889   6.362   3.350  1.00 20.00     0.007 A 
HETATM    4  C4  UNL     1     -32.694   7.867   4.815  1.00 20.00     0.007 A 
HETATM    5  C5  UNL     1     -32.290   7.923   2.433  1.00 20.00    -0.062 A 
HETATM    6  C6  UNL     1     -33.626   6.845   4.632  1.00 20.00    -0.059 A 
HETATM    7  C7  UNL     1     -31.576   8.501   1.258  1.00 20.00     0.048 C 
ENDROOT
BRANCH   6   8
HETATM    8  C9  UNL     1     -34.342   6.268   5.807  1.00 20.00     0.034 C 
HETATM    9  C8  UNL     1     -34.679   4.792   5.614  1.00 20.00     0.010 C 
ENDBRANCH   6   8
TORSDOF 1
ENDMDL
MODEL 3
REMARK VINA RESULT:      -5.7      0.801      4.239
REMARK  1 active torsions:
REMARK  status: ('A' for Active; 'I' for Inactive)
REMARK    1  A    between atoms: C6_6  and  C9_9 
ROOT
HETATM    1  C1  UNL     1     -32.043   8.379   3.766  1.00 20.00     0.007 A 
HETATM    2  C2  UNL     1     -33.250   6.935   2.251  1.00 20.00     0.007 A 
HETATM    3  C3  UNL     1     -32.723   7.814   4.845  1.00 20.00     0.007 A 
HETATM    4  C4  UNL     1     -33.930   6.370   3.330  1.00 20.00     0.007 A 
HETATM    5  C5  UNL     1     -32.306   7.939   2.469  1.00 20.00    -0.062 A 
HETATM    6  C6  UNL     1     -33.666   6.809   4.627  1.00 20.00    -0.059 A 
HETATM    7  C7  UNL     1     -31.580   8.541   1.314  1.00 20.00     0.048 C 
ENDROOT
BRANCH   6   8
HETATM    8  C9  UNL     1     -34.391   6.205   5.782  1.00 20.00     0.034 C 
HETATM    9  C8  UNL     1     -34.649   4.713   5.590  1.00 20.00     0.010 C 
ENDBRANCH   6   8
TORSDOF 1
ENDMDL
MODEL 4
REMARK VINA RESULT:      -5.1      0.708      4.252
REMARK  1 active torsions:
REMARK  status: ('A' for Active; 'I' for Inactive)
REMARK    1  A    between atoms: C6_6  and  C9_9 
ROOT
HETATM    1  C1  UNL     1     -32.887   7.971   3.920  1.00 20.00     0.007 A 
HETATM    2  C2  UNL     1     -32.983   6.647   1.902  1.00 20.00     0.007 A 
HETATM    3  C3  UNL     1     -33.601   6.985   4.600  1.00 20.00     0.007 A 
HETATM    4  C4  UNL     1     -33.697   5.660   2.582  1.00 20.00     0.007 A 
HETATM    5  C5  UNL     1     -32.578   7.802   2.571  1.00 20.00    -0.062 A 
HETATM    6  C6  UNL     1     -34.006   5.830   3.932  1.00 20.00    -0.059 A 
HETATM    7  C7  UNL     1     -31.814   8.855   1.842  1.00 20.00     0.048 C 
ENDROOT
BRANCH   6   8
HETATM    8  C9  UNL     1     -34.768   4.775   4.662  1.00 20.00     0.034 C 
HETATM    9  C8  UNL     1     -34.725   4.971   6.175  1.00 20.00     0.010 C 
ENDBRANCH   6   8
TORSDOF 1
ENDMDL
MODEL 5
REMARK VINA RESULT:      -4.5     11.027     11.722
REMARK  1 active torsions:
REMARK  status: ('A' for Active; 'I' for Inactive)
REMARK    1  A    between atoms: C6_6  and  C9_9 
ROOT
HETATM    1  C1  UNL     1     -34.899  17.744  -0.122  1.00 20.00     0.007 A 
HETATM    2  C2  UNL     1     -32.868  17.906  -1.420  1.00 20.00     0.007 A 
HETATM    3  C3  UNL     1     -35.481  16.974  -1.129  1.00 20.00     0.007 A 
HETATM    4  C4  UNL     1     -33.450  17.136  -2.427  1.00 20.00     0.007 A 
HETATM    5  C5  UNL     1     -33.593  18.210  -0.267  1.00 20.00    -0.062 A 
HETATM    6  C6  UNL     1     -34.756  16.670  -2.281  1.00 20.00    -0.059 A 
HETATM    7  C7  UNL     1     -32.969  19.033   0.809  1.00 20.00     0.048 C 
ENDROOT
BRANCH   6   8
HETATM    8  C9  UNL     1     -35.379  15.845  -3.356  1.00 20.00     0.034 C 
HETATM    9  C8  UNL     1     -34.402  14.837  -3.955  1.00 20.00     0.010 C 
ENDBRANCH   6   8
TORSDOF 1
ENDMDL
MODEL 6
REMARK VINA RESULT:      -4.5     11.026     11.724
REMARK  1 active torsions:
REMARK  status: ('A' for Active; 'I' for Inactive)
REMARK    1  A    between atoms: C6_6  and  C9_9 
ROOT
HETATM    1  C1  UNL     1     -32.874  17.906  -1.484  1.00 20.00     0.007 A 
HETATM    2  C2  UNL     1     -34.885  17.733  -0.157  1.00 20.00     0.007 A 
HETATM    3  C3  UNL     1     -33.465  17.131  -2.481  1.00 20.00     0.007 A 
HETATM    4  C4  UNL     1     -35.477  16.957  -1.154  1.00 20.00     0.007 A 
HETATM    5  C5  UNL     1     -33.584  18.208  -0.322  1.00 20.00    -0.062 A 
HETATM    6  C6  UNL     1     -34.767  16.656  -2.316  1.00 20.00    -0.059 A 
HETATM    7  C7  UNL     1     -32.953  19.038   0.744  1.00 20.00     0.048 C 
ENDROOT
BRANCH   6   8
HETATM    8  C9  UNL     1     -35.398  15.829  -3.384  1.00 20.00     0.034 C 
HETATM    9  C8  UNL     1     -34.430  14.809  -3.977  1.00 20.00     0.010 C 
ENDBRANCH   6   8
TORSDOF 1
ENDMDL
MODEL 7
REMARK VINA RESULT:      -4.5     11.064     11.555
REMARK  1 active torsions:
REMARK  status: ('A' for Active; 'I' for Inactive)
REMARK    1  A    between atoms: C6_6  and  C9_9 
ROOT
HETATM    1  C1  UNL     1     -35.455  17.336  -0.322  1.00 20.00     0.007 A 
HETATM    2  C2  UNL     1     -33.258  18.340  -0.315  1.00 20.00     0.007 A 
HETATM    3  C3  UNL     1     -35.192  16.769  -1.568  1.00 20.00     0.007 A 
HETATM    4  C4  UNL     1     -32.994  17.772  -1.561  1.00 20.00     0.007 A 
HETATM    5  C5  UNL     1     -34.488  18.122   0.305  1.00 20.00    -0.062 A 
HETATM    6  C6  UNL     1     -33.961  16.987  -2.188  1.00 20.00    -0.059 A 
HETATM    7  C7  UNL     1     -34.768  18.728   1.638  1.00 20.00     0.048 C 
ENDROOT
BRANCH   6   8
HETATM    8  C9  UNL     1     -33.680  16.378  -3.520  1.00 20.00     0.034 C 
HETATM    9  C8  UNL     1     -34.509  15.120  -3.770  1.00 20.00     0.010 C 
ENDBRANCH   6   8
TORSDOF 1
ENDMDL
MODEL 8
REMARK VINA RESULT:      -4.4     11.401     11.910
REMARK  1 active torsions:
REMARK  status: ('A' for Active; 'I' for Inactive)
REMARK    1  A    between atoms: C6_6  and  C9_9 
ROOT
HETATM    1  C1  UNL     1     -35.280  17.421  -0.503  1.00 20.00     0.007 A 
HETATM    2  C2  UNL     1     -33.295  17.439  -1.880  1.00 20.00     0.007 A 
HETATM    3  C3  UNL     1     -34.601  18.134   0.485  1.00 20.00     0.007 A 
HETATM    4  C4  UNL     1     -32.615  18.152  -0.892  1.00 20.00     0.007 A 
HETATM    5  C5  UNL     1     -34.627  17.073  -1.686  1.00 20.00    -0.062 A 
HETATM    6  C6  UNL     1     -33.268  18.499   0.290  1.00 20.00    -0.059 A 
HETATM    7  C7  UNL     1     -35.352  16.312  -2.743  1.00 20.00     0.048 C 
ENDROOT
BRANCH   6   8
HETATM    8  C9  UNL     1     -32.544  19.263   1.347  1.00 20.00     0.034 C 
HETATM    9  C8  UNL     1     -31.063  18.902   1.413  1.00 20.00     0.010 C 
ENDBRANCH   6   8
TORSDOF 1
ENDMDL
MODEL 9
REMARK VINA RESULT:      -4.2     10.983     12.138
REMARK  1 active torsions:
REMARK  status: ('A' for Active; 'I' for Inactive)
REMARK    1  A    between atoms: C6_6  and  C9_9 
ROOT
HETATM    1  C1  UNL     1     -33.412  15.558  -6.155  1.00 20.00     0.007 A 
HETATM    2  C2  UNL     1     -34.914  14.073  -4.982  1.00 20.00     0.007 A 
HETATM    3  C3  UNL     1     -33.237  16.302  -4.988  1.00 20.00     0.007 A 
HETATM    4  C4  UNL     1     -34.739  14.817  -3.815  1.00 20.00     0.007 A 
HETATM    5  C5  UNL     1     -34.250  14.443  -6.152  1.00 20.00    -0.062 A 
HETATM    6  C6  UNL     1     -33.901  15.931  -3.818  1.00 20.00    -0.059 A 
HETATM    7  C7  UNL     1     -34.437  13.647  -7.398  1.00 20.00     0.048 C 
ENDROOT
BRANCH   6   8
HETATM    8  C9  UNL     1     -33.712  16.727  -2.571  1.00 20.00     0.034 C 
HETATM    9  C8  UNL     1     -34.979  16.785  -1.721  1.00 20.00     0.010 C 
ENDBRANCH   6   8
TORSDOF 1
ENDMDL
