MODEL 1
REMARK VINA RESULT:      -5.5      0.000      0.000
REMARK  0 active torsions:
REMARK  status: ('A' for Active; 'I' for Inactive)
ROOT
HETATM    1  C1  UNL     1     -34.105   5.438   3.584  1.00 20.00     0.008 A 
HETATM    2  C2  UNL     1     -33.617   7.046   5.320  1.00 20.00     0.008 A 
HETATM    3  C3  UNL     1     -33.516   6.280   2.639  1.00 20.00     0.019 A 
HETATM    4  C4  UNL     1     -33.028   7.888   4.376  1.00 20.00     0.019 A 
HETATM    5  C5  UNL     1     -34.156   5.822   4.924  1.00 20.00    -0.062 A 
HETATM    6  C6  UNL     1     -32.978   7.505   3.035  1.00 20.00     0.006 A 
HETATM    7  C7  UNL     1     -34.787   4.923   5.933  1.00 20.00     0.048 C 
HETATM    8  I8  UNL     1     -32.104   8.758   1.629  1.00 20.00    -0.045 I 
ENDROOT
TORSDOF 0
ENDMDL
MODEL 2
REMARK VINA RESULT:      -5.5      0.035      1.709
REMARK  0 active torsions:
REMARK  status: ('A' for Active; 'I' for Inactive)
ROOT
HETATM    1  C1  UNL     1     -33.634   7.048   5.290  1.00 20.00     0.008 A 
HETATM    2  C2  UNL     1     -34.084   5.435   3.548  1.00 20.00     0.008 A 
HETATM    3  C3  UNL     1     -33.047   7.897   4.352  1.00 20.00     0.019 A 
HETATM    4  C4  UNL     1     -33.497   6.284   2.610  1.00 20.00     0.019 A 
HETATM    5  C5  UNL     1     -34.152   5.817   4.888  1.00 20.00    -0.062 A 
HETATM    6  C6  UNL     1     -32.978   7.515   3.012  1.00 20.00     0.006 A 
HETATM    7  C7  UNL     1     -34.778   4.908   5.891  1.00 20.00     0.048 C 
HETATM    8  I8  UNL     1     -32.102   8.779   1.615  1.00 20.00    -0.045 I 
ENDROOT
TORSDOF 0
ENDMDL
MODEL 3
REMARK VINA RESULT:      -4.2      2.410      3.758
REMARK  0 active torsions:
REMARK  status: ('A' for Active; 'I' for Inactive)
ROOT
HETATM    1  C1  UNL     1     -33.116   6.925   1.784  1.00 20.00     0.008 A 
HETATM    2  C2  UNL     1     -32.203   8.271   3.570  1.00 20.00     0.008 A 
HETATM    3  C3  UNL     1     -33.766   6.122   2.721  1.00 20.00     0.019 A 
HETATM    4  C4  UNL     1     -32.853   7.468   4.508  1.00 20.00     0.019 A 
HETATM    5  C5  UNL     1     -32.334   7.999   2.208  1.00 20.00    -0.062 A 
HETATM    6  C6  UNL     1     -33.635   6.394   4.083  1.00 20.00     0.006 A 
HETATM    7  C7  UNL     1     -31.636   8.856   1.206  1.00 20.00     0.048 C 
HETATM    8  I8  UNL     1     -34.602   5.197   5.478  1.00 20.00    -0.045 I 
ENDROOT
TORSDOF 0
ENDMDL
MODEL 4
REMARK VINA RESULT:      -4.1     11.880     12.386
REMARK  0 active torsions:
REMARK  status: ('A' for Active; 'I' for Inactive)
ROOT
HETATM    1  C1  UNL     1     -33.017  17.775  -1.503  1.00 20.00     0.008 A 
HETATM    2  C2  UNL     1     -35.226  16.798  -1.455  1.00 20.00     0.008 A 
HETATM    3  C3  UNL     1     -33.262  18.389  -0.275  1.00 20.00     0.019 A 
HETATM    4  C4  UNL     1     -35.472  17.412  -0.227  1.00 20.00     0.019 A 
HETATM    5  C5  UNL     1     -33.999  16.980  -2.093  1.00 20.00    -0.062 A 
HETATM    6  C6  UNL     1     -34.490  18.208   0.363  1.00 20.00     0.006 A 
HETATM    7  C7  UNL     1     -33.737  16.324  -3.407  1.00 20.00     0.048 C 
HETATM    8  I8  UNL     1     -34.856  19.124   2.191  1.00 20.00    -0.045 I 
ENDROOT
TORSDOF 0
ENDMDL
MODEL 5
REMARK VINA RESULT:      -4.1     11.873     12.326
REMARK  0 active torsions:
REMARK  status: ('A' for Active; 'I' for Inactive)
ROOT
HETATM    1  C1  UNL     1     -35.218  16.779  -1.495  1.00 20.00     0.008 A 
HETATM    2  C2  UNL     1     -33.013  17.768  -1.503  1.00 20.00     0.008 A 
HETATM    3  C3  UNL     1     -35.483  17.383  -0.265  1.00 20.00     0.019 A 
HETATM    4  C4  UNL     1     -33.279  18.372  -0.274  1.00 20.00     0.019 A 
HETATM    5  C5  UNL     1     -33.983  16.971  -2.113  1.00 20.00    -0.062 A 
HETATM    6  C6  UNL     1     -34.514  18.179   0.345  1.00 20.00     0.006 A 
HETATM    7  C7  UNL     1     -33.698  16.324  -3.427  1.00 20.00     0.048 C 
HETATM    8  I8  UNL     1     -34.909  19.076   2.176  1.00 20.00    -0.045 I 
ENDROOT
TORSDOF 0
ENDMDL
MODEL 6
REMARK VINA RESULT:      -4.0     11.740     12.165
REMARK  0 active torsions:
REMARK  status: ('A' for Active; 'I' for Inactive)
ROOT
HETATM    1  C1  UNL     1     -33.167  18.316  -0.427  1.00 20.00     0.008 A 
HETATM    2  C2  UNL     1     -35.406  17.430  -0.221  1.00 20.00     0.008 A 
HETATM    3  C3  UNL     1     -33.032  17.687  -1.665  1.00 20.00     0.019 A 
HETATM    4  C4  UNL     1     -35.271  16.801  -1.459  1.00 20.00     0.019 A 
HETATM    5  C5  UNL     1     -34.353  18.186   0.295  1.00 20.00    -0.062 A 
HETATM    6  C6  UNL     1     -34.084  16.930  -2.181  1.00 20.00     0.006 A 
HETATM    7  C7  UNL     1     -34.497  18.857   1.620  1.00 20.00     0.048 C 
HETATM    8  I8  UNL     1     -33.882  15.992  -4.024  1.00 20.00    -0.045 I 
ENDROOT
TORSDOF 0
ENDMDL
MODEL 7
REMARK VINA RESULT:      -4.0     11.956     12.277
REMARK  0 active torsions:
REMARK  status: ('A' for Active; 'I' for Inactive)
ROOT
HETATM    1  C1  UNL     1     -35.526  17.137  -0.936  1.00 20.00     0.008 A 
HETATM    2  C2  UNL     1     -33.538  17.142  -2.309  1.00 20.00     0.008 A 
HETATM    3  C3  UNL     1     -34.844  17.846   0.054  1.00 20.00     0.019 A 
HETATM    4  C4  UNL     1     -32.856  17.851  -1.320  1.00 20.00     0.019 A 
HETATM    5  C5  UNL     1     -34.872  16.784  -2.116  1.00 20.00    -0.062 A 
HETATM    6  C6  UNL     1     -33.509  18.203  -0.139  1.00 20.00     0.006 A 
HETATM    7  C7  UNL     1     -35.601  16.024  -3.173  1.00 20.00     0.048 C 
HETATM    8  I8  UNL     1     -32.494  19.257   1.335  1.00 20.00    -0.045 I 
ENDROOT
TORSDOF 0
ENDMDL
MODEL 8
REMARK VINA RESULT:      -4.0     11.732     12.191
REMARK  0 active torsions:
REMARK  status: ('A' for Active; 'I' for Inactive)
ROOT
HETATM    1  C1  UNL     1     -35.212  17.641   0.043  1.00 20.00     0.008 A 
HETATM    2  C2  UNL     1     -32.975  18.366  -0.514  1.00 20.00     0.008 A 
HETATM    3  C3  UNL     1     -35.282  16.935  -1.158  1.00 20.00     0.019 A 
HETATM    4  C4  UNL     1     -33.045  17.661  -1.715  1.00 20.00     0.019 A 
HETATM    5  C5  UNL     1     -34.059  18.357   0.365  1.00 20.00    -0.062 A 
HETATM    6  C6  UNL     1     -34.198  16.945  -2.037  1.00 20.00     0.006 A 
HETATM    7  C7  UNL     1     -33.985  19.113   1.649  1.00 20.00     0.048 C 
HETATM    8  I8  UNL     1     -34.304  15.896  -3.827  1.00 20.00    -0.045 I 
ENDROOT
TORSDOF 0
ENDMDL
MODEL 9
REMARK VINA RESULT:      -4.0     11.802     12.267
REMARK  0 active torsions:
REMARK  status: ('A' for Active; 'I' for Inactive)
ROOT
HETATM    1  C1  UNL     1     -32.863  17.961  -1.397  1.00 20.00     0.008 A 
HETATM    2  C2  UNL     1     -34.958  17.626  -0.241  1.00 20.00     0.008 A 
HETATM    3  C3  UNL     1     -33.343  17.223  -2.479  1.00 20.00     0.019 A 
HETATM    4  C4  UNL     1     -35.438  16.887  -1.323  1.00 20.00     0.019 A 
HETATM    5  C5  UNL     1     -33.670  18.161  -0.278  1.00 20.00    -0.062 A 
HETATM    6  C6  UNL     1     -34.630  16.686  -2.442  1.00 20.00     0.006 A 
HETATM    7  C7  UNL     1     -33.157  18.949   0.881  1.00 20.00     0.048 C 
HETATM    8  I8  UNL     1     -35.343  15.585  -4.053  1.00 20.00    -0.045 I 
ENDROOT
TORSDOF 0
ENDMDL
