MODEL 1
REMARK VINA RESULT:      -5.9      0.000      0.000
REMARK  3 active torsions:
REMARK  status: ('A' for Active; 'I' for Inactive)
REMARK    1  A    between atoms: C2_2  and  C7_7 
REMARK    2  A    between atoms: C3_3  and  C8_8 
REMARK    3  A    between atoms: C7_7  and  C8_8 
ROOT
HETATM    1  C3  UNL     1     -33.161   7.088   3.140  1.00 20.00    -0.024 C 
HETATM    2  C4  UNL     1     -33.889   6.750   4.222  1.00 20.00    -0.091 C 
HETATM    3  C5  UNL     1     -35.005   5.745   4.104  1.00 20.00     0.042 C 
HETATM    4  C6  UNL     1     -33.687   7.292   5.608  1.00 20.00     0.042 C 
ENDROOT
BRANCH   1   5
HETATM    5  C8  UNL     1     -32.035   8.081   3.056  1.00 20.00     0.031 C 
BRANCH   5   6
HETATM    6  C7  UNL     1     -31.692   8.461   1.612  1.00 20.00     0.030 C 
BRANCH   6   7
HETATM    7  C2  UNL     1     -32.575   9.553   1.078  1.00 20.00    -0.037 C 
HETATM    8  C1  UNL     1     -33.027   9.601  -0.179  1.00 20.00     0.007 C 
ENDBRANCH   6   7
ENDBRANCH   5   6
ENDBRANCH   1   5
TORSDOF 3
ENDMDL
MODEL 2
REMARK VINA RESULT:      -5.7      0.569      1.358
REMARK  3 active torsions:
REMARK  status: ('A' for Active; 'I' for Inactive)
REMARK    1  A    between atoms: C2_2  and  C7_7 
REMARK    2  A    between atoms: C3_3  and  C8_8 
REMARK    3  A    between atoms: C7_7  and  C8_8 
ROOT
HETATM    1  C3  UNL     1     -32.947   7.534   3.726  1.00 20.00    -0.024 C 
HETATM    2  C4  UNL     1     -33.853   6.847   4.450  1.00 20.00    -0.091 C 
HETATM    3  C5  UNL     1     -33.909   7.006   5.947  1.00 20.00     0.042 C 
HETATM    4  C6  UNL     1     -34.873   5.898   3.889  1.00 20.00     0.042 C 
ENDROOT
BRANCH   1   5
HETATM    5  C8  UNL     1     -32.725   7.489   2.240  1.00 20.00     0.031 C 
BRANCH   5   6
HETATM    6  C7  UNL     1     -31.812   8.616   1.747  1.00 20.00     0.030 C 
BRANCH   6   7
HETATM    7  C2  UNL     1     -32.553   9.652   0.951  1.00 20.00    -0.037 C 
HETATM    8  C1  UNL     1     -33.024   9.452  -0.284  1.00 20.00     0.007 C 
ENDBRANCH   6   7
ENDBRANCH   5   6
ENDBRANCH   1   5
TORSDOF 3
ENDMDL
MODEL 3
REMARK VINA RESULT:      -5.7      0.987      4.359
REMARK  3 active torsions:
REMARK  status: ('A' for Active; 'I' for Inactive)
REMARK    1  A    between atoms: C2_2  and  C7_7 
REMARK    2  A    between atoms: C3_3  and  C8_8 
REMARK    3  A    between atoms: C7_7  and  C8_8 
ROOT
HETATM    1  C3  UNL     1     -33.281   7.012   2.253  1.00 20.00    -0.024 C 
HETATM    2  C4  UNL     1     -32.423   8.039   2.402  1.00 20.00    -0.091 C 
HETATM    3  C5  UNL     1     -32.407   9.169   1.406  1.00 20.00     0.042 C 
HETATM    4  C6  UNL     1     -31.433   8.189   3.523  1.00 20.00     0.042 C 
ENDROOT
BRANCH   1   5
HETATM    5  C8  UNL     1     -33.425   5.793   3.122  1.00 20.00     0.031 C 
BRANCH   5   6
HETATM    6  C7  UNL     1     -34.726   5.799   3.931  1.00 20.00     0.030 C 
BRANCH   6   7
HETATM    7  C2  UNL     1     -34.490   6.003   5.401  1.00 20.00    -0.037 C 
HETATM    8  C1  UNL     1     -33.899   7.084   5.921  1.00 20.00     0.007 C 
ENDBRANCH   6   7
ENDBRANCH   5   6
ENDBRANCH   1   5
TORSDOF 3
ENDMDL
MODEL 4
REMARK VINA RESULT:      -5.5      0.816      1.321
REMARK  3 active torsions:
REMARK  status: ('A' for Active; 'I' for Inactive)
REMARK    1  A    between atoms: C2_2  and  C7_7 
REMARK    2  A    between atoms: C3_3  and  C8_8 
REMARK    3  A    between atoms: C7_7  and  C8_8 
ROOT
HETATM    1  C3  UNL     1     -34.069   6.393   3.599  1.00 20.00    -0.024 C 
HETATM    2  C4  UNL     1     -34.167   6.212   4.930  1.00 20.00    -0.091 C 
HETATM    3  C5  UNL     1     -34.626   4.890   5.487  1.00 20.00     0.042 C 
HETATM    4  C6  UNL     1     -33.840   7.243   5.973  1.00 20.00     0.042 C 
ENDROOT
BRANCH   1   5
HETATM    5  C8  UNL     1     -33.658   7.637   2.862  1.00 20.00     0.031 C 
BRANCH   5   6
HETATM    6  C7  UNL     1     -32.140   7.742   2.688  1.00 20.00     0.030 C 
BRANCH   6   7
HETATM    7  C2  UNL     1     -31.751   8.599   1.517  1.00 20.00    -0.037 C 
HETATM    8  C1  UNL     1     -32.421   9.692   1.134  1.00 20.00     0.007 C 
ENDBRANCH   6   7
ENDBRANCH   5   6
ENDBRANCH   1   5
TORSDOF 3
ENDMDL
MODEL 5
REMARK VINA RESULT:      -5.4      0.884      4.279
REMARK  3 active torsions:
REMARK  status: ('A' for Active; 'I' for Inactive)
REMARK    1  A    between atoms: C2_2  and  C7_7 
REMARK    2  A    between atoms: C3_3  and  C8_8 
REMARK    3  A    between atoms: C7_7  and  C8_8 
ROOT
HETATM    1  C3  UNL     1     -32.248   8.312   1.596  1.00 20.00    -0.024 C 
HETATM    2  C4  UNL     1     -32.615   9.432   0.945  1.00 20.00    -0.091 C 
HETATM    3  C5  UNL     1     -33.047   9.368  -0.497  1.00 20.00     0.042 C 
HETATM    4  C6  UNL     1     -32.649  10.811   1.540  1.00 20.00     0.042 C 
ENDROOT
BRANCH   1   5
HETATM    5  C8  UNL     1     -31.767   8.181   3.015  1.00 20.00     0.031 C 
BRANCH   5   6
HETATM    6  C7  UNL     1     -32.799   7.512   3.927  1.00 20.00     0.030 C 
BRANCH   6   7
HETATM    7  C2  UNL     1     -33.665   6.528   3.193  1.00 20.00    -0.037 C 
HETATM    8  C1  UNL     1     -34.731   5.924   3.728  1.00 20.00     0.007 C 
ENDBRANCH   6   7
ENDBRANCH   5   6
ENDBRANCH   1   5
TORSDOF 3
ENDMDL
MODEL 6
REMARK VINA RESULT:      -5.2      1.306      4.512
REMARK  3 active torsions:
REMARK  status: ('A' for Active; 'I' for Inactive)
REMARK    1  A    between atoms: C2_2  and  C7_7 
REMARK    2  A    between atoms: C3_3  and  C8_8 
REMARK    3  A    between atoms: C7_7  and  C8_8 
ROOT
HETATM    1  C3  UNL     1     -33.619   7.375   3.928  1.00 20.00    -0.024 C 
HETATM    2  C4  UNL     1     -32.586   7.821   3.188  1.00 20.00    -0.091 C 
HETATM    3  C5  UNL     1     -32.698   7.890   1.688  1.00 20.00     0.042 C 
HETATM    4  C6  UNL     1     -31.266   8.291   3.733  1.00 20.00     0.042 C 
ENDROOT
BRANCH   1   5
HETATM    5  C8  UNL     1     -33.685   7.212   5.422  1.00 20.00     0.031 C 
BRANCH   5   6
HETATM    6  C7  UNL     1     -34.478   5.971   5.843  1.00 20.00     0.030 C 
BRANCH   6   7
HETATM    7  C2  UNL     1     -34.843   5.097   4.678  1.00 20.00    -0.037 C 
HETATM    8  C1  UNL     1     -34.168   3.998   4.325  1.00 20.00     0.007 C 
ENDBRANCH   6   7
ENDBRANCH   5   6
ENDBRANCH   1   5
TORSDOF 3
ENDMDL
MODEL 7
REMARK VINA RESULT:      -3.9      1.670      4.677
REMARK  3 active torsions:
REMARK  status: ('A' for Active; 'I' for Inactive)
REMARK    1  A    between atoms: C2_2  and  C7_7 
REMARK    2  A    between atoms: C3_3  and  C8_8 
REMARK    3  A    between atoms: C7_7  and  C8_8 
ROOT
HETATM    1  C3  UNL     1     -34.255   6.729   3.394  1.00 20.00    -0.024 C 
HETATM    2  C4  UNL     1     -33.144   6.381   2.716  1.00 20.00    -0.091 C 
HETATM    3  C5  UNL     1     -32.165   7.433   2.267  1.00 20.00     0.042 C 
HETATM    4  C6  UNL     1     -32.755   4.976   2.351  1.00 20.00     0.042 C 
ENDROOT
BRANCH   1   5
HETATM    5  C8  UNL     1     -35.351   5.832   3.899  1.00 20.00     0.031 C 
BRANCH   5   6
HETATM    6  C7  UNL     1     -34.918   4.999   5.109  1.00 20.00     0.030 C 
BRANCH   6   7
HETATM    7  C2  UNL     1     -34.139   5.801   6.113  1.00 20.00    -0.037 C 
HETATM    8  C1  UNL     1     -34.026   7.133   6.081  1.00 20.00     0.007 C 
ENDBRANCH   6   7
ENDBRANCH   5   6
ENDBRANCH   1   5
TORSDOF 3
ENDMDL
MODEL 8
REMARK VINA RESULT:      -3.9      9.954     10.466
REMARK  3 active torsions:
REMARK  status: ('A' for Active; 'I' for Inactive)
REMARK    1  A    between atoms: C2_2  and  C7_7 
REMARK    2  A    between atoms: C3_3  and  C8_8 
REMARK    3  A    between atoms: C7_7  and  C8_8 
ROOT
HETATM    1  C3  UNL     1     -34.619  16.206  -2.794  1.00 20.00    -0.024 C 
HETATM    2  C4  UNL     1     -34.362  17.017  -1.750  1.00 20.00    -0.091 C 
HETATM    3  C5  UNL     1     -35.408  17.250  -0.691  1.00 20.00     0.042 C 
HETATM    4  C6  UNL     1     -33.069  17.743  -1.512  1.00 20.00     0.042 C 
ENDROOT
BRANCH   1   5
HETATM    5  C8  UNL     1     -33.718  15.874  -3.951  1.00 20.00     0.031 C 
BRANCH   5   6
HETATM    6  C7  UNL     1     -33.813  14.403  -4.367  1.00 20.00     0.030 C 
BRANCH   6   7
HETATM    7  C2  UNL     1     -35.233  13.936  -4.517  1.00 20.00    -0.037 C 
HETATM    8  C1  UNL     1     -35.763  13.507  -5.667  1.00 20.00     0.007 C 
ENDBRANCH   6   7
ENDBRANCH   5   6
ENDBRANCH   1   5
TORSDOF 3
ENDMDL
MODEL 9
REMARK VINA RESULT:      -3.8     10.086     10.796
REMARK  3 active torsions:
REMARK  status: ('A' for Active; 'I' for Inactive)
REMARK    1  A    between atoms: C2_2  and  C7_7 
REMARK    2  A    between atoms: C3_3  and  C8_8 
REMARK    3  A    between atoms: C7_7  and  C8_8 
ROOT
HETATM    1  C3  UNL     1     -33.729  16.745  -2.590  1.00 20.00    -0.024 C 
HETATM    2  C4  UNL     1     -33.799  17.432  -1.434  1.00 20.00    -0.091 C 
HETATM    3  C5  UNL     1     -32.636  18.272  -0.976  1.00 20.00     0.042 C 
HETATM    4  C6  UNL     1     -34.984  17.458  -0.510  1.00 20.00     0.042 C 
ENDROOT
BRANCH   1   5
HETATM    5  C8  UNL     1     -34.768  15.841  -3.195  1.00 20.00     0.031 C 
BRANCH   5   6
HETATM    6  C7  UNL     1     -34.157  14.754  -4.084  1.00 20.00     0.030 C 
BRANCH   6   7
HETATM    7  C2  UNL     1     -33.066  15.281  -4.972  1.00 20.00    -0.037 C 
HETATM    8  C1  UNL     1     -33.274  15.793  -6.190  1.00 20.00     0.007 C 
ENDBRANCH   6   7
ENDBRANCH   5   6
ENDBRANCH   1   5
TORSDOF 3
ENDMDL
