MODEL 1
REMARK VINA RESULT:      -7.4      0.000      0.000
REMARK  4 active torsions:
REMARK  status: ('A' for Active; 'I' for Inactive)
REMARK    1  A    between atoms: C6_6  and  C8_8 
REMARK    2  A    between atoms: C8_8  and  C10_10 
REMARK    3  A    between atoms: C9_9  and  C11_11 
REMARK    4  A    between atoms: C10_10  and  C11_11 
ROOT
HETATM    1  C1  UNL     1     -34.609   5.467   5.921  1.00 20.00     0.000 A 
HETATM    2  C2  UNL     1     -34.073   6.755   5.905  1.00 20.00     0.001 A 
HETATM    3  C3  UNL     1     -34.600   4.693   4.760  1.00 20.00     0.001 A 
HETATM    4  C4  UNL     1     -33.528   7.269   4.728  1.00 20.00     0.007 A 
HETATM    5  C5  UNL     1     -34.055   5.206   3.584  1.00 20.00     0.007 A 
HETATM    6  C6  UNL     1     -33.519   6.494   3.568  1.00 20.00    -0.058 A 
ENDROOT
BRANCH   6   7
HETATM    7  C8  UNL     1     -32.933   7.045   2.303  1.00 20.00     0.038 C 
BRANCH   7   8
HETATM    8  C10 UNL     1     -32.003   8.241   2.534  1.00 20.00     0.005 C 
BRANCH   8   9
HETATM    9  C11 UNL     1     -31.541   8.905   1.233  1.00 20.00    -0.000 C 
BRANCH   9  10
HETATM   10  C9  UNL     1     -32.555   9.944   0.751  1.00 20.00    -0.005 C 
HETATM   11  C7  UNL     1     -33.261   9.488  -0.515  1.00 20.00     0.005 C 
ENDBRANCH   9  10
ENDBRANCH   8   9
ENDBRANCH   7   8
ENDBRANCH   6   7
TORSDOF 4
ENDMDL
MODEL 2
REMARK VINA RESULT:      -7.4      0.083      1.459
REMARK  4 active torsions:
REMARK  status: ('A' for Active; 'I' for Inactive)
REMARK    1  A    between atoms: C6_6  and  C8_8 
REMARK    2  A    between atoms: C8_8  and  C10_10 
REMARK    3  A    between atoms: C9_9  and  C11_11 
REMARK    4  A    between atoms: C10_10  and  C11_11 
ROOT
HETATM    1  C1  UNL     1     -34.626   5.586   5.923  1.00 20.00     0.000 A 
HETATM    2  C2  UNL     1     -34.656   4.800   4.771  1.00 20.00     0.001 A 
HETATM    3  C3  UNL     1     -34.029   6.847   5.891  1.00 20.00     0.001 A 
HETATM    4  C4  UNL     1     -34.090   5.273   3.588  1.00 20.00     0.007 A 
HETATM    5  C5  UNL     1     -33.463   7.320   4.708  1.00 20.00     0.007 A 
HETATM    6  C6  UNL     1     -33.493   6.534   3.556  1.00 20.00    -0.058 A 
ENDROOT
BRANCH   6   7
HETATM    7  C8  UNL     1     -32.884   7.044   2.285  1.00 20.00     0.038 C 
BRANCH   7   8
HETATM    8  C10 UNL     1     -31.972   8.257   2.491  1.00 20.00     0.005 C 
BRANCH   8   9
HETATM    9  C11 UNL     1     -31.545   8.921   1.178  1.00 20.00    -0.000 C 
BRANCH   9  10
HETATM   10  C9  UNL     1     -32.597   9.922   0.697  1.00 20.00    -0.005 C 
HETATM   11  C7  UNL     1     -33.255   9.463  -0.593  1.00 20.00     0.005 C 
ENDBRANCH   9  10
ENDBRANCH   8   9
ENDBRANCH   7   8
ENDBRANCH   6   7
TORSDOF 4
ENDMDL
MODEL 3
REMARK VINA RESULT:      -5.5      0.886      5.379
REMARK  4 active torsions:
REMARK  status: ('A' for Active; 'I' for Inactive)
REMARK    1  A    between atoms: C6_6  and  C8_8 
REMARK    2  A    between atoms: C8_8  and  C10_10 
REMARK    3  A    between atoms: C9_9  and  C11_11 
REMARK    4  A    between atoms: C10_10  and  C11_11 
ROOT
HETATM    1  C1  UNL     1     -32.289   9.982   0.109  1.00 20.00     0.000 A 
HETATM    2  C2  UNL     1     -33.071  10.406   1.183  1.00 20.00     0.001 A 
HETATM    3  C3  UNL     1     -31.535   8.812   0.212  1.00 20.00     0.001 A 
HETATM    4  C4  UNL     1     -33.099   9.660   2.362  1.00 20.00     0.007 A 
HETATM    5  C5  UNL     1     -31.564   8.067   1.390  1.00 20.00     0.007 A 
HETATM    6  C6  UNL     1     -32.346   8.490   2.464  1.00 20.00    -0.058 A 
ENDROOT
BRANCH   6   7
HETATM    7  C8  UNL     1     -32.376   7.688   3.730  1.00 20.00     0.038 C 
BRANCH   7   8
HETATM    8  C10 UNL     1     -33.782   7.227   4.126  1.00 20.00     0.005 C 
BRANCH   8   9
HETATM    9  C11 UNL     1     -33.890   6.814   5.597  1.00 20.00    -0.000 C 
BRANCH   9  10
HETATM   10  C9  UNL     1     -34.627   5.481   5.745  1.00 20.00    -0.005 C 
HETATM   11  C7  UNL     1     -34.499   4.632   4.490  1.00 20.00     0.005 C 
ENDBRANCH   9  10
ENDBRANCH   8   9
ENDBRANCH   7   8
ENDBRANCH   6   7
TORSDOF 4
ENDMDL
MODEL 4
REMARK VINA RESULT:      -5.5      0.898      5.492
REMARK  4 active torsions:
REMARK  status: ('A' for Active; 'I' for Inactive)
REMARK    1  A    between atoms: C6_6  and  C8_8 
REMARK    2  A    between atoms: C8_8  and  C10_10 
REMARK    3  A    between atoms: C9_9  and  C11_11 
REMARK    4  A    between atoms: C10_10  and  C11_11 
ROOT
HETATM    1  C1  UNL     1     -32.315   9.985   0.138  1.00 20.00     0.000 A 
HETATM    2  C2  UNL     1     -31.544   8.826   0.235  1.00 20.00     0.001 A 
HETATM    3  C3  UNL     1     -33.115  10.383   1.210  1.00 20.00     0.001 A 
HETATM    4  C4  UNL     1     -31.574   8.065   1.404  1.00 20.00     0.007 A 
HETATM    5  C5  UNL     1     -33.144   9.623   2.378  1.00 20.00     0.007 A 
HETATM    6  C6  UNL     1     -32.373   8.464   2.475  1.00 20.00    -0.058 A 
ENDROOT
BRANCH   6   7
HETATM    7  C8  UNL     1     -32.405   7.647   3.732  1.00 20.00     0.038 C 
BRANCH   7   8
HETATM    8  C10 UNL     1     -33.813   7.188   4.124  1.00 20.00     0.005 C 
BRANCH   8   9
HETATM    9  C11 UNL     1     -33.920   6.753   5.589  1.00 20.00    -0.000 C 
BRANCH   9  10
HETATM   10  C9  UNL     1     -34.651   5.415   5.717  1.00 20.00    -0.005 C 
HETATM   11  C7  UNL     1     -34.491   4.570   4.464  1.00 20.00     0.005 C 
ENDBRANCH   9  10
ENDBRANCH   8   9
ENDBRANCH   7   8
ENDBRANCH   6   7
TORSDOF 4
ENDMDL
MODEL 5
REMARK VINA RESULT:      -4.9      1.349      4.905
REMARK  4 active torsions:
REMARK  status: ('A' for Active; 'I' for Inactive)
REMARK    1  A    between atoms: C6_6  and  C8_8 
REMARK    2  A    between atoms: C8_8  and  C10_10 
REMARK    3  A    between atoms: C9_9  and  C11_11 
REMARK    4  A    between atoms: C10_10  and  C11_11 
ROOT
HETATM    1  C1  UNL     1     -32.149   8.284   1.919  1.00 20.00     0.000 A 
HETATM    2  C2  UNL     1     -33.442   7.781   2.067  1.00 20.00     0.001 A 
HETATM    3  C3  UNL     1     -31.343   8.478   3.042  1.00 20.00     0.001 A 
HETATM    4  C4  UNL     1     -33.929   7.471   3.336  1.00 20.00     0.007 A 
HETATM    5  C5  UNL     1     -31.830   8.168   4.311  1.00 20.00     0.007 A 
HETATM    6  C6  UNL     1     -33.122   7.664   4.458  1.00 20.00    -0.058 A 
ENDROOT
BRANCH   6   7
HETATM    7  C8  UNL     1     -33.645   7.332   5.823  1.00 20.00     0.038 C 
BRANCH   7   8
HETATM    8  C10 UNL     1     -34.679   6.201   5.821  1.00 20.00     0.005 C 
BRANCH   8   9
HETATM    9  C11 UNL     1     -34.053   4.810   5.680  1.00 20.00    -0.000 C 
BRANCH   9  10
HETATM   10  C9  UNL     1     -34.507   4.127   4.389  1.00 20.00    -0.005 C 
HETATM   11  C7  UNL     1     -33.423   4.170   3.325  1.00 20.00     0.005 C 
ENDBRANCH   9  10
ENDBRANCH   8   9
ENDBRANCH   7   8
ENDBRANCH   6   7
TORSDOF 4
ENDMDL
MODEL 6
REMARK VINA RESULT:      -4.8     10.544     11.399
REMARK  4 active torsions:
REMARK  status: ('A' for Active; 'I' for Inactive)
REMARK    1  A    between atoms: C6_6  and  C8_8 
REMARK    2  A    between atoms: C8_8  and  C10_10 
REMARK    3  A    between atoms: C9_9  and  C11_11 
REMARK    4  A    between atoms: C10_10  and  C11_11 
ROOT
HETATM    1  C1  UNL     1     -34.254  18.359   0.450  1.00 20.00     0.000 A 
HETATM    2  C2  UNL     1     -35.289  17.565  -0.044  1.00 20.00     0.001 A 
HETATM    3  C3  UNL     1     -33.066  18.484  -0.270  1.00 20.00     0.001 A 
HETATM    4  C4  UNL     1     -35.136  16.896  -1.259  1.00 20.00     0.007 A 
HETATM    5  C5  UNL     1     -32.913  17.817  -1.484  1.00 20.00     0.007 A 
HETATM    6  C6  UNL     1     -33.948  17.023  -1.979  1.00 20.00    -0.058 A 
ENDROOT
BRANCH   6   7
HETATM    7  C8  UNL     1     -33.782  16.305  -3.284  1.00 20.00     0.038 C 
BRANCH   7   8
HETATM    8  C10 UNL     1     -35.022  15.507  -3.702  1.00 20.00     0.005 C 
BRANCH   8   9
HETATM    9  C11 UNL     1     -34.690  14.106  -4.225  1.00 20.00    -0.000 C 
BRANCH   9  10
HETATM   10  C9  UNL     1     -35.786  13.590  -5.159  1.00 20.00    -0.005 C 
HETATM   11  C7  UNL     1     -37.070  14.387  -5.005  1.00 20.00     0.005 C 
ENDBRANCH   9  10
ENDBRANCH   8   9
ENDBRANCH   7   8
ENDBRANCH   6   7
TORSDOF 4
ENDMDL
MODEL 7
REMARK VINA RESULT:      -4.8      1.022      4.837
REMARK  4 active torsions:
REMARK  status: ('A' for Active; 'I' for Inactive)
REMARK    1  A    between atoms: C6_6  and  C8_8 
REMARK    2  A    between atoms: C8_8  and  C10_10 
REMARK    3  A    between atoms: C9_9  and  C11_11 
REMARK    4  A    between atoms: C10_10  and  C11_11 
ROOT
HETATM    1  C1  UNL     1     -32.149   9.826   1.655  1.00 20.00     0.000 A 
HETATM    2  C2  UNL     1     -31.633   9.364   2.866  1.00 20.00     0.001 A 
HETATM    3  C3  UNL     1     -32.902   8.972   0.847  1.00 20.00     0.001 A 
HETATM    4  C4  UNL     1     -31.868   8.050   3.269  1.00 20.00     0.007 A 
HETATM    5  C5  UNL     1     -33.138   7.659   1.250  1.00 20.00     0.007 A 
HETATM    6  C6  UNL     1     -32.621   7.198   2.461  1.00 20.00    -0.058 A 
ENDROOT
BRANCH   6   7
HETATM    7  C8  UNL     1     -32.875   5.785   2.893  1.00 20.00     0.038 C 
BRANCH   7   8
HETATM    8  C10 UNL     1     -34.361   5.414   2.923  1.00 20.00     0.005 C 
BRANCH   8   9
HETATM    9  C11 UNL     1     -35.122   6.062   4.084  1.00 20.00    -0.000 C 
BRANCH   9  10
HETATM   10  C9  UNL     1     -34.403   5.830   5.414  1.00 20.00    -0.005 C 
HETATM   11  C7  UNL     1     -33.889   7.132   6.005  1.00 20.00     0.005 C 
ENDBRANCH   9  10
ENDBRANCH   8   9
ENDBRANCH   7   8
ENDBRANCH   6   7
TORSDOF 4
ENDMDL
MODEL 8
REMARK VINA RESULT:      -4.7     10.454     11.353
REMARK  4 active torsions:
REMARK  status: ('A' for Active; 'I' for Inactive)
REMARK    1  A    between atoms: C6_6  and  C8_8 
REMARK    2  A    between atoms: C8_8  and  C10_10 
REMARK    3  A    between atoms: C9_9  and  C11_11 
REMARK    4  A    between atoms: C10_10  and  C11_11 
ROOT
HETATM    1  C1  UNL     1     -33.519  18.642   0.543  1.00 20.00     0.000 A 
HETATM    2  C2  UNL     1     -32.644  18.472  -0.531  1.00 20.00     0.001 A 
HETATM    3  C3  UNL     1     -34.776  18.037   0.522  1.00 20.00     0.001 A 
HETATM    4  C4  UNL     1     -33.027  17.696  -1.625  1.00 20.00     0.007 A 
HETATM    5  C5  UNL     1     -35.157  17.261  -0.572  1.00 20.00     0.007 A 
HETATM    6  C6  UNL     1     -34.283  17.091  -1.645  1.00 20.00    -0.058 A 
ENDROOT
BRANCH   6   7
HETATM    7  C8  UNL     1     -34.695  16.257  -2.821  1.00 20.00     0.038 C 
BRANCH   7   8
HETATM    8  C10 UNL     1     -33.593  16.104  -3.875  1.00 20.00     0.005 C 
BRANCH   8   9
HETATM    9  C11 UNL     1     -33.572  14.719  -4.530  1.00 20.00    -0.000 C 
BRANCH   9  10
HETATM   10  C9  UNL     1     -34.846  13.936  -4.209  1.00 20.00    -0.005 C 
HETATM   11  C7  UNL     1     -35.656  13.651  -5.463  1.00 20.00     0.005 C 
ENDBRANCH   9  10
ENDBRANCH   8   9
ENDBRANCH   7   8
ENDBRANCH   6   7
TORSDOF 4
ENDMDL
MODEL 9
REMARK VINA RESULT:      -4.7      1.101      2.394
REMARK  4 active torsions:
REMARK  status: ('A' for Active; 'I' for Inactive)
REMARK    1  A    between atoms: C6_6  and  C8_8 
REMARK    2  A    between atoms: C8_8  and  C10_10 
REMARK    3  A    between atoms: C9_9  and  C11_11 
REMARK    4  A    between atoms: C10_10  and  C11_11 
ROOT
HETATM    1  C1  UNL     1     -34.615   5.046   5.960  1.00 20.00     0.000 A 
HETATM    2  C2  UNL     1     -34.413   4.177   4.887  1.00 20.00     0.001 A 
HETATM    3  C3  UNL     1     -34.393   6.414   5.800  1.00 20.00     0.001 A 
HETATM    4  C4  UNL     1     -33.990   4.676   3.655  1.00 20.00     0.007 A 
HETATM    5  C5  UNL     1     -33.971   6.913   4.569  1.00 20.00     0.007 A 
HETATM    6  C6  UNL     1     -33.770   6.044   3.496  1.00 20.00    -0.058 A 
ENDROOT
BRANCH   6   7
HETATM    7  C8  UNL     1     -33.316   6.581   2.172  1.00 20.00     0.038 C 
BRANCH   7   8
HETATM    8  C10 UNL     1     -33.436   8.105   2.060  1.00 20.00     0.005 C 
BRANCH   8   9
HETATM    9  C11 UNL     1     -32.095   8.798   1.801  1.00 20.00    -0.000 C 
BRANCH   9  10
HETATM   10  C9  UNL     1     -31.042   8.367   2.824  1.00 20.00    -0.005 C 
HETATM   11  C7  UNL     1     -31.390   8.856   4.221  1.00 20.00     0.005 C 
ENDBRANCH   9  10
ENDBRANCH   8   9
ENDBRANCH   7   8
ENDBRANCH   6   7
TORSDOF 4
ENDMDL
