MODEL 1
REMARK VINA RESULT:      -6.0      0.000      0.000
REMARK  1 active torsions:
REMARK  status: ('A' for Active; 'I' for Inactive)
REMARK    1  A    between atoms: C6_6  and  O8_8 
ROOT
HETATM    1  C1  UNL     1     -34.620   5.169   5.587  1.00 20.00     0.000 A 
HETATM    2  C2  UNL     1     -34.462   4.631   4.309  1.00 20.00     0.003 A 
HETATM    3  C3  UNL     1     -34.216   6.477   5.848  1.00 20.00     0.003 A 
HETATM    4  C4  UNL     1     -33.899   5.403   3.293  1.00 20.00     0.037 A 
HETATM    5  C5  UNL     1     -33.652   7.249   4.832  1.00 20.00     0.037 A 
HETATM    6  C6  UNL     1     -33.494   6.713   3.554  1.00 20.00     0.068 A 
ENDROOT
BRANCH   6   7
HETATM    7  O8  UNL     1     -32.943   7.466   2.564  1.00 20.00    -0.356 OA
HETATM    8  C7  UNL     1     -31.787   8.233   2.897  1.00 20.00     0.210 C 
ENDBRANCH   6   7
TORSDOF 1
ENDMDL
MODEL 2
REMARK VINA RESULT:      -6.0      0.007      1.708
REMARK  1 active torsions:
REMARK  status: ('A' for Active; 'I' for Inactive)
REMARK    1  A    between atoms: C6_6  and  O8_8 
ROOT
HETATM    1  C1  UNL     1     -34.621   5.167   5.585  1.00 20.00     0.000 A 
HETATM    2  C2  UNL     1     -34.217   6.477   5.845  1.00 20.00     0.003 A 
HETATM    3  C3  UNL     1     -34.461   4.627   4.310  1.00 20.00     0.003 A 
HETATM    4  C4  UNL     1     -33.652   7.247   4.828  1.00 20.00     0.037 A 
HETATM    5  C5  UNL     1     -33.896   5.397   3.293  1.00 20.00     0.037 A 
HETATM    6  C6  UNL     1     -33.492   6.707   3.551  1.00 20.00     0.068 A 
ENDROOT
BRANCH   6   7
HETATM    7  O8  UNL     1     -32.942   7.458   2.558  1.00 20.00    -0.356 OA
HETATM    8  C7  UNL     1     -31.793   8.235   2.891  1.00 20.00     0.210 C 
ENDBRANCH   6   7
TORSDOF 1
ENDMDL
MODEL 3
REMARK VINA RESULT:      -4.5      1.202      2.405
REMARK  1 active torsions:
REMARK  status: ('A' for Active; 'I' for Inactive)
REMARK    1  A    between atoms: C6_6  and  O8_8 
ROOT
HETATM    1  C1  UNL     1     -34.057   6.951   6.277  1.00 20.00     0.000 A 
HETATM    2  C2  UNL     1     -33.346   7.698   5.337  1.00 20.00     0.003 A 
HETATM    3  C3  UNL     1     -34.664   5.754   5.901  1.00 20.00     0.003 A 
HETATM    4  C4  UNL     1     -33.244   7.248   4.021  1.00 20.00     0.037 A 
HETATM    5  C5  UNL     1     -34.562   5.303   4.584  1.00 20.00     0.037 A 
HETATM    6  C6  UNL     1     -33.851   6.050   3.644  1.00 20.00     0.068 A 
ENDROOT
BRANCH   6   7
HETATM    7  O8  UNL     1     -33.753   5.611   2.360  1.00 20.00    -0.356 OA
HETATM    8  C7  UNL     1     -32.938   4.463   2.126  1.00 20.00     0.210 C 
ENDBRANCH   6   7
TORSDOF 1
ENDMDL
MODEL 4
REMARK VINA RESULT:      -4.4      1.202      2.066
REMARK  1 active torsions:
REMARK  status: ('A' for Active; 'I' for Inactive)
REMARK    1  A    between atoms: C6_6  and  O8_8 
ROOT
HETATM    1  C1  UNL     1     -34.069   6.933   6.261  1.00 20.00     0.000 A 
HETATM    2  C2  UNL     1     -34.672   5.730   5.893  1.00 20.00     0.003 A 
HETATM    3  C3  UNL     1     -33.370   7.682   5.315  1.00 20.00     0.003 A 
HETATM    4  C4  UNL     1     -34.574   5.276   4.578  1.00 20.00     0.037 A 
HETATM    5  C5  UNL     1     -33.273   7.228   4.000  1.00 20.00     0.037 A 
HETATM    6  C6  UNL     1     -33.875   6.025   3.630  1.00 20.00     0.068 A 
ENDROOT
BRANCH   6   7
HETATM    7  O8  UNL     1     -33.779   5.581   2.347  1.00 20.00    -0.356 OA
HETATM    8  C7  UNL     1     -32.933   4.457   2.110  1.00 20.00     0.210 C 
ENDBRANCH   6   7
TORSDOF 1
ENDMDL
MODEL 5
REMARK VINA RESULT:      -4.4      1.488      3.639
REMARK  1 active torsions:
REMARK  status: ('A' for Active; 'I' for Inactive)
REMARK    1  A    between atoms: C6_6  and  O8_8 
ROOT
HETATM    1  C1  UNL     1     -31.935   8.119   3.251  1.00 20.00     0.000 A 
HETATM    2  C2  UNL     1     -32.360   8.166   4.579  1.00 20.00     0.003 A 
HETATM    3  C3  UNL     1     -32.548   7.247   2.353  1.00 20.00     0.003 A 
HETATM    4  C4  UNL     1     -33.397   7.339   5.009  1.00 20.00     0.037 A 
HETATM    5  C5  UNL     1     -33.586   6.420   2.783  1.00 20.00     0.037 A 
HETATM    6  C6  UNL     1     -34.011   6.466   4.110  1.00 20.00     0.068 A 
ENDROOT
BRANCH   6   7
HETATM    7  O8  UNL     1     -35.023   5.658   4.529  1.00 20.00    -0.356 OA
HETATM    8  C7  UNL     1     -34.709   4.690   5.530  1.00 20.00     0.210 C 
ENDBRANCH   6   7
TORSDOF 1
ENDMDL
MODEL 6
REMARK VINA RESULT:      -4.4      1.492      3.253
REMARK  1 active torsions:
REMARK  status: ('A' for Active; 'I' for Inactive)
REMARK    1  A    between atoms: C6_6  and  O8_8 
ROOT
HETATM    1  C1  UNL     1     -31.971   8.105   3.316  1.00 20.00     0.000 A 
HETATM    2  C2  UNL     1     -32.533   7.224   2.392  1.00 20.00     0.003 A 
HETATM    3  C3  UNL     1     -32.440   8.132   4.629  1.00 20.00     0.003 A 
HETATM    4  C4  UNL     1     -33.565   6.370   2.781  1.00 20.00     0.037 A 
HETATM    5  C5  UNL     1     -33.472   7.278   5.018  1.00 20.00     0.037 A 
HETATM    6  C6  UNL     1     -34.034   6.396   4.095  1.00 20.00     0.068 A 
ENDROOT
BRANCH   6   7
HETATM    7  O8  UNL     1     -35.042   5.564   4.474  1.00 20.00    -0.356 OA
HETATM    8  C7  UNL     1     -34.759   4.636   5.520  1.00 20.00     0.210 C 
ENDBRANCH   6   7
TORSDOF 1
ENDMDL
MODEL 7
REMARK VINA RESULT:      -3.8      1.799      2.711
REMARK  1 active torsions:
REMARK  status: ('A' for Active; 'I' for Inactive)
REMARK    1  A    between atoms: C6_6  and  O8_8 
ROOT
HETATM    1  C1  UNL     1     -33.556   4.436   2.862  1.00 20.00     0.000 A 
HETATM    2  C2  UNL     1     -34.119   3.893   4.017  1.00 20.00     0.003 A 
HETATM    3  C3  UNL     1     -33.281   5.801   2.794  1.00 20.00     0.003 A 
HETATM    4  C4  UNL     1     -34.407   4.717   5.105  1.00 20.00     0.037 A 
HETATM    5  C5  UNL     1     -33.570   6.625   3.882  1.00 20.00     0.037 A 
HETATM    6  C6  UNL     1     -34.133   6.084   5.038  1.00 20.00     0.068 A 
ENDROOT
BRANCH   6   7
HETATM    7  O8  UNL     1     -34.416   6.889   6.098  1.00 20.00    -0.356 OA
HETATM    8  C7  UNL     1     -33.522   7.972   6.348  1.00 20.00     0.210 C 
ENDBRANCH   6   7
TORSDOF 1
ENDMDL
MODEL 8
REMARK VINA RESULT:      -3.8     12.212     12.478
REMARK  1 active torsions:
REMARK  status: ('A' for Active; 'I' for Inactive)
REMARK    1  A    between atoms: C6_6  and  O8_8 
ROOT
HETATM    1  C1  UNL     1     -35.573  16.894  -1.314  1.00 20.00     0.000 A 
HETATM    2  C2  UNL     1     -34.572  16.720  -2.270  1.00 20.00     0.003 A 
HETATM    3  C3  UNL     1     -35.308  17.613  -0.149  1.00 20.00     0.003 A 
HETATM    4  C4  UNL     1     -33.305  17.265  -2.060  1.00 20.00     0.037 A 
HETATM    5  C5  UNL     1     -34.042  18.158   0.061  1.00 20.00     0.037 A 
HETATM    6  C6  UNL     1     -33.040  17.984  -0.894  1.00 20.00     0.068 A 
ENDROOT
BRANCH   6   7
HETATM    7  O8  UNL     1     -31.804  18.515  -0.688  1.00 20.00    -0.356 OA
HETATM    8  C7  UNL     1     -31.430  18.786   0.662  1.00 20.00     0.210 C 
ENDBRANCH   6   7
TORSDOF 1
ENDMDL
MODEL 9
REMARK VINA RESULT:      -3.8     12.206     12.574
REMARK  1 active torsions:
REMARK  status: ('A' for Active; 'I' for Inactive)
REMARK    1  A    between atoms: C6_6  and  O8_8 
ROOT
HETATM    1  C1  UNL     1     -35.554  16.917  -1.251  1.00 20.00     0.000 A 
HETATM    2  C2  UNL     1     -35.287  17.645  -0.092  1.00 20.00     0.003 A 
HETATM    3  C3  UNL     1     -34.556  16.736  -2.208  1.00 20.00     0.003 A 
HETATM    4  C4  UNL     1     -34.020  18.194   0.110  1.00 20.00     0.037 A 
HETATM    5  C5  UNL     1     -33.290  17.285  -2.006  1.00 20.00     0.037 A 
HETATM    6  C6  UNL     1     -33.021  18.013  -0.847  1.00 20.00     0.068 A 
ENDROOT
BRANCH   6   7
HETATM    7  O8  UNL     1     -31.786  18.550  -0.651  1.00 20.00    -0.356 OA
HETATM    8  C7  UNL     1     -31.386  18.786   0.698  1.00 20.00     0.210 C 
ENDBRANCH   6   7
TORSDOF 1
ENDMDL
