MODEL 1
REMARK VINA RESULT:      -5.8      0.000      0.000
REMARK  2 active torsions:
REMARK  status: ('A' for Active; 'I' for Inactive)
REMARK    1  A    between atoms: C6_6  and  C7_7 
REMARK    2  A    between atoms: C7_7  and  S8_8 
ROOT
HETATM    1  C1  UNL     1     -34.634   4.977   5.615  1.00 20.00     0.000 A 
HETATM    2  C2  UNL     1     -34.416   4.456   4.339  1.00 20.00     0.001 A 
HETATM    3  C3  UNL     1     -34.318   6.308   5.888  1.00 20.00     0.001 A 
HETATM    4  C4  UNL     1     -33.880   5.265   3.337  1.00 20.00     0.008 A 
HETATM    5  C5  UNL     1     -33.783   7.117   4.886  1.00 20.00     0.008 A 
HETATM    6  C6  UNL     1     -33.564   6.597   3.612  1.00 20.00    -0.049 A 
ENDROOT
BRANCH   6   7
HETATM    7  C7  UNL     1     -32.991   7.463   2.540  1.00 20.00     0.109 C 
BRANCH   7   8
HETATM    8  S8  UNL     1     -31.514   8.368   3.093  1.00 20.00    -0.178 SA
HETATM    9  H16 UNL     1     -30.745   7.285   3.269  1.00 20.00     0.101 HD
ENDBRANCH   7   8
ENDBRANCH   6   7
TORSDOF 2
ENDMDL
MODEL 2
REMARK VINA RESULT:      -5.8      0.003      1.709
REMARK  2 active torsions:
REMARK  status: ('A' for Active; 'I' for Inactive)
REMARK    1  A    between atoms: C6_6  and  C7_7 
REMARK    2  A    between atoms: C7_7  and  S8_8 
ROOT
HETATM    1  C1  UNL     1     -34.634   4.977   5.616  1.00 20.00     0.000 A 
HETATM    2  C2  UNL     1     -34.317   6.308   5.889  1.00 20.00     0.001 A 
HETATM    3  C3  UNL     1     -34.416   4.455   4.342  1.00 20.00     0.001 A 
HETATM    4  C4  UNL     1     -33.783   7.118   4.886  1.00 20.00     0.008 A 
HETATM    5  C5  UNL     1     -33.882   5.264   3.339  1.00 20.00     0.008 A 
HETATM    6  C6  UNL     1     -33.565   6.594   3.610  1.00 20.00    -0.049 A 
ENDROOT
BRANCH   6   7
HETATM    7  C7  UNL     1     -32.994   7.459   2.538  1.00 20.00     0.109 C 
BRANCH   7   8
HETATM    8  S8  UNL     1     -31.516   8.367   3.089  1.00 20.00    -0.178 SA
HETATM    9  H16 UNL     1     -30.645   7.383   2.828  1.00 20.00     0.101 HD
ENDBRANCH   7   8
ENDBRANCH   6   7
TORSDOF 2
ENDMDL
MODEL 3
REMARK VINA RESULT:      -5.7      1.074      2.043
REMARK  2 active torsions:
REMARK  status: ('A' for Active; 'I' for Inactive)
REMARK    1  A    between atoms: C6_6  and  C7_7 
REMARK    2  A    between atoms: C7_7  and  S8_8 
ROOT
HETATM    1  C1  UNL     1     -34.709   5.656   4.966  1.00 20.00     0.000 A 
HETATM    2  C2  UNL     1     -34.141   6.686   5.716  1.00 20.00     0.001 A 
HETATM    3  C3  UNL     1     -34.318   5.461   3.641  1.00 20.00     0.001 A 
HETATM    4  C4  UNL     1     -33.184   7.522   5.141  1.00 20.00     0.008 A 
HETATM    5  C5  UNL     1     -33.361   6.297   3.066  1.00 20.00     0.008 A 
HETATM    6  C6  UNL     1     -32.794   7.326   3.815  1.00 20.00    -0.049 A 
ENDROOT
BRANCH   6   7
HETATM    7  C7  UNL     1     -31.770   8.220   3.200  1.00 20.00     0.109 C 
BRANCH   7   8
HETATM    8  S8  UNL     1     -32.259   8.805   1.548  1.00 20.00    -0.178 SA
HETATM    9  H16 UNL     1     -32.379  10.095   1.889  1.00 20.00     0.101 HD
ENDBRANCH   7   8
ENDBRANCH   6   7
TORSDOF 2
ENDMDL
MODEL 4
REMARK VINA RESULT:      -5.7      1.072      1.197
REMARK  2 active torsions:
REMARK  status: ('A' for Active; 'I' for Inactive)
REMARK    1  A    between atoms: C6_6  and  C7_7 
REMARK    2  A    between atoms: C7_7  and  S8_8 
ROOT
HETATM    1  C1  UNL     1     -34.702   5.625   4.920  1.00 20.00     0.000 A 
HETATM    2  C2  UNL     1     -34.296   5.451   3.596  1.00 20.00     0.001 A 
HETATM    3  C3  UNL     1     -34.152   6.651   5.689  1.00 20.00     0.001 A 
HETATM    4  C4  UNL     1     -33.340   6.303   3.042  1.00 20.00     0.008 A 
HETATM    5  C5  UNL     1     -33.196   7.502   5.134  1.00 20.00     0.008 A 
HETATM    6  C6  UNL     1     -32.790   7.329   3.812  1.00 20.00    -0.049 A 
ENDROOT
BRANCH   6   7
HETATM    7  C7  UNL     1     -31.767   8.239   3.220  1.00 20.00     0.109 C 
BRANCH   7   8
HETATM    8  S8  UNL     1     -32.226   8.810   1.555  1.00 20.00    -0.178 SA
HETATM    9  H16 UNL     1     -31.337   8.052   0.899  1.00 20.00     0.101 HD
ENDBRANCH   7   8
ENDBRANCH   6   7
TORSDOF 2
ENDMDL
MODEL 5
REMARK VINA RESULT:      -4.2      2.244      3.815
REMARK  2 active torsions:
REMARK  status: ('A' for Active; 'I' for Inactive)
REMARK    1  A    between atoms: C6_6  and  C7_7 
REMARK    2  A    between atoms: C7_7  and  S8_8 
ROOT
HETATM    1  C1  UNL     1     -31.634   8.445   3.347  1.00 20.00     0.000 A 
HETATM    2  C2  UNL     1     -32.161   8.312   4.632  1.00 20.00     0.001 A 
HETATM    3  C3  UNL     1     -32.186   7.723   2.289  1.00 20.00     0.001 A 
HETATM    4  C4  UNL     1     -33.239   7.457   4.860  1.00 20.00     0.008 A 
HETATM    5  C5  UNL     1     -33.265   6.868   2.516  1.00 20.00     0.008 A 
HETATM    6  C6  UNL     1     -33.791   6.735   3.800  1.00 20.00    -0.049 A 
ENDROOT
BRANCH   6   7
HETATM    7  C7  UNL     1     -34.945   5.821   4.043  1.00 20.00     0.109 C 
BRANCH   7   8
HETATM    8  S8  UNL     1     -34.422   4.186   4.645  1.00 20.00    -0.178 SA
HETATM    9  H16 UNL     1     -35.652   3.658   4.699  1.00 20.00     0.101 HD
ENDBRANCH   7   8
ENDBRANCH   6   7
TORSDOF 2
ENDMDL
MODEL 6
REMARK VINA RESULT:      -3.8     12.157     12.557
REMARK  2 active torsions:
REMARK  status: ('A' for Active; 'I' for Inactive)
REMARK    1  A    between atoms: C6_6  and  C7_7 
REMARK    2  A    between atoms: C7_7  and  S8_8 
ROOT
HETATM    1  C1  UNL     1     -33.598  18.190  -0.327  1.00 20.00     0.000 A 
HETATM    2  C2  UNL     1     -34.904  17.726  -0.164  1.00 20.00     0.001 A 
HETATM    3  C3  UNL     1     -32.890  17.888  -1.490  1.00 20.00     0.001 A 
HETATM    4  C4  UNL     1     -35.501  16.958  -1.164  1.00 20.00     0.008 A 
HETATM    5  C5  UNL     1     -33.488  17.120  -2.490  1.00 20.00     0.008 A 
HETATM    6  C6  UNL     1     -34.792  16.655  -2.328  1.00 20.00    -0.049 A 
ENDROOT
BRANCH   6   7
HETATM    7  C7  UNL     1     -35.430  15.834  -3.397  1.00 20.00     0.109 C 
BRANCH   7   8
HETATM    8  S8  UNL     1     -34.268  14.662  -4.162  1.00 20.00    -0.178 SA
HETATM    9  H16 UNL     1     -33.196  15.054  -3.460  1.00 20.00     0.101 HD
ENDBRANCH   7   8
ENDBRANCH   6   7
TORSDOF 2
ENDMDL
MODEL 7
REMARK VINA RESULT:      -3.8     12.157     12.528
REMARK  2 active torsions:
REMARK  status: ('A' for Active; 'I' for Inactive)
REMARK    1  A    between atoms: C6_6  and  C7_7 
REMARK    2  A    between atoms: C7_7  and  S8_8 
ROOT
HETATM    1  C1  UNL     1     -33.593  18.187  -0.349  1.00 20.00     0.000 A 
HETATM    2  C2  UNL     1     -32.886  17.883  -1.513  1.00 20.00     0.001 A 
HETATM    3  C3  UNL     1     -34.897  17.720  -0.184  1.00 20.00     0.001 A 
HETATM    4  C4  UNL     1     -33.483  17.113  -2.512  1.00 20.00     0.008 A 
HETATM    5  C5  UNL     1     -35.494  16.951  -1.182  1.00 20.00     0.008 A 
HETATM    6  C6  UNL     1     -34.788  16.647  -2.345  1.00 20.00    -0.049 A 
ENDROOT
BRANCH   6   7
HETATM    7  C7  UNL     1     -35.427  15.824  -3.413  1.00 20.00     0.109 C 
BRANCH   7   8
HETATM    8  S8  UNL     1     -34.268  14.643  -4.168  1.00 20.00    -0.178 SA
HETATM    9  H16 UNL     1     -35.160  14.085  -4.998  1.00 20.00     0.101 HD
ENDBRANCH   7   8
ENDBRANCH   6   7
TORSDOF 2
ENDMDL
MODEL 8
REMARK VINA RESULT:      -3.8     12.154     12.518
REMARK  2 active torsions:
REMARK  status: ('A' for Active; 'I' for Inactive)
REMARK    1  A    between atoms: C6_6  and  C7_7 
REMARK    2  A    between atoms: C7_7  and  S8_8 
ROOT
HETATM    1  C1  UNL     1     -34.515  18.000  -0.013  1.00 20.00     0.000 A 
HETATM    2  C2  UNL     1     -35.471  17.226  -0.671  1.00 20.00     0.001 A 
HETATM    3  C3  UNL     1     -33.266  18.211  -0.597  1.00 20.00     0.001 A 
HETATM    4  C4  UNL     1     -35.179  16.662  -1.913  1.00 20.00     0.008 A 
HETATM    5  C5  UNL     1     -32.974  17.648  -1.840  1.00 20.00     0.008 A 
HETATM    6  C6  UNL     1     -33.929  16.874  -2.497  1.00 20.00    -0.049 A 
ENDROOT
BRANCH   6   7
HETATM    7  C7  UNL     1     -33.616  16.271  -3.825  1.00 20.00     0.109 C 
BRANCH   7   8
HETATM    8  S8  UNL     1     -34.488  14.699  -4.099  1.00 20.00    -0.178 SA
HETATM    9  H16 UNL     1     -34.981  14.596  -2.857  1.00 20.00     0.101 HD
ENDBRANCH   7   8
ENDBRANCH   6   7
TORSDOF 2
ENDMDL
MODEL 9
REMARK VINA RESULT:      -3.7     12.145     12.633
REMARK  2 active torsions:
REMARK  status: ('A' for Active; 'I' for Inactive)
REMARK    1  A    between atoms: C6_6  and  C7_7 
REMARK    2  A    between atoms: C7_7  and  S8_8 
ROOT
HETATM    1  C1  UNL     1     -33.598  17.076  -2.374  1.00 20.00     0.000 A 
HETATM    2  C2  UNL     1     -34.886  16.655  -2.041  1.00 20.00     0.001 A 
HETATM    3  C3  UNL     1     -32.883  17.892  -1.498  1.00 20.00     0.001 A 
HETATM    4  C4  UNL     1     -35.458  17.050  -0.832  1.00 20.00     0.008 A 
HETATM    5  C5  UNL     1     -33.455  18.287  -0.289  1.00 20.00     0.008 A 
HETATM    6  C6  UNL     1     -34.741  17.866   0.045  1.00 20.00    -0.049 A 
ENDROOT
BRANCH   6   7
HETATM    7  C7  UNL     1     -35.353  18.289   1.338  1.00 20.00     0.109 C 
BRANCH   7   8
HETATM    8  S8  UNL     1     -34.119  18.484   2.660  1.00 20.00    -0.178 SA
HETATM    9  H16 UNL     1     -33.325  19.325   1.985  1.00 20.00     0.101 HD
ENDBRANCH   7   8
ENDBRANCH   6   7
TORSDOF 2
ENDMDL
