MODEL 1
REMARK VINA RESULT:      -6.4      0.000      0.000
REMARK  0 active torsions:
REMARK  status: ('A' for Active; 'I' for Inactive)
ROOT
HETATM    1  C1  UNL     1     -34.920   5.443   4.615  1.00 20.00     0.001 A 
HETATM    2  C2  UNL     1     -34.551   6.099   5.791  1.00 20.00     0.003 A 
HETATM    3  C3  UNL     1     -34.322   5.764   3.389  1.00 20.00     0.014 A 
HETATM    4  C4  UNL     1     -33.572   7.098   5.788  1.00 20.00     0.038 A 
HETATM    5  C5  UNL     1     -32.521   7.363   2.364  1.00 20.00     0.039 A 
HETATM    6  C6  UNL     1     -31.749   8.303   3.006  1.00 20.00     0.143 A 
HETATM    7  C7  UNL     1     -33.337   6.766   3.361  1.00 20.00    -0.001 A 
HETATM    8  C8  UNL     1     -32.996   7.396   4.555  1.00 20.00     0.085 A 
HETATM    9  O9  UNL     1     -32.029   8.331   4.335  1.00 20.00    -0.322 OA
ENDROOT
TORSDOF 0
ENDMDL
MODEL 2
REMARK VINA RESULT:      -6.2      0.915      1.953
REMARK  0 active torsions:
REMARK  status: ('A' for Active; 'I' for Inactive)
ROOT
HETATM    1  C1  UNL     1     -34.463   6.212   5.821  1.00 20.00     0.001 A 
HETATM    2  C2  UNL     1     -34.892   5.527   4.682  1.00 20.00     0.003 A 
HETATM    3  C3  UNL     1     -33.482   7.209   5.738  1.00 20.00     0.014 A 
HETATM    4  C4  UNL     1     -34.360   5.812   3.420  1.00 20.00     0.038 A 
HETATM    5  C5  UNL     1     -31.956   8.419   3.989  1.00 20.00     0.039 A 
HETATM    6  C6  UNL     1     -31.882   8.210   2.632  1.00 20.00     0.143 A 
HETATM    7  C7  UNL     1     -32.932   7.512   4.481  1.00 20.00    -0.001 A 
HETATM    8  C8  UNL     1     -33.387   6.808   3.370  1.00 20.00     0.085 A 
HETATM    9  O9  UNL     1     -32.745   7.236   2.245  1.00 20.00    -0.322 OA
ENDROOT
TORSDOF 0
ENDMDL
MODEL 3
REMARK VINA RESULT:      -5.4      1.164      3.088
REMARK  0 active torsions:
REMARK  status: ('A' for Active; 'I' for Inactive)
ROOT
HETATM    1  C1  UNL     1     -32.649   7.170   2.168  1.00 20.00     0.001 A 
HETATM    2  C2  UNL     1     -32.121   8.067   3.099  1.00 20.00     0.003 A 
HETATM    3  C3  UNL     1     -33.580   6.195   2.550  1.00 20.00     0.014 A 
HETATM    4  C4  UNL     1     -32.502   8.025   4.444  1.00 20.00     0.038 A 
HETATM    5  C5  UNL     1     -34.861   5.325   4.660  1.00 20.00     0.039 A 
HETATM    6  C6  UNL     1     -34.794   5.792   5.953  1.00 20.00     0.143 A 
HETATM    7  C7  UNL     1     -33.976   6.133   3.897  1.00 20.00    -0.001 A 
HETATM    8  C8  UNL     1     -33.427   7.044   4.794  1.00 20.00     0.085 A 
HETATM    9  O9  UNL     1     -33.928   6.834   6.045  1.00 20.00    -0.322 OA
ENDROOT
TORSDOF 0
ENDMDL
MODEL 4
REMARK VINA RESULT:      -5.3      1.637      3.703
REMARK  0 active torsions:
REMARK  status: ('A' for Active; 'I' for Inactive)
ROOT
HETATM    1  C1  UNL     1     -32.353   8.119   3.559  1.00 20.00     0.001 A 
HETATM    2  C2  UNL     1     -32.536   7.293   2.447  1.00 20.00     0.003 A 
HETATM    3  C3  UNL     1     -32.922   7.799   4.799  1.00 20.00     0.014 A 
HETATM    4  C4  UNL     1     -33.291   6.119   2.532  1.00 20.00     0.038 A 
HETATM    5  C5  UNL     1     -34.402   5.970   5.945  1.00 20.00     0.039 A 
HETATM    6  C6  UNL     1     -34.941   4.834   5.386  1.00 20.00     0.143 A 
HETATM    7  C7  UNL     1     -33.686   6.624   4.908  1.00 20.00    -0.001 A 
HETATM    8  C8  UNL     1     -33.845   5.828   3.778  1.00 20.00     0.085 A 
HETATM    9  O9  UNL     1     -34.609   4.738   4.073  1.00 20.00    -0.322 OA
ENDROOT
TORSDOF 0
ENDMDL
MODEL 5
REMARK VINA RESULT:      -4.7      1.897      2.665
REMARK  0 active torsions:
REMARK  status: ('A' for Active; 'I' for Inactive)
ROOT
HETATM    1  C1  UNL     1     -33.841   7.494   5.767  1.00 20.00     0.001 A 
HETATM    2  C2  UNL     1     -34.504   6.368   6.260  1.00 20.00     0.003 A 
HETATM    3  C3  UNL     1     -33.235   7.482   4.504  1.00 20.00     0.014 A 
HETATM    4  C4  UNL     1     -34.587   5.190   5.511  1.00 20.00     0.038 A 
HETATM    5  C5  UNL     1     -32.839   5.902   2.455  1.00 20.00     0.039 A 
HETATM    6  C6  UNL     1     -33.251   4.600   2.289  1.00 20.00     0.143 A 
HETATM    7  C7  UNL     1     -33.304   6.308   3.734  1.00 20.00    -0.001 A 
HETATM    8  C8  UNL     1     -33.974   5.207   4.260  1.00 20.00     0.085 A 
HETATM    9  O9  UNL     1     -33.940   4.169   3.377  1.00 20.00    -0.322 OA
ENDROOT
TORSDOF 0
ENDMDL
MODEL 6
REMARK VINA RESULT:      -4.7      1.731      2.818
REMARK  0 active torsions:
REMARK  status: ('A' for Active; 'I' for Inactive)
ROOT
HETATM    1  C1  UNL     1     -33.224   4.884   2.527  1.00 20.00     0.001 A 
HETATM    2  C2  UNL     1     -33.946   4.008   3.342  1.00 20.00     0.003 A 
HETATM    3  C3  UNL     1     -32.931   6.187   2.949  1.00 20.00     0.014 A 
HETATM    4  C4  UNL     1     -34.399   4.399   4.605  1.00 20.00     0.038 A 
HETATM    5  C5  UNL     1     -33.291   7.795   4.983  1.00 20.00     0.039 A 
HETATM    6  C6  UNL     1     -33.949   7.543   6.164  1.00 20.00     0.143 A 
HETATM    7  C7  UNL     1     -33.377   6.603   4.215  1.00 20.00    -0.001 A 
HETATM    8  C8  UNL     1     -34.092   5.701   4.997  1.00 20.00     0.085 A 
HETATM    9  O9  UNL     1     -34.439   6.276   6.183  1.00 20.00    -0.322 OA
ENDROOT
TORSDOF 0
ENDMDL
MODEL 7
REMARK VINA RESULT:      -4.6      1.502      2.440
REMARK  0 active torsions:
REMARK  status: ('A' for Active; 'I' for Inactive)
ROOT
HETATM    1  C1  UNL     1     -34.490   6.489   6.290  1.00 20.00     0.001 A 
HETATM    2  C2  UNL     1     -33.758   7.579   5.814  1.00 20.00     0.003 A 
HETATM    3  C3  UNL     1     -34.606   5.311   5.538  1.00 20.00     0.014 A 
HETATM    4  C4  UNL     1     -33.113   7.534   4.574  1.00 20.00     0.038 A 
HETATM    5  C5  UNL     1     -33.844   4.272   3.260  1.00 20.00     0.039 A 
HETATM    6  C6  UNL     1     -33.067   4.842   2.279  1.00 20.00     0.143 A 
HETATM    7  C7  UNL     1     -33.967   5.244   4.288  1.00 20.00    -0.001 A 
HETATM    8  C8  UNL     1     -33.246   6.351   3.850  1.00 20.00     0.085 A 
HETATM    9  O9  UNL     1     -32.699   6.102   2.626  1.00 20.00    -0.322 OA
ENDROOT
TORSDOF 0
ENDMDL
MODEL 8
REMARK VINA RESULT:      -4.4     11.763     12.157
REMARK  0 active torsions:
REMARK  status: ('A' for Active; 'I' for Inactive)
ROOT
HETATM    1  C1  UNL     1     -35.605  16.917  -1.333  1.00 20.00     0.001 A 
HETATM    2  C2  UNL     1     -34.698  16.687  -2.370  1.00 20.00     0.003 A 
HETATM    3  C3  UNL     1     -35.224  17.616  -0.180  1.00 20.00     0.014 A 
HETATM    4  C4  UNL     1     -33.379  17.146  -2.295  1.00 20.00     0.038 A 
HETATM    5  C5  UNL     1     -33.150  18.809   0.881  1.00 20.00     0.039 A 
HETATM    6  C6  UNL     1     -31.886  18.950   0.357  1.00 20.00     0.143 A 
HETATM    7  C7  UNL     1     -33.903  18.086  -0.082  1.00 20.00    -0.001 A 
HETATM    8  C8  UNL     1     -33.030  17.837  -1.136  1.00 20.00     0.085 A 
HETATM    9  O9  UNL     1     -31.802  18.365  -0.866  1.00 20.00    -0.322 OA
ENDROOT
TORSDOF 0
ENDMDL
MODEL 9
REMARK VINA RESULT:      -4.4     11.449     12.756
REMARK  0 active torsions:
REMARK  status: ('A' for Active; 'I' for Inactive)
ROOT
HETATM    1  C1  UNL     1     -33.294  16.272  -4.844  1.00 20.00     0.001 A 
HETATM    2  C2  UNL     1     -33.951  15.584  -3.821  1.00 20.00     0.003 A 
HETATM    3  C3  UNL     1     -33.357  15.828  -6.171  1.00 20.00     0.014 A 
HETATM    4  C4  UNL     1     -34.696  14.430  -4.086  1.00 20.00     0.038 A 
HETATM    5  C5  UNL     1     -34.400  13.920  -7.629  1.00 20.00     0.039 A 
HETATM    6  C6  UNL     1     -35.193  12.872  -7.223  1.00 20.00     0.143 A 
HETATM    7  C7  UNL     1     -34.098  14.669  -6.460  1.00 20.00    -0.001 A 
HETATM    8  C8  UNL     1     -34.739  14.012  -5.414  1.00 20.00     0.085 A 
HETATM    9  O9  UNL     1     -35.406  12.919  -5.882  1.00 20.00    -0.322 OA
ENDROOT
TORSDOF 0
ENDMDL
