MODEL 1
REMARK VINA RESULT:      -5.4      0.000      0.000
REMARK  0 active torsions:
REMARK  status: ('A' for Active; 'I' for Inactive)
ROOT
HETATM    1  C1  UNL     1     -33.818   7.147   5.543  1.00 20.00     0.000 A 
HETATM    2  C2  UNL     1     -34.469   5.957   5.865  1.00 20.00     0.000 A 
HETATM    3  C3  UNL     1     -33.335   7.351   4.250  1.00 20.00     0.000 A 
HETATM    4  C4  UNL     1     -34.637   4.970   4.894  1.00 20.00     0.000 A 
HETATM    5  C5  UNL     1     -33.504   6.365   3.279  1.00 20.00     0.000 A 
HETATM    6  C6  UNL     1     -34.155   5.173   3.601  1.00 20.00     0.000 A 
ENDROOT
TORSDOF 0
ENDMDL
MODEL 2
REMARK VINA RESULT:      -5.4      0.019      1.973
REMARK  0 active torsions:
REMARK  status: ('A' for Active; 'I' for Inactive)
ROOT
HETATM    1  C1  UNL     1     -33.813   7.155   5.552  1.00 20.00     0.000 A 
HETATM    2  C2  UNL     1     -33.337   7.367   4.259  1.00 20.00     0.000 A 
HETATM    3  C3  UNL     1     -34.466   5.964   5.869  1.00 20.00     0.000 A 
HETATM    4  C4  UNL     1     -33.514   6.388   3.281  1.00 20.00     0.000 A 
HETATM    5  C5  UNL     1     -34.643   4.985   4.892  1.00 20.00     0.000 A 
HETATM    6  C6  UNL     1     -34.167   5.197   3.597  1.00 20.00     0.000 A 
ENDROOT
TORSDOF 0
ENDMDL
MODEL 3
REMARK VINA RESULT:      -5.3      0.161      1.974
REMARK  0 active torsions:
REMARK  status: ('A' for Active; 'I' for Inactive)
ROOT
HETATM    1  C1  UNL     1     -33.600   6.183   3.238  1.00 20.00     0.000 A 
HETATM    2  C2  UNL     1     -34.218   5.023   3.703  1.00 20.00     0.000 A 
HETATM    3  C3  UNL     1     -33.389   7.257   4.103  1.00 20.00     0.000 A 
HETATM    4  C4  UNL     1     -34.627   4.937   5.034  1.00 20.00     0.000 A 
HETATM    5  C5  UNL     1     -33.796   7.170   5.434  1.00 20.00     0.000 A 
HETATM    6  C6  UNL     1     -34.416   6.010   5.899  1.00 20.00     0.000 A 
ENDROOT
TORSDOF 0
ENDMDL
MODEL 4
REMARK VINA RESULT:      -5.3      0.093      1.390
REMARK  0 active torsions:
REMARK  status: ('A' for Active; 'I' for Inactive)
ROOT
HETATM    1  C1  UNL     1     -33.268   7.409   4.245  1.00 20.00     0.000 A 
HETATM    2  C2  UNL     1     -33.746   7.194   5.537  1.00 20.00     0.000 A 
HETATM    3  C3  UNL     1     -33.476   6.449   3.254  1.00 20.00     0.000 A 
HETATM    4  C4  UNL     1     -34.433   6.018   5.839  1.00 20.00     0.000 A 
HETATM    5  C5  UNL     1     -34.163   5.274   3.556  1.00 20.00     0.000 A 
HETATM    6  C6  UNL     1     -34.641   5.058   4.849  1.00 20.00     0.000 A 
ENDROOT
TORSDOF 0
ENDMDL
MODEL 5
REMARK VINA RESULT:      -5.3      0.138      1.973
REMARK  0 active torsions:
REMARK  status: ('A' for Active; 'I' for Inactive)
ROOT
HETATM    1  C1  UNL     1     -34.423   6.053   5.858  1.00 20.00     0.000 A 
HETATM    2  C2  UNL     1     -33.772   7.202   5.412  1.00 20.00     0.000 A 
HETATM    3  C3  UNL     1     -34.632   4.985   4.985  1.00 20.00     0.000 A 
HETATM    4  C4  UNL     1     -33.329   7.285   4.092  1.00 20.00     0.000 A 
HETATM    5  C5  UNL     1     -34.188   5.067   3.665  1.00 20.00     0.000 A 
HETATM    6  C6  UNL     1     -33.538   6.218   3.218  1.00 20.00     0.000 A 
ENDROOT
TORSDOF 0
ENDMDL
MODEL 6
REMARK VINA RESULT:      -5.3      0.168      1.973
REMARK  0 active torsions:
REMARK  status: ('A' for Active; 'I' for Inactive)
ROOT
HETATM    1  C1  UNL     1     -33.321   7.282   4.063  1.00 20.00     0.000 A 
HETATM    2  C2  UNL     1     -33.556   6.204   3.210  1.00 20.00     0.000 A 
HETATM    3  C3  UNL     1     -33.740   7.224   5.392  1.00 20.00     0.000 A 
HETATM    4  C4  UNL     1     -34.210   5.068   3.686  1.00 20.00     0.000 A 
HETATM    5  C5  UNL     1     -34.392   6.087   5.869  1.00 20.00     0.000 A 
HETATM    6  C6  UNL     1     -34.628   5.009   5.015  1.00 20.00     0.000 A 
ENDROOT
TORSDOF 0
ENDMDL
MODEL 7
REMARK VINA RESULT:      -5.3      0.163      2.790
REMARK  0 active torsions:
REMARK  status: ('A' for Active; 'I' for Inactive)
ROOT
HETATM    1  C1  UNL     1     -34.259   5.295   3.595  1.00 20.00     0.000 A 
HETATM    2  C2  UNL     1     -33.535   6.426   3.222  1.00 20.00     0.000 A 
HETATM    3  C3  UNL     1     -34.681   5.140   4.916  1.00 20.00     0.000 A 
HETATM    4  C4  UNL     1     -33.231   7.403   4.169  1.00 20.00     0.000 A 
HETATM    5  C5  UNL     1     -34.378   6.118   5.863  1.00 20.00     0.000 A 
HETATM    6  C6  UNL     1     -33.653   7.250   5.490  1.00 20.00     0.000 A 
ENDROOT
TORSDOF 0
ENDMDL
MODEL 8
REMARK VINA RESULT:      -5.3      0.172      1.975
REMARK  0 active torsions:
REMARK  status: ('A' for Active; 'I' for Inactive)
ROOT
HETATM    1  C1  UNL     1     -34.685   5.162   4.932  1.00 20.00     0.000 A 
HETATM    2  C2  UNL     1     -34.411   6.166   5.860  1.00 20.00     0.000 A 
HETATM    3  C3  UNL     1     -34.212   5.272   3.624  1.00 20.00     0.000 A 
HETATM    4  C4  UNL     1     -33.665   7.281   5.480  1.00 20.00     0.000 A 
HETATM    5  C5  UNL     1     -33.465   6.387   3.245  1.00 20.00     0.000 A 
HETATM    6  C6  UNL     1     -33.192   7.392   4.173  1.00 20.00     0.000 A 
ENDROOT
TORSDOF 0
ENDMDL
MODEL 9
REMARK VINA RESULT:      -3.4     12.361     12.834
REMARK  0 active torsions:
REMARK  status: ('A' for Active; 'I' for Inactive)
ROOT
HETATM    1  C1  UNL     1     -35.482  17.041  -0.926  1.00 20.00     0.000 A 
HETATM    2  C2  UNL     1     -34.836  17.877  -0.016  1.00 20.00     0.000 A 
HETATM    3  C3  UNL     1     -34.824  16.632  -2.086  1.00 20.00     0.000 A 
HETATM    4  C4  UNL     1     -33.533  18.305  -0.266  1.00 20.00     0.000 A 
HETATM    5  C5  UNL     1     -33.521  17.060  -2.336  1.00 20.00     0.000 A 
HETATM    6  C6  UNL     1     -32.875  17.897  -1.426  1.00 20.00     0.000 A 
ENDROOT
TORSDOF 0
ENDMDL
