MODEL 1
REMARK VINA RESULT:      -6.5      0.000      0.000
REMARK  3 active torsions:
REMARK  status: ('A' for Active; 'I' for Inactive)
REMARK    1  A    between atoms: C6_6  and  O9_9 
REMARK    2  A    between atoms: C7_7  and  C8_8 
REMARK    3  A    between atoms: C7_7  and  O9_9 
ROOT
HETATM    1  C1  UNL     1     -34.600   5.339   5.729  1.00 20.00     0.000 A 
HETATM    2  C2  UNL     1     -34.135   6.653   5.772  1.00 20.00     0.003 A 
HETATM    3  C3  UNL     1     -34.519   4.609   4.543  1.00 20.00     0.003 A 
HETATM    4  C4  UNL     1     -33.589   7.238   4.630  1.00 20.00     0.037 A 
HETATM    5  C5  UNL     1     -33.973   5.194   3.400  1.00 20.00     0.037 A 
HETATM    6  C6  UNL     1     -33.508   6.508   3.443  1.00 20.00     0.068 A 
ENDROOT
BRANCH   6   7
HETATM    7  O9  UNL     1     -32.977   7.079   2.328  1.00 20.00    -0.350 OA
BRANCH   7   8
HETATM    8  C7  UNL     1     -32.180   8.248   2.514  1.00 20.00     0.190 C 
BRANCH   8   9
HETATM    9  C8  UNL     1     -31.952   8.929   1.177  1.00 20.00     0.141 C 
HETATM   10 CL10 UNL     1     -32.697  10.548   1.158  1.00 20.00    -0.128 Cl
ENDBRANCH   8   9
ENDBRANCH   7   8
ENDBRANCH   6   7
TORSDOF 3
ENDMDL
MODEL 2
REMARK VINA RESULT:      -6.5      0.438      1.567
REMARK  3 active torsions:
REMARK  status: ('A' for Active; 'I' for Inactive)
REMARK    1  A    between atoms: C6_6  and  O9_9 
REMARK    2  A    between atoms: C7_7  and  C8_8 
REMARK    3  A    between atoms: C7_7  and  O9_9 
ROOT
HETATM    1  C1  UNL     1     -34.552   5.952   5.882  1.00 20.00     0.000 A 
HETATM    2  C2  UNL     1     -34.745   5.209   4.718  1.00 20.00     0.003 A 
HETATM    3  C3  UNL     1     -33.795   7.124   5.844  1.00 20.00     0.003 A 
HETATM    4  C4  UNL     1     -34.182   5.637   3.516  1.00 20.00     0.037 A 
HETATM    5  C5  UNL     1     -33.233   7.552   4.642  1.00 20.00     0.037 A 
HETATM    6  C6  UNL     1     -33.426   6.809   3.478  1.00 20.00     0.068 A 
ENDROOT
BRANCH   6   7
HETATM    7  O9  UNL     1     -32.875   7.226   2.305  1.00 20.00    -0.350 OA
BRANCH   7   8
HETATM    8  C7  UNL     1     -31.939   8.301   2.373  1.00 20.00     0.190 C 
BRANCH   8   9
HETATM    9  C8  UNL     1     -31.899   9.029   1.042  1.00 20.00     0.141 C 
HETATM   10 CL10 UNL     1     -32.807  10.560   1.133  1.00 20.00    -0.128 Cl
ENDBRANCH   8   9
ENDBRANCH   7   8
ENDBRANCH   6   7
TORSDOF 3
ENDMDL
MODEL 3
REMARK VINA RESULT:      -4.2      2.692      4.702
REMARK  3 active torsions:
REMARK  status: ('A' for Active; 'I' for Inactive)
REMARK    1  A    between atoms: C6_6  and  O9_9 
REMARK    2  A    between atoms: C7_7  and  C8_8 
REMARK    3  A    between atoms: C7_7  and  O9_9 
ROOT
HETATM    1  C1  UNL     1     -31.429   8.597   2.358  1.00 20.00     0.000 A 
HETATM    2  C2  UNL     1     -32.474   8.075   1.596  1.00 20.00     0.003 A 
HETATM    3  C3  UNL     1     -31.435   8.445   3.745  1.00 20.00     0.003 A 
HETATM    4  C4  UNL     1     -33.525   7.402   2.219  1.00 20.00     0.037 A 
HETATM    5  C5  UNL     1     -32.486   7.772   4.368  1.00 20.00     0.037 A 
HETATM    6  C6  UNL     1     -33.531   7.251   3.606  1.00 20.00     0.068 A 
ENDROOT
BRANCH   6   7
HETATM    7  O9  UNL     1     -34.557   6.596   4.215  1.00 20.00    -0.350 OA
BRANCH   7   8
HETATM    8  C7  UNL     1     -34.397   6.280   5.597  1.00 20.00     0.190 C 
BRANCH   8   9
HETATM    9  C8  UNL     1     -34.520   4.781   5.797  1.00 20.00     0.141 C 
HETATM   10 CL10 UNL     1     -34.223   3.913   4.268  1.00 20.00    -0.128 Cl
ENDBRANCH   8   9
ENDBRANCH   7   8
ENDBRANCH   6   7
TORSDOF 3
ENDMDL
MODEL 4
REMARK VINA RESULT:      -4.2      2.700      4.538
REMARK  3 active torsions:
REMARK  status: ('A' for Active; 'I' for Inactive)
REMARK    1  A    between atoms: C6_6  and  O9_9 
REMARK    2  A    between atoms: C7_7  and  C8_8 
REMARK    3  A    between atoms: C7_7  and  O9_9 
ROOT
HETATM    1  C1  UNL     1     -31.410   8.581   2.390  1.00 20.00     0.000 A 
HETATM    2  C2  UNL     1     -31.439   8.507   3.782  1.00 20.00     0.003 A 
HETATM    3  C3  UNL     1     -32.440   8.011   1.641  1.00 20.00     0.003 A 
HETATM    4  C4  UNL     1     -32.496   7.863   4.426  1.00 20.00     0.037 A 
HETATM    5  C5  UNL     1     -33.497   7.368   2.285  1.00 20.00     0.037 A 
HETATM    6  C6  UNL     1     -33.525   7.293   3.676  1.00 20.00     0.068 A 
ENDROOT
BRANCH   6   7
HETATM    7  O9  UNL     1     -34.556   6.664   4.304  1.00 20.00    -0.350 OA
BRANCH   7   8
HETATM    8  C7  UNL     1     -34.340   6.251   5.653  1.00 20.00     0.190 C 
BRANCH   8   9
HETATM    9  C8  UNL     1     -34.604   4.763   5.782  1.00 20.00     0.141 C 
HETATM   10 CL10 UNL     1     -34.161   3.911   4.280  1.00 20.00    -0.128 Cl
ENDBRANCH   8   9
ENDBRANCH   7   8
ENDBRANCH   6   7
TORSDOF 3
ENDMDL
MODEL 5
REMARK VINA RESULT:      -4.2     11.000     11.671
REMARK  3 active torsions:
REMARK  status: ('A' for Active; 'I' for Inactive)
REMARK    1  A    between atoms: C6_6  and  O9_9 
REMARK    2  A    between atoms: C7_7  and  C8_8 
REMARK    3  A    between atoms: C7_7  and  O9_9 
ROOT
HETATM    1  C1  UNL     1     -34.251  18.393   0.385  1.00 20.00     0.000 A 
HETATM    2  C2  UNL     1     -35.286  17.584  -0.083  1.00 20.00     0.003 A 
HETATM    3  C3  UNL     1     -33.066  18.498  -0.343  1.00 20.00     0.003 A 
HETATM    4  C4  UNL     1     -35.137  16.879  -1.278  1.00 20.00     0.037 A 
HETATM    5  C5  UNL     1     -32.916  17.793  -1.538  1.00 20.00     0.037 A 
HETATM    6  C6  UNL     1     -33.950  16.984  -2.004  1.00 20.00     0.068 A 
ENDROOT
BRANCH   6   7
HETATM    7  O9  UNL     1     -33.803  16.295  -3.169  1.00 20.00    -0.350 OA
BRANCH   7   8
HETATM    8  C7  UNL     1     -34.936  15.566  -3.640  1.00 20.00     0.190 C 
BRANCH   8   9
HETATM    9  C8  UNL     1     -34.487  14.229  -4.199  1.00 20.00     0.141 C 
HETATM   10 CL10 UNL     1     -35.825  13.419  -5.053  1.00 20.00    -0.128 Cl
ENDBRANCH   8   9
ENDBRANCH   7   8
ENDBRANCH   6   7
TORSDOF 3
ENDMDL
MODEL 6
REMARK VINA RESULT:      -4.2     11.014     11.631
REMARK  3 active torsions:
REMARK  status: ('A' for Active; 'I' for Inactive)
REMARK    1  A    between atoms: C6_6  and  O9_9 
REMARK    2  A    between atoms: C7_7  and  C8_8 
REMARK    3  A    between atoms: C7_7  and  O9_9 
ROOT
HETATM    1  C1  UNL     1     -34.226  18.372   0.370  1.00 20.00     0.000 A 
HETATM    2  C2  UNL     1     -33.038  18.454  -0.357  1.00 20.00     0.003 A 
HETATM    3  C3  UNL     1     -35.278  17.586  -0.102  1.00 20.00     0.003 A 
HETATM    4  C4  UNL     1     -32.902  17.752  -1.554  1.00 20.00     0.037 A 
HETATM    5  C5  UNL     1     -35.142  16.884  -1.299  1.00 20.00     0.037 A 
HETATM    6  C6  UNL     1     -33.955  16.968  -2.026  1.00 20.00     0.068 A 
ENDROOT
BRANCH   6   7
HETATM    7  O9  UNL     1     -33.823  16.284  -3.195  1.00 20.00    -0.350 OA
BRANCH   7   8
HETATM    8  C7  UNL     1     -34.964  15.563  -3.659  1.00 20.00     0.190 C 
BRANCH   8   9
HETATM    9  C8  UNL     1     -34.529  14.221  -4.217  1.00 20.00     0.141 C 
HETATM   10 CL10 UNL     1     -35.868  13.438  -5.096  1.00 20.00    -0.128 Cl
ENDBRANCH   8   9
ENDBRANCH   7   8
ENDBRANCH   6   7
TORSDOF 3
ENDMDL
MODEL 7
REMARK VINA RESULT:      -4.1     11.004     11.610
REMARK  3 active torsions:
REMARK  status: ('A' for Active; 'I' for Inactive)
REMARK    1  A    between atoms: C6_6  and  O9_9 
REMARK    2  A    between atoms: C7_7  and  C8_8 
REMARK    3  A    between atoms: C7_7  and  O9_9 
ROOT
HETATM    1  C1  UNL     1     -34.154  18.444   0.465  1.00 20.00     0.000 A 
HETATM    2  C2  UNL     1     -32.983  18.534  -0.286  1.00 20.00     0.003 A 
HETATM    3  C3  UNL     1     -35.218  17.665   0.008  1.00 20.00     0.003 A 
HETATM    4  C4  UNL     1     -32.874  17.845  -1.494  1.00 20.00     0.037 A 
HETATM    5  C5  UNL     1     -35.108  16.976  -1.200  1.00 20.00     0.037 A 
HETATM    6  C6  UNL     1     -33.938  17.067  -1.951  1.00 20.00     0.068 A 
ENDROOT
BRANCH   6   7
HETATM    7  O9  UNL     1     -33.832  16.396  -3.131  1.00 20.00    -0.350 OA
BRANCH   7   8
HETATM    8  C7  UNL     1     -34.975  15.658  -3.563  1.00 20.00     0.190 C 
BRANCH   8   9
HETATM    9  C8  UNL     1     -34.531  14.348  -4.188  1.00 20.00     0.141 C 
HETATM   10 CL10 UNL     1     -32.753  14.255  -4.265  1.00 20.00    -0.128 Cl
ENDBRANCH   8   9
ENDBRANCH   7   8
ENDBRANCH   6   7
TORSDOF 3
ENDMDL
MODEL 8
REMARK VINA RESULT:      -4.1     11.044     11.649
REMARK  3 active torsions:
REMARK  status: ('A' for Active; 'I' for Inactive)
REMARK    1  A    between atoms: C6_6  and  O9_9 
REMARK    2  A    between atoms: C7_7  and  C8_8 
REMARK    3  A    between atoms: C7_7  and  O9_9 
ROOT
HETATM    1  C1  UNL     1     -34.143  18.481   0.431  1.00 20.00     0.000 A 
HETATM    2  C2  UNL     1     -35.202  17.680   0.005  1.00 20.00     0.003 A 
HETATM    3  C3  UNL     1     -32.980  18.564  -0.335  1.00 20.00     0.003 A 
HETATM    4  C4  UNL     1     -35.099  16.961  -1.186  1.00 20.00     0.037 A 
HETATM    5  C5  UNL     1     -32.877  17.846  -1.526  1.00 20.00     0.037 A 
HETATM    6  C6  UNL     1     -33.935  17.044  -1.951  1.00 20.00     0.068 A 
ENDROOT
BRANCH   6   7
HETATM    7  O9  UNL     1     -33.833  16.341  -3.112  1.00 20.00    -0.350 OA
BRANCH   7   8
HETATM    8  C7  UNL     1     -34.966  15.568  -3.506  1.00 20.00     0.190 C 
BRANCH   8   9
HETATM    9  C8  UNL     1     -34.509  14.348  -4.283  1.00 20.00     0.141 C 
HETATM   10 CL10 UNL     1     -32.730  14.234  -4.290  1.00 20.00    -0.128 Cl
ENDBRANCH   8   9
ENDBRANCH   7   8
ENDBRANCH   6   7
TORSDOF 3
ENDMDL
MODEL 9
REMARK VINA RESULT:      -4.1      2.209      5.010
REMARK  3 active torsions:
REMARK  status: ('A' for Active; 'I' for Inactive)
REMARK    1  A    between atoms: C6_6  and  O9_9 
REMARK    2  A    between atoms: C7_7  and  C8_8 
REMARK    3  A    between atoms: C7_7  and  O9_9 
ROOT
HETATM    1  C1  UNL     1     -32.238  10.031   0.289  1.00 20.00     0.000 A 
HETATM    2  C2  UNL     1     -31.436   8.897   0.404  1.00 20.00     0.003 A 
HETATM    3  C3  UNL     1     -33.203  10.304   1.259  1.00 20.00     0.003 A 
HETATM    4  C4  UNL     1     -31.596   8.035   1.489  1.00 20.00     0.037 A 
HETATM    5  C5  UNL     1     -33.364   9.442   2.344  1.00 20.00     0.037 A 
HETATM    6  C6  UNL     1     -32.562   8.308   2.458  1.00 20.00     0.068 A 
ENDROOT
BRANCH   6   7
HETATM    7  O9  UNL     1     -32.720   7.466   3.516  1.00 20.00    -0.350 OA
BRANCH   7   8
HETATM    8  C7  UNL     1     -33.630   6.378   3.351  1.00 20.00     0.190 C 
BRANCH   8   9
HETATM    9  C8  UNL     1     -34.403   6.159   4.637  1.00 20.00     0.141 C 
HETATM   10 CL10 UNL     1     -33.789   7.218   5.933  1.00 20.00    -0.128 Cl
ENDBRANCH   8   9
ENDBRANCH   7   8
ENDBRANCH   6   7
TORSDOF 3
ENDMDL
