MODEL 1
REMARK VINA RESULT:      -2.8      0.000      0.000
REMARK  0 active torsions:
REMARK  status: ('A' for Active; 'I' for Inactive)
ROOT
HETATM    1  C1  UNL     1     -34.465   4.425   4.580  1.00 20.00     0.016 C 
HETATM    2  C2  UNL     1     -34.814   5.877   4.356  1.00 20.00     0.081 C 
HETATM    3 BR3  UNL     1     -33.880   6.990   5.648  1.00 20.00    -0.097 Br
ENDROOT
TORSDOF 0
ENDMDL
MODEL 2
REMARK VINA RESULT:      -2.7      2.121      2.483
REMARK  0 active torsions:
REMARK  status: ('A' for Active; 'I' for Inactive)
ROOT
HETATM    1  C1  UNL     1     -33.684   7.323   5.912  1.00 20.00     0.016 C 
HETATM    2  C2  UNL     1     -34.403   6.011   5.707  1.00 20.00     0.081 C 
HETATM    3 BR3  UNL     1     -34.834   5.779   3.826  1.00 20.00    -0.097 Br
ENDROOT
TORSDOF 0
ENDMDL
MODEL 3
REMARK VINA RESULT:      -2.6      1.880      2.034
REMARK  0 active torsions:
REMARK  status: ('A' for Active; 'I' for Inactive)
ROOT
HETATM    1  C1  UNL     1     -34.380   6.031   5.728  1.00 20.00     0.016 C 
HETATM    2  C2  UNL     1     -34.837   5.388   4.440  1.00 20.00     0.081 C 
HETATM    3 BR3  UNL     1     -33.691   5.953   2.975  1.00 20.00    -0.097 Br
ENDROOT
TORSDOF 0
ENDMDL
MODEL 4
REMARK VINA RESULT:      -2.5      2.193      2.522
REMARK  0 active torsions:
REMARK  status: ('A' for Active; 'I' for Inactive)
ROOT
HETATM    1  C1  UNL     1     -33.734   7.255   5.802  1.00 20.00     0.016 C 
HETATM    2  C2  UNL     1     -34.010   6.695   4.427  1.00 20.00     0.081 C 
HETATM    3 BR3  UNL     1     -32.696   7.368   3.162  1.00 20.00    -0.097 Br
ENDROOT
TORSDOF 0
ENDMDL
MODEL 5
REMARK VINA RESULT:      -2.5      1.017      1.289
REMARK  0 active torsions:
REMARK  status: ('A' for Active; 'I' for Inactive)
ROOT
HETATM    1  C1  UNL     1     -33.714   5.796   3.005  1.00 20.00     0.016 C 
HETATM    2  C2  UNL     1     -34.652   5.873   4.186  1.00 20.00     0.081 C 
HETATM    3 BR3  UNL     1     -33.885   7.007   5.567  1.00 20.00    -0.097 Br
ENDROOT
TORSDOF 0
ENDMDL
MODEL 6
REMARK VINA RESULT:      -2.5      1.960      2.400
REMARK  0 active torsions:
REMARK  status: ('A' for Active; 'I' for Inactive)
ROOT
HETATM    1  C1  UNL     1     -32.512   7.451   3.207  1.00 20.00     0.016 C 
HETATM    2  C2  UNL     1     -33.751   6.852   3.830  1.00 20.00     0.081 C 
HETATM    3 BR3  UNL     1     -33.763   7.199   5.743  1.00 20.00    -0.097 Br
ENDROOT
TORSDOF 0
ENDMDL
MODEL 7
REMARK VINA RESULT:      -2.4      2.203      2.540
REMARK  0 active torsions:
REMARK  status: ('A' for Active; 'I' for Inactive)
ROOT
HETATM    1  C1  UNL     1     -32.876   6.996   2.973  1.00 20.00     0.016 C 
HETATM    2  C2  UNL     1     -33.593   5.667   2.960  1.00 20.00     0.081 C 
HETATM    3 BR3  UNL     1     -34.732   5.514   4.528  1.00 20.00    -0.097 Br
ENDROOT
TORSDOF 0
ENDMDL
MODEL 8
REMARK VINA RESULT:      -2.4      5.702      5.841
REMARK  0 active torsions:
REMARK  status: ('A' for Active; 'I' for Inactive)
ROOT
HETATM    1  C1  UNL     1     -33.075   9.475  -0.341  1.00 20.00     0.016 C 
HETATM    2  C2  UNL     1     -32.605   9.958   1.010  1.00 20.00     0.081 C 
HETATM    3 BR3  UNL     1     -32.063   8.443   2.102  1.00 20.00    -0.097 Br
ENDROOT
TORSDOF 0
ENDMDL
MODEL 9
REMARK VINA RESULT:      -2.3      4.727      4.968
REMARK  0 active torsions:
REMARK  status: ('A' for Active; 'I' for Inactive)
ROOT
HETATM    1  C1  UNL     1     -32.759   7.718   2.531  1.00 20.00     0.016 C 
HETATM    2  C2  UNL     1     -31.769   8.612   1.822  1.00 20.00     0.081 C 
HETATM    3 BR3  UNL     1     -32.706  10.081   0.959  1.00 20.00    -0.097 Br
ENDROOT
TORSDOF 0
ENDMDL
