MODEL 1
REMARK VINA RESULT:      -5.4      0.000      0.000
REMARK  0 active torsions:
REMARK  status: ('A' for Active; 'I' for Inactive)
ROOT
HETATM    1  C1  UNL     1     -34.614   5.256   5.685  1.00 20.00    -0.030 C 
HETATM    2  C2  UNL     1     -34.181   6.524   5.705  1.00 20.00    -0.030 C 
HETATM    3  C3  UNL     1     -34.513   4.375   4.476  1.00 20.00     0.026 C 
HETATM    4  C4  UNL     1     -33.582   7.204   4.510  1.00 20.00     0.026 C 
HETATM    5  C5  UNL     1     -33.591   4.942   3.393  1.00 20.00     0.004 C 
HETATM    6  C6  UNL     1     -33.812   6.440   3.204  1.00 20.00     0.004 C 
ENDROOT
TORSDOF 0
ENDMDL
MODEL 2
REMARK VINA RESULT:      -5.4      0.862      2.225
REMARK  0 active torsions:
REMARK  status: ('A' for Active; 'I' for Inactive)
ROOT
HETATM    1  C1  UNL     1     -33.097   6.931   3.423  1.00 20.00    -0.030 C 
HETATM    2  C2  UNL     1     -33.031   7.571   4.599  1.00 20.00    -0.030 C 
HETATM    3  C3  UNL     1     -34.003   5.761   3.178  1.00 20.00     0.026 C 
HETATM    4  C4  UNL     1     -33.831   7.164   5.800  1.00 20.00     0.026 C 
HETATM    5  C5  UNL     1     -35.061   5.579   4.269  1.00 20.00     0.004 C 
HETATM    6  C6  UNL     1     -34.464   5.777   5.660  1.00 20.00     0.004 C 
ENDROOT
TORSDOF 0
ENDMDL
MODEL 3
REMARK VINA RESULT:      -5.4      0.160      2.084
REMARK  0 active torsions:
REMARK  status: ('A' for Active; 'I' for Inactive)
ROOT
HETATM    1  C1  UNL     1     -34.086   6.655   5.572  1.00 20.00    -0.030 C 
HETATM    2  C2  UNL     1     -34.562   5.406   5.669  1.00 20.00    -0.030 C 
HETATM    3  C3  UNL     1     -33.505   7.214   4.307  1.00 20.00     0.026 C 
HETATM    4  C4  UNL     1     -34.531   4.426   4.534  1.00 20.00     0.026 C 
HETATM    5  C5  UNL     1     -33.800   6.353   3.077  1.00 20.00     0.004 C 
HETATM    6  C6  UNL     1     -33.623   4.868   3.383  1.00 20.00     0.004 C 
ENDROOT
TORSDOF 0
ENDMDL
MODEL 4
REMARK VINA RESULT:      -5.3      0.839      2.525
REMARK  0 active torsions:
REMARK  status: ('A' for Active; 'I' for Inactive)
ROOT
HETATM    1  C1  UNL     1     -33.096   7.604   4.658  1.00 20.00    -0.030 C 
HETATM    2  C2  UNL     1     -33.123   7.035   3.445  1.00 20.00    -0.030 C 
HETATM    3  C3  UNL     1     -33.887   7.088   5.822  1.00 20.00     0.026 C 
HETATM    4  C4  UNL     1     -33.973   5.843   3.117  1.00 20.00     0.026 C 
HETATM    5  C5  UNL     1     -34.460   5.687   5.588  1.00 20.00     0.004 C 
HETATM    6  C6  UNL     1     -35.034   5.551   4.181  1.00 20.00     0.004 C 
ENDROOT
TORSDOF 0
ENDMDL
MODEL 5
REMARK VINA RESULT:      -5.2      0.837      1.765
REMARK  0 active torsions:
REMARK  status: ('A' for Active; 'I' for Inactive)
ROOT
HETATM    1  C1  UNL     1     -33.663   7.217   5.727  1.00 20.00    -0.030 C 
HETATM    2  C2  UNL     1     -33.141   7.549   4.538  1.00 20.00    -0.030 C 
HETATM    3  C3  UNL     1     -34.576   6.043   5.921  1.00 20.00     0.026 C 
HETATM    4  C4  UNL     1     -33.443   6.803   3.272  1.00 20.00     0.026 C 
HETATM    5  C5  UNL     1     -34.592   5.088   4.724  1.00 20.00     0.004 C 
HETATM    6  C6  UNL     1     -34.636   5.854   3.404  1.00 20.00     0.004 C 
ENDROOT
TORSDOF 0
ENDMDL
MODEL 6
REMARK VINA RESULT:      -5.2      0.655      2.740
REMARK  0 active torsions:
REMARK  status: ('A' for Active; 'I' for Inactive)
ROOT
HETATM    1  C1  UNL     1     -34.033   5.756   3.271  1.00 20.00    -0.030 C 
HETATM    2  C2  UNL     1     -34.383   4.771   4.109  1.00 20.00    -0.030 C 
HETATM    3  C3  UNL     1     -33.679   7.138   3.734  1.00 20.00     0.026 C 
HETATM    4  C4  UNL     1     -34.490   4.957   5.594  1.00 20.00     0.026 C 
HETATM    5  C5  UNL     1     -33.440   7.225   5.244  1.00 20.00     0.004 C 
HETATM    6  C6  UNL     1     -34.487   6.428   6.017  1.00 20.00     0.004 C 
ENDROOT
TORSDOF 0
ENDMDL
MODEL 7
REMARK VINA RESULT:      -5.2      0.662      2.096
REMARK  0 active torsions:
REMARK  status: ('A' for Active; 'I' for Inactive)
ROOT
HETATM    1  C1  UNL     1     -34.395   4.800   4.089  1.00 20.00    -0.030 C 
HETATM    2  C2  UNL     1     -34.047   5.794   3.259  1.00 20.00    -0.030 C 
HETATM    3  C3  UNL     1     -34.488   4.970   5.576  1.00 20.00     0.026 C 
HETATM    4  C4  UNL     1     -33.683   7.169   3.734  1.00 20.00     0.026 C 
HETATM    5  C5  UNL     1     -34.471   6.436   6.017  1.00 20.00     0.004 C 
HETATM    6  C6  UNL     1     -33.427   7.236   5.242  1.00 20.00     0.004 C 
ENDROOT
TORSDOF 0
ENDMDL
MODEL 8
REMARK VINA RESULT:      -5.2      0.433      2.099
REMARK  0 active torsions:
REMARK  status: ('A' for Active; 'I' for Inactive)
ROOT
HETATM    1  C1  UNL     1     -33.540   4.986   3.100  1.00 20.00    -0.030 C 
HETATM    2  C2  UNL     1     -33.316   6.305   3.010  1.00 20.00    -0.030 C 
HETATM    3  C3  UNL     1     -34.201   4.347   4.284  1.00 20.00     0.026 C 
HETATM    4  C4  UNL     1     -33.674   7.273   4.098  1.00 20.00     0.026 C 
HETATM    5  C5  UNL     1     -34.879   5.357   5.214  1.00 20.00     0.004 C 
HETATM    6  C6  UNL     1     -34.004   6.589   5.427  1.00 20.00     0.004 C 
ENDROOT
TORSDOF 0
ENDMDL
MODEL 9
REMARK VINA RESULT:      -3.5      8.902      9.363
REMARK  0 active torsions:
REMARK  status: ('A' for Active; 'I' for Inactive)
ROOT
HETATM    1  C1  UNL     1     -42.812   5.981   1.176  1.00 20.00    -0.030 C 
HETATM    2  C2  UNL     1     -41.643   5.502   0.728  1.00 20.00    -0.030 C 
HETATM    3  C3  UNL     1     -43.417   7.261   0.680  1.00 20.00     0.026 C 
HETATM    4  C4  UNL     1     -40.802   6.214  -0.290  1.00 20.00     0.026 C 
HETATM    5  C5  UNL     1     -42.751   7.788  -0.593  1.00 20.00     0.004 C 
HETATM    6  C6  UNL     1     -41.231   7.666  -0.516  1.00 20.00     0.004 C 
ENDROOT
TORSDOF 0
ENDMDL
