MODEL 1
REMARK VINA RESULT:      -3.6      0.000      0.000
REMARK  3 active torsions:
REMARK  status: ('A' for Active; 'I' for Inactive)
REMARK    1  A    between atoms: C3_3  and  S5_5 
REMARK    2  A    between atoms: C4_4  and  S6_6 
REMARK    3  A    between atoms: S5_5  and  S6_6 
ROOT
HETATM    1  S5  UNL     1     -33.795   7.061   5.246  1.00 20.00    -0.098 SA
ENDROOT
BRANCH   1   2
HETATM    2  C3  UNL     1     -34.565   5.476   5.657  1.00 20.00     0.081 C 
HETATM    3  C1  UNL     1     -34.497   4.528   4.475  1.00 20.00     0.017 C 
ENDBRANCH   1   2
BRANCH   1   4
HETATM    4  S6  UNL     1     -33.288   6.780   3.273  1.00 20.00    -0.098 SA
BRANCH   4   5
HETATM    5  C4  UNL     1     -31.949   7.977   3.063  1.00 20.00     0.081 C 
HETATM    6  C2  UNL     1     -32.036   8.642   1.702  1.00 20.00     0.017 C 
ENDBRANCH   4   5
ENDBRANCH   1   4
TORSDOF 3
ENDMDL
MODEL 2
REMARK VINA RESULT:      -3.6      0.099      4.268
REMARK  3 active torsions:
REMARK  status: ('A' for Active; 'I' for Inactive)
REMARK    1  A    between atoms: C3_3  and  S5_5 
REMARK    2  A    between atoms: C4_4  and  S6_6 
REMARK    3  A    between atoms: S5_5  and  S6_6 
ROOT
HETATM    1  S5  UNL     1     -33.341   6.779   3.321  1.00 20.00    -0.098 SA
ENDROOT
BRANCH   1   2
HETATM    2  C3  UNL     1     -31.962   7.940   3.165  1.00 20.00     0.081 C 
HETATM    3  C1  UNL     1     -32.034   8.677   1.842  1.00 20.00     0.017 C 
ENDBRANCH   1   2
BRANCH   1   4
HETATM    4  S6  UNL     1     -33.861   7.011   5.297  1.00 20.00    -0.098 SA
BRANCH   4   5
HETATM    5  C4  UNL     1     -34.595   5.402   5.676  1.00 20.00     0.081 C 
HETATM    6  C2  UNL     1     -34.476   4.469   4.485  1.00 20.00     0.017 C 
ENDBRANCH   4   5
ENDBRANCH   1   4
TORSDOF 3
ENDMDL
MODEL 3
REMARK VINA RESULT:      -3.5      1.378      3.926
REMARK  3 active torsions:
REMARK  status: ('A' for Active; 'I' for Inactive)
REMARK    1  A    between atoms: C3_3  and  S5_5 
REMARK    2  A    between atoms: C4_4  and  S6_6 
REMARK    3  A    between atoms: S5_5  and  S6_6 
ROOT
HETATM    1  S5  UNL     1     -33.159   5.871   2.869  1.00 20.00    -0.098 SA
ENDROOT
BRANCH   1   2
HETATM    2  C3  UNL     1     -32.925   7.630   2.515  1.00 20.00     0.081 C 
HETATM    3  C1  UNL     1     -31.645   8.136   3.150  1.00 20.00     0.017 C 
ENDBRANCH   1   2
BRANCH   1   4
HETATM    4  S6  UNL     1     -34.958   5.881   3.866  1.00 20.00    -0.098 SA
BRANCH   4   5
HETATM    5  C4  UNL     1     -34.421   5.842   5.593  1.00 20.00     0.081 C 
HETATM    6  C2  UNL     1     -33.846   7.185   6.003  1.00 20.00     0.017 C 
ENDBRANCH   4   5
ENDBRANCH   1   4
TORSDOF 3
ENDMDL
MODEL 4
REMARK VINA RESULT:      -3.5      1.418      4.637
REMARK  3 active torsions:
REMARK  status: ('A' for Active; 'I' for Inactive)
REMARK    1  A    between atoms: C3_3  and  S5_5 
REMARK    2  A    between atoms: C4_4  and  S6_6 
REMARK    3  A    between atoms: S5_5  and  S6_6 
ROOT
HETATM    1  S5  UNL     1     -31.820   8.322   2.991  1.00 20.00    -0.098 SA
ENDROOT
BRANCH   1   2
HETATM    2  C3  UNL     1     -32.079   8.792   1.263  1.00 20.00     0.081 C 
HETATM    3  C1  UNL     1     -32.648  10.194   1.172  1.00 20.00     0.017 C 
ENDBRANCH   1   2
BRANCH   1   4
HETATM    4  S6  UNL     1     -33.283   6.902   3.262  1.00 20.00    -0.098 SA
BRANCH   4   5
HETATM    5  C4  UNL     1     -33.703   7.134   5.006  1.00 20.00     0.081 C 
HETATM    6  C2  UNL     1     -34.456   5.929   5.538  1.00 20.00     0.017 C 
ENDBRANCH   4   5
ENDBRANCH   1   4
TORSDOF 3
ENDMDL
MODEL 5
REMARK VINA RESULT:      -3.5      1.425      1.963
REMARK  3 active torsions:
REMARK  status: ('A' for Active; 'I' for Inactive)
REMARK    1  A    between atoms: C3_3  and  S5_5 
REMARK    2  A    between atoms: C4_4  and  S6_6 
REMARK    3  A    between atoms: S5_5  and  S6_6 
ROOT
HETATM    1  S5  UNL     1     -33.283   6.889   3.272  1.00 20.00    -0.098 SA
ENDROOT
BRANCH   1   2
HETATM    2  C3  UNL     1     -33.680   7.150   5.018  1.00 20.00     0.081 C 
HETATM    3  C1  UNL     1     -34.447   5.966   5.572  1.00 20.00     0.017 C 
ENDBRANCH   1   2
BRANCH   1   4
HETATM    4  S6  UNL     1     -31.821   8.301   2.960  1.00 20.00    -0.098 SA
BRANCH   4   5
HETATM    5  C4  UNL     1     -32.140   8.789   1.248  1.00 20.00     0.081 C 
HETATM    6  C2  UNL     1     -32.638  10.221   1.186  1.00 20.00     0.017 C 
ENDBRANCH   4   5
ENDBRANCH   1   4
TORSDOF 3
ENDMDL
MODEL 6
REMARK VINA RESULT:      -3.5      1.375      1.794
REMARK  3 active torsions:
REMARK  status: ('A' for Active; 'I' for Inactive)
REMARK    1  A    between atoms: C3_3  and  S5_5 
REMARK    2  A    between atoms: C4_4  and  S6_6 
REMARK    3  A    between atoms: S5_5  and  S6_6 
ROOT
HETATM    1  S5  UNL     1     -34.941   5.795   3.869  1.00 20.00    -0.098 SA
ENDROOT
BRANCH   1   2
HETATM    2  C3  UNL     1     -34.444   5.801   5.608  1.00 20.00     0.081 C 
HETATM    3  C1  UNL     1     -33.865   7.149   5.992  1.00 20.00     0.017 C 
ENDBRANCH   1   2
BRANCH   1   4
HETATM    4  S6  UNL     1     -33.121   5.850   2.914  1.00 20.00    -0.098 SA
BRANCH   4   5
HETATM    5  C4  UNL     1     -32.957   7.611   2.535  1.00 20.00     0.081 C 
HETATM    6  C2  UNL     1     -31.671   8.164   3.118  1.00 20.00     0.017 C 
ENDBRANCH   4   5
ENDBRANCH   1   4
TORSDOF 3
ENDMDL
MODEL 7
REMARK VINA RESULT:      -3.0      1.708      2.136
REMARK  3 active torsions:
REMARK  status: ('A' for Active; 'I' for Inactive)
REMARK    1  A    between atoms: C3_3  and  S5_5 
REMARK    2  A    between atoms: C4_4  and  S6_6 
REMARK    3  A    between atoms: S5_5  and  S6_6 
ROOT
HETATM    1  S5  UNL     1     -33.212   7.622   3.595  1.00 20.00    -0.098 SA
ENDROOT
BRANCH   1   2
HETATM    2  C3  UNL     1     -33.730   5.951   3.136  1.00 20.00     0.081 C 
HETATM    3  C1  UNL     1     -34.807   5.449   4.078  1.00 20.00     0.017 C 
ENDBRANCH   1   2
BRANCH   1   4
HETATM    4  S6  UNL     1     -31.932   8.100   2.058  1.00 20.00    -0.098 SA
BRANCH   4   5
HETATM    5  C4  UNL     1     -32.659   9.637   1.439  1.00 20.00     0.081 C 
HETATM    6  C2  UNL     1     -32.918   9.540  -0.053  1.00 20.00     0.017 C 
ENDBRANCH   4   5
ENDBRANCH   1   4
TORSDOF 3
ENDMDL
MODEL 8
REMARK VINA RESULT:      -2.9      1.843      2.093
REMARK  3 active torsions:
REMARK  status: ('A' for Active; 'I' for Inactive)
REMARK    1  A    between atoms: C3_3  and  S5_5 
REMARK    2  A    between atoms: C4_4  and  S6_6 
REMARK    3  A    between atoms: S5_5  and  S6_6 
ROOT
HETATM    1  S5  UNL     1     -33.622   7.249   5.334  1.00 20.00    -0.098 SA
ENDROOT
BRANCH   1   2
HETATM    2  C3  UNL     1     -34.875   5.963   5.116  1.00 20.00     0.081 C 
HETATM    3  C1  UNL     1     -34.469   4.695   5.842  1.00 20.00     0.017 C 
ENDBRANCH   1   2
BRANCH   1   4
HETATM    4  S6  UNL     1     -32.807   7.362   3.449  1.00 20.00    -0.098 SA
BRANCH   4   5
HETATM    5  C4  UNL     1     -33.747   6.094   2.565  1.00 20.00     0.081 C 
HETATM    6  C2  UNL     1     -32.942   4.812   2.457  1.00 20.00     0.017 C 
ENDBRANCH   4   5
ENDBRANCH   1   4
TORSDOF 3
ENDMDL
MODEL 9
REMARK VINA RESULT:      -2.6      2.072      3.550
REMARK  3 active torsions:
REMARK  status: ('A' for Active; 'I' for Inactive)
REMARK    1  A    between atoms: C3_3  and  S5_5 
REMARK    2  A    between atoms: C4_4  and  S6_6 
REMARK    3  A    between atoms: S5_5  and  S6_6 
ROOT
HETATM    1  S5  UNL     1     -32.526   7.477   3.220  1.00 20.00    -0.098 SA
ENDROOT
BRANCH   1   2
HETATM    2  C3  UNL     1     -32.598   8.053   4.933  1.00 20.00     0.081 C 
HETATM    3  C1  UNL     1     -33.713   7.350   5.684  1.00 20.00     0.017 C 
ENDBRANCH   1   2
BRANCH   1   4
HETATM    4  S6  UNL     1     -34.246   6.359   3.081  1.00 20.00    -0.098 SA
BRANCH   4   5
HETATM    5  C4  UNL     1     -33.602   4.675   3.224  1.00 20.00     0.081 C 
HETATM    6  C2  UNL     1     -34.193   3.980   4.437  1.00 20.00     0.017 C 
ENDBRANCH   4   5
ENDBRANCH   1   4
TORSDOF 3
ENDMDL
