MODEL 1
REMARK VINA RESULT:      -4.5      0.000      0.000
REMARK  3 active torsions:
REMARK  status: ('A' for Active; 'I' for Inactive)
REMARK    1  A    between atoms: C5_5  and  S7_7 
REMARK    2  A    between atoms: C6_6  and  S8_8 
REMARK    3  A    between atoms: S7_7  and  S8_8 
ROOT
HETATM    1  S7  UNL     1     -32.172   8.148   3.033  1.00 20.00    -0.093 SA
ENDROOT
BRANCH   1   2
HETATM    2  C5  UNL     1     -32.490   8.840   1.375  1.00 20.00     0.050 C 
HETATM    3  C1  UNL     1     -32.808  10.326   1.491  1.00 20.00     0.022 C 
HETATM    4  C2  UNL     1     -31.283   8.598   0.477  1.00 20.00     0.022 C 
ENDBRANCH   1   2
BRANCH   1   5
HETATM    5  S8  UNL     1     -33.241   6.397   2.950  1.00 20.00    -0.093 SA
BRANCH   5   6
HETATM    6  C6  UNL     1     -34.279   6.527   4.425  1.00 20.00     0.050 C 
HETATM    7  C3  UNL     1     -34.641   5.132   4.923  1.00 20.00     0.022 C 
HETATM    8  C4  UNL     1     -33.550   7.328   5.498  1.00 20.00     0.022 C 
ENDBRANCH   5   6
ENDBRANCH   1   5
TORSDOF 3
ENDMDL
MODEL 2
REMARK VINA RESULT:      -4.5      0.020      4.899
REMARK  3 active torsions:
REMARK  status: ('A' for Active; 'I' for Inactive)
REMARK    1  A    between atoms: C5_5  and  S7_7 
REMARK    2  A    between atoms: C6_6  and  S8_8 
REMARK    3  A    between atoms: S7_7  and  S8_8 
ROOT
HETATM    1  S7  UNL     1     -33.227   6.392   2.944  1.00 20.00    -0.093 SA
ENDROOT
BRANCH   1   2
HETATM    2  C5  UNL     1     -34.272   6.548   4.431  1.00 20.00     0.050 C 
HETATM    3  C1  UNL     1     -34.658   5.162   4.934  1.00 20.00     0.022 C 
HETATM    4  C2  UNL     1     -33.530   7.341   5.500  1.00 20.00     0.022 C 
ENDBRANCH   1   2
BRANCH   1   5
HETATM    5  S8  UNL     1     -32.166   8.149   3.013  1.00 20.00    -0.093 SA
BRANCH   5   6
HETATM    6  C6  UNL     1     -32.490   8.842   1.374  1.00 20.00     0.050 C 
HETATM    7  C3  UNL     1     -32.812  10.327   1.498  1.00 20.00     0.022 C 
HETATM    8  C4  UNL     1     -31.286   8.608   0.469  1.00 20.00     0.022 C 
ENDBRANCH   5   6
ENDBRANCH   1   5
TORSDOF 3
ENDMDL
MODEL 3
REMARK VINA RESULT:      -4.0      1.481      1.775
REMARK  3 active torsions:
REMARK  status: ('A' for Active; 'I' for Inactive)
REMARK    1  A    between atoms: C5_5  and  S7_7 
REMARK    2  A    between atoms: C6_6  and  S8_8 
REMARK    3  A    between atoms: S7_7  and  S8_8 
ROOT
HETATM    1  S7  UNL     1     -31.897   8.152   1.894  1.00 20.00    -0.093 SA
ENDROOT
BRANCH   1   2
HETATM    2  C5  UNL     1     -33.028   9.369   1.141  1.00 20.00     0.050 C 
HETATM    3  C1  UNL     1     -32.620  10.777   1.558  1.00 20.00     0.022 C 
HETATM    4  C2  UNL     1     -33.014   9.213  -0.376  1.00 20.00     0.022 C 
ENDBRANCH   1   2
BRANCH   1   5
HETATM    5  S8  UNL     1     -32.953   7.605   3.568  1.00 20.00    -0.093 SA
BRANCH   5   6
HETATM    6  C6  UNL     1     -33.923   6.208   2.953  1.00 20.00     0.050 C 
HETATM    7  C3  UNL     1     -32.998   5.039   2.637  1.00 20.00     0.022 C 
HETATM    8  C4  UNL     1     -34.977   5.820   3.983  1.00 20.00     0.022 C 
ENDBRANCH   5   6
ENDBRANCH   1   5
TORSDOF 3
ENDMDL
MODEL 4
REMARK VINA RESULT:      -4.0      1.370      1.795
REMARK  3 active torsions:
REMARK  status: ('A' for Active; 'I' for Inactive)
REMARK    1  A    between atoms: C5_5  and  S7_7 
REMARK    2  A    between atoms: C6_6  and  S8_8 
REMARK    3  A    between atoms: S7_7  and  S8_8 
ROOT
HETATM    1  S7  UNL     1     -32.961   6.253   2.704  1.00 20.00    -0.093 SA
ENDROOT
BRANCH   1   2
HETATM    2  C5  UNL     1     -32.566   8.033   2.743  1.00 20.00     0.050 C 
HETATM    3  C1  UNL     1     -31.434   8.286   3.732  1.00 20.00     0.022 C 
HETATM    4  C2  UNL     1     -32.197   8.509   1.342  1.00 20.00     0.022 C 
ENDBRANCH   1   2
BRANCH   1   5
HETATM    5  S8  UNL     1     -34.942   6.268   3.245  1.00 20.00    -0.093 SA
BRANCH   5   6
HETATM    6  C6  UNL     1     -34.867   5.635   4.938  1.00 20.00     0.050 C 
HETATM    7  C3  UNL     1     -34.244   4.243   4.938  1.00 20.00     0.022 C 
HETATM    8  C4  UNL     1     -34.075   6.598   5.813  1.00 20.00     0.022 C 
ENDBRANCH   5   6
ENDBRANCH   1   5
TORSDOF 3
ENDMDL
MODEL 5
REMARK VINA RESULT:      -4.0      1.366      4.759
REMARK  3 active torsions:
REMARK  status: ('A' for Active; 'I' for Inactive)
REMARK    1  A    between atoms: C5_5  and  S7_7 
REMARK    2  A    between atoms: C6_6  and  S8_8 
REMARK    3  A    between atoms: S7_7  and  S8_8 
ROOT
HETATM    1  S7  UNL     1     -34.935   6.266   3.231  1.00 20.00    -0.093 SA
ENDROOT
BRANCH   1   2
HETATM    2  C5  UNL     1     -34.864   5.658   4.949  1.00 20.00     0.050 C 
HETATM    3  C1  UNL     1     -34.256   4.261   4.975  1.00 20.00     0.022 C 
HETATM    4  C2  UNL     1     -34.060   6.630   5.805  1.00 20.00     0.022 C 
ENDBRANCH   1   2
BRANCH   1   5
HETATM    5  S8  UNL     1     -32.946   6.266   2.721  1.00 20.00    -0.093 SA
BRANCH   5   6
HETATM    6  C6  UNL     1     -32.558   8.032   2.747  1.00 20.00     0.050 C 
HETATM    7  C3  UNL     1     -31.420   8.294   3.728  1.00 20.00     0.022 C 
HETATM    8  C4  UNL     1     -32.198   8.501   1.342  1.00 20.00     0.022 C 
ENDBRANCH   5   6
ENDBRANCH   1   5
TORSDOF 3
ENDMDL
MODEL 6
REMARK VINA RESULT:      -3.8      0.512      4.671
REMARK  3 active torsions:
REMARK  status: ('A' for Active; 'I' for Inactive)
REMARK    1  A    between atoms: C5_5  and  S7_7 
REMARK    2  A    between atoms: C6_6  and  S8_8 
REMARK    3  A    between atoms: S7_7  and  S8_8 
ROOT
HETATM    1  S7  UNL     1     -33.035   6.739   2.800  1.00 20.00    -0.093 SA
ENDROOT
BRANCH   1   2
HETATM    2  C5  UNL     1     -34.227   6.773   4.179  1.00 20.00     0.050 C 
HETATM    3  C1  UNL     1     -34.790   5.376   4.407  1.00 20.00     0.022 C 
HETATM    4  C2  UNL     1     -33.546   7.310   5.434  1.00 20.00     0.022 C 
ENDBRANCH   1   2
BRANCH   1   5
HETATM    5  S8  UNL     1     -31.810   8.314   3.287  1.00 20.00    -0.093 SA
BRANCH   5   6
HETATM    6  C6  UNL     1     -31.846   9.295   1.768  1.00 20.00     0.050 C 
HETATM    7  C3  UNL     1     -31.458   8.419   0.582  1.00 20.00     0.022 C 
HETATM    8  C4  UNL     1     -33.232   9.901   1.581  1.00 20.00     0.022 C 
ENDBRANCH   5   6
ENDBRANCH   1   5
TORSDOF 3
ENDMDL
MODEL 7
REMARK VINA RESULT:      -3.8      1.417      1.958
REMARK  3 active torsions:
REMARK  status: ('A' for Active; 'I' for Inactive)
REMARK    1  A    between atoms: C5_5  and  S7_7 
REMARK    2  A    between atoms: C6_6  and  S8_8 
REMARK    3  A    between atoms: S7_7  and  S8_8 
ROOT
HETATM    1  S7  UNL     1     -33.011   6.630   2.442  1.00 20.00    -0.093 SA
ENDROOT
BRANCH   1   2
HETATM    2  C5  UNL     1     -31.828   8.017   2.376  1.00 20.00     0.050 C 
HETATM    3  C1  UNL     1     -32.427   9.164   1.572  1.00 20.00     0.022 C 
HETATM    4  C2  UNL     1     -31.471   8.456   3.792  1.00 20.00     0.022 C 
ENDBRANCH   1   2
BRANCH   1   5
HETATM    5  S8  UNL     1     -33.991   7.020   4.204  1.00 20.00    -0.093 SA
BRANCH   5   6
HETATM    6  C6  UNL     1     -34.729   5.412   4.580  1.00 20.00     0.050 C 
HETATM    7  C3  UNL     1     -34.023   4.323   3.781  1.00 20.00     0.022 C 
HETATM    8  C4  UNL     1     -34.645   5.145   6.078  1.00 20.00     0.022 C 
ENDBRANCH   5   6
ENDBRANCH   1   5
TORSDOF 3
ENDMDL
MODEL 8
REMARK VINA RESULT:      -3.7      1.541      2.155
REMARK  3 active torsions:
REMARK  status: ('A' for Active; 'I' for Inactive)
REMARK    1  A    between atoms: C5_5  and  S7_7 
REMARK    2  A    between atoms: C6_6  and  S8_8 
REMARK    3  A    between atoms: S7_7  and  S8_8 
ROOT
HETATM    1  S7  UNL     1     -31.501   8.313   1.125  1.00 20.00    -0.093 SA
ENDROOT
BRANCH   1   2
HETATM    2  C5  UNL     1     -32.290   9.827   0.480  1.00 20.00     0.050 C 
HETATM    3  C1  UNL     1     -33.353   9.455  -0.547  1.00 20.00     0.022 C 
HETATM    4  C2  UNL     1     -32.886  10.627   1.633  1.00 20.00     0.022 C 
ENDBRANCH   1   2
BRANCH   1   5
HETATM    5  S8  UNL     1     -31.887   8.484   3.134  1.00 20.00    -0.093 SA
BRANCH   5   6
HETATM    6  C6  UNL     1     -33.306   7.380   3.333  1.00 20.00     0.050 C 
HETATM    7  C3  UNL     1     -32.994   6.025   2.708  1.00 20.00     0.022 C 
HETATM    8  C4  UNL     1     -33.650   7.245   4.812  1.00 20.00     0.022 C 
ENDBRANCH   5   6
ENDBRANCH   1   5
TORSDOF 3
ENDMDL
MODEL 9
REMARK VINA RESULT:      -3.4      1.413      4.673
REMARK  3 active torsions:
REMARK  status: ('A' for Active; 'I' for Inactive)
REMARK    1  A    between atoms: C5_5  and  S7_7 
REMARK    2  A    between atoms: C6_6  and  S8_8 
REMARK    3  A    between atoms: S7_7  and  S8_8 
ROOT
HETATM    1  S7  UNL     1     -33.722   7.652   2.452  1.00 20.00    -0.093 SA
ENDROOT
BRANCH   1   2
HETATM    2  C5  UNL     1     -33.396   6.234   3.552  1.00 20.00     0.050 C 
HETATM    3  C1  UNL     1     -34.583   6.022   4.483  1.00 20.00     0.022 C 
HETATM    4  C2  UNL     1     -33.113   4.990   2.717  1.00 20.00     0.022 C 
ENDBRANCH   1   2
BRANCH   1   5
HETATM    5  S8  UNL     1     -31.818   8.331   2.094  1.00 20.00    -0.093 SA
BRANCH   5   6
HETATM    6  C6  UNL     1     -32.113   9.632   0.873  1.00 20.00     0.050 C 
HETATM    7  C3  UNL     1     -32.937   9.075  -0.283  1.00 20.00     0.022 C 
HETATM    8  C4  UNL     1     -32.813  10.812   1.537  1.00 20.00     0.022 C 
ENDBRANCH   5   6
ENDBRANCH   1   5
TORSDOF 3
ENDMDL
