MODEL 1
REMARK VINA RESULT:      -6.6      0.000      0.000
REMARK  1 active torsions:
REMARK  status: ('A' for Active; 'I' for Inactive)
REMARK    1  A    between atoms: C6_6  and  C8_8 
ROOT
HETATM    1  C1  UNL     1     -34.665   5.121   5.600  1.00 20.00     0.000 A 
HETATM    2  C2  UNL     1     -34.464   4.606   4.319  1.00 20.00     0.001 A 
HETATM    3  C3  UNL     1     -34.266   6.425   5.898  1.00 20.00     0.001 A 
HETATM    4  C4  UNL     1     -33.865   5.393   3.336  1.00 20.00     0.007 A 
HETATM    5  C5  UNL     1     -33.666   7.213   4.915  1.00 20.00     0.007 A 
HETATM    6  C6  UNL     1     -33.467   6.697   3.634  1.00 20.00    -0.059 A 
ENDROOT
BRANCH   6   7
HETATM    7  C8  UNL     1     -32.825   7.539   2.584  1.00 20.00     0.034 C 
HETATM    8  C7  UNL     1     -31.596   8.279   3.103  1.00 20.00     0.010 C 
ENDBRANCH   6   7
TORSDOF 1
ENDMDL
MODEL 2
REMARK VINA RESULT:      -6.6      0.009      1.709
REMARK  1 active torsions:
REMARK  status: ('A' for Active; 'I' for Inactive)
REMARK    1  A    between atoms: C6_6  and  C8_8 
ROOT
HETATM    1  C1  UNL     1     -34.665   5.125   5.596  1.00 20.00     0.000 A 
HETATM    2  C2  UNL     1     -34.261   6.426   5.897  1.00 20.00     0.001 A 
HETATM    3  C3  UNL     1     -34.470   4.614   4.313  1.00 20.00     0.001 A 
HETATM    4  C4  UNL     1     -33.664   7.216   4.916  1.00 20.00     0.007 A 
HETATM    5  C5  UNL     1     -33.872   5.404   3.331  1.00 20.00     0.007 A 
HETATM    6  C6  UNL     1     -33.469   6.705   3.633  1.00 20.00    -0.059 A 
ENDROOT
BRANCH   6   7
HETATM    7  C8  UNL     1     -32.829   7.549   2.582  1.00 20.00     0.034 C 
HETATM    8  C7  UNL     1     -31.593   8.281   3.098  1.00 20.00     0.010 C 
ENDBRANCH   6   7
TORSDOF 1
ENDMDL
MODEL 3
REMARK VINA RESULT:      -6.3      0.814      1.956
REMARK  1 active torsions:
REMARK  status: ('A' for Active; 'I' for Inactive)
REMARK    1  A    between atoms: C6_6  and  C8_8 
ROOT
HETATM    1  C1  UNL     1     -34.689   5.699   5.101  1.00 20.00     0.000 A 
HETATM    2  C2  UNL     1     -34.056   6.754   5.757  1.00 20.00     0.001 A 
HETATM    3  C3  UNL     1     -34.402   5.438   3.761  1.00 20.00     0.001 A 
HETATM    4  C4  UNL     1     -33.136   7.549   5.074  1.00 20.00     0.007 A 
HETATM    5  C5  UNL     1     -33.481   6.233   3.077  1.00 20.00     0.007 A 
HETATM    6  C6  UNL     1     -32.848   7.288   3.734  1.00 20.00    -0.059 A 
ENDROOT
BRANCH   6   7
HETATM    7  C8  UNL     1     -31.864   8.138   3.003  1.00 20.00     0.034 C 
HETATM    8  C7  UNL     1     -32.439   8.710   1.710  1.00 20.00     0.010 C 
ENDBRANCH   6   7
TORSDOF 1
ENDMDL
MODEL 4
REMARK VINA RESULT:      -6.3      0.815      1.007
REMARK  1 active torsions:
REMARK  status: ('A' for Active; 'I' for Inactive)
REMARK    1  A    between atoms: C6_6  and  C8_8 
ROOT
HETATM    1  C1  UNL     1     -34.680   5.701   5.115  1.00 20.00     0.000 A 
HETATM    2  C2  UNL     1     -34.393   5.436   3.776  1.00 20.00     0.001 A 
HETATM    3  C3  UNL     1     -34.049   6.760   5.767  1.00 20.00     0.001 A 
HETATM    4  C4  UNL     1     -33.475   6.230   3.089  1.00 20.00     0.007 A 
HETATM    5  C5  UNL     1     -33.131   7.555   5.080  1.00 20.00     0.007 A 
HETATM    6  C6  UNL     1     -32.845   7.290   3.741  1.00 20.00    -0.059 A 
ENDROOT
BRANCH   6   7
HETATM    7  C8  UNL     1     -31.862   8.139   3.007  1.00 20.00     0.034 C 
HETATM    8  C7  UNL     1     -32.450   8.734   1.730  1.00 20.00     0.010 C 
ENDBRANCH   6   7
TORSDOF 1
ENDMDL
MODEL 5
REMARK VINA RESULT:      -5.3      0.903      3.363
REMARK  1 active torsions:
REMARK  status: ('A' for Active; 'I' for Inactive)
REMARK    1  A    between atoms: C6_6  and  C8_8 
ROOT
HETATM    1  C1  UNL     1     -31.821   8.261   3.303  1.00 20.00     0.000 A 
HETATM    2  C2  UNL     1     -32.395   7.461   2.315  1.00 20.00     0.001 A 
HETATM    3  C3  UNL     1     -32.289   8.192   4.616  1.00 20.00     0.001 A 
HETATM    4  C4  UNL     1     -33.437   6.593   2.638  1.00 20.00     0.007 A 
HETATM    5  C5  UNL     1     -33.332   7.323   4.939  1.00 20.00     0.007 A 
HETATM    6  C6  UNL     1     -33.905   6.524   3.950  1.00 20.00    -0.059 A 
ENDROOT
BRANCH   6   7
HETATM    7  C8  UNL     1     -35.020   5.596   4.297  1.00 20.00     0.034 C 
HETATM    8  C7  UNL     1     -34.691   4.716   5.500  1.00 20.00     0.010 C 
ENDBRANCH   6   7
TORSDOF 1
ENDMDL
MODEL 6
REMARK VINA RESULT:      -5.3      0.898      3.714
REMARK  1 active torsions:
REMARK  status: ('A' for Active; 'I' for Inactive)
REMARK    1  A    between atoms: C6_6  and  C8_8 
ROOT
HETATM    1  C1  UNL     1     -31.818   8.288   3.316  1.00 20.00     0.000 A 
HETATM    2  C2  UNL     1     -32.276   8.185   4.630  1.00 20.00     0.001 A 
HETATM    3  C3  UNL     1     -32.400   7.514   2.312  1.00 20.00     0.001 A 
HETATM    4  C4  UNL     1     -33.315   7.309   4.940  1.00 20.00     0.007 A 
HETATM    5  C5  UNL     1     -33.440   6.637   2.622  1.00 20.00     0.007 A 
HETATM    6  C6  UNL     1     -33.897   6.535   3.936  1.00 20.00    -0.059 A 
ENDROOT
BRANCH   6   7
HETATM    7  C8  UNL     1     -35.009   5.597   4.266  1.00 20.00     0.034 C 
HETATM    8  C7  UNL     1     -34.730   4.790   5.532  1.00 20.00     0.010 C 
ENDBRANCH   6   7
TORSDOF 1
ENDMDL
MODEL 7
REMARK VINA RESULT:      -5.0      1.129      2.474
REMARK  1 active torsions:
REMARK  status: ('A' for Active; 'I' for Inactive)
REMARK    1  A    between atoms: C6_6  and  C8_8 
ROOT
HETATM    1  C1  UNL     1     -34.066   6.960   6.296  1.00 20.00     0.000 A 
HETATM    2  C2  UNL     1     -33.343   7.719   5.376  1.00 20.00     0.001 A 
HETATM    3  C3  UNL     1     -34.674   5.770   5.894  1.00 20.00     0.001 A 
HETATM    4  C4  UNL     1     -33.227   7.290   4.055  1.00 20.00     0.007 A 
HETATM    5  C5  UNL     1     -34.558   5.340   4.571  1.00 20.00     0.007 A 
HETATM    6  C6  UNL     1     -33.835   6.100   3.652  1.00 20.00    -0.059 A 
ENDROOT
BRANCH   6   7
HETATM    7  C8  UNL     1     -33.712   5.640   2.239  1.00 20.00     0.034 C 
HETATM    8  C7  UNL     1     -32.906   4.350   2.116  1.00 20.00     0.010 C 
ENDBRANCH   6   7
TORSDOF 1
ENDMDL
MODEL 8
REMARK VINA RESULT:      -5.0      1.135      2.135
REMARK  1 active torsions:
REMARK  status: ('A' for Active; 'I' for Inactive)
REMARK    1  A    between atoms: C6_6  and  C8_8 
ROOT
HETATM    1  C1  UNL     1     -34.055   6.951   6.318  1.00 20.00     0.000 A 
HETATM    2  C2  UNL     1     -34.656   5.765   5.898  1.00 20.00     0.001 A 
HETATM    3  C3  UNL     1     -33.334   7.727   5.411  1.00 20.00     0.001 A 
HETATM    4  C4  UNL     1     -34.537   5.354   4.570  1.00 20.00     0.007 A 
HETATM    5  C5  UNL     1     -33.214   7.317   4.083  1.00 20.00     0.007 A 
HETATM    6  C6  UNL     1     -33.816   6.131   3.663  1.00 20.00    -0.059 A 
ENDROOT
BRANCH   6   7
HETATM    7  C8  UNL     1     -33.688   5.693   2.243  1.00 20.00     0.034 C 
HETATM    8  C7  UNL     1     -32.924   4.378   2.108  1.00 20.00     0.010 C 
ENDBRANCH   6   7
TORSDOF 1
ENDMDL
MODEL 9
REMARK VINA RESULT:      -4.3      1.341      2.786
REMARK  1 active torsions:
REMARK  status: ('A' for Active; 'I' for Inactive)
REMARK    1  A    between atoms: C6_6  and  C8_8 
ROOT
HETATM    1  C1  UNL     1     -33.375   4.491   2.569  1.00 20.00     0.000 A 
HETATM    2  C2  UNL     1     -33.914   3.826   3.670  1.00 20.00     0.001 A 
HETATM    3  C3  UNL     1     -33.190   5.873   2.610  1.00 20.00     0.001 A 
HETATM    4  C4  UNL     1     -34.270   4.543   4.812  1.00 20.00     0.007 A 
HETATM    5  C5  UNL     1     -33.546   6.591   3.753  1.00 20.00     0.007 A 
HETATM    6  C6  UNL     1     -34.085   5.925   4.854  1.00 20.00    -0.059 A 
ENDROOT
BRANCH   6   7
HETATM    7  C8  UNL     1     -34.466   6.693   6.075  1.00 20.00     0.034 C 
HETATM    8  C7  UNL     1     -33.530   7.870   6.336  1.00 20.00     0.010 C 
ENDBRANCH   6   7
TORSDOF 1
ENDMDL
