MODEL 1
REMARK VINA RESULT:      -5.9      0.000      0.000
REMARK  0 active torsions:
REMARK  status: ('A' for Active; 'I' for Inactive)
ROOT
HETATM    1  C1  UNL     1     -33.903   4.959   3.260  1.00 20.00     0.000 A 
HETATM    2  C2  UNL     1     -34.454   4.491   4.453  1.00 20.00     0.003 A 
HETATM    3  C3  UNL     1     -33.449   6.274   3.169  1.00 20.00     0.003 A 
HETATM    4  C4  UNL     1     -34.547   5.339   5.556  1.00 20.00     0.042 A 
HETATM    5  C5  UNL     1     -33.543   7.123   4.273  1.00 20.00     0.042 A 
HETATM    6  C6  UNL     1     -34.093   6.654   5.466  1.00 20.00     0.116 A 
HETATM    7  F7  UNL     1     -34.184   7.469   6.526  1.00 20.00    -0.206 F 
ENDROOT
TORSDOF 0
ENDMDL
MODEL 2
REMARK VINA RESULT:      -5.9      0.002      1.826
REMARK  0 active torsions:
REMARK  status: ('A' for Active; 'I' for Inactive)
ROOT
HETATM    1  C1  UNL     1     -33.903   4.961   3.259  1.00 20.00     0.000 A 
HETATM    2  C2  UNL     1     -33.445   6.275   3.169  1.00 20.00     0.003 A 
HETATM    3  C3  UNL     1     -34.454   4.493   4.451  1.00 20.00     0.003 A 
HETATM    4  C4  UNL     1     -33.541   7.123   4.273  1.00 20.00     0.042 A 
HETATM    5  C5  UNL     1     -34.549   5.340   5.556  1.00 20.00     0.042 A 
HETATM    6  C6  UNL     1     -34.092   6.655   5.466  1.00 20.00     0.116 A 
HETATM    7  F7  UNL     1     -34.183   7.469   6.526  1.00 20.00    -0.206 F 
ENDROOT
TORSDOF 0
ENDMDL
MODEL 3
REMARK VINA RESULT:      -5.9      1.603      2.401
REMARK  0 active torsions:
REMARK  status: ('A' for Active; 'I' for Inactive)
ROOT
HETATM    1  C1  UNL     1     -34.618   5.140   5.570  1.00 20.00     0.000 A 
HETATM    2  C2  UNL     1     -34.437   4.638   4.281  1.00 20.00     0.003 A 
HETATM    3  C3  UNL     1     -34.236   6.447   5.870  1.00 20.00     0.003 A 
HETATM    4  C4  UNL     1     -33.876   5.446   3.292  1.00 20.00     0.042 A 
HETATM    5  C5  UNL     1     -33.675   7.255   4.880  1.00 20.00     0.042 A 
HETATM    6  C6  UNL     1     -33.495   6.753   3.591  1.00 20.00     0.116 A 
HETATM    7  F7  UNL     1     -32.956   7.528   2.641  1.00 20.00    -0.206 F 
ENDROOT
TORSDOF 0
ENDMDL
MODEL 4
REMARK VINA RESULT:      -5.9      1.603      2.561
REMARK  0 active torsions:
REMARK  status: ('A' for Active; 'I' for Inactive)
ROOT
HETATM    1  C1  UNL     1     -34.615   5.137   5.568  1.00 20.00     0.000 A 
HETATM    2  C2  UNL     1     -34.234   6.445   5.869  1.00 20.00     0.003 A 
HETATM    3  C3  UNL     1     -34.438   4.638   4.278  1.00 20.00     0.003 A 
HETATM    4  C4  UNL     1     -33.675   7.252   4.879  1.00 20.00     0.042 A 
HETATM    5  C5  UNL     1     -33.879   5.446   3.288  1.00 20.00     0.042 A 
HETATM    6  C6  UNL     1     -33.498   6.753   3.589  1.00 20.00     0.116 A 
HETATM    7  F7  UNL     1     -32.961   7.530   2.638  1.00 20.00    -0.206 F 
ENDROOT
TORSDOF 0
ENDMDL
MODEL 5
REMARK VINA RESULT:      -5.7      1.999      3.218
REMARK  0 active torsions:
REMARK  status: ('A' for Active; 'I' for Inactive)
ROOT
HETATM    1  C1  UNL     1     -34.338   6.394   5.879  1.00 20.00     0.000 A 
HETATM    2  C2  UNL     1     -33.735   7.209   4.921  1.00 20.00     0.003 A 
HETATM    3  C3  UNL     1     -34.636   5.065   5.577  1.00 20.00     0.003 A 
HETATM    4  C4  UNL     1     -33.429   6.694   3.661  1.00 20.00     0.042 A 
HETATM    5  C5  UNL     1     -34.331   4.551   4.316  1.00 20.00     0.042 A 
HETATM    6  C6  UNL     1     -33.727   5.366   3.359  1.00 20.00     0.116 A 
HETATM    7  F7  UNL     1     -33.434   4.872   2.149  1.00 20.00    -0.206 F 
ENDROOT
TORSDOF 0
ENDMDL
MODEL 6
REMARK VINA RESULT:      -5.6      1.675      2.469
REMARK  0 active torsions:
REMARK  status: ('A' for Active; 'I' for Inactive)
ROOT
HETATM    1  C1  UNL     1     -33.133   7.657   4.421  1.00 20.00     0.000 A 
HETATM    2  C2  UNL     1     -33.715   7.201   5.604  1.00 20.00     0.003 A 
HETATM    3  C3  UNL     1     -33.196   6.878   3.267  1.00 20.00     0.003 A 
HETATM    4  C4  UNL     1     -34.363   5.966   5.630  1.00 20.00     0.042 A 
HETATM    5  C5  UNL     1     -33.843   5.642   3.293  1.00 20.00     0.042 A 
HETATM    6  C6  UNL     1     -34.426   5.187   4.476  1.00 20.00     0.116 A 
HETATM    7  F7  UNL     1     -35.048   4.000   4.502  1.00 20.00    -0.206 F 
ENDROOT
TORSDOF 0
ENDMDL
MODEL 7
REMARK VINA RESULT:      -5.6      1.678      2.795
REMARK  0 active torsions:
REMARK  status: ('A' for Active; 'I' for Inactive)
ROOT
HETATM    1  C1  UNL     1     -33.159   7.646   4.415  1.00 20.00     0.000 A 
HETATM    2  C2  UNL     1     -33.193   6.860   3.263  1.00 20.00     0.003 A 
HETATM    3  C3  UNL     1     -33.751   7.187   5.591  1.00 20.00     0.003 A 
HETATM    4  C4  UNL     1     -33.818   5.613   3.290  1.00 20.00     0.042 A 
HETATM    5  C5  UNL     1     -34.377   5.940   5.617  1.00 20.00     0.042 A 
HETATM    6  C6  UNL     1     -34.410   5.154   4.466  1.00 20.00     0.116 A 
HETATM    7  F7  UNL     1     -35.011   3.957   4.490  1.00 20.00    -0.206 F 
ENDROOT
TORSDOF 0
ENDMDL
MODEL 8
REMARK VINA RESULT:      -5.5      1.148      2.151
REMARK  0 active torsions:
REMARK  status: ('A' for Active; 'I' for Inactive)
ROOT
HETATM    1  C1  UNL     1     -32.960   7.044   3.155  1.00 20.00     0.000 A 
HETATM    2  C2  UNL     1     -33.046   7.617   4.424  1.00 20.00     0.003 A 
HETATM    3  C3  UNL     1     -33.608   5.838   2.889  1.00 20.00     0.003 A 
HETATM    4  C4  UNL     1     -33.781   6.984   5.426  1.00 20.00     0.042 A 
HETATM    5  C5  UNL     1     -34.342   5.204   3.892  1.00 20.00     0.042 A 
HETATM    6  C6  UNL     1     -34.428   5.778   5.160  1.00 20.00     0.116 A 
HETATM    7  F7  UNL     1     -35.134   5.170   6.123  1.00 20.00    -0.206 F 
ENDROOT
TORSDOF 0
ENDMDL
MODEL 9
REMARK VINA RESULT:      -3.6      9.402      9.714
REMARK  0 active torsions:
REMARK  status: ('A' for Active; 'I' for Inactive)
ROOT
HETATM    1  C1  UNL     1     -42.443   5.699   1.054  1.00 20.00     0.000 A 
HETATM    2  C2  UNL     1     -41.205   5.786   0.419  1.00 20.00     0.003 A 
HETATM    3  C3  UNL     1     -43.417   6.669   0.819  1.00 20.00     0.003 A 
HETATM    4  C4  UNL     1     -40.941   6.843  -0.453  1.00 20.00     0.042 A 
HETATM    5  C5  UNL     1     -43.154   7.726  -0.052  1.00 20.00     0.042 A 
HETATM    6  C6  UNL     1     -41.915   7.812  -0.688  1.00 20.00     0.116 A 
HETATM    7  F7  UNL     1     -41.662   8.828  -1.524  1.00 20.00    -0.206 F 
ENDROOT
TORSDOF 0
ENDMDL
