MODEL 1
REMARK VINA RESULT:      -6.7      0.000      0.000
REMARK  0 active torsions:
REMARK  status: ('A' for Active; 'I' for Inactive)
ROOT
HETATM    1  C1  UNL     1     -34.941   5.420   4.644  1.00 20.00     0.001 A 
HETATM    2  C2  UNL     1     -34.542   6.109   5.801  1.00 20.00     0.001 A 
HETATM    3  C3  UNL     1     -34.387   5.732   3.399  1.00 20.00     0.012 A 
HETATM    4  C4  UNL     1     -33.583   7.123   5.736  1.00 20.00     0.008 A 
HETATM    5  C5  UNL     1     -33.437   6.736   3.342  1.00 20.00    -0.030 A 
HETATM    6  C6  UNL     1     -33.041   7.424   4.498  1.00 20.00    -0.044 A 
HETATM    7  C7  UNL     1     -32.705   7.264   2.205  1.00 20.00     0.008 A 
HETATM    8  C8  UNL     1     -31.895   8.235   2.653  1.00 20.00    -0.021 A 
HETATM    9  C9  UNL     1     -32.010   8.450   4.144  1.00 20.00     0.066 A 
ENDROOT
TORSDOF 0
ENDMDL
MODEL 2
REMARK VINA RESULT:      -6.7      0.096      1.981
REMARK  0 active torsions:
REMARK  status: ('A' for Active; 'I' for Inactive)
ROOT
HETATM    1  C1  UNL     1     -34.469   6.192   5.846  1.00 20.00     0.001 A 
HETATM    2  C2  UNL     1     -34.919   5.497   4.710  1.00 20.00     0.001 A 
HETATM    3  C3  UNL     1     -33.488   7.181   5.737  1.00 20.00     0.012 A 
HETATM    4  C4  UNL     1     -34.395   5.778   3.446  1.00 20.00     0.008 A 
HETATM    5  C5  UNL     1     -32.975   7.453   4.482  1.00 20.00    -0.030 A 
HETATM    6  C6  UNL     1     -33.423   6.758   3.350  1.00 20.00    -0.044 A 
HETATM    7  C7  UNL     1     -31.962   8.413   4.076  1.00 20.00     0.008 A 
HETATM    8  C8  UNL     1     -31.803   8.304   2.748  1.00 20.00    -0.021 A 
HETATM    9  C9  UNL     1     -32.700   7.254   2.136  1.00 20.00     0.066 A 
ENDROOT
TORSDOF 0
ENDMDL
MODEL 3
REMARK VINA RESULT:      -6.3      0.558      3.690
REMARK  0 active torsions:
REMARK  status: ('A' for Active; 'I' for Inactive)
ROOT
HETATM    1  C1  UNL     1     -32.087   8.121   2.929  1.00 20.00     0.001 A 
HETATM    2  C2  UNL     1     -32.640   7.203   2.021  1.00 20.00     0.001 A 
HETATM    3  C3  UNL     1     -32.447   8.095   4.280  1.00 20.00     0.012 A 
HETATM    4  C4  UNL     1     -33.562   6.243   2.445  1.00 20.00     0.008 A 
HETATM    5  C5  UNL     1     -33.360   7.142   4.692  1.00 20.00    -0.030 A 
HETATM    6  C6  UNL     1     -33.911   6.227   3.784  1.00 20.00    -0.044 A 
HETATM    7  C7  UNL     1     -33.908   6.885   6.012  1.00 20.00     0.008 A 
HETATM    8  C8  UNL     1     -34.761   5.854   5.909  1.00 20.00    -0.021 A 
HETATM    9  C9  UNL     1     -34.862   5.319   4.500  1.00 20.00     0.066 A 
ENDROOT
TORSDOF 0
ENDMDL
MODEL 4
REMARK VINA RESULT:      -6.3      0.558      3.131
REMARK  0 active torsions:
REMARK  status: ('A' for Active; 'I' for Inactive)
ROOT
HETATM    1  C1  UNL     1     -32.679   7.052   2.011  1.00 20.00     0.001 A 
HETATM    2  C2  UNL     1     -32.103   8.027   2.843  1.00 20.00     0.001 A 
HETATM    3  C3  UNL     1     -33.593   6.126   2.522  1.00 20.00     0.012 A 
HETATM    4  C4  UNL     1     -32.429   8.094   4.199  1.00 20.00     0.008 A 
HETATM    5  C5  UNL     1     -33.911   6.199   3.865  1.00 20.00    -0.030 A 
HETATM    6  C6  UNL     1     -33.335   7.172   4.694  1.00 20.00    -0.044 A 
HETATM    7  C7  UNL     1     -34.815   5.381   4.656  1.00 20.00     0.008 A 
HETATM    8  C8  UNL     1     -34.786   5.840   5.917  1.00 20.00    -0.021 A 
HETATM    9  C9  UNL     1     -33.856   7.017   6.089  1.00 20.00     0.066 A 
ENDROOT
TORSDOF 0
ENDMDL
MODEL 5
REMARK VINA RESULT:      -5.4      0.965      3.525
REMARK  0 active torsions:
REMARK  status: ('A' for Active; 'I' for Inactive)
ROOT
HETATM    1  C1  UNL     1     -32.953   8.363   5.279  1.00 20.00     0.001 A 
HETATM    2  C2  UNL     1     -32.444   8.237   3.976  1.00 20.00     0.001 A 
HETATM    3  C3  UNL     1     -33.705   7.334   5.855  1.00 20.00     0.012 A 
HETATM    4  C4  UNL     1     -32.677   7.083   3.224  1.00 20.00     0.008 A 
HETATM    5  C5  UNL     1     -33.931   6.195   5.105  1.00 20.00    -0.030 A 
HETATM    6  C6  UNL     1     -33.423   6.072   3.804  1.00 20.00    -0.044 A 
HETATM    7  C7  UNL     1     -34.666   4.987   5.440  1.00 20.00     0.008 A 
HETATM    8  C8  UNL     1     -34.606   4.164   4.383  1.00 20.00    -0.021 A 
HETATM    9  C9  UNL     1     -33.819   4.746   3.233  1.00 20.00     0.066 A 
ENDROOT
TORSDOF 0
ENDMDL
MODEL 6
REMARK VINA RESULT:      -5.3      1.101      2.508
REMARK  0 active torsions:
REMARK  status: ('A' for Active; 'I' for Inactive)
ROOT
HETATM    1  C1  UNL     1     -34.510   4.034   4.466  1.00 20.00     0.001 A 
HETATM    2  C2  UNL     1     -33.882   4.215   3.222  1.00 20.00     0.001 A 
HETATM    3  C3  UNL     1     -34.497   5.048   5.428  1.00 20.00     0.012 A 
HETATM    4  C4  UNL     1     -33.229   5.411   2.917  1.00 20.00     0.008 A 
HETATM    5  C5  UNL     1     -33.850   6.230   5.118  1.00 20.00    -0.030 A 
HETATM    6  C6  UNL     1     -33.222   6.409   3.877  1.00 20.00    -0.044 A 
HETATM    7  C7  UNL     1     -33.679   7.436   5.910  1.00 20.00     0.008 A 
HETATM    8  C8  UNL     1     -32.975   8.312   5.178  1.00 20.00    -0.021 A 
HETATM    9  C9  UNL     1     -32.606   7.772   3.816  1.00 20.00     0.066 A 
ENDROOT
TORSDOF 0
ENDMDL
MODEL 7
REMARK VINA RESULT:      -5.2      1.163      2.800
REMARK  0 active torsions:
REMARK  status: ('A' for Active; 'I' for Inactive)
ROOT
HETATM    1  C1  UNL     1     -33.320   8.001   5.318  1.00 20.00     0.001 A 
HETATM    2  C2  UNL     1     -34.047   7.184   6.201  1.00 20.00     0.001 A 
HETATM    3  C3  UNL     1     -32.931   7.527   4.062  1.00 20.00     0.012 A 
HETATM    4  C4  UNL     1     -34.398   5.880   5.845  1.00 20.00     0.008 A 
HETATM    5  C5  UNL     1     -33.283   6.235   3.716  1.00 20.00    -0.030 A 
HETATM    6  C6  UNL     1     -34.008   5.421   4.599  1.00 20.00    -0.044 A 
HETATM    7  C7  UNL     1     -33.018   5.490   2.498  1.00 20.00     0.008 A 
HETATM    8  C8  UNL     1     -33.560   4.271   2.636  1.00 20.00    -0.021 A 
HETATM    9  C9  UNL     1     -34.246   4.084   3.969  1.00 20.00     0.066 A 
ENDROOT
TORSDOF 0
ENDMDL
MODEL 8
REMARK VINA RESULT:      -4.7     11.630     12.207
REMARK  0 active torsions:
REMARK  status: ('A' for Active; 'I' for Inactive)
ROOT
HETATM    1  C1  UNL     1     -33.309  18.935   1.268  1.00 20.00     0.001 A 
HETATM    2  C2  UNL     1     -32.153  18.947   0.469  1.00 20.00     0.001 A 
HETATM    3  C3  UNL     1     -34.477  18.307   0.826  1.00 20.00     0.012 A 
HETATM    4  C4  UNL     1     -32.143  18.331  -0.785  1.00 20.00     0.008 A 
HETATM    5  C5  UNL     1     -34.459  17.699  -0.416  1.00 20.00    -0.030 A 
HETATM    6  C6  UNL     1     -33.305  17.713  -1.212  1.00 20.00    -0.044 A 
HETATM    7  C7  UNL     1     -35.509  16.983  -1.120  1.00 20.00     0.008 A 
HETATM    8  C8  UNL     1     -35.011  16.578  -2.298  1.00 20.00    -0.021 A 
HETATM    9  C9  UNL     1     -33.570  16.987  -2.495  1.00 20.00     0.066 A 
ENDROOT
TORSDOF 0
ENDMDL
MODEL 9
REMARK VINA RESULT:      -4.7     11.628     12.169
REMARK  0 active torsions:
REMARK  status: ('A' for Active; 'I' for Inactive)
ROOT
HETATM    1  C1  UNL     1     -32.198  18.962   0.501  1.00 20.00     0.001 A 
HETATM    2  C2  UNL     1     -33.383  18.942   1.256  1.00 20.00     0.001 A 
HETATM    3  C3  UNL     1     -32.138  18.339  -0.750  1.00 20.00     0.012 A 
HETATM    4  C4  UNL     1     -34.527  18.300   0.778  1.00 20.00     0.008 A 
HETATM    5  C5  UNL     1     -33.275  17.706  -1.217  1.00 20.00    -0.030 A 
HETATM    6  C6  UNL     1     -34.456  17.686  -0.460  1.00 20.00    -0.044 A 
HETATM    7  C7  UNL     1     -33.499  16.987  -2.460  1.00 20.00     0.008 A 
HETATM    8  C8  UNL     1     -34.767  16.549  -2.457  1.00 20.00    -0.021 A 
HETATM    9  C9  UNL     1     -35.516  16.936  -1.204  1.00 20.00     0.066 A 
ENDROOT
TORSDOF 0
ENDMDL
