MODEL 1
REMARK VINA RESULT:      -6.4      0.000      0.000
REMARK  0 active torsions:
REMARK  status: ('A' for Active; 'I' for Inactive)
ROOT
HETATM    1  C1  UNL     1     -34.944   5.361   4.456  1.00 20.00     0.001 A 
HETATM    2  C2  UNL     1     -34.685   5.943   5.694  1.00 20.00     0.002 A 
HETATM    3  C3  UNL     1     -34.246   5.767   3.313  1.00 20.00     0.014 A 
HETATM    4  C4  UNL     1     -33.722   6.949   5.831  1.00 20.00     0.030 A 
HETATM    5  C5  UNL     1     -32.398   7.421   2.505  1.00 20.00     0.030 A 
HETATM    6  C6  UNL     1     -31.659   8.347   3.204  1.00 20.00     0.089 A 
HETATM    7  C7  UNL     1     -33.272   6.778   3.426  1.00 20.00    -0.008 A 
HETATM    8  C8  UNL     1     -33.033   7.345   4.679  1.00 20.00     0.042 A 
HETATM    9  N9  UNL     1     -32.049   8.293   4.515  1.00 20.00    -0.365 N 
HETATM   10  H16 UNL     1     -31.670   8.867   5.256  1.00 20.00     0.165 HD
ENDROOT
TORSDOF 0
ENDMDL
MODEL 2
REMARK VINA RESULT:      -6.2      0.970      1.952
REMARK  0 active torsions:
REMARK  status: ('A' for Active; 'I' for Inactive)
ROOT
HETATM    1  C1  UNL     1     -34.464   6.201   5.821  1.00 20.00     0.001 A 
HETATM    2  C2  UNL     1     -34.905   5.519   4.690  1.00 20.00     0.002 A 
HETATM    3  C3  UNL     1     -33.481   7.192   5.723  1.00 20.00     0.014 A 
HETATM    4  C4  UNL     1     -34.379   5.804   3.426  1.00 20.00     0.030 A 
HETATM    5  C5  UNL     1     -31.952   8.416   4.000  1.00 20.00     0.030 A 
HETATM    6  C6  UNL     1     -31.836   8.260   2.638  1.00 20.00     0.089 A 
HETATM    7  C7  UNL     1     -32.936   7.497   4.460  1.00 20.00    -0.008 A 
HETATM    8  C8  UNL     1     -33.397   6.798   3.343  1.00 20.00     0.042 A 
HETATM    9  N9  UNL     1     -32.712   7.282   2.251  1.00 20.00    -0.365 N 
HETATM   10  H16 UNL     1     -32.838   6.960   1.301  1.00 20.00     0.165 HD
ENDROOT
TORSDOF 0
ENDMDL
MODEL 3
REMARK VINA RESULT:      -5.8      0.877      1.082
REMARK  0 active torsions:
REMARK  status: ('A' for Active; 'I' for Inactive)
ROOT
HETATM    1  C1  UNL     1     -34.763   4.987   5.478  1.00 20.00     0.001 A 
HETATM    2  C2  UNL     1     -34.467   6.121   6.231  1.00 20.00     0.002 A 
HETATM    3  C3  UNL     1     -34.389   4.904   4.132  1.00 20.00     0.014 A 
HETATM    4  C4  UNL     1     -33.790   7.206   5.666  1.00 20.00     0.030 A 
HETATM    5  C5  UNL     1     -33.190   6.239   2.239  1.00 20.00     0.030 A 
HETATM    6  C6  UNL     1     -32.614   7.488   2.252  1.00 20.00     0.089 A 
HETATM    7  C7  UNL     1     -33.706   5.985   3.540  1.00 20.00    -0.008 A 
HETATM    8  C8  UNL     1     -33.423   7.109   4.319  1.00 20.00     0.042 A 
HETATM    9  N9  UNL     1     -32.760   8.005   3.511  1.00 20.00    -0.365 N 
HETATM   10  H16 UNL     1     -32.428   8.913   3.807  1.00 20.00     0.165 HD
ENDROOT
TORSDOF 0
ENDMDL
MODEL 4
REMARK VINA RESULT:      -5.4      1.129      3.098
REMARK  0 active torsions:
REMARK  status: ('A' for Active; 'I' for Inactive)
ROOT
HETATM    1  C1  UNL     1     -32.641   7.146   2.078  1.00 20.00     0.001 A 
HETATM    2  C2  UNL     1     -32.075   8.055   2.968  1.00 20.00     0.002 A 
HETATM    3  C3  UNL     1     -33.579   6.205   2.515  1.00 20.00     0.014 A 
HETATM    4  C4  UNL     1     -32.426   8.053   4.322  1.00 20.00     0.030 A 
HETATM    5  C5  UNL     1     -34.844   5.391   4.646  1.00 20.00     0.030 A 
HETATM    6  C6  UNL     1     -34.787   5.839   5.946  1.00 20.00     0.089 A 
HETATM    7  C7  UNL     1     -33.950   6.183   3.874  1.00 20.00    -0.008 A 
HETATM    8  C8  UNL     1     -33.366   7.106   4.744  1.00 20.00     0.042 A 
HETATM    9  N9  UNL     1     -33.893   6.874   5.995  1.00 20.00    -0.365 N 
HETATM   10  H16 UNL     1     -33.653   7.394   6.828  1.00 20.00     0.165 HD
ENDROOT
TORSDOF 0
ENDMDL
MODEL 5
REMARK VINA RESULT:      -5.3      1.557      3.604
REMARK  0 active torsions:
REMARK  status: ('A' for Active; 'I' for Inactive)
ROOT
HETATM    1  C1  UNL     1     -32.206   7.948   2.915  1.00 20.00     0.001 A 
HETATM    2  C2  UNL     1     -32.792   7.009   2.069  1.00 20.00     0.002 A 
HETATM    3  C3  UNL     1     -32.526   7.985   4.276  1.00 20.00     0.014 A 
HETATM    4  C4  UNL     1     -33.717   6.079   2.555  1.00 20.00     0.030 A 
HETATM    5  C5  UNL     1     -34.001   6.812   6.080  1.00 20.00     0.030 A 
HETATM    6  C6  UNL     1     -34.878   5.758   5.971  1.00 20.00     0.089 A 
HETATM    7  C7  UNL     1     -33.455   7.058   4.789  1.00 20.00    -0.008 A 
HETATM    8  C8  UNL     1     -34.028   6.129   3.919  1.00 20.00     0.042 A 
HETATM    9  N9  UNL     1     -34.887   5.352   4.663  1.00 20.00    -0.365 N 
HETATM   10  H16 UNL     1     -35.444   4.592   4.296  1.00 20.00     0.165 HD
ENDROOT
TORSDOF 0
ENDMDL
MODEL 6
REMARK VINA RESULT:      -4.6      1.302      2.397
REMARK  0 active torsions:
REMARK  status: ('A' for Active; 'I' for Inactive)
ROOT
HETATM    1  C1  UNL     1     -34.545   4.091   4.417  1.00 20.00     0.001 A 
HETATM    2  C2  UNL     1     -33.902   4.304   3.200  1.00 20.00     0.002 A 
HETATM    3  C3  UNL     1     -34.532   5.071   5.415  1.00 20.00     0.014 A 
HETATM    4  C4  UNL     1     -33.225   5.500   2.941  1.00 20.00     0.030 A 
HETATM    5  C5  UNL     1     -33.645   7.467   5.941  1.00 20.00     0.030 A 
HETATM    6  C6  UNL     1     -32.897   8.332   5.175  1.00 20.00     0.089 A 
HETATM    7  C7  UNL     1     -33.858   6.285   5.178  1.00 20.00    -0.008 A 
HETATM    8  C8  UNL     1     -33.221   6.471   3.949  1.00 20.00     0.042 A 
HETATM    9  N9  UNL     1     -32.647   7.722   3.976  1.00 20.00    -0.365 N 
HETATM   10  H16 UNL     1     -32.117   8.131   3.217  1.00 20.00     0.165 HD
ENDROOT
TORSDOF 0
ENDMDL
MODEL 7
REMARK VINA RESULT:      -4.5      1.879      2.673
REMARK  0 active torsions:
REMARK  status: ('A' for Active; 'I' for Inactive)
ROOT
HETATM    1  C1  UNL     1     -33.774   7.580   5.806  1.00 20.00     0.001 A 
HETATM    2  C2  UNL     1     -34.476   6.488   6.309  1.00 20.00     0.002 A 
HETATM    3  C3  UNL     1     -33.168   7.524   4.546  1.00 20.00     0.014 A 
HETATM    4  C4  UNL     1     -34.595   5.305   5.572  1.00 20.00     0.030 A 
HETATM    5  C5  UNL     1     -32.800   5.943   2.504  1.00 20.00     0.030 A 
HETATM    6  C6  UNL     1     -33.223   4.652   2.285  1.00 20.00     0.089 A 
HETATM    7  C7  UNL     1     -33.274   6.343   3.784  1.00 20.00    -0.008 A 
HETATM    8  C8  UNL     1     -33.984   5.264   4.314  1.00 20.00     0.042 A 
HETATM    9  N9  UNL     1     -33.936   4.251   3.382  1.00 20.00    -0.365 N 
HETATM   10  H16 UNL     1     -34.367   3.343   3.493  1.00 20.00     0.165 HD
ENDROOT
TORSDOF 0
ENDMDL
MODEL 8
REMARK VINA RESULT:      -4.3      1.618      3.234
REMARK  0 active torsions:
REMARK  status: ('A' for Active; 'I' for Inactive)
ROOT
HETATM    1  C1  UNL     1     -33.700   7.648   5.957  1.00 20.00     0.001 A 
HETATM    2  C2  UNL     1     -32.963   8.130   4.878  1.00 20.00     0.002 A 
HETATM    3  C3  UNL     1     -34.249   6.361   5.933  1.00 20.00     0.014 A 
HETATM    4  C4  UNL     1     -32.752   7.344   3.741  1.00 20.00     0.030 A 
HETATM    5  C5  UNL     1     -34.448   4.233   4.438  1.00 20.00     0.030 A 
HETATM    6  C6  UNL     1     -33.950   3.972   3.182  1.00 20.00     0.089 A 
HETATM    7  C7  UNL     1     -34.049   5.551   4.798  1.00 20.00    -0.008 A 
HETATM    8  C8  UNL     1     -33.307   6.059   3.730  1.00 20.00     0.042 A 
HETATM    9  N9  UNL     1     -33.263   5.080   2.764  1.00 20.00    -0.365 N 
HETATM   10  H16 UNL     1     -32.790   5.167   1.874  1.00 20.00     0.165 HD
ENDROOT
TORSDOF 0
ENDMDL
MODEL 9
REMARK VINA RESULT:      -4.3     11.765     12.097
REMARK  0 active torsions:
REMARK  status: ('A' for Active; 'I' for Inactive)
ROOT
HETATM    1  C1  UNL     1     -33.246  18.456  -0.026  1.00 20.00     0.001 A 
HETATM    2  C2  UNL     1     -34.529  18.252   0.478  1.00 20.00     0.002 A 
HETATM    3  C3  UNL     1     -32.865  17.909  -1.256  1.00 20.00     0.014 A 
HETATM    4  C4  UNL     1     -35.469  17.496  -0.228  1.00 20.00     0.030 A 
HETATM    5  C5  UNL     1     -33.755  16.457  -3.232  1.00 20.00     0.030 A 
HETATM    6  C6  UNL     1     -34.986  15.876  -3.431  1.00 20.00     0.089 A 
HETATM    7  C7  UNL     1     -33.795  17.143  -1.986  1.00 20.00    -0.008 A 
HETATM    8  C8  UNL     1     -35.073  16.955  -1.457  1.00 20.00     0.042 A 
HETATM    9  N9  UNL     1     -35.774  16.182  -2.355  1.00 20.00    -0.365 N 
HETATM   10  H16 UNL     1     -36.733  15.885  -2.236  1.00 20.00     0.165 HD
ENDROOT
TORSDOF 0
ENDMDL
