MODEL 1
REMARK VINA RESULT:      -2.6      0.000      0.000
REMARK  0 active torsions:
REMARK  status: ('A' for Active; 'I' for Inactive)
ROOT
HETATM    1  C1  UNL     1     -33.763   7.250   5.883  1.00 20.00     0.016 C 
HETATM    2  C2  UNL     1     -34.410   6.074   5.171  1.00 20.00     0.075 C 
HETATM    3  I3  UNL     1     -33.783   5.981   3.136  1.00 20.00    -0.090 I 
ENDROOT
TORSDOF 0
ENDMDL
MODEL 2
REMARK VINA RESULT:      -2.6      1.501      1.583
REMARK  0 active torsions:
REMARK  status: ('A' for Active; 'I' for Inactive)
ROOT
HETATM    1  C1  UNL     1     -34.626   5.208   5.490  1.00 20.00     0.016 C 
HETATM    2  C2  UNL     1     -34.976   5.672   4.086  1.00 20.00     0.075 C 
HETATM    3  I3  UNL     1     -33.360   6.758   3.220  1.00 20.00    -0.090 I 
ENDROOT
TORSDOF 0
ENDMDL
MODEL 3
REMARK VINA RESULT:      -2.5      1.128      1.128
REMARK  0 active torsions:
REMARK  status: ('A' for Active; 'I' for Inactive)
ROOT
HETATM    1  C1  UNL     1     -33.760   7.253   5.840  1.00 20.00     0.016 C 
HETATM    2  C2  UNL     1     -34.073   6.619   4.496  1.00 20.00     0.075 C 
HETATM    3  I3  UNL     1     -32.754   7.347   2.987  1.00 20.00    -0.090 I 
ENDROOT
TORSDOF 0
ENDMDL
MODEL 4
REMARK VINA RESULT:      -2.5      2.526      2.526
REMARK  0 active torsions:
REMARK  status: ('A' for Active; 'I' for Inactive)
ROOT
HETATM    1  C1  UNL     1     -32.840   7.285   2.897  1.00 20.00     0.016 C 
HETATM    2  C2  UNL     1     -33.369   5.861   2.870  1.00 20.00     0.075 C 
HETATM    3  I3  UNL     1     -34.631   5.487   4.546  1.00 20.00    -0.090 I 
ENDROOT
TORSDOF 0
ENDMDL
MODEL 5
REMARK VINA RESULT:      -2.4      3.863      4.005
REMARK  0 active torsions:
REMARK  status: ('A' for Active; 'I' for Inactive)
ROOT
HETATM    1  C1  UNL     1     -32.899   7.313   2.871  1.00 20.00     0.016 C 
HETATM    2  C2  UNL     1     -31.850   8.361   2.541  1.00 20.00     0.075 C 
HETATM    3  I3  UNL     1     -32.475   9.571   0.901  1.00 20.00    -0.090 I 
ENDROOT
TORSDOF 0
ENDMDL
MODEL 6
REMARK VINA RESULT:      -2.4      4.722      4.789
REMARK  0 active torsions:
REMARK  status: ('A' for Active; 'I' for Inactive)
ROOT
HETATM    1  C1  UNL     1     -32.754  10.228   1.073  1.00 20.00     0.016 C 
HETATM    2  C2  UNL     1     -31.925   8.956   1.117  1.00 20.00     0.075 C 
HETATM    3  I3  UNL     1     -32.498   7.732   2.766  1.00 20.00    -0.090 I 
ENDROOT
TORSDOF 0
ENDMDL
MODEL 7
REMARK VINA RESULT:      -1.9     15.763     16.006
REMARK  0 active torsions:
REMARK  status: ('A' for Active; 'I' for Inactive)
ROOT
HETATM    1  C1  UNL     1     -24.410  16.239  10.982  1.00 20.00     0.016 C 
HETATM    2  C2  UNL     1     -23.912  17.317  10.033  1.00 20.00     0.075 C 
HETATM    3  I3  UNL     1     -24.673  19.229  10.590  1.00 20.00    -0.090 I 
ENDROOT
TORSDOF 0
ENDMDL
MODEL 8
REMARK VINA RESULT:      -1.9      9.196      9.247
REMARK  0 active torsions:
REMARK  status: ('A' for Active; 'I' for Inactive)
ROOT
HETATM    1  C1  UNL     1     -40.694   5.842  -0.466  1.00 20.00     0.016 C 
HETATM    2  C2  UNL     1     -41.374   6.989   0.261  1.00 20.00     0.075 C 
HETATM    3  I3  UNL     1     -43.200   6.348   1.153  1.00 20.00    -0.090 I 
ENDROOT
TORSDOF 0
ENDMDL
MODEL 9
REMARK VINA RESULT:      -1.7     15.485     15.843
REMARK  0 active torsions:
REMARK  status: ('A' for Active; 'I' for Inactive)
ROOT
HETATM    1  C1  UNL     1     -26.459  17.574  12.067  1.00 20.00     0.016 C 
HETATM    2  C2  UNL     1     -25.349  18.476  11.554  1.00 20.00     0.075 C 
HETATM    3  I3  UNL     1     -23.975  17.380  10.348  1.00 20.00    -0.090 I 
ENDROOT
TORSDOF 0
ENDMDL
