MODEL 1
REMARK VINA RESULT:      -5.8      0.000      0.000
REMARK  0 active torsions:
REMARK  status: ('A' for Active; 'I' for Inactive)
ROOT
HETATM    1  C1  UNL     1     -34.610   5.432   5.566  1.00 20.00     0.000 A 
HETATM    2  C2  UNL     1     -34.495   4.999   4.246  1.00 20.00     0.001 A 
HETATM    3  C3  UNL     1     -34.055   6.653   5.951  1.00 20.00     0.001 A 
HETATM    4  C4  UNL     1     -33.824   5.785   3.310  1.00 20.00     0.018 A 
HETATM    5  C5  UNL     1     -33.384   7.439   5.014  1.00 20.00     0.018 A 
HETATM    6  C6  UNL     1     -33.269   7.006   3.693  1.00 20.00     0.006 A 
HETATM    7  I7  UNL     1     -32.269   8.177   2.300  1.00 20.00    -0.045 I 
ENDROOT
TORSDOF 0
ENDMDL
MODEL 2
REMARK VINA RESULT:      -5.8      0.047      1.826
REMARK  0 active torsions:
REMARK  status: ('A' for Active; 'I' for Inactive)
ROOT
HETATM    1  C1  UNL     1     -34.624   5.474   5.562  1.00 20.00     0.000 A 
HETATM    2  C2  UNL     1     -34.028   6.672   5.955  1.00 20.00     0.001 A 
HETATM    3  C3  UNL     1     -34.539   5.055   4.233  1.00 20.00     0.001 A 
HETATM    4  C4  UNL     1     -33.349   7.452   5.019  1.00 20.00     0.018 A 
HETATM    5  C5  UNL     1     -33.860   5.837   3.299  1.00 20.00     0.018 A 
HETATM    6  C6  UNL     1     -33.264   7.035   3.692  1.00 20.00     0.006 A 
HETATM    7  I7  UNL     1     -32.252   8.197   2.299  1.00 20.00    -0.045 I 
ENDROOT
TORSDOF 0
ENDMDL
MODEL 3
REMARK VINA RESULT:      -3.9      2.272      3.246
REMARK  0 active torsions:
REMARK  status: ('A' for Active; 'I' for Inactive)
ROOT
HETATM    1  C1  UNL     1     -31.880   8.423   2.778  1.00 20.00     0.000 A 
HETATM    2  C2  UNL     1     -32.534   7.465   2.003  1.00 20.00     0.001 A 
HETATM    3  C3  UNL     1     -32.049   8.433   4.163  1.00 20.00     0.001 A 
HETATM    4  C4  UNL     1     -33.357   6.519   2.613  1.00 20.00     0.018 A 
HETATM    5  C5  UNL     1     -32.872   7.486   4.772  1.00 20.00     0.018 A 
HETATM    6  C6  UNL     1     -33.526   6.529   3.997  1.00 20.00     0.006 A 
HETATM    7  I7  UNL     1     -34.752   5.119   4.905  1.00 20.00    -0.045 I 
ENDROOT
TORSDOF 0
ENDMDL
MODEL 4
REMARK VINA RESULT:      -3.7     12.026     12.439
REMARK  0 active torsions:
REMARK  status: ('A' for Active; 'I' for Inactive)
ROOT
HETATM    1  C1  UNL     1     -34.076  18.402   0.380  1.00 20.00     0.000 A 
HETATM    2  C2  UNL     1     -35.230  17.681   0.072  1.00 20.00     0.001 A 
HETATM    3  C3  UNL     1     -32.994  18.395  -0.501  1.00 20.00     0.001 A 
HETATM    4  C4  UNL     1     -35.302  16.954  -1.116  1.00 20.00     0.018 A 
HETATM    5  C5  UNL     1     -33.067  17.667  -1.689  1.00 20.00     0.018 A 
HETATM    6  C6  UNL     1     -34.221  16.947  -1.996  1.00 20.00     0.006 A 
HETATM    7  I7  UNL     1     -34.328  15.863  -3.765  1.00 20.00    -0.045 I 
ENDROOT
TORSDOF 0
ENDMDL
MODEL 5
REMARK VINA RESULT:      -3.7     12.032     12.468
REMARK  0 active torsions:
REMARK  status: ('A' for Active; 'I' for Inactive)
ROOT
HETATM    1  C1  UNL     1     -34.077  18.400   0.392  1.00 20.00     0.000 A 
HETATM    2  C2  UNL     1     -32.995  18.395  -0.488  1.00 20.00     0.001 A 
HETATM    3  C3  UNL     1     -35.233  17.683   0.080  1.00 20.00     0.001 A 
HETATM    4  C4  UNL     1     -33.069  17.674  -1.679  1.00 20.00     0.018 A 
HETATM    5  C5  UNL     1     -35.305  16.962  -1.112  1.00 20.00     0.018 A 
HETATM    6  C6  UNL     1     -34.223  16.957  -1.991  1.00 20.00     0.006 A 
HETATM    7  I7  UNL     1     -34.332  15.882  -3.765  1.00 20.00    -0.045 I 
ENDROOT
TORSDOF 0
ENDMDL
MODEL 6
REMARK VINA RESULT:      -3.6     12.152     12.580
REMARK  0 active torsions:
REMARK  status: ('A' for Active; 'I' for Inactive)
ROOT
HETATM    1  C1  UNL     1     -33.870  17.045  -2.175  1.00 20.00     0.000 A 
HETATM    2  C2  UNL     1     -35.113  16.781  -1.601  1.00 20.00     0.001 A 
HETATM    3  C3  UNL     1     -32.949  17.851  -1.505  1.00 20.00     0.001 A 
HETATM    4  C4  UNL     1     -35.436  17.323  -0.358  1.00 20.00     0.018 A 
HETATM    5  C5  UNL     1     -33.273  18.393  -0.261  1.00 20.00     0.018 A 
HETATM    6  C6  UNL     1     -34.516  18.128   0.313  1.00 20.00     0.006 A 
HETATM    7  I7  UNL     1     -34.998  18.936   2.165  1.00 20.00    -0.045 I 
ENDROOT
TORSDOF 0
ENDMDL
MODEL 7
REMARK VINA RESULT:      -3.6     12.177     12.655
REMARK  0 active torsions:
REMARK  status: ('A' for Active; 'I' for Inactive)
ROOT
HETATM    1  C1  UNL     1     -33.749  17.051  -2.140  1.00 20.00     0.000 A 
HETATM    2  C2  UNL     1     -32.888  17.867  -1.407  1.00 20.00     0.001 A 
HETATM    3  C3  UNL     1     -35.029  16.774  -1.657  1.00 20.00     0.001 A 
HETATM    4  C4  UNL     1     -33.306  18.405  -0.190  1.00 20.00     0.018 A 
HETATM    5  C5  UNL     1     -35.445  17.313  -0.440  1.00 20.00     0.018 A 
HETATM    6  C6  UNL     1     -34.584  18.129   0.293  1.00 20.00     0.006 A 
HETATM    7  I7  UNL     1     -35.206  18.931   2.106  1.00 20.00    -0.045 I 
ENDROOT
TORSDOF 0
ENDMDL
MODEL 8
REMARK VINA RESULT:      -3.5     12.225     12.504
REMARK  0 active torsions:
REMARK  status: ('A' for Active; 'I' for Inactive)
ROOT
HETATM    1  C1  UNL     1     -35.213  16.842  -1.744  1.00 20.00     0.000 A 
HETATM    2  C2  UNL     1     -33.906  17.084  -2.164  1.00 20.00     0.001 A 
HETATM    3  C3  UNL     1     -35.640  17.294  -0.494  1.00 20.00     0.001 A 
HETATM    4  C4  UNL     1     -33.025  17.778  -1.334  1.00 20.00     0.018 A 
HETATM    5  C5  UNL     1     -34.758  17.987   0.334  1.00 20.00     0.018 A 
HETATM    6  C6  UNL     1     -33.451  18.230  -0.086  1.00 20.00     0.006 A 
HETATM    7  I7  UNL     1     -32.139  19.263   1.149  1.00 20.00    -0.045 I 
ENDROOT
TORSDOF 0
ENDMDL
MODEL 9
REMARK VINA RESULT:      -3.5     12.235     12.661
REMARK  0 active torsions:
REMARK  status: ('A' for Active; 'I' for Inactive)
ROOT
HETATM    1  C1  UNL     1     -32.993  18.825   0.964  1.00 20.00     0.000 A 
HETATM    2  C2  UNL     1     -34.306  18.357   0.969  1.00 20.00     0.001 A 
HETATM    3  C3  UNL     1     -32.189  18.637  -0.161  1.00 20.00     0.001 A 
HETATM    4  C4  UNL     1     -34.816  17.700  -0.151  1.00 20.00     0.018 A 
HETATM    5  C5  UNL     1     -32.700  17.979  -1.280  1.00 20.00     0.018 A 
HETATM    6  C6  UNL     1     -34.014  17.511  -1.275  1.00 20.00     0.006 A 
HETATM    7  I7  UNL     1     -34.774  16.533  -2.942  1.00 20.00    -0.045 I 
ENDROOT
TORSDOF 0
ENDMDL
