MODEL 1
REMARK VINA RESULT:      -7.0      0.000      0.000
REMARK  2 active torsions:
REMARK  status: ('A' for Active; 'I' for Inactive)
REMARK    1  A    between atoms: C6_6  and  C9_9 
REMARK    2  A    between atoms: C9_9  and  C10_10 
ROOT
HETATM    1  C1  UNL     1     -34.637   5.755   4.970  1.00 20.00     0.000 A 
HETATM    2  C2  UNL     1     -34.004   6.798   5.646  1.00 20.00     0.001 A 
HETATM    3  C3  UNL     1     -34.377   5.542   3.617  1.00 20.00     0.001 A 
HETATM    4  C4  UNL     1     -33.112   7.629   4.968  1.00 20.00     0.007 A 
HETATM    5  C5  UNL     1     -33.485   6.372   2.939  1.00 20.00     0.007 A 
HETATM    6  C6  UNL     1     -32.853   7.415   3.614  1.00 20.00    -0.058 A 
ENDROOT
BRANCH   6   7
HETATM    7  C9  UNL     1     -31.888   8.314   2.880  1.00 20.00     0.042 C 
BRANCH   7   8
HETATM    8  C10 UNL     1     -32.395   8.780   1.500  1.00 20.00    -0.019 C 
HETATM    9  C7  UNL     1     -32.808  10.254   1.509  1.00 20.00     0.010 C 
HETATM   10  C8  UNL     1     -31.310   8.554   0.445  1.00 20.00     0.010 C 
ENDBRANCH   7   8
ENDBRANCH   6   7
TORSDOF 2
ENDMDL
MODEL 2
REMARK VINA RESULT:      -7.0      0.006      1.528
REMARK  2 active torsions:
REMARK  status: ('A' for Active; 'I' for Inactive)
REMARK    1  A    between atoms: C6_6  and  C9_9 
REMARK    2  A    between atoms: C9_9  and  C10_10 
ROOT
HETATM    1  C1  UNL     1     -34.632   5.751   4.968  1.00 20.00     0.000 A 
HETATM    2  C2  UNL     1     -34.370   5.536   3.615  1.00 20.00     0.001 A 
HETATM    3  C3  UNL     1     -34.003   6.798   5.642  1.00 20.00     0.001 A 
HETATM    4  C4  UNL     1     -33.480   6.367   2.936  1.00 20.00     0.007 A 
HETATM    5  C5  UNL     1     -33.113   7.629   4.963  1.00 20.00     0.007 A 
HETATM    6  C6  UNL     1     -32.851   7.414   3.610  1.00 20.00    -0.058 A 
ENDROOT
BRANCH   6   7
HETATM    7  C9  UNL     1     -31.888   8.314   2.876  1.00 20.00     0.042 C 
BRANCH   7   8
HETATM    8  C10 UNL     1     -32.396   8.780   1.497  1.00 20.00    -0.019 C 
HETATM    9  C7  UNL     1     -32.804  10.256   1.505  1.00 20.00     0.010 C 
HETATM   10  C8  UNL     1     -31.313   8.551   0.440  1.00 20.00     0.010 C 
ENDBRANCH   7   8
ENDBRANCH   6   7
TORSDOF 2
ENDMDL
MODEL 3
REMARK VINA RESULT:      -6.6      0.983      2.130
REMARK  2 active torsions:
REMARK  status: ('A' for Active; 'I' for Inactive)
REMARK    1  A    between atoms: C6_6  and  C9_9 
REMARK    2  A    between atoms: C9_9  and  C10_10 
ROOT
HETATM    1  C1  UNL     1     -34.621   4.999   5.708  1.00 20.00     0.000 A 
HETATM    2  C2  UNL     1     -34.393   4.268   4.542  1.00 20.00     0.001 A 
HETATM    3  C3  UNL     1     -34.341   6.365   5.739  1.00 20.00     0.001 A 
HETATM    4  C4  UNL     1     -33.885   4.902   3.409  1.00 20.00     0.007 A 
HETATM    5  C5  UNL     1     -33.833   6.999   4.606  1.00 20.00     0.007 A 
HETATM    6  C6  UNL     1     -33.605   6.267   3.441  1.00 20.00    -0.058 A 
ENDROOT
BRANCH   6   7
HETATM    7  C9  UNL     1     -33.055   6.954   2.215  1.00 20.00     0.042 C 
BRANCH   7   8
HETATM    8  C10 UNL     1     -32.560   8.392   2.473  1.00 20.00    -0.019 C 
HETATM    9  C7  UNL     1     -31.246   8.412   3.259  1.00 20.00     0.010 C 
HETATM   10  C8  UNL     1     -32.377   9.125   1.143  1.00 20.00     0.010 C 
ENDBRANCH   7   8
ENDBRANCH   6   7
TORSDOF 2
ENDMDL
MODEL 4
REMARK VINA RESULT:      -5.3      1.439      4.623
REMARK  2 active torsions:
REMARK  status: ('A' for Active; 'I' for Inactive)
REMARK    1  A    between atoms: C6_6  and  C9_9 
REMARK    2  A    between atoms: C9_9  and  C10_10 
ROOT
HETATM    1  C1  UNL     1     -31.574   8.347   3.365  1.00 20.00     0.000 A 
HETATM    2  C2  UNL     1     -32.113   7.679   2.266  1.00 20.00     0.001 A 
HETATM    3  C3  UNL     1     -32.196   8.254   4.610  1.00 20.00     0.001 A 
HETATM    4  C4  UNL     1     -33.274   6.920   2.411  1.00 20.00     0.007 A 
HETATM    5  C5  UNL     1     -33.357   7.495   4.756  1.00 20.00     0.007 A 
HETATM    6  C6  UNL     1     -33.895   6.828   3.656  1.00 20.00    -0.058 A 
ENDROOT
BRANCH   6   7
HETATM    7  C9  UNL     1     -35.152   6.006   3.814  1.00 20.00     0.042 C 
BRANCH   7   8
HETATM    8  C10 UNL     1     -34.947   4.698   4.604  1.00 20.00    -0.019 C 
HETATM    9  C7  UNL     1     -33.840   3.830   3.998  1.00 20.00     0.010 C 
HETATM   10  C8  UNL     1     -34.610   5.018   6.062  1.00 20.00     0.010 C 
ENDBRANCH   7   8
ENDBRANCH   6   7
TORSDOF 2
ENDMDL
MODEL 5
REMARK VINA RESULT:      -5.1      0.910      4.549
REMARK  2 active torsions:
REMARK  status: ('A' for Active; 'I' for Inactive)
REMARK    1  A    between atoms: C6_6  and  C9_9 
REMARK    2  A    between atoms: C9_9  and  C10_10 
ROOT
HETATM    1  C1  UNL     1     -32.370  10.234   0.433  1.00 20.00     0.000 A 
HETATM    2  C2  UNL     1     -33.292  10.344   1.474  1.00 20.00     0.001 A 
HETATM    3  C3  UNL     1     -31.541   9.115   0.352  1.00 20.00     0.001 A 
HETATM    4  C4  UNL     1     -33.384   9.337   2.434  1.00 20.00     0.007 A 
HETATM    5  C5  UNL     1     -31.632   8.108   1.312  1.00 20.00     0.007 A 
HETATM    6  C6  UNL     1     -32.554   8.219   2.353  1.00 20.00    -0.058 A 
ENDROOT
BRANCH   6   7
HETATM    7  C9  UNL     1     -32.653   7.128   3.392  1.00 20.00     0.042 C 
BRANCH   7   8
HETATM    8  C10 UNL     1     -33.980   7.131   4.176  1.00 20.00    -0.019 C 
HETATM    9  C7  UNL     1     -34.800   5.863   3.920  1.00 20.00     0.010 C 
HETATM   10  C8  UNL     1     -33.698   7.269   5.674  1.00 20.00     0.010 C 
ENDBRANCH   7   8
ENDBRANCH   6   7
TORSDOF 2
ENDMDL
MODEL 6
REMARK VINA RESULT:      -5.1      0.917      4.683
REMARK  2 active torsions:
REMARK  status: ('A' for Active; 'I' for Inactive)
REMARK    1  A    between atoms: C6_6  and  C9_9 
REMARK    2  A    between atoms: C9_9  and  C10_10 
ROOT
HETATM    1  C1  UNL     1     -32.367  10.224   0.434  1.00 20.00     0.000 A 
HETATM    2  C2  UNL     1     -31.526   9.113   0.361  1.00 20.00     0.001 A 
HETATM    3  C3  UNL     1     -33.303  10.321   1.464  1.00 20.00     0.001 A 
HETATM    4  C4  UNL     1     -31.623   8.100   1.314  1.00 20.00     0.007 A 
HETATM    5  C5  UNL     1     -33.400   9.309   2.417  1.00 20.00     0.007 A 
HETATM    6  C6  UNL     1     -32.559   8.199   2.343  1.00 20.00    -0.058 A 
ENDROOT
BRANCH   6   7
HETATM    7  C9  UNL     1     -32.665   7.103   3.376  1.00 20.00     0.042 C 
BRANCH   7   8
HETATM    8  C10 UNL     1     -33.983   7.123   4.175  1.00 20.00    -0.019 C 
HETATM    9  C7  UNL     1     -34.814   5.858   3.941  1.00 20.00     0.010 C 
HETATM   10  C8  UNL     1     -33.684   7.274   5.668  1.00 20.00     0.010 C 
ENDBRANCH   7   8
ENDBRANCH   6   7
TORSDOF 2
ENDMDL
MODEL 7
REMARK VINA RESULT:      -4.7     10.407     11.216
REMARK  2 active torsions:
REMARK  status: ('A' for Active; 'I' for Inactive)
REMARK    1  A    between atoms: C6_6  and  C9_9 
REMARK    2  A    between atoms: C9_9  and  C10_10 
ROOT
HETATM    1  C1  UNL     1     -34.021  18.404   0.252  1.00 20.00     0.000 A 
HETATM    2  C2  UNL     1     -33.013  18.293  -0.707  1.00 20.00     0.001 A 
HETATM    3  C3  UNL     1     -35.228  17.726   0.076  1.00 20.00     0.001 A 
HETATM    4  C4  UNL     1     -33.213  17.506  -1.841  1.00 20.00     0.007 A 
HETATM    5  C5  UNL     1     -35.427  16.940  -1.058  1.00 20.00     0.007 A 
HETATM    6  C6  UNL     1     -34.420  16.830  -2.016  1.00 20.00    -0.058 A 
ENDROOT
BRANCH   6   7
HETATM    7  C9  UNL     1     -34.637  15.978  -3.243  1.00 20.00     0.042 C 
BRANCH   7   8
HETATM    8  C10 UNL     1     -33.383  15.827  -4.128  1.00 20.00    -0.019 C 
HETATM    9  C7  UNL     1     -33.043  14.358  -4.395  1.00 20.00     0.010 C 
HETATM   10  C8  UNL     1     -33.595  16.557  -5.457  1.00 20.00     0.010 C 
ENDBRANCH   7   8
ENDBRANCH   6   7
TORSDOF 2
ENDMDL
MODEL 8
REMARK VINA RESULT:      -4.7     10.287     11.179
REMARK  2 active torsions:
REMARK  status: ('A' for Active; 'I' for Inactive)
REMARK    1  A    between atoms: C6_6  and  C9_9 
REMARK    2  A    between atoms: C9_9  and  C10_10 
ROOT
HETATM    1  C1  UNL     1     -34.405  18.290   0.451  1.00 20.00     0.000 A 
HETATM    2  C2  UNL     1     -35.409  17.490  -0.097  1.00 20.00     0.001 A 
HETATM    3  C3  UNL     1     -33.196  18.452  -0.225  1.00 20.00     0.001 A 
HETATM    4  C4  UNL     1     -35.201  16.851  -1.318  1.00 20.00     0.007 A 
HETATM    5  C5  UNL     1     -32.989  17.812  -1.446  1.00 20.00     0.007 A 
HETATM    6  C6  UNL     1     -33.992  17.012  -1.993  1.00 20.00    -0.058 A 
ENDROOT
BRANCH   6   7
HETATM    7  C9  UNL     1     -33.767  16.321  -3.316  1.00 20.00     0.042 C 
BRANCH   7   8
HETATM    8  C10 UNL     1     -34.988  15.526  -3.820  1.00 20.00    -0.019 C 
HETATM    9  C7  UNL     1     -35.665  16.210  -5.011  1.00 20.00     0.010 C 
HETATM   10  C8  UNL     1     -34.559  14.111  -4.215  1.00 20.00     0.010 C 
ENDBRANCH   7   8
ENDBRANCH   6   7
TORSDOF 2
ENDMDL
MODEL 9
REMARK VINA RESULT:      -4.7     10.278     11.157
REMARK  2 active torsions:
REMARK  status: ('A' for Active; 'I' for Inactive)
REMARK    1  A    between atoms: C6_6  and  C9_9 
REMARK    2  A    between atoms: C9_9  and  C10_10 
ROOT
HETATM    1  C1  UNL     1     -34.350  18.303   0.427  1.00 20.00     0.000 A 
HETATM    2  C2  UNL     1     -33.149  18.453  -0.265  1.00 20.00     0.001 A 
HETATM    3  C3  UNL     1     -35.366  17.507  -0.103  1.00 20.00     0.001 A 
HETATM    4  C4  UNL     1     -32.964  17.810  -1.489  1.00 20.00     0.007 A 
HETATM    5  C5  UNL     1     -35.180  16.864  -1.327  1.00 20.00     0.007 A 
HETATM    6  C6  UNL     1     -33.979  17.015  -2.019  1.00 20.00    -0.058 A 
ENDROOT
BRANCH   6   7
HETATM    7  C9  UNL     1     -33.780  16.319  -3.343  1.00 20.00     0.042 C 
BRANCH   7   8
HETATM    8  C10 UNL     1     -35.005  15.509  -3.814  1.00 20.00    -0.019 C 
HETATM    9  C7  UNL     1     -35.715  16.178  -4.994  1.00 20.00     0.010 C 
HETATM   10  C8  UNL     1     -34.573  14.095  -4.207  1.00 20.00     0.010 C 
ENDBRANCH   7   8
ENDBRANCH   6   7
TORSDOF 2
ENDMDL
