MODEL 1
REMARK VINA RESULT:      -5.7      0.000      0.000
REMARK  0 active torsions:
REMARK  status: ('A' for Active; 'I' for Inactive)
ROOT
HETATM    1  C1  UNL     1     -33.598   7.426   5.899  1.00 20.00     0.001 A 
HETATM    2  C2  UNL     1     -34.194   6.176   5.745  1.00 20.00     0.007 A 
HETATM    3  C3  UNL     1     -32.948   8.027   4.821  1.00 20.00     0.007 A 
HETATM    4  C4  UNL     1     -33.491   6.125   3.434  1.00 20.00     0.013 A 
HETATM    5  C5  UNL     1     -34.142   5.525   4.512  1.00 20.00    -0.061 A 
HETATM    6  C6  UNL     1     -32.895   7.376   3.588  1.00 20.00    -0.061 A 
HETATM    7  C7  UNL     1     -34.781   4.188   4.348  1.00 20.00     0.048 C 
HETATM    8  C8  UNL     1     -32.199   8.019   2.435  1.00 20.00     0.048 C 
ENDROOT
TORSDOF 0
ENDMDL
MODEL 2
REMARK VINA RESULT:      -5.7      0.122      3.028
REMARK  0 active torsions:
REMARK  status: ('A' for Active; 'I' for Inactive)
ROOT
HETATM    1  C1  UNL     1     -33.707   7.367   5.852  1.00 20.00     0.001 A 
HETATM    2  C2  UNL     1     -33.052   8.002   4.798  1.00 20.00     0.007 A 
HETATM    3  C3  UNL     1     -34.219   6.081   5.682  1.00 20.00     0.007 A 
HETATM    4  C4  UNL     1     -33.422   6.065   3.402  1.00 20.00     0.013 A 
HETATM    5  C5  UNL     1     -32.909   7.351   3.573  1.00 20.00    -0.061 A 
HETATM    6  C6  UNL     1     -34.076   5.430   4.457  1.00 20.00    -0.061 A 
HETATM    7  C7  UNL     1     -32.207   8.030   2.446  1.00 20.00     0.048 C 
HETATM    8  C8  UNL     1     -34.625   4.054   4.275  1.00 20.00     0.048 C 
ENDROOT
TORSDOF 0
ENDMDL
MODEL 3
REMARK VINA RESULT:      -5.4      0.940      3.487
REMARK  0 active torsions:
REMARK  status: ('A' for Active; 'I' for Inactive)
ROOT
HETATM    1  C1  UNL     1     -34.130   5.450   3.036  1.00 20.00     0.001 A 
HETATM    2  C2  UNL     1     -33.314   6.258   2.246  1.00 20.00     0.007 A 
HETATM    3  C3  UNL     1     -34.351   5.777   4.374  1.00 20.00     0.007 A 
HETATM    4  C4  UNL     1     -32.937   7.721   4.132  1.00 20.00     0.013 A 
HETATM    5  C5  UNL     1     -32.718   7.394   2.794  1.00 20.00    -0.061 A 
HETATM    6  C6  UNL     1     -33.754   6.913   4.922  1.00 20.00    -0.061 A 
HETATM    7  C7  UNL     1     -31.845   8.258   1.948  1.00 20.00     0.048 C 
HETATM    8  C8  UNL     1     -33.989   7.262   6.353  1.00 20.00     0.048 C 
ENDROOT
TORSDOF 0
ENDMDL
MODEL 4
REMARK VINA RESULT:      -5.4      0.952      2.389
REMARK  0 active torsions:
REMARK  status: ('A' for Active; 'I' for Inactive)
ROOT
HETATM    1  C1  UNL     1     -34.064   5.469   2.969  1.00 20.00     0.001 A 
HETATM    2  C2  UNL     1     -34.299   5.781   4.308  1.00 20.00     0.007 A 
HETATM    3  C3  UNL     1     -33.258   6.299   2.190  1.00 20.00     0.007 A 
HETATM    4  C4  UNL     1     -32.921   7.754   4.089  1.00 20.00     0.013 A 
HETATM    5  C5  UNL     1     -33.726   6.924   4.868  1.00 20.00    -0.061 A 
HETATM    6  C6  UNL     1     -32.686   7.442   2.750  1.00 20.00    -0.061 A 
HETATM    7  C7  UNL     1     -33.977   7.256   6.300  1.00 20.00     0.048 C 
HETATM    8  C8  UNL     1     -31.825   8.330   1.916  1.00 20.00     0.048 C 
ENDROOT
TORSDOF 0
ENDMDL
MODEL 5
REMARK VINA RESULT:      -4.9      1.181      2.854
REMARK  0 active torsions:
REMARK  status: ('A' for Active; 'I' for Inactive)
ROOT
HETATM    1  C1  UNL     1     -34.741   4.609   5.440  1.00 20.00     0.001 A 
HETATM    2  C2  UNL     1     -34.482   5.892   5.920  1.00 20.00     0.007 A 
HETATM    3  C3  UNL     1     -34.291   4.233   4.175  1.00 20.00     0.007 A 
HETATM    4  C4  UNL     1     -33.323   6.424   3.868  1.00 20.00     0.013 A 
HETATM    5  C5  UNL     1     -33.772   6.799   5.134  1.00 20.00    -0.061 A 
HETATM    6  C6  UNL     1     -33.581   5.140   3.389  1.00 20.00    -0.061 A 
HETATM    7  C7  UNL     1     -33.494   8.172   5.648  1.00 20.00     0.048 C 
HETATM    8  C8  UNL     1     -33.101   4.738   2.034  1.00 20.00     0.048 C 
ENDROOT
TORSDOF 0
ENDMDL
MODEL 6
REMARK VINA RESULT:      -4.9      1.181      2.497
REMARK  0 active torsions:
REMARK  status: ('A' for Active; 'I' for Inactive)
ROOT
HETATM    1  C1  UNL     1     -34.742   4.608   5.439  1.00 20.00     0.001 A 
HETATM    2  C2  UNL     1     -34.291   4.233   4.174  1.00 20.00     0.007 A 
HETATM    3  C3  UNL     1     -34.482   5.892   5.919  1.00 20.00     0.007 A 
HETATM    4  C4  UNL     1     -33.321   6.425   3.869  1.00 20.00     0.013 A 
HETATM    5  C5  UNL     1     -33.581   5.142   3.389  1.00 20.00    -0.061 A 
HETATM    6  C6  UNL     1     -33.773   6.800   5.134  1.00 20.00    -0.061 A 
HETATM    7  C7  UNL     1     -33.100   4.740   2.035  1.00 20.00     0.048 C 
HETATM    8  C8  UNL     1     -33.494   8.173   5.649  1.00 20.00     0.048 C 
ENDROOT
TORSDOF 0
ENDMDL
MODEL 7
REMARK VINA RESULT:      -4.4      1.269      2.956
REMARK  0 active torsions:
REMARK  status: ('A' for Active; 'I' for Inactive)
ROOT
HETATM    1  C1  UNL     1     -33.264   7.497   3.735  1.00 20.00     0.001 A 
HETATM    2  C2  UNL     1     -32.930   6.584   2.736  1.00 20.00     0.007 A 
HETATM    3  C3  UNL     1     -33.927   7.064   4.883  1.00 20.00     0.007 A 
HETATM    4  C4  UNL     1     -33.926   4.803   4.031  1.00 20.00     0.013 A 
HETATM    5  C5  UNL     1     -33.261   5.237   2.884  1.00 20.00    -0.061 A 
HETATM    6  C6  UNL     1     -34.258   5.717   5.031  1.00 20.00    -0.061 A 
HETATM    7  C7  UNL     1     -32.904   4.260   1.815  1.00 20.00     0.048 C 
HETATM    8  C8  UNL     1     -34.969   5.254   6.258  1.00 20.00     0.048 C 
ENDROOT
TORSDOF 0
ENDMDL
MODEL 8
REMARK VINA RESULT:      -4.4      1.237      2.188
REMARK  0 active torsions:
REMARK  status: ('A' for Active; 'I' for Inactive)
ROOT
HETATM    1  C1  UNL     1     -33.231   7.527   3.859  1.00 20.00     0.001 A 
HETATM    2  C2  UNL     1     -33.911   7.064   4.985  1.00 20.00     0.007 A 
HETATM    3  C3  UNL     1     -32.907   6.645   2.829  1.00 20.00     0.007 A 
HETATM    4  C4  UNL     1     -33.943   4.837   4.050  1.00 20.00     0.013 A 
HETATM    5  C5  UNL     1     -34.268   5.719   5.080  1.00 20.00    -0.061 A 
HETATM    6  C6  UNL     1     -33.264   5.300   2.923  1.00 20.00    -0.061 A 
HETATM    7  C7  UNL     1     -34.996   5.225   6.284  1.00 20.00     0.048 C 
HETATM    8  C8  UNL     1     -32.916   4.357   1.821  1.00 20.00     0.048 C 
ENDROOT
TORSDOF 0
ENDMDL
MODEL 9
REMARK VINA RESULT:      -4.4     11.990     12.425
REMARK  0 active torsions:
REMARK  status: ('A' for Active; 'I' for Inactive)
ROOT
HETATM    1  C1  UNL     1     -35.558  17.402  -0.303  1.00 20.00     0.001 A 
HETATM    2  C2  UNL     1     -35.288  16.792  -1.527  1.00 20.00     0.007 A 
HETATM    3  C3  UNL     1     -34.573  18.155   0.335  1.00 20.00     0.007 A 
HETATM    4  C4  UNL     1     -33.044  17.687  -1.477  1.00 20.00     0.013 A 
HETATM    5  C5  UNL     1     -34.031  16.935  -2.114  1.00 20.00    -0.061 A 
HETATM    6  C6  UNL     1     -33.315  18.298  -0.253  1.00 20.00    -0.061 A 
HETATM    7  C7  UNL     1     -33.742  16.284  -3.425  1.00 20.00     0.048 C 
HETATM    8  C8  UNL     1     -32.261  19.102   0.430  1.00 20.00     0.048 C 
ENDROOT
TORSDOF 0
ENDMDL
