MODEL 1
REMARK VINA RESULT:      -6.0      0.000      0.000
REMARK  0 active torsions:
REMARK  status: ('A' for Active; 'I' for Inactive)
ROOT
HETATM    1  C1  UNL     1     -34.474   5.534   5.645  1.00 20.00     0.000 C 
HETATM    2  C2  UNL     1     -34.949   5.361   4.205  1.00 20.00     0.000 C 
HETATM    3  C3  UNL     1     -34.068   6.976   5.932  1.00 20.00     0.000 C 
HETATM    4  C4  UNL     1     -33.909   5.858   3.205  1.00 20.00     0.004 C 
HETATM    5  C5  UNL     1     -33.026   7.477   4.934  1.00 20.00     0.004 C 
HETATM    6  C6  UNL     1     -33.504   7.312   3.485  1.00 20.00    -0.018 C 
HETATM    7  C7  UNL     1     -32.424   7.769   2.505  1.00 20.00     0.010 C 
ENDROOT
TORSDOF 0
ENDMDL
MODEL 2
REMARK VINA RESULT:      -5.7      0.676      1.976
REMARK  0 active torsions:
REMARK  status: ('A' for Active; 'I' for Inactive)
ROOT
HETATM    1  C1  UNL     1     -34.809   5.317   5.186  1.00 20.00     0.000 C 
HETATM    2  C2  UNL     1     -34.008   6.492   5.739  1.00 20.00     0.000 C 
HETATM    3  C3  UNL     1     -34.089   4.646   4.021  1.00 20.00     0.000 C 
HETATM    4  C4  UNL     1     -33.655   7.497   4.646  1.00 20.00     0.004 C 
HETATM    5  C5  UNL     1     -33.735   5.648   2.925  1.00 20.00     0.004 C 
HETATM    6  C6  UNL     1     -32.922   6.827   3.476  1.00 20.00    -0.018 C 
HETATM    7  C7  UNL     1     -32.627   7.842   2.372  1.00 20.00     0.010 C 
ENDROOT
TORSDOF 0
ENDMDL
MODEL 3
REMARK VINA RESULT:      -5.3      1.036      2.633
REMARK  0 active torsions:
REMARK  status: ('A' for Active; 'I' for Inactive)
ROOT
HETATM    1  C1  UNL     1     -33.665   4.535   3.183  1.00 20.00     0.000 C 
HETATM    2  C2  UNL     1     -33.681   5.987   2.716  1.00 20.00     0.000 C 
HETATM    3  C3  UNL     1     -34.537   4.333   4.419  1.00 20.00     0.000 C 
HETATM    4  C4  UNL     1     -33.288   6.943   3.840  1.00 20.00     0.004 C 
HETATM    5  C5  UNL     1     -34.146   5.287   5.545  1.00 20.00     0.004 C 
HETATM    6  C6  UNL     1     -34.169   6.749   5.082  1.00 20.00    -0.018 C 
HETATM    7  C7  UNL     1     -33.724   7.680   6.209  1.00 20.00     0.010 C 
ENDROOT
TORSDOF 0
ENDMDL
MODEL 4
REMARK VINA RESULT:      -5.0      0.850      3.231
REMARK  0 active torsions:
REMARK  status: ('A' for Active; 'I' for Inactive)
ROOT
HETATM    1  C1  UNL     1     -32.271   7.881   3.907  1.00 20.00     0.000 C 
HETATM    2  C2  UNL     1     -33.197   7.946   5.118  1.00 20.00     0.000 C 
HETATM    3  C3  UNL     1     -32.940   7.186   2.725  1.00 20.00     0.000 C 
HETATM    4  C4  UNL     1     -33.718   6.564   5.503  1.00 20.00     0.004 C 
HETATM    5  C5  UNL     1     -33.462   5.803   3.107  1.00 20.00     0.004 C 
HETATM    6  C6  UNL     1     -34.400   5.866   4.319  1.00 20.00    -0.018 C 
HETATM    7  C7  UNL     1     -34.866   4.465   4.714  1.00 20.00     0.010 C 
ENDROOT
TORSDOF 0
ENDMDL
MODEL 5
REMARK VINA RESULT:      -5.0      0.887      2.184
REMARK  0 active torsions:
REMARK  status: ('A' for Active; 'I' for Inactive)
ROOT
HETATM    1  C1  UNL     1     -34.474   6.521   6.224  1.00 20.00     0.000 C 
HETATM    2  C2  UNL     1     -33.403   7.342   5.511  1.00 20.00     0.000 C 
HETATM    3  C3  UNL     1     -34.523   5.089   5.702  1.00 20.00     0.000 C 
HETATM    4  C4  UNL     1     -33.583   7.305   3.995  1.00 20.00     0.004 C 
HETATM    5  C5  UNL     1     -34.703   5.048   4.186  1.00 20.00     0.004 C 
HETATM    6  C6  UNL     1     -33.624   5.866   3.465  1.00 20.00    -0.018 C 
HETATM    7  C7  UNL     1     -33.856   5.853   1.955  1.00 20.00     0.010 C 
ENDROOT
TORSDOF 0
ENDMDL
MODEL 6
REMARK VINA RESULT:      -4.8      0.977      2.611
REMARK  0 active torsions:
REMARK  status: ('A' for Active; 'I' for Inactive)
ROOT
HETATM    1  C1  UNL     1     -33.968   5.149   2.762  1.00 20.00     0.000 C 
HETATM    2  C2  UNL     1     -34.210   4.482   4.113  1.00 20.00     0.000 C 
HETATM    3  C3  UNL     1     -32.930   6.262   2.864  1.00 20.00     0.000 C 
HETATM    4  C4  UNL     1     -34.587   5.501   5.184  1.00 20.00     0.004 C 
HETATM    5  C5  UNL     1     -33.304   7.284   3.935  1.00 20.00     0.004 C 
HETATM    6  C6  UNL     1     -33.541   6.618   5.297  1.00 20.00    -0.018 C 
HETATM    7  C7  UNL     1     -33.966   7.653   6.338  1.00 20.00     0.010 C 
ENDROOT
TORSDOF 0
ENDMDL
MODEL 7
REMARK VINA RESULT:      -4.7      0.795      2.844
REMARK  0 active torsions:
REMARK  status: ('A' for Active; 'I' for Inactive)
ROOT
HETATM    1  C1  UNL     1     -32.914   7.639   2.878  1.00 20.00     0.000 C 
HETATM    2  C2  UNL     1     -33.056   6.149   2.582  1.00 20.00     0.000 C 
HETATM    3  C3  UNL     1     -32.613   7.892   4.352  1.00 20.00     0.000 C 
HETATM    4  C4  UNL     1     -34.096   5.492   3.486  1.00 20.00     0.004 C 
HETATM    5  C5  UNL     1     -33.652   7.237   5.259  1.00 20.00     0.004 C 
HETATM    6  C6  UNL     1     -33.792   5.737   4.970  1.00 20.00    -0.018 C 
HETATM    7  C7  UNL     1     -34.874   5.115   5.852  1.00 20.00     0.010 C 
ENDROOT
TORSDOF 0
ENDMDL
MODEL 8
REMARK VINA RESULT:      -3.6     11.849     12.467
REMARK  0 active torsions:
REMARK  status: ('A' for Active; 'I' for Inactive)
ROOT
HETATM    1  C1  UNL     1     -34.584  18.637   0.225  1.00 20.00     0.000 C 
HETATM    2  C2  UNL     1     -33.128  18.461  -0.196  1.00 20.00     0.000 C 
HETATM    3  C3  UNL     1     -35.415  17.398  -0.093  1.00 20.00     0.000 C 
HETATM    4  C4  UNL     1     -33.012  18.072  -1.668  1.00 20.00     0.004 C 
HETATM    5  C5  UNL     1     -35.301  17.007  -1.564  1.00 20.00     0.004 C 
HETATM    6  C6  UNL     1     -33.839  16.820  -1.990  1.00 20.00    -0.018 C 
HETATM    7  C7  UNL     1     -33.749  16.482  -3.478  1.00 20.00     0.010 C 
ENDROOT
TORSDOF 0
ENDMDL
MODEL 9
REMARK VINA RESULT:      -3.5     11.819     12.528
REMARK  0 active torsions:
REMARK  status: ('A' for Active; 'I' for Inactive)
ROOT
HETATM    1  C1  UNL     1     -34.412  16.433  -2.706  1.00 20.00     0.000 C 
HETATM    2  C2  UNL     1     -33.340  17.517  -2.658  1.00 20.00     0.000 C 
HETATM    3  C3  UNL     1     -35.646  16.828  -1.901  1.00 20.00     0.000 C 
HETATM    4  C4  UNL     1     -32.976  17.886  -1.222  1.00 20.00     0.004 C 
HETATM    5  C5  UNL     1     -35.287  17.197  -0.464  1.00 20.00     0.004 C 
HETATM    6  C6  UNL     1     -34.214  18.293  -0.411  1.00 20.00    -0.018 C 
HETATM    7  C7  UNL     1     -33.833  18.607   1.035  1.00 20.00     0.010 C 
ENDROOT
TORSDOF 0
ENDMDL
