MODEL 1
REMARK VINA RESULT:      -6.1      0.000      0.000
REMARK  1 active torsions:
REMARK  status: ('A' for Active; 'I' for Inactive)
REMARK    1  A    between atoms: C2_2  and  C8_8 
ROOT
HETATM    1  C1  UNL     1     -33.968   6.550   5.082  1.00 20.00    -0.081 C 
HETATM    2  C2  UNL     1     -33.676   6.567   3.772  1.00 20.00    -0.078 C 
HETATM    3  C3  UNL     1     -34.580   5.244   5.489  1.00 20.00     0.034 C 
HETATM    4  C4  UNL     1     -34.048   5.274   3.112  1.00 20.00     0.034 C 
HETATM    5  C5  UNL     1     -34.293   4.341   4.293  1.00 20.00     0.009 C 
HETATM    6  C6  UNL     1     -33.795   7.624   6.099  1.00 20.00     0.043 C 
ENDROOT
BRANCH   2   7
HETATM    7  C8  UNL     1     -33.092   7.665   2.952  1.00 20.00     0.030 C 
HETATM    8  C7  UNL     1     -31.672   7.964   3.393  1.00 20.00     0.010 C 
ENDBRANCH   2   7
TORSDOF 1
ENDMDL
MODEL 2
REMARK VINA RESULT:      -5.9      0.895      2.994
REMARK  1 active torsions:
REMARK  status: ('A' for Active; 'I' for Inactive)
REMARK    1  A    between atoms: C2_2  and  C8_8 
ROOT
HETATM    1  C1  UNL     1     -33.267   7.312   4.622  1.00 20.00    -0.081 C 
HETATM    2  C2  UNL     1     -33.879   6.470   3.776  1.00 20.00    -0.078 C 
HETATM    3  C3  UNL     1     -32.139   8.038   3.951  1.00 20.00     0.034 C 
HETATM    4  C4  UNL     1     -33.252   6.510   2.415  1.00 20.00     0.034 C 
HETATM    5  C5  UNL     1     -32.384   7.762   2.471  1.00 20.00     0.009 C 
HETATM    6  C6  UNL     1     -33.542   7.564   6.063  1.00 20.00     0.043 C 
ENDROOT
BRANCH   2   7
HETATM    7  C8  UNL     1     -35.014   5.540   4.030  1.00 20.00     0.030 C 
HETATM    8  C7  UNL     1     -34.518   4.249   4.650  1.00 20.00     0.010 C 
ENDBRANCH   2   7
TORSDOF 1
ENDMDL
MODEL 3
REMARK VINA RESULT:      -5.7      0.586      2.238
REMARK  1 active torsions:
REMARK  status: ('A' for Active; 'I' for Inactive)
REMARK    1  A    between atoms: C2_2  and  C8_8 
ROOT
HETATM    1  C1  UNL     1     -33.621   5.315   3.513  1.00 20.00    -0.081 C 
HETATM    2  C2  UNL     1     -33.537   6.619   3.816  1.00 20.00    -0.078 C 
HETATM    3  C3  UNL     1     -34.190   4.524   4.652  1.00 20.00     0.034 C 
HETATM    4  C4  UNL     1     -34.039   6.892   5.202  1.00 20.00     0.034 C 
HETATM    5  C5  UNL     1     -34.763   5.600   5.567  1.00 20.00     0.009 C 
HETATM    6  C6  UNL     1     -33.210   4.610   2.268  1.00 20.00     0.043 C 
ENDROOT
BRANCH   2   7
HETATM    7  C8  UNL     1     -33.008   7.744   2.996  1.00 20.00     0.030 C 
HETATM    8  C7  UNL     1     -31.600   8.104   3.430  1.00 20.00     0.010 C 
ENDBRANCH   2   7
TORSDOF 1
ENDMDL
MODEL 4
REMARK VINA RESULT:      -5.6      1.010      2.379
REMARK  1 active torsions:
REMARK  status: ('A' for Active; 'I' for Inactive)
REMARK    1  A    between atoms: C2_2  and  C8_8 
ROOT
HETATM    1  C1  UNL     1     -33.132   7.248   4.348  1.00 20.00    -0.081 C 
HETATM    2  C2  UNL     1     -33.833   6.282   3.735  1.00 20.00    -0.078 C 
HETATM    3  C3  UNL     1     -33.601   7.453   5.758  1.00 20.00     0.034 C 
HETATM    4  C4  UNL     1     -34.872   5.698   4.644  1.00 20.00     0.034 C 
HETATM    5  C5  UNL     1     -34.463   6.222   6.017  1.00 20.00     0.009 C 
HETATM    6  C6  UNL     1     -32.039   8.103   3.810  1.00 20.00     0.043 C 
ENDROOT
BRANCH   2   7
HETATM    7  C8  UNL     1     -33.722   5.781   2.337  1.00 20.00     0.030 C 
HETATM    8  C7  UNL     1     -32.936   4.485   2.295  1.00 20.00     0.010 C 
ENDBRANCH   2   7
TORSDOF 1
ENDMDL
MODEL 5
REMARK VINA RESULT:      -5.0      1.082      3.682
REMARK  1 active torsions:
REMARK  status: ('A' for Active; 'I' for Inactive)
REMARK    1  A    between atoms: C2_2  and  C8_8 
ROOT
HETATM    1  C1  UNL     1     -33.120   5.999   2.968  1.00 20.00    -0.081 C 
HETATM    2  C2  UNL     1     -33.942   6.277   3.991  1.00 20.00    -0.078 C 
HETATM    3  C3  UNL     1     -32.181   7.136   2.696  1.00 20.00     0.034 C 
HETATM    4  C4  UNL     1     -33.674   7.640   4.554  1.00 20.00     0.034 C 
HETATM    5  C5  UNL     1     -32.328   8.009   3.938  1.00 20.00     0.009 C 
HETATM    6  C6  UNL     1     -33.062   4.784   2.110  1.00 20.00     0.043 C 
ENDROOT
BRANCH   2   7
HETATM    7  C8  UNL     1     -35.039   5.451   4.568  1.00 20.00     0.030 C 
HETATM    8  C7  UNL     1     -34.623   4.871   5.906  1.00 20.00     0.010 C 
ENDBRANCH   2   7
TORSDOF 1
ENDMDL
MODEL 6
REMARK VINA RESULT:      -4.8      0.891      2.695
REMARK  1 active torsions:
REMARK  status: ('A' for Active; 'I' for Inactive)
REMARK    1  A    between atoms: C2_2  and  C8_8 
ROOT
HETATM    1  C1  UNL     1     -34.102   6.112   4.999  1.00 20.00    -0.081 C 
HETATM    2  C2  UNL     1     -33.646   6.406   3.773  1.00 20.00    -0.078 C 
HETATM    3  C3  UNL     1     -33.612   7.099   6.017  1.00 20.00     0.034 C 
HETATM    4  C4  UNL     1     -32.785   7.632   3.788  1.00 20.00     0.034 C 
HETATM    5  C5  UNL     1     -33.071   8.238   5.159  1.00 20.00     0.009 C 
HETATM    6  C6  UNL     1     -34.955   4.973   5.439  1.00 20.00     0.043 C 
ENDROOT
BRANCH   2   7
HETATM    7  C8  UNL     1     -33.859   5.679   2.490  1.00 20.00     0.030 C 
HETATM    8  C7  UNL     1     -32.923   4.491   2.387  1.00 20.00     0.010 C 
ENDBRANCH   2   7
TORSDOF 1
ENDMDL
MODEL 7
REMARK VINA RESULT:      -4.6      1.012      3.023
REMARK  1 active torsions:
REMARK  status: ('A' for Active; 'I' for Inactive)
REMARK    1  A    between atoms: C2_2  and  C8_8 
ROOT
HETATM    1  C1  UNL     1     -33.862   5.223   3.799  1.00 20.00    -0.081 C 
HETATM    2  C2  UNL     1     -33.887   6.399   4.443  1.00 20.00    -0.078 C 
HETATM    3  C3  UNL     1     -33.419   5.388   2.376  1.00 20.00     0.034 C 
HETATM    4  C4  UNL     1     -33.463   7.523   3.547  1.00 20.00     0.034 C 
HETATM    5  C5  UNL     1     -32.843   6.800   2.356  1.00 20.00     0.009 C 
HETATM    6  C6  UNL     1     -34.233   3.869   4.296  1.00 20.00     0.043 C 
ENDROOT
BRANCH   2   7
HETATM    7  C8  UNL     1     -34.292   6.696   5.845  1.00 20.00     0.030 C 
HETATM    8  C7  UNL     1     -33.486   7.854   6.400  1.00 20.00     0.010 C 
ENDBRANCH   2   7
TORSDOF 1
ENDMDL
MODEL 8
REMARK VINA RESULT:      -4.6      0.947      2.524
REMARK  1 active torsions:
REMARK  status: ('A' for Active; 'I' for Inactive)
REMARK    1  A    between atoms: C2_2  and  C8_8 
ROOT
HETATM    1  C1  UNL     1     -33.324   6.090   3.229  1.00 20.00    -0.081 C 
HETATM    2  C2  UNL     1     -34.004   6.084   4.385  1.00 20.00    -0.078 C 
HETATM    3  C3  UNL     1     -33.082   4.697   2.729  1.00 20.00     0.034 C 
HETATM    4  C4  UNL     1     -34.317   4.687   4.828  1.00 20.00     0.034 C 
HETATM    5  C5  UNL     1     -34.024   3.856   3.583  1.00 20.00     0.009 C 
HETATM    6  C6  UNL     1     -32.790   7.246   2.457  1.00 20.00     0.043 C 
ENDROOT
BRANCH   2   7
HETATM    7  C8  UNL     1     -34.424   7.232   5.236  1.00 20.00     0.030 C 
HETATM    8  C7  UNL     1     -33.290   7.668   6.143  1.00 20.00     0.010 C 
ENDBRANCH   2   7
TORSDOF 1
ENDMDL
MODEL 9
REMARK VINA RESULT:      -4.2     12.011     12.542
REMARK  1 active torsions:
REMARK  status: ('A' for Active; 'I' for Inactive)
REMARK    1  A    between atoms: C2_2  and  C8_8 
ROOT
HETATM    1  C1  UNL     1     -34.836  17.613  -0.179  1.00 20.00    -0.081 C 
HETATM    2  C2  UNL     1     -33.635  18.206  -0.255  1.00 20.00    -0.078 C 
HETATM    3  C3  UNL     1     -35.179  16.905  -1.456  1.00 20.00     0.034 C 
HETATM    4  C4  UNL     1     -32.997  17.982  -1.593  1.00 20.00     0.034 C 
HETATM    5  C5  UNL     1     -33.846  16.867  -2.197  1.00 20.00     0.009 C 
HETATM    6  C6  UNL     1     -35.814  17.608   0.943  1.00 20.00     0.043 C 
ENDROOT
BRANCH   2   7
HETATM    7  C8  UNL     1     -32.928  19.034   0.761  1.00 20.00     0.030 C 
HETATM    8  C7  UNL     1     -31.441  18.735   0.753  1.00 20.00     0.010 C 
ENDBRANCH   2   7
TORSDOF 1
ENDMDL
