MODEL 1
REMARK VINA RESULT:      -7.2      0.000      0.000
REMARK  3 active torsions:
REMARK  status: ('A' for Active; 'I' for Inactive)
REMARK    1  A    between atoms: C6_6  and  C8_8 
REMARK    2  A    between atoms: C8_8  and  C10_10 
REMARK    3  A    between atoms: C9_9  and  C10_10 
ROOT
HETATM    1  C1  UNL     1     -34.603   5.697   5.885  1.00 20.00     0.000 A 
HETATM    2  C2  UNL     1     -33.964   6.936   5.835  1.00 20.00     0.001 A 
HETATM    3  C3  UNL     1     -34.664   4.897   4.744  1.00 20.00     0.001 A 
HETATM    4  C4  UNL     1     -33.386   7.375   4.644  1.00 20.00     0.007 A 
HETATM    5  C5  UNL     1     -34.086   5.336   3.554  1.00 20.00     0.007 A 
HETATM    6  C6  UNL     1     -33.447   6.575   3.503  1.00 20.00    -0.058 A 
ENDROOT
BRANCH   6   7
HETATM    7  C8  UNL     1     -32.823   7.048   2.215  1.00 20.00     0.038 C 
BRANCH   7   8
HETATM    8  C10 UNL     1     -32.034   8.345   2.417  1.00 20.00     0.004 C 
BRANCH   8   9
HETATM    9  C9  UNL     1     -31.848   9.093   1.096  1.00 20.00    -0.004 C 
HETATM   10  C7  UNL     1     -32.745  10.320   1.019  1.00 20.00     0.005 C 
ENDBRANCH   8   9
ENDBRANCH   7   8
ENDBRANCH   6   7
TORSDOF 3
ENDMDL
MODEL 2
REMARK VINA RESULT:      -7.1      0.808      1.825
REMARK  3 active torsions:
REMARK  status: ('A' for Active; 'I' for Inactive)
REMARK    1  A    between atoms: C6_6  and  C8_8 
REMARK    2  A    between atoms: C8_8  and  C10_10 
REMARK    3  A    between atoms: C9_9  and  C10_10 
ROOT
HETATM    1  C1  UNL     1     -34.648   5.579   4.774  1.00 20.00     0.000 A 
HETATM    2  C2  UNL     1     -34.202   5.439   3.460  1.00 20.00     0.001 A 
HETATM    3  C3  UNL     1     -34.153   6.611   5.572  1.00 20.00     0.001 A 
HETATM    4  C4  UNL     1     -33.262   6.330   2.943  1.00 20.00     0.007 A 
HETATM    5  C5  UNL     1     -33.212   7.502   5.055  1.00 20.00     0.007 A 
HETATM    6  C6  UNL     1     -32.766   7.361   3.741  1.00 20.00    -0.058 A 
ENDROOT
BRANCH   6   7
HETATM    7  C8  UNL     1     -31.749   8.325   3.184  1.00 20.00     0.038 C 
BRANCH   7   8
HETATM    8  C10 UNL     1     -31.819   8.393   1.656  1.00 20.00     0.004 C 
BRANCH   8   9
HETATM    9  C9  UNL     1     -32.511   9.674   1.189  1.00 20.00    -0.004 C 
HETATM   10  C7  UNL     1     -33.070   9.526  -0.218  1.00 20.00     0.005 C 
ENDBRANCH   8   9
ENDBRANCH   7   8
ENDBRANCH   6   7
TORSDOF 3
ENDMDL
MODEL 3
REMARK VINA RESULT:      -7.1      0.807      1.209
REMARK  3 active torsions:
REMARK  status: ('A' for Active; 'I' for Inactive)
REMARK    1  A    between atoms: C6_6  and  C8_8 
REMARK    2  A    between atoms: C8_8  and  C10_10 
REMARK    3  A    between atoms: C9_9  and  C10_10 
ROOT
HETATM    1  C1  UNL     1     -34.681   5.591   4.737  1.00 20.00     0.000 A 
HETATM    2  C2  UNL     1     -34.165   6.598   5.552  1.00 20.00     0.001 A 
HETATM    3  C3  UNL     1     -34.251   5.475   3.415  1.00 20.00     0.001 A 
HETATM    4  C4  UNL     1     -33.217   7.488   5.047  1.00 20.00     0.007 A 
HETATM    5  C5  UNL     1     -33.303   6.364   2.910  1.00 20.00     0.007 A 
HETATM    6  C6  UNL     1     -32.786   7.371   3.725  1.00 20.00    -0.058 A 
ENDROOT
BRANCH   6   7
HETATM    7  C8  UNL     1     -31.762   8.332   3.177  1.00 20.00     0.038 C 
BRANCH   7   8
HETATM    8  C10 UNL     1     -31.826   8.409   1.649  1.00 20.00     0.004 C 
BRANCH   8   9
HETATM    9  C9  UNL     1     -32.513   9.695   1.187  1.00 20.00    -0.004 C 
HETATM   10  C7  UNL     1     -33.010   9.578  -0.246  1.00 20.00     0.005 C 
ENDBRANCH   8   9
ENDBRANCH   7   8
ENDBRANCH   6   7
TORSDOF 3
ENDMDL
MODEL 4
REMARK VINA RESULT:      -5.2      1.119      4.774
REMARK  3 active torsions:
REMARK  status: ('A' for Active; 'I' for Inactive)
REMARK    1  A    between atoms: C6_6  and  C8_8 
REMARK    2  A    between atoms: C8_8  and  C10_10 
REMARK    3  A    between atoms: C9_9  and  C10_10 
ROOT
HETATM    1  C1  UNL     1     -31.873   8.302   1.868  1.00 20.00     0.000 A 
HETATM    2  C2  UNL     1     -33.052   7.557   1.880  1.00 20.00     0.001 A 
HETATM    3  C3  UNL     1     -31.266   8.666   3.070  1.00 20.00     0.001 A 
HETATM    4  C4  UNL     1     -33.624   7.176   3.093  1.00 20.00     0.007 A 
HETATM    5  C5  UNL     1     -31.839   8.285   4.283  1.00 20.00     0.007 A 
HETATM    6  C6  UNL     1     -33.018   7.540   4.295  1.00 20.00    -0.058 A 
ENDROOT
BRANCH   6   7
HETATM    7  C8  UNL     1     -33.635   7.129   5.608  1.00 20.00     0.038 C 
BRANCH   7   8
HETATM    8  C10 UNL     1     -34.827   6.190   5.397  1.00 20.00     0.004 C 
BRANCH   8   9
HETATM    9  C9  UNL     1     -34.441   4.735   5.662  1.00 20.00    -0.004 C 
HETATM   10  C7  UNL     1     -34.194   3.979   4.365  1.00 20.00     0.005 C 
ENDBRANCH   8   9
ENDBRANCH   7   8
ENDBRANCH   6   7
TORSDOF 3
ENDMDL
MODEL 5
REMARK VINA RESULT:      -5.2      1.117      4.568
REMARK  3 active torsions:
REMARK  status: ('A' for Active; 'I' for Inactive)
REMARK    1  A    between atoms: C6_6  and  C8_8 
REMARK    2  A    between atoms: C8_8  and  C10_10 
REMARK    3  A    between atoms: C9_9  and  C10_10 
ROOT
HETATM    1  C1  UNL     1     -31.901   8.289   1.828  1.00 20.00     0.000 A 
HETATM    2  C2  UNL     1     -31.282   8.678   3.015  1.00 20.00     0.001 A 
HETATM    3  C3  UNL     1     -33.066   7.523   1.868  1.00 20.00     0.001 A 
HETATM    4  C4  UNL     1     -31.827   8.302   4.243  1.00 20.00     0.007 A 
HETATM    5  C5  UNL     1     -33.611   7.147   3.095  1.00 20.00     0.007 A 
HETATM    6  C6  UNL     1     -32.992   7.536   4.283  1.00 20.00    -0.058 A 
ENDROOT
BRANCH   6   7
HETATM    7  C8  UNL     1     -33.582   7.128   5.609  1.00 20.00     0.038 C 
BRANCH   7   8
HETATM    8  C10 UNL     1     -34.797   6.214   5.425  1.00 20.00     0.004 C 
BRANCH   8   9
HETATM    9  C9  UNL     1     -34.436   4.752   5.687  1.00 20.00    -0.004 C 
HETATM   10  C7  UNL     1     -34.186   3.998   4.389  1.00 20.00     0.005 C 
ENDBRANCH   8   9
ENDBRANCH   7   8
ENDBRANCH   6   7
TORSDOF 3
ENDMDL
MODEL 6
REMARK VINA RESULT:      -4.9      0.937      5.066
REMARK  3 active torsions:
REMARK  status: ('A' for Active; 'I' for Inactive)
REMARK    1  A    between atoms: C6_6  and  C8_8 
REMARK    2  A    between atoms: C8_8  and  C10_10 
REMARK    3  A    between atoms: C9_9  and  C10_10 
ROOT
HETATM    1  C1  UNL     1     -32.134  10.023   0.311  1.00 20.00     0.000 A 
HETATM    2  C2  UNL     1     -31.395   8.850   0.459  1.00 20.00     0.001 A 
HETATM    3  C3  UNL     1     -33.136  10.337   1.230  1.00 20.00     0.001 A 
HETATM    4  C4  UNL     1     -31.657   7.989   1.525  1.00 20.00     0.007 A 
HETATM    5  C5  UNL     1     -33.397   9.476   2.296  1.00 20.00     0.007 A 
HETATM    6  C6  UNL     1     -32.658   8.303   2.444  1.00 20.00    -0.058 A 
ENDROOT
BRANCH   6   7
HETATM    7  C8  UNL     1     -32.943   7.374   3.596  1.00 20.00     0.038 C 
BRANCH   7   8
HETATM    8  C10 UNL     1     -33.789   6.175   3.156  1.00 20.00     0.004 C 
BRANCH   8   9
HETATM    9  C9  UNL     1     -34.757   5.745   4.258  1.00 20.00    -0.004 C 
HETATM   10  C7  UNL     1     -34.309   6.247   5.622  1.00 20.00     0.005 C 
ENDBRANCH   8   9
ENDBRANCH   7   8
ENDBRANCH   6   7
TORSDOF 3
ENDMDL
MODEL 7
REMARK VINA RESULT:      -4.7     10.755     11.524
REMARK  3 active torsions:
REMARK  status: ('A' for Active; 'I' for Inactive)
REMARK    1  A    between atoms: C6_6  and  C8_8 
REMARK    2  A    between atoms: C8_8  and  C10_10 
REMARK    3  A    between atoms: C9_9  and  C10_10 
ROOT
HETATM    1  C1  UNL     1     -34.242  18.379   0.644  1.00 20.00     0.000 A 
HETATM    2  C2  UNL     1     -35.279  17.623   0.098  1.00 20.00     0.001 A 
HETATM    3  C3  UNL     1     -33.050  18.540  -0.062  1.00 20.00     0.001 A 
HETATM    4  C4  UNL     1     -35.125  17.028  -1.154  1.00 20.00     0.007 A 
HETATM    5  C5  UNL     1     -32.896  17.945  -1.314  1.00 20.00     0.007 A 
HETATM    6  C6  UNL     1     -33.933  17.189  -1.860  1.00 20.00    -0.058 A 
ENDROOT
BRANCH   6   7
HETATM    7  C8  UNL     1     -33.764  16.546  -3.213  1.00 20.00     0.038 C 
BRANCH   7   8
HETATM    8  C10 UNL     1     -34.932  15.609  -3.539  1.00 20.00     0.004 C 
BRANCH   8   9
HETATM    9  C9  UNL     1     -34.437  14.294  -4.140  1.00 20.00    -0.004 C 
HETATM   10  C7  UNL     1     -32.934  14.318  -4.375  1.00 20.00     0.005 C 
ENDBRANCH   8   9
ENDBRANCH   7   8
ENDBRANCH   6   7
TORSDOF 3
ENDMDL
MODEL 8
REMARK VINA RESULT:      -4.7     10.799     11.510
REMARK  3 active torsions:
REMARK  status: ('A' for Active; 'I' for Inactive)
REMARK    1  A    between atoms: C6_6  and  C8_8 
REMARK    2  A    between atoms: C8_8  and  C10_10 
REMARK    3  A    between atoms: C9_9  and  C10_10 
ROOT
HETATM    1  C1  UNL     1     -34.241  18.377   0.466  1.00 20.00     0.000 A 
HETATM    2  C2  UNL     1     -33.050  18.504  -0.249  1.00 20.00     0.001 A 
HETATM    3  C3  UNL     1     -35.272  17.582  -0.034  1.00 20.00     0.001 A 
HETATM    4  C4  UNL     1     -32.890  17.837  -1.464  1.00 20.00     0.007 A 
HETATM    5  C5  UNL     1     -35.113  16.916  -1.249  1.00 20.00     0.007 A 
HETATM    6  C6  UNL     1     -33.922  17.043  -1.964  1.00 20.00    -0.058 A 
ENDROOT
BRANCH   6   7
HETATM    7  C8  UNL     1     -33.751  16.322  -3.277  1.00 20.00     0.038 C 
BRANCH   7   8
HETATM    8  C10 UNL     1     -35.005  15.523  -3.645  1.00 20.00     0.004 C 
BRANCH   8   9
HETATM    9  C9  UNL     1     -34.641  14.169  -4.255  1.00 20.00    -0.004 C 
HETATM   10  C7  UNL     1     -35.773  13.619  -5.109  1.00 20.00     0.005 C 
ENDBRANCH   8   9
ENDBRANCH   7   8
ENDBRANCH   6   7
TORSDOF 3
ENDMDL
MODEL 9
REMARK VINA RESULT:      -4.6     10.848     11.559
REMARK  3 active torsions:
REMARK  status: ('A' for Active; 'I' for Inactive)
REMARK    1  A    between atoms: C6_6  and  C8_8 
REMARK    2  A    between atoms: C8_8  and  C10_10 
REMARK    3  A    between atoms: C9_9  and  C10_10 
ROOT
HETATM    1  C1  UNL     1     -33.459  18.668   0.489  1.00 20.00     0.000 A 
HETATM    2  C2  UNL     1     -34.722  18.079   0.543  1.00 20.00     0.001 A 
HETATM    3  C3  UNL     1     -32.638  18.457  -0.618  1.00 20.00     0.001 A 
HETATM    4  C4  UNL     1     -35.165  17.280  -0.511  1.00 20.00     0.007 A 
HETATM    5  C5  UNL     1     -33.081  17.657  -1.672  1.00 20.00     0.007 A 
HETATM    6  C6  UNL     1     -34.344  17.069  -1.619  1.00 20.00    -0.058 A 
ENDROOT
BRANCH   6   7
HETATM    7  C8  UNL     1     -34.821  16.205  -2.758  1.00 20.00     0.038 C 
BRANCH   7   8
HETATM    8  C10 UNL     1     -33.697  15.926  -3.760  1.00 20.00     0.004 C 
BRANCH   8   9
HETATM    9  C9  UNL     1     -33.726  14.474  -4.237  1.00 20.00    -0.004 C 
HETATM   10  C7  UNL     1     -35.138  14.029  -4.585  1.00 20.00     0.005 C 
ENDBRANCH   8   9
ENDBRANCH   7   8
ENDBRANCH   6   7
TORSDOF 3
ENDMDL
