MODEL 1
REMARK VINA RESULT:      -7.0      0.000      0.000
REMARK  5 active torsions:
REMARK  status: ('A' for Active; 'I' for Inactive)
REMARK    1  A    between atoms: C6_6  and  C8_8 
REMARK    2  A    between atoms: C8_8  and  C10_10 
REMARK    3  A    between atoms: C9_9  and  C11_11 
REMARK    4  A    between atoms: C10_10  and  C12_12 
REMARK    5  A    between atoms: C11_11  and  C12_12 
ROOT
HETATM    1  C1  UNL     1     -34.655   5.535   5.950  1.00 20.00     0.000 A 
HETATM    2  C2  UNL     1     -34.652   4.771   4.782  1.00 20.00     0.001 A 
HETATM    3  C3  UNL     1     -34.079   6.806   5.952  1.00 20.00     0.001 A 
HETATM    4  C4  UNL     1     -34.076   5.277   3.618  1.00 20.00     0.007 A 
HETATM    5  C5  UNL     1     -33.503   7.313   4.787  1.00 20.00     0.007 A 
HETATM    6  C6  UNL     1     -33.501   6.549   3.620  1.00 20.00    -0.058 A 
ENDROOT
BRANCH   6   7
HETATM    7  C8  UNL     1     -32.882   7.094   2.370  1.00 20.00     0.038 C 
BRANCH   7   8
HETATM    8  C10 UNL     1     -31.883   8.212   2.674  1.00 20.00     0.005 C 
BRANCH   8   9
HETATM    9  C12 UNL     1     -31.598   9.053   1.428  1.00 20.00     0.000 C 
BRANCH   9  10
HETATM   10  C11 UNL     1     -32.700  10.087   1.190  1.00 20.00    -0.000 C 
BRANCH  10  11
HETATM   11  C9  UNL     1     -33.302   9.945  -0.208  1.00 20.00    -0.005 C 
HETATM   12  C7  UNL     1     -32.739   8.735  -0.937  1.00 20.00     0.005 C 
ENDBRANCH  10  11
ENDBRANCH   9  10
ENDBRANCH   8   9
ENDBRANCH   7   8
ENDBRANCH   6   7
TORSDOF 5
ENDMDL
MODEL 2
REMARK VINA RESULT:      -6.7      0.709      1.122
REMARK  5 active torsions:
REMARK  status: ('A' for Active; 'I' for Inactive)
REMARK    1  A    between atoms: C6_6  and  C8_8 
REMARK    2  A    between atoms: C8_8  and  C10_10 
REMARK    3  A    between atoms: C9_9  and  C11_11 
REMARK    4  A    between atoms: C10_10  and  C12_12 
REMARK    5  A    between atoms: C11_11  and  C12_12 
ROOT
HETATM    1  C1  UNL     1     -34.744   4.854   5.709  1.00 20.00     0.000 A 
HETATM    2  C2  UNL     1     -34.462   4.261   4.478  1.00 20.00     0.001 A 
HETATM    3  C3  UNL     1     -34.436   6.198   5.921  1.00 20.00     0.001 A 
HETATM    4  C4  UNL     1     -33.873   5.010   3.461  1.00 20.00     0.007 A 
HETATM    5  C5  UNL     1     -33.848   6.948   4.902  1.00 20.00     0.007 A 
HETATM    6  C6  UNL     1     -33.566   6.354   3.672  1.00 20.00    -0.058 A 
ENDROOT
BRANCH   6   7
HETATM    7  C8  UNL     1     -32.934   7.160   2.580  1.00 20.00     0.038 C 
BRANCH   7   8
HETATM    8  C10 UNL     1     -31.710   7.931   3.080  1.00 20.00     0.005 C 
BRANCH   8   9
HETATM    9  C12 UNL     1     -31.322   9.046   2.106  1.00 20.00     0.000 C 
BRANCH   9  10
HETATM   10  C11 UNL     1     -31.768   8.720   0.680  1.00 20.00    -0.000 C 
BRANCH  10  11
HETATM   11  C9  UNL     1     -32.775   9.748   0.165  1.00 20.00    -0.005 C 
HETATM   12  C7  UNL     1     -33.219  10.695   1.269  1.00 20.00     0.005 C 
ENDBRANCH  10  11
ENDBRANCH   9  10
ENDBRANCH   8   9
ENDBRANCH   7   8
ENDBRANCH   6   7
TORSDOF 5
ENDMDL
MODEL 3
REMARK VINA RESULT:      -5.7      0.896      5.684
REMARK  5 active torsions:
REMARK  status: ('A' for Active; 'I' for Inactive)
REMARK    1  A    between atoms: C6_6  and  C8_8 
REMARK    2  A    between atoms: C8_8  and  C10_10 
REMARK    3  A    between atoms: C9_9  and  C11_11 
REMARK    4  A    between atoms: C10_10  and  C12_12 
REMARK    5  A    between atoms: C11_11  and  C12_12 
ROOT
HETATM    1  C1  UNL     1     -32.819  10.280  -0.030  1.00 20.00     0.000 A 
HETATM    2  C2  UNL     1     -32.546  10.642   1.289  1.00 20.00     0.001 A 
HETATM    3  C3  UNL     1     -32.900   8.932  -0.380  1.00 20.00     0.001 A 
HETATM    4  C4  UNL     1     -32.356   9.657   2.258  1.00 20.00     0.007 A 
HETATM    5  C5  UNL     1     -32.711   7.947   0.589  1.00 20.00     0.007 A 
HETATM    6  C6  UNL     1     -32.438   8.309   1.908  1.00 20.00    -0.058 A 
ENDROOT
BRANCH   6   7
HETATM    7  C8  UNL     1     -32.235   7.251   2.947  1.00 20.00     0.038 C 
BRANCH   7   8
HETATM    8  C10 UNL     1     -33.124   6.031   2.696  1.00 20.00     0.005 C 
BRANCH   8   9
HETATM    9  C12 UNL     1     -34.459   6.158   3.432  1.00 20.00     0.000 C 
BRANCH   9  10
HETATM   10  C11 UNL     1     -34.683   4.985   4.387  1.00 20.00    -0.000 C 
BRANCH  10  11
HETATM   11  C9  UNL     1     -34.525   5.417   5.845  1.00 20.00    -0.005 C 
HETATM   12  C7  UNL     1     -34.073   6.865   5.950  1.00 20.00     0.005 C 
ENDBRANCH  10  11
ENDBRANCH   9  10
ENDBRANCH   8   9
ENDBRANCH   7   8
ENDBRANCH   6   7
TORSDOF 5
ENDMDL
MODEL 4
REMARK VINA RESULT:      -5.6      1.002      5.608
REMARK  5 active torsions:
REMARK  status: ('A' for Active; 'I' for Inactive)
REMARK    1  A    between atoms: C6_6  and  C8_8 
REMARK    2  A    between atoms: C8_8  and  C10_10 
REMARK    3  A    between atoms: C9_9  and  C11_11 
REMARK    4  A    between atoms: C10_10  and  C12_12 
REMARK    5  A    between atoms: C11_11  and  C12_12 
ROOT
HETATM    1  C1  UNL     1     -32.235   9.928  -0.015  1.00 20.00     0.000 A 
HETATM    2  C2  UNL     1     -32.989  10.403   1.060  1.00 20.00     0.001 A 
HETATM    3  C3  UNL     1     -31.492   8.756   0.120  1.00 20.00     0.001 A 
HETATM    4  C4  UNL     1     -32.999   9.705   2.267  1.00 20.00     0.007 A 
HETATM    5  C5  UNL     1     -31.503   8.057   1.327  1.00 20.00     0.007 A 
HETATM    6  C6  UNL     1     -32.256   8.532   2.401  1.00 20.00    -0.058 A 
ENDROOT
BRANCH   6   7
HETATM    7  C8  UNL     1     -32.267   7.782   3.696  1.00 20.00     0.038 C 
BRANCH   7   8
HETATM    8  C10 UNL     1     -33.690   7.576   4.221  1.00 20.00     0.005 C 
BRANCH   8   9
HETATM    9  C12 UNL     1     -33.683   7.148   5.690  1.00 20.00     0.000 C 
BRANCH   9  10
HETATM   10  C11 UNL     1     -34.527   5.891   5.908  1.00 20.00    -0.000 C 
BRANCH  10  11
HETATM   11  C9  UNL     1     -34.929   5.254   4.578  1.00 20.00    -0.005 C 
HETATM   12  C7  UNL     1     -34.145   3.978   4.312  1.00 20.00     0.005 C 
ENDBRANCH  10  11
ENDBRANCH   9  10
ENDBRANCH   8   9
ENDBRANCH   7   8
ENDBRANCH   6   7
TORSDOF 5
ENDMDL
MODEL 5
REMARK VINA RESULT:      -5.4      0.917      5.481
REMARK  5 active torsions:
REMARK  status: ('A' for Active; 'I' for Inactive)
REMARK    1  A    between atoms: C6_6  and  C8_8 
REMARK    2  A    between atoms: C8_8  and  C10_10 
REMARK    3  A    between atoms: C9_9  and  C11_11 
REMARK    4  A    between atoms: C10_10  and  C12_12 
REMARK    5  A    between atoms: C11_11  and  C12_12 
ROOT
HETATM    1  C1  UNL     1     -32.792  10.285  -0.050  1.00 20.00     0.000 A 
HETATM    2  C2  UNL     1     -32.873   8.935  -0.396  1.00 20.00     0.001 A 
HETATM    3  C3  UNL     1     -32.510  10.651   1.265  1.00 20.00     0.001 A 
HETATM    4  C4  UNL     1     -32.672   7.954   0.573  1.00 20.00     0.007 A 
HETATM    5  C5  UNL     1     -32.308   9.669   2.235  1.00 20.00     0.007 A 
HETATM    6  C6  UNL     1     -32.389   8.320   1.889  1.00 20.00    -0.058 A 
ENDROOT
BRANCH   6   7
HETATM    7  C8  UNL     1     -32.173   7.266   2.931  1.00 20.00     0.038 C 
BRANCH   7   8
HETATM    8  C10 UNL     1     -32.704   7.703   4.298  1.00 20.00     0.005 C 
BRANCH   8   9
HETATM    9  C12 UNL     1     -34.105   7.143   4.553  1.00 20.00     0.000 C 
BRANCH   9  10
HETATM   10  C11 UNL     1     -34.141   6.292   5.823  1.00 20.00    -0.000 C 
BRANCH  10  11
HETATM   11  C9  UNL     1     -34.799   4.937   5.565  1.00 20.00    -0.005 C 
HETATM   12  C7  UNL     1     -34.226   4.266   4.326  1.00 20.00     0.005 C 
ENDBRANCH  10  11
ENDBRANCH   9  10
ENDBRANCH   8   9
ENDBRANCH   7   8
ENDBRANCH   6   7
TORSDOF 5
ENDMDL
MODEL 6
REMARK VINA RESULT:      -4.9     10.385     11.091
REMARK  5 active torsions:
REMARK  status: ('A' for Active; 'I' for Inactive)
REMARK    1  A    between atoms: C6_6  and  C8_8 
REMARK    2  A    between atoms: C8_8  and  C10_10 
REMARK    3  A    between atoms: C9_9  and  C11_11 
REMARK    4  A    between atoms: C10_10  and  C12_12 
REMARK    5  A    between atoms: C11_11  and  C12_12 
ROOT
HETATM    1  C1  UNL     1     -33.737  18.468   0.349  1.00 20.00     0.000 A 
HETATM    2  C2  UNL     1     -32.833  18.332  -0.706  1.00 20.00     0.001 A 
HETATM    3  C3  UNL     1     -34.981  17.841   0.285  1.00 20.00     0.001 A 
HETATM    4  C4  UNL     1     -33.173  17.569  -1.822  1.00 20.00     0.007 A 
HETATM    5  C5  UNL     1     -35.321  17.077  -0.831  1.00 20.00     0.007 A 
HETATM    6  C6  UNL     1     -34.418  16.941  -1.885  1.00 20.00    -0.058 A 
ENDROOT
BRANCH   6   7
HETATM    7  C8  UNL     1     -34.784  16.121  -3.083  1.00 20.00     0.038 C 
BRANCH   7   8
HETATM    8  C10 UNL     1     -33.546  15.673  -3.864  1.00 20.00     0.005 C 
BRANCH   8   9
HETATM    9  C12 UNL     1     -33.757  14.294  -4.492  1.00 20.00     0.000 C 
BRANCH   9  10
HETATM   10  C11 UNL     1     -35.242  13.934  -4.562  1.00 20.00    -0.000 C 
BRANCH  10  11
HETATM   11  C9  UNL     1     -35.656  13.552  -5.983  1.00 20.00    -0.005 C 
HETATM   12  C7  UNL     1     -34.505  13.722  -6.962  1.00 20.00     0.005 C 
ENDBRANCH  10  11
ENDBRANCH   9  10
ENDBRANCH   8   9
ENDBRANCH   7   8
ENDBRANCH   6   7
TORSDOF 5
ENDMDL
MODEL 7
REMARK VINA RESULT:      -4.9     10.422     11.077
REMARK  5 active torsions:
REMARK  status: ('A' for Active; 'I' for Inactive)
REMARK    1  A    between atoms: C6_6  and  C8_8 
REMARK    2  A    between atoms: C8_8  and  C10_10 
REMARK    3  A    between atoms: C9_9  and  C11_11 
REMARK    4  A    between atoms: C10_10  and  C12_12 
REMARK    5  A    between atoms: C11_11  and  C12_12 
ROOT
HETATM    1  C1  UNL     1     -33.786  18.477   0.317  1.00 20.00     0.000 A 
HETATM    2  C2  UNL     1     -35.030  17.850   0.249  1.00 20.00     0.001 A 
HETATM    3  C3  UNL     1     -32.864  18.310  -0.717  1.00 20.00     0.001 A 
HETATM    4  C4  UNL     1     -35.354  17.058  -0.852  1.00 20.00     0.007 A 
HETATM    5  C5  UNL     1     -33.188  17.519  -1.819  1.00 20.00     0.007 A 
HETATM    6  C6  UNL     1     -34.432  16.892  -1.887  1.00 20.00    -0.058 A 
ENDROOT
BRANCH   6   7
HETATM    7  C8  UNL     1     -34.778  16.043  -3.070  1.00 20.00     0.038 C 
BRANCH   7   8
HETATM    8  C10 UNL     1     -33.544  15.720  -3.917  1.00 20.00     0.005 C 
BRANCH   8   9
HETATM    9  C12 UNL     1     -33.701  14.380  -4.637  1.00 20.00     0.000 C 
BRANCH   9  10
HETATM   10  C11 UNL     1     -35.152  13.895  -4.601  1.00 20.00    -0.000 C 
BRANCH  10  11
HETATM   11  C9  UNL     1     -35.686  13.636  -6.009  1.00 20.00    -0.005 C 
HETATM   12  C7  UNL     1     -34.557  13.549  -7.026  1.00 20.00     0.005 C 
ENDBRANCH  10  11
ENDBRANCH   9  10
ENDBRANCH   8   9
ENDBRANCH   7   8
ENDBRANCH   6   7
TORSDOF 5
ENDMDL
MODEL 8
REMARK VINA RESULT:      -4.6     10.483     11.326
REMARK  5 active torsions:
REMARK  status: ('A' for Active; 'I' for Inactive)
REMARK    1  A    between atoms: C6_6  and  C8_8 
REMARK    2  A    between atoms: C8_8  and  C10_10 
REMARK    3  A    between atoms: C9_9  and  C11_11 
REMARK    4  A    between atoms: C10_10  and  C12_12 
REMARK    5  A    between atoms: C11_11  and  C12_12 
ROOT
HETATM    1  C1  UNL     1     -34.170  18.451   0.505  1.00 20.00     0.000 A 
HETATM    2  C2  UNL     1     -33.012  18.542  -0.269  1.00 20.00     0.001 A 
HETATM    3  C3  UNL     1     -35.235  17.661   0.073  1.00 20.00     0.001 A 
HETATM    4  C4  UNL     1     -32.919  17.842  -1.471  1.00 20.00     0.007 A 
HETATM    5  C5  UNL     1     -35.142  16.961  -1.130  1.00 20.00     0.007 A 
HETATM    6  C6  UNL     1     -33.984  17.051  -1.902  1.00 20.00    -0.058 A 
ENDROOT
BRANCH   6   7
HETATM    7  C8  UNL     1     -33.886  16.299  -3.193  1.00 20.00     0.038 C 
BRANCH   7   8
HETATM    8  C10 UNL     1     -35.150  15.483  -3.472  1.00 20.00     0.005 C 
BRANCH   8   9
HETATM    9  C12 UNL     1     -34.849  14.288  -4.378  1.00 20.00     0.000 C 
BRANCH   9  10
HETATM   10  C11 UNL     1     -33.620  14.547  -5.251  1.00 20.00    -0.000 C 
BRANCH  10  11
HETATM   11  C9  UNL     1     -34.019  14.839  -6.698  1.00 20.00    -0.005 C 
HETATM   12  C7  UNL     1     -33.787  16.299  -7.055  1.00 20.00     0.005 C 
ENDBRANCH  10  11
ENDBRANCH   9  10
ENDBRANCH   8   9
ENDBRANCH   7   8
ENDBRANCH   6   7
TORSDOF 5
ENDMDL
MODEL 9
REMARK VINA RESULT:      -4.5      1.458      5.049
REMARK  5 active torsions:
REMARK  status: ('A' for Active; 'I' for Inactive)
REMARK    1  A    between atoms: C6_6  and  C8_8 
REMARK    2  A    between atoms: C8_8  and  C10_10 
REMARK    3  A    between atoms: C9_9  and  C11_11 
REMARK    4  A    between atoms: C10_10  and  C12_12 
REMARK    5  A    between atoms: C11_11  and  C12_12 
ROOT
HETATM    1  C1  UNL     1     -31.899   8.614   1.672  1.00 20.00     0.000 A 
HETATM    2  C2  UNL     1     -31.106   8.615   2.820  1.00 20.00     0.001 A 
HETATM    3  C3  UNL     1     -33.219   8.169   1.738  1.00 20.00     0.001 A 
HETATM    4  C4  UNL     1     -31.632   8.172   4.032  1.00 20.00     0.007 A 
HETATM    5  C5  UNL     1     -33.746   7.726   2.951  1.00 20.00     0.007 A 
HETATM    6  C6  UNL     1     -32.953   7.727   4.098  1.00 20.00    -0.058 A 
ENDROOT
BRANCH   6   7
HETATM    7  C8  UNL     1     -33.519   7.251   5.400  1.00 20.00     0.038 C 
BRANCH   7   8
HETATM    8  C10 UNL     1     -34.731   6.339   5.191  1.00 20.00     0.005 C 
BRANCH   8   9
HETATM    9  C12 UNL     1     -34.504   4.963   5.820  1.00 20.00     0.000 C 
BRANCH   9  10
HETATM   10  C11 UNL     1     -33.905   3.982   4.812  1.00 20.00    -0.000 C 
BRANCH  10  11
HETATM   11  C9  UNL     1     -34.162   4.435   3.375  1.00 20.00    -0.005 C 
HETATM   12  C7  UNL     1     -32.894   4.375   2.537  1.00 20.00     0.005 C 
ENDBRANCH  10  11
ENDBRANCH   9  10
ENDBRANCH   8   9
ENDBRANCH   7   8
ENDBRANCH   6   7
TORSDOF 5
ENDMDL
