MODEL 1
REMARK VINA RESULT:      -6.0      0.000      0.000
REMARK  1 active torsions:
REMARK  status: ('A' for Active; 'I' for Inactive)
REMARK    1  A    between atoms: C6_6  and  N8_8 
ROOT
HETATM    1  C1  UNL     1     -34.634   5.166   5.609  1.00 20.00     0.000 A 
HETATM    2  C2  UNL     1     -34.226   6.472   5.875  1.00 20.00     0.002 A 
HETATM    3  C3  UNL     1     -34.469   4.630   4.331  1.00 20.00     0.002 A 
HETATM    4  C4  UNL     1     -33.652   7.244   4.865  1.00 20.00     0.029 A 
HETATM    5  C5  UNL     1     -33.895   5.401   3.321  1.00 20.00     0.029 A 
HETATM    6  C6  UNL     1     -33.486   6.708   3.588  1.00 20.00     0.027 A 
ENDROOT
BRANCH   6   7
HETATM    7  N8  UNL     1     -32.906   7.488   2.566  1.00 20.00    -0.394 N 
HETATM    8  C7  UNL     1     -31.756   8.311   2.776  1.00 20.00     0.146 C 
HETATM    9  H17 UNL     1     -33.339   7.447   1.663  1.00 20.00     0.159 HD
ENDBRANCH   6   7
TORSDOF 1
ENDMDL
MODEL 2
REMARK VINA RESULT:      -6.0      0.007      1.709
REMARK  1 active torsions:
REMARK  status: ('A' for Active; 'I' for Inactive)
REMARK    1  A    between atoms: C6_6  and  N8_8 
ROOT
HETATM    1  C1  UNL     1     -34.635   5.171   5.610  1.00 20.00     0.000 A 
HETATM    2  C2  UNL     1     -34.470   4.636   4.333  1.00 20.00     0.002 A 
HETATM    3  C3  UNL     1     -34.223   6.477   5.878  1.00 20.00     0.002 A 
HETATM    4  C4  UNL     1     -33.894   5.407   3.323  1.00 20.00     0.029 A 
HETATM    5  C5  UNL     1     -33.648   7.248   4.869  1.00 20.00     0.029 A 
HETATM    6  C6  UNL     1     -33.484   6.713   3.591  1.00 20.00     0.027 A 
ENDROOT
BRANCH   6   7
HETATM    7  N8  UNL     1     -32.902   7.493   2.570  1.00 20.00    -0.394 N 
HETATM    8  C7  UNL     1     -31.750   8.313   2.781  1.00 20.00     0.146 C 
HETATM    9  H17 UNL     1     -33.334   7.454   1.666  1.00 20.00     0.159 HD
ENDBRANCH   6   7
TORSDOF 1
ENDMDL
MODEL 3
REMARK VINA RESULT:      -4.4      1.548      3.718
REMARK  1 active torsions:
REMARK  status: ('A' for Active; 'I' for Inactive)
REMARK    1  A    between atoms: C6_6  and  N8_8 
ROOT
HETATM    1  C1  UNL     1     -31.985   8.097   3.095  1.00 20.00     0.000 A 
HETATM    2  C2  UNL     1     -32.633   7.202   2.245  1.00 20.00     0.002 A 
HETATM    3  C3  UNL     1     -32.335   8.155   4.445  1.00 20.00     0.002 A 
HETATM    4  C4  UNL     1     -33.629   6.362   2.743  1.00 20.00     0.029 A 
HETATM    5  C5  UNL     1     -33.331   7.317   4.943  1.00 20.00     0.029 A 
HETATM    6  C6  UNL     1     -33.978   6.420   4.093  1.00 20.00     0.027 A 
ENDROOT
BRANCH   6   7
HETATM    7  N8  UNL     1     -34.986   5.573   4.597  1.00 20.00    -0.394 N 
HETATM    8  C7  UNL     1     -34.766   4.664   5.679  1.00 20.00     0.146 C 
HETATM    9  H17 UNL     1     -35.886   5.627   4.160  1.00 20.00     0.159 HD
ENDBRANCH   6   7
TORSDOF 1
ENDMDL
MODEL 4
REMARK VINA RESULT:      -4.3      1.544      3.347
REMARK  1 active torsions:
REMARK  status: ('A' for Active; 'I' for Inactive)
REMARK    1  A    between atoms: C6_6  and  N8_8 
ROOT
HETATM    1  C1  UNL     1     -31.990   8.109   3.101  1.00 20.00     0.000 A 
HETATM    2  C2  UNL     1     -32.353   8.166   4.446  1.00 20.00     0.002 A 
HETATM    3  C3  UNL     1     -32.625   7.208   2.245  1.00 20.00     0.002 A 
HETATM    4  C4  UNL     1     -33.351   7.324   4.936  1.00 20.00     0.029 A 
HETATM    5  C5  UNL     1     -33.622   6.366   2.734  1.00 20.00     0.029 A 
HETATM    6  C6  UNL     1     -33.986   6.424   4.080  1.00 20.00     0.027 A 
ENDROOT
BRANCH   6   7
HETATM    7  N8  UNL     1     -34.995   5.572   4.575  1.00 20.00    -0.394 N 
HETATM    8  C7  UNL     1     -34.777   4.654   5.650  1.00 20.00     0.146 C 
HETATM    9  H17 UNL     1     -35.895   5.631   4.137  1.00 20.00     0.159 HD
ENDBRANCH   6   7
TORSDOF 1
ENDMDL
MODEL 5
REMARK VINA RESULT:      -4.1      1.246      2.127
REMARK  1 active torsions:
REMARK  status: ('A' for Active; 'I' for Inactive)
REMARK    1  A    between atoms: C6_6  and  N8_8 
ROOT
HETATM    1  C1  UNL     1     -34.079   6.993   6.274  1.00 20.00     0.000 A 
HETATM    2  C2  UNL     1     -33.351   7.714   5.330  1.00 20.00     0.002 A 
HETATM    3  C3  UNL     1     -34.675   5.782   5.920  1.00 20.00     0.002 A 
HETATM    4  C4  UNL     1     -33.215   7.225   4.030  1.00 20.00     0.029 A 
HETATM    5  C5  UNL     1     -34.540   5.292   4.622  1.00 20.00     0.029 A 
HETATM    6  C6  UNL     1     -33.810   6.014   3.676  1.00 20.00     0.027 A 
ENDROOT
BRANCH   6   7
HETATM    7  N8  UNL     1     -33.675   5.519   2.363  1.00 20.00    -0.394 N 
HETATM    8  C7  UNL     1     -32.906   4.355   2.047  1.00 20.00     0.146 C 
HETATM    9  H17 UNL     1     -34.146   6.024   1.636  1.00 20.00     0.159 HD
ENDBRANCH   6   7
TORSDOF 1
ENDMDL
MODEL 6
REMARK VINA RESULT:      -3.7     12.275     12.543
REMARK  1 active torsions:
REMARK  status: ('A' for Active; 'I' for Inactive)
REMARK    1  A    between atoms: C6_6  and  N8_8 
ROOT
HETATM    1  C1  UNL     1     -34.996  16.206  -3.010  1.00 20.00     0.000 A 
HETATM    2  C2  UNL     1     -35.976  15.537  -3.742  1.00 20.00     0.002 A 
HETATM    3  C3  UNL     1     -33.648  16.031  -3.324  1.00 20.00     0.002 A 
HETATM    4  C4  UNL     1     -35.609  14.694  -4.791  1.00 20.00     0.029 A 
HETATM    5  C5  UNL     1     -33.280  15.189  -4.373  1.00 20.00     0.029 A 
HETATM    6  C6  UNL     1     -34.260  14.520  -5.107  1.00 20.00     0.027 A 
ENDROOT
BRANCH   6   7
HETATM    7  N8  UNL     1     -33.889  13.668  -6.166  1.00 20.00    -0.394 N 
HETATM    8  C7  UNL     1     -34.771  13.335  -7.241  1.00 20.00     0.146 C 
HETATM    9  H17 UNL     1     -32.960  13.290  -6.141  1.00 20.00     0.159 HD
ENDBRANCH   6   7
TORSDOF 1
ENDMDL
MODEL 7
REMARK VINA RESULT:      -3.7     12.290     12.516
REMARK  1 active torsions:
REMARK  status: ('A' for Active; 'I' for Inactive)
REMARK    1  A    between atoms: C6_6  and  N8_8 
ROOT
HETATM    1  C1  UNL     1     -34.992  16.186  -3.043  1.00 20.00     0.000 A 
HETATM    2  C2  UNL     1     -33.649  16.009  -3.375  1.00 20.00     0.002 A 
HETATM    3  C3  UNL     1     -35.983  15.523  -3.768  1.00 20.00     0.002 A 
HETATM    4  C4  UNL     1     -33.296  15.169  -4.430  1.00 20.00     0.029 A 
HETATM    5  C5  UNL     1     -35.631  14.683  -4.823  1.00 20.00     0.029 A 
HETATM    6  C6  UNL     1     -34.288  14.505  -5.155  1.00 20.00     0.027 A 
ENDROOT
BRANCH   6   7
HETATM    7  N8  UNL     1     -33.932  13.656  -6.222  1.00 20.00    -0.394 N 
HETATM    8  C7  UNL     1     -34.853  13.262  -7.242  1.00 20.00     0.146 C 
HETATM    9  H17 UNL     1     -32.985  13.326  -6.244  1.00 20.00     0.159 HD
ENDBRANCH   6   7
TORSDOF 1
ENDMDL
MODEL 8
REMARK VINA RESULT:      -3.7     11.955     12.410
REMARK  1 active torsions:
REMARK  status: ('A' for Active; 'I' for Inactive)
REMARK    1  A    between atoms: C6_6  and  N8_8 
ROOT
HETATM    1  C1  UNL     1     -34.509  18.174   0.240  1.00 20.00     0.000 A 
HETATM    2  C2  UNL     1     -35.460  17.358  -0.372  1.00 20.00     0.002 A 
HETATM    3  C3  UNL     1     -33.267  18.374  -0.364  1.00 20.00     0.002 A 
HETATM    4  C4  UNL     1     -35.170  16.742  -1.590  1.00 20.00     0.029 A 
HETATM    5  C5  UNL     1     -32.977  17.759  -1.581  1.00 20.00     0.029 A 
HETATM    6  C6  UNL     1     -33.928  16.943  -2.194  1.00 20.00     0.027 A 
ENDROOT
BRANCH   6   7
HETATM    7  N8  UNL     1     -33.635  16.320  -3.425  1.00 20.00    -0.394 N 
HETATM    8  C7  UNL     1     -34.326  15.159  -3.892  1.00 20.00     0.146 C 
HETATM    9  H17 UNL     1     -32.904  16.728  -3.977  1.00 20.00     0.159 HD
ENDBRANCH   6   7
TORSDOF 1
ENDMDL
MODEL 9
REMARK VINA RESULT:      -3.7     11.963     12.363
REMARK  1 active torsions:
REMARK  status: ('A' for Active; 'I' for Inactive)
REMARK    1  A    between atoms: C6_6  and  N8_8 
ROOT
HETATM    1  C1  UNL     1     -34.474  18.226   0.248  1.00 20.00     0.000 A 
HETATM    2  C2  UNL     1     -33.241  18.405  -0.378  1.00 20.00     0.002 A 
HETATM    3  C3  UNL     1     -35.436  17.395  -0.329  1.00 20.00     0.002 A 
HETATM    4  C4  UNL     1     -32.968  17.752  -1.581  1.00 20.00     0.029 A 
HETATM    5  C5  UNL     1     -35.163  16.743  -1.530  1.00 20.00     0.029 A 
HETATM    6  C6  UNL     1     -33.929  16.921  -2.157  1.00 20.00     0.027 A 
ENDROOT
BRANCH   6   7
HETATM    7  N8  UNL     1     -33.654  16.262  -3.372  1.00 20.00    -0.394 N 
HETATM    8  C7  UNL     1     -34.458  15.192  -3.875  1.00 20.00     0.146 C 
HETATM    9  H17 UNL     1     -32.852  16.574  -3.887  1.00 20.00     0.159 HD
ENDBRANCH   6   7
TORSDOF 1
ENDMDL
