MODEL 1
REMARK VINA RESULT:      -6.7      0.000      0.000
REMARK  2 active torsions:
REMARK  status: ('A' for Active; 'I' for Inactive)
REMARK    1  A    between atoms: C6_6  and  C8_8 
REMARK    2  A    between atoms: C8_8  and  C9_9 
ROOT
HETATM    1  C1  UNL     1     -34.667   5.738   4.958  1.00 20.00     0.000 A 
HETATM    2  C2  UNL     1     -34.358   5.528   3.613  1.00 20.00     0.001 A 
HETATM    3  C3  UNL     1     -34.048   6.770   5.664  1.00 20.00     0.001 A 
HETATM    4  C4  UNL     1     -33.431   6.351   2.975  1.00 20.00     0.007 A 
HETATM    5  C5  UNL     1     -33.121   7.593   5.024  1.00 20.00     0.007 A 
HETATM    6  C6  UNL     1     -32.812   7.384   3.681  1.00 20.00    -0.058 A 
ENDROOT
BRANCH   6   7
HETATM    7  C8  UNL     1     -31.819   8.264   2.999  1.00 20.00     0.038 C 
BRANCH   7   8
HETATM    8  C9  UNL     1     -32.189   8.522   1.530  1.00 20.00     0.000 C 
HETATM    9  C7  UNL     1     -32.559   9.975   1.283  1.00 20.00     0.005 C 
ENDBRANCH   7   8
ENDBRANCH   6   7
TORSDOF 2
ENDMDL
MODEL 2
REMARK VINA RESULT:      -6.7      0.011      1.611
REMARK  2 active torsions:
REMARK  status: ('A' for Active; 'I' for Inactive)
REMARK    1  A    between atoms: C6_6  and  C8_8 
REMARK    2  A    between atoms: C8_8  and  C9_9 
ROOT
HETATM    1  C1  UNL     1     -34.662   5.742   4.949  1.00 20.00     0.000 A 
HETATM    2  C2  UNL     1     -34.042   6.774   5.655  1.00 20.00     0.001 A 
HETATM    3  C3  UNL     1     -34.353   5.533   3.605  1.00 20.00     0.001 A 
HETATM    4  C4  UNL     1     -33.113   7.595   5.016  1.00 20.00     0.007 A 
HETATM    5  C5  UNL     1     -33.423   6.354   2.967  1.00 20.00     0.007 A 
HETATM    6  C6  UNL     1     -32.804   7.385   3.672  1.00 20.00    -0.058 A 
ENDROOT
BRANCH   6   7
HETATM    7  C8  UNL     1     -31.810   8.264   2.989  1.00 20.00     0.038 C 
BRANCH   7   8
HETATM    8  C9  UNL     1     -32.184   8.527   1.522  1.00 20.00     0.000 C 
HETATM    9  C7  UNL     1     -32.561   9.979   1.282  1.00 20.00     0.005 C 
ENDBRANCH   7   8
ENDBRANCH   6   7
TORSDOF 2
ENDMDL
MODEL 3
REMARK VINA RESULT:      -5.3      1.229      3.937
REMARK  2 active torsions:
REMARK  status: ('A' for Active; 'I' for Inactive)
REMARK    1  A    between atoms: C6_6  and  C8_8 
REMARK    2  A    between atoms: C8_8  and  C9_9 
ROOT
HETATM    1  C1  UNL     1     -31.642   8.358   3.344  1.00 20.00     0.000 A 
HETATM    2  C2  UNL     1     -32.258   7.658   2.306  1.00 20.00     0.001 A 
HETATM    3  C3  UNL     1     -32.148   8.270   4.642  1.00 20.00     0.001 A 
HETATM    4  C4  UNL     1     -33.378   6.869   2.566  1.00 20.00     0.007 A 
HETATM    5  C5  UNL     1     -33.269   7.481   4.900  1.00 20.00     0.007 A 
HETATM    6  C6  UNL     1     -33.884   6.781   3.863  1.00 20.00    -0.058 A 
ENDROOT
BRANCH   6   7
HETATM    7  C8  UNL     1     -35.083   5.937   4.141  1.00 20.00     0.038 C 
BRANCH   7   8
HETATM    8  C9  UNL     1     -34.754   4.750   5.058  1.00 20.00     0.000 C 
HETATM    9  C7  UNL     1     -33.917   3.698   4.349  1.00 20.00     0.005 C 
ENDBRANCH   7   8
ENDBRANCH   6   7
TORSDOF 2
ENDMDL
MODEL 4
REMARK VINA RESULT:      -5.3      1.231      4.241
REMARK  2 active torsions:
REMARK  status: ('A' for Active; 'I' for Inactive)
REMARK    1  A    between atoms: C6_6  and  C8_8 
REMARK    2  A    between atoms: C8_8  and  C9_9 
ROOT
HETATM    1  C1  UNL     1     -31.643   8.356   3.330  1.00 20.00     0.000 A 
HETATM    2  C2  UNL     1     -32.144   8.275   4.629  1.00 20.00     0.001 A 
HETATM    3  C3  UNL     1     -32.265   7.655   2.297  1.00 20.00     0.001 A 
HETATM    4  C4  UNL     1     -33.268   7.493   4.895  1.00 20.00     0.007 A 
HETATM    5  C5  UNL     1     -33.388   6.872   2.564  1.00 20.00     0.007 A 
HETATM    6  C6  UNL     1     -33.890   6.791   3.862  1.00 20.00    -0.058 A 
ENDROOT
BRANCH   6   7
HETATM    7  C8  UNL     1     -35.091   5.953   4.146  1.00 20.00     0.038 C 
BRANCH   7   8
HETATM    8  C9  UNL     1     -34.766   4.771   5.071  1.00 20.00     0.000 C 
HETATM    9  C7  UNL     1     -33.932   3.712   4.368  1.00 20.00     0.005 C 
ENDBRANCH   7   8
ENDBRANCH   6   7
TORSDOF 2
ENDMDL
MODEL 5
REMARK VINA RESULT:      -4.5     10.526     11.377
REMARK  2 active torsions:
REMARK  status: ('A' for Active; 'I' for Inactive)
REMARK    1  A    between atoms: C6_6  and  C8_8 
REMARK    2  A    between atoms: C8_8  and  C9_9 
ROOT
HETATM    1  C1  UNL     1     -34.381  18.276   0.382  1.00 20.00     0.000 A 
HETATM    2  C2  UNL     1     -33.167  18.451  -0.283  1.00 20.00     0.001 A 
HETATM    3  C3  UNL     1     -35.373  17.469  -0.176  1.00 20.00     0.001 A 
HETATM    4  C4  UNL     1     -32.946  17.820  -1.506  1.00 20.00     0.007 A 
HETATM    5  C5  UNL     1     -35.150  16.838  -1.400  1.00 20.00     0.007 A 
HETATM    6  C6  UNL     1     -33.938  17.013  -2.065  1.00 20.00    -0.058 A 
ENDROOT
BRANCH   6   7
HETATM    7  C8  UNL     1     -33.701  16.338  -3.375  1.00 20.00     0.038 C 
BRANCH   7   8
HETATM    8  C9  UNL     1     -34.884  15.452  -3.790  1.00 20.00     0.000 C 
HETATM    9  C7  UNL     1     -34.437  14.057  -4.193  1.00 20.00     0.005 C 
ENDBRANCH   7   8
ENDBRANCH   6   7
TORSDOF 2
ENDMDL
MODEL 6
REMARK VINA RESULT:      -4.5     10.567     11.332
REMARK  2 active torsions:
REMARK  status: ('A' for Active; 'I' for Inactive)
REMARK    1  A    between atoms: C6_6  and  C8_8 
REMARK    2  A    between atoms: C8_8  and  C9_9 
ROOT
HETATM    1  C1  UNL     1     -34.474  18.251   0.446  1.00 20.00     0.000 A 
HETATM    2  C2  UNL     1     -35.460  17.456  -0.139  1.00 20.00     0.001 A 
HETATM    3  C3  UNL     1     -33.248  18.429  -0.196  1.00 20.00     0.001 A 
HETATM    4  C4  UNL     1     -35.219  16.839  -1.367  1.00 20.00     0.007 A 
HETATM    5  C5  UNL     1     -33.009  17.812  -1.424  1.00 20.00     0.007 A 
HETATM    6  C6  UNL     1     -33.994  17.017  -2.009  1.00 20.00    -0.058 A 
ENDROOT
BRANCH   6   7
HETATM    7  C8  UNL     1     -33.737  16.357  -3.323  1.00 20.00     0.038 C 
BRANCH   7   8
HETATM    8  C9  UNL     1     -34.947  15.545  -3.808  1.00 20.00     0.000 C 
HETATM    9  C7  UNL     1     -34.565  14.122  -4.180  1.00 20.00     0.005 C 
ENDBRANCH   7   8
ENDBRANCH   6   7
TORSDOF 2
ENDMDL
MODEL 7
REMARK VINA RESULT:      -4.3      1.214      4.409
REMARK  2 active torsions:
REMARK  status: ('A' for Active; 'I' for Inactive)
REMARK    1  A    between atoms: C6_6  and  C8_8 
REMARK    2  A    between atoms: C8_8  and  C9_9 
ROOT
HETATM    1  C1  UNL     1     -32.375   9.977   0.098  1.00 20.00     0.000 A 
HETATM    2  C2  UNL     1     -31.550   8.855   0.190  1.00 20.00     0.001 A 
HETATM    3  C3  UNL     1     -33.152  10.363   1.191  1.00 20.00     0.001 A 
HETATM    4  C4  UNL     1     -31.503   8.120   1.374  1.00 20.00     0.007 A 
HETATM    5  C5  UNL     1     -33.103   9.628   2.375  1.00 20.00     0.007 A 
HETATM    6  C6  UNL     1     -32.280   8.507   2.467  1.00 20.00    -0.058 A 
ENDROOT
BRANCH   6   7
HETATM    7  C8  UNL     1     -32.230   7.720   3.734  1.00 20.00     0.038 C 
BRANCH   7   8
HETATM    8  C9  UNL     1     -33.625   7.261   4.184  1.00 20.00     0.000 C 
HETATM    9  C7  UNL     1     -33.753   7.232   5.699  1.00 20.00     0.005 C 
ENDBRANCH   7   8
ENDBRANCH   6   7
TORSDOF 2
ENDMDL
MODEL 8
REMARK VINA RESULT:      -4.3      1.122      4.529
REMARK  2 active torsions:
REMARK  status: ('A' for Active; 'I' for Inactive)
REMARK    1  A    between atoms: C6_6  and  C8_8 
REMARK    2  A    between atoms: C8_8  and  C9_9 
ROOT
HETATM    1  C1  UNL     1     -32.361  10.242   0.421  1.00 20.00     0.000 A 
HETATM    2  C2  UNL     1     -33.286  10.322   1.462  1.00 20.00     0.001 A 
HETATM    3  C3  UNL     1     -31.507   9.142   0.330  1.00 20.00     0.001 A 
HETATM    4  C4  UNL     1     -33.357   9.304   2.412  1.00 20.00     0.007 A 
HETATM    5  C5  UNL     1     -31.579   8.124   1.281  1.00 20.00     0.007 A 
HETATM    6  C6  UNL     1     -32.503   8.204   2.321  1.00 20.00    -0.058 A 
ENDROOT
BRANCH   6   7
HETATM    7  C8  UNL     1     -32.578   7.115   3.338  1.00 20.00     0.038 C 
BRANCH   7   8
HETATM    8  C9  UNL     1     -33.907   7.135   4.108  1.00 20.00     0.000 C 
HETATM    9  C7  UNL     1     -33.694   7.283   5.606  1.00 20.00     0.005 C 
ENDBRANCH   7   8
ENDBRANCH   6   7
TORSDOF 2
ENDMDL
MODEL 9
REMARK VINA RESULT:      -4.2     10.769     11.430
REMARK  2 active torsions:
REMARK  status: ('A' for Active; 'I' for Inactive)
REMARK    1  A    between atoms: C6_6  and  C8_8 
REMARK    2  A    between atoms: C8_8  and  C9_9 
ROOT
HETATM    1  C1  UNL     1     -33.659  18.213  -0.442  1.00 20.00     0.000 A 
HETATM    2  C2  UNL     1     -32.870  17.885  -1.544  1.00 20.00     0.001 A 
HETATM    3  C3  UNL     1     -34.955  17.708  -0.336  1.00 20.00     0.001 A 
HETATM    4  C4  UNL     1     -33.377  17.052  -2.541  1.00 20.00     0.007 A 
HETATM    5  C5  UNL     1     -35.461  16.874  -1.334  1.00 20.00     0.007 A 
HETATM    6  C6  UNL     1     -34.673  16.546  -2.436  1.00 20.00    -0.058 A 
ENDROOT
BRANCH   6   7
HETATM    7  C8  UNL     1     -35.215  15.655  -3.503  1.00 20.00     0.038 C 
BRANCH   7   8
HETATM    8  C9  UNL     1     -34.155  14.679  -4.034  1.00 20.00     0.000 C 
HETATM    9  C7  UNL     1     -34.327  14.406  -5.519  1.00 20.00     0.005 C 
ENDBRANCH   7   8
ENDBRANCH   6   7
TORSDOF 2
ENDMDL
