MODEL 1
REMARK VINA RESULT:      -6.7      0.000      0.000
REMARK  0 active torsions:
REMARK  status: ('A' for Active; 'I' for Inactive)
ROOT
HETATM    1  C1  UNL     1     -31.615   8.678   3.204  1.00 20.00     0.001 A 
HETATM    2  C2  UNL     1     -31.979   7.954   2.072  1.00 20.00     0.001 A 
HETATM    3  C3  UNL     1     -34.619   5.968   5.907  1.00 20.00     0.001 A 
HETATM    4  C4  UNL     1     -34.982   5.243   4.776  1.00 20.00     0.001 A 
HETATM    5  C5  UNL     1     -32.178   8.369   4.443  1.00 20.00     0.012 A 
HETATM    6  C6  UNL     1     -32.908   6.918   2.176  1.00 20.00     0.012 A 
HETATM    7  C7  UNL     1     -33.690   7.004   5.804  1.00 20.00     0.012 A 
HETATM    8  C8  UNL     1     -34.420   5.553   3.537  1.00 20.00     0.012 A 
HETATM    9  C9  UNL     1     -33.113   7.330   4.565  1.00 20.00    -0.026 A 
HETATM   10  C10 UNL     1     -33.484   6.592   3.415  1.00 20.00    -0.026 A 
ENDROOT
TORSDOF 0
ENDMDL
MODEL 2
REMARK VINA RESULT:      -6.7      0.042      2.071
REMARK  0 active torsions:
REMARK  status: ('A' for Active; 'I' for Inactive)
ROOT
HETATM    1  C1  UNL     1     -32.012   7.981   2.051  1.00 20.00     0.001 A 
HETATM    2  C2  UNL     1     -31.609   8.686   3.182  1.00 20.00     0.001 A 
HETATM    3  C3  UNL     1     -34.980   5.272   4.796  1.00 20.00     0.001 A 
HETATM    4  C4  UNL     1     -34.577   5.977   5.926  1.00 20.00     0.001 A 
HETATM    5  C5  UNL     1     -32.951   6.955   2.165  1.00 20.00     0.012 A 
HETATM    6  C6  UNL     1     -32.143   8.367   4.431  1.00 20.00     0.012 A 
HETATM    7  C7  UNL     1     -34.445   5.591   3.547  1.00 20.00     0.012 A 
HETATM    8  C8  UNL     1     -33.638   7.003   5.813  1.00 20.00     0.012 A 
HETATM    9  C9  UNL     1     -33.499   6.621   3.414  1.00 20.00    -0.026 A 
HETATM   10  C10 UNL     1     -33.090   7.337   4.564  1.00 20.00    -0.026 A 
ENDROOT
TORSDOF 0
ENDMDL
MODEL 3
REMARK VINA RESULT:      -6.7      0.066      4.020
REMARK  0 active torsions:
REMARK  status: ('A' for Active; 'I' for Inactive)
ROOT
HETATM    1  C1  UNL     1     -35.006   5.180   4.775  1.00 20.00     0.001 A 
HETATM    2  C2  UNL     1     -34.657   5.897   5.916  1.00 20.00     0.001 A 
HETATM    3  C3  UNL     1     -32.008   7.942   2.119  1.00 20.00     0.001 A 
HETATM    4  C4  UNL     1     -31.659   8.660   3.259  1.00 20.00     0.001 A 
HETATM    5  C5  UNL     1     -34.437   5.505   3.544  1.00 20.00     0.012 A 
HETATM    6  C6  UNL     1     -33.738   6.944   5.829  1.00 20.00     0.012 A 
HETATM    7  C7  UNL     1     -32.927   6.895   2.206  1.00 20.00     0.012 A 
HETATM    8  C8  UNL     1     -32.229   8.335   4.491  1.00 20.00     0.012 A 
HETATM    9  C9  UNL     1     -33.510   6.554   3.438  1.00 20.00    -0.026 A 
HETATM   10  C10 UNL     1     -33.155   7.285   4.597  1.00 20.00    -0.026 A 
ENDROOT
TORSDOF 0
ENDMDL
MODEL 4
REMARK VINA RESULT:      -6.7      0.049      3.445
REMARK  0 active torsions:
REMARK  status: ('A' for Active; 'I' for Inactive)
ROOT
HETATM    1  C1  UNL     1     -34.638   5.906   5.881  1.00 20.00     0.001 A 
HETATM    2  C2  UNL     1     -35.001   5.210   4.731  1.00 20.00     0.001 A 
HETATM    3  C3  UNL     1     -31.628   8.683   3.254  1.00 20.00     0.001 A 
HETATM    4  C4  UNL     1     -31.991   7.988   2.104  1.00 20.00     0.001 A 
HETATM    5  C5  UNL     1     -33.709   6.944   5.806  1.00 20.00     0.012 A 
HETATM    6  C6  UNL     1     -34.435   5.550   3.502  1.00 20.00     0.012 A 
HETATM    7  C7  UNL     1     -32.194   8.343   4.483  1.00 20.00     0.012 A 
HETATM    8  C8  UNL     1     -32.920   6.949   2.179  1.00 20.00     0.012 A 
HETATM    9  C9  UNL     1     -33.131   7.300   4.577  1.00 20.00    -0.026 A 
HETATM   10  C10 UNL     1     -33.498   6.593   3.407  1.00 20.00    -0.026 A 
ENDROOT
TORSDOF 0
ENDMDL
MODEL 5
REMARK VINA RESULT:      -5.0     11.652     12.105
REMARK  0 active torsions:
REMARK  status: ('A' for Active; 'I' for Inactive)
ROOT
HETATM    1  C1  UNL     1     -33.256  19.000   1.620  1.00 20.00     0.001 A 
HETATM    2  C2  UNL     1     -32.097  19.057   0.851  1.00 20.00     0.001 A 
HETATM    3  C3  UNL     1     -35.535  16.658  -1.985  1.00 20.00     0.001 A 
HETATM    4  C4  UNL     1     -34.376  16.714  -2.754  1.00 20.00     0.001 A 
HETATM    5  C5  UNL     1     -34.404  18.391   1.111  1.00 20.00     0.012 A 
HETATM    6  C6  UNL     1     -32.081  18.504  -0.430  1.00 20.00     0.012 A 
HETATM    7  C7  UNL     1     -35.551  17.212  -0.704  1.00 20.00     0.012 A 
HETATM    8  C8  UNL     1     -33.229  17.324  -2.245  1.00 20.00     0.012 A 
HETATM    9  C9  UNL     1     -34.405  17.829  -0.176  1.00 20.00    -0.026 A 
HETATM   10  C10 UNL     1     -33.227  17.886  -0.958  1.00 20.00    -0.026 A 
ENDROOT
TORSDOF 0
ENDMDL
MODEL 6
REMARK VINA RESULT:      -5.0     11.664     12.176
REMARK  0 active torsions:
REMARK  status: ('A' for Active; 'I' for Inactive)
ROOT
HETATM    1  C1  UNL     1     -35.573  16.640  -2.009  1.00 20.00     0.001 A 
HETATM    2  C2  UNL     1     -34.424  16.658  -2.795  1.00 20.00     0.001 A 
HETATM    3  C3  UNL     1     -33.194  18.992   1.524  1.00 20.00     0.001 A 
HETATM    4  C4  UNL     1     -32.046  19.012   0.738  1.00 20.00     0.001 A 
HETATM    5  C5  UNL     1     -35.559  17.214  -0.738  1.00 20.00     0.012 A 
HETATM    6  C6  UNL     1     -33.257  17.252  -2.312  1.00 20.00     0.012 A 
HETATM    7  C7  UNL     1     -34.361  18.399   1.041  1.00 20.00     0.012 A 
HETATM    8  C8  UNL     1     -32.060  18.437  -0.534  1.00 20.00     0.012 A 
HETATM    9  C9  UNL     1     -34.393  17.816  -0.236  1.00 20.00    -0.026 A 
HETATM   10  C10 UNL     1     -33.225  17.835  -1.035  1.00 20.00    -0.026 A 
ENDROOT
TORSDOF 0
ENDMDL
MODEL 7
REMARK VINA RESULT:      -5.0     11.659     12.130
REMARK  0 active torsions:
REMARK  status: ('A' for Active; 'I' for Inactive)
ROOT
HETATM    1  C1  UNL     1     -32.163  19.039   0.872  1.00 20.00     0.001 A 
HETATM    2  C2  UNL     1     -33.342  18.993   1.610  1.00 20.00     0.001 A 
HETATM    3  C3  UNL     1     -34.352  16.674  -2.774  1.00 20.00     0.001 A 
HETATM    4  C4  UNL     1     -35.532  16.630  -2.036  1.00 20.00     0.001 A 
HETATM    5  C5  UNL     1     -32.114  18.475  -0.403  1.00 20.00     0.012 A 
HETATM    6  C6  UNL     1     -34.477  18.383   1.075  1.00 20.00     0.012 A 
HETATM    7  C7  UNL     1     -33.217  17.285  -2.239  1.00 20.00     0.012 A 
HETATM    8  C8  UNL     1     -35.580  17.193  -0.760  1.00 20.00     0.012 A 
HETATM    9  C9  UNL     1     -33.247  17.857  -0.957  1.00 20.00    -0.026 A 
HETATM   10  C10 UNL     1     -34.447  17.811  -0.207  1.00 20.00    -0.026 A 
ENDROOT
TORSDOF 0
ENDMDL
MODEL 8
REMARK VINA RESULT:      -5.0     11.623     12.242
REMARK  0 active torsions:
REMARK  status: ('A' for Active; 'I' for Inactive)
ROOT
HETATM    1  C1  UNL     1     -34.345  16.839  -2.367  1.00 20.00     0.001 A 
HETATM    2  C2  UNL     1     -35.492  16.809  -1.579  1.00 20.00     0.001 A 
HETATM    3  C3  UNL     1     -31.987  19.237   1.149  1.00 20.00     0.001 A 
HETATM    4  C4  UNL     1     -33.134  19.208   1.938  1.00 20.00     0.001 A 
HETATM    5  C5  UNL     1     -33.184  17.449  -1.890  1.00 20.00     0.012 A 
HETATM    6  C6  UNL     1     -35.482  17.391  -0.311  1.00 20.00     0.012 A 
HETATM    7  C7  UNL     1     -31.997  18.656  -0.120  1.00 20.00     0.012 A 
HETATM    8  C8  UNL     1     -34.295  18.598   1.460  1.00 20.00     0.012 A 
HETATM    9  C9  UNL     1     -33.157  18.038  -0.616  1.00 20.00    -0.026 A 
HETATM   10  C10 UNL     1     -34.323  18.009   0.186  1.00 20.00    -0.026 A 
ENDROOT
TORSDOF 0
ENDMDL
MODEL 9
REMARK VINA RESULT:      -4.7     11.481     12.028
REMARK  0 active torsions:
REMARK  status: ('A' for Active; 'I' for Inactive)
ROOT
HETATM    1  C1  UNL     1     -34.631  16.894  -2.774  1.00 20.00     0.001 A 
HETATM    2  C2  UNL     1     -33.371  17.487  -2.772  1.00 20.00     0.001 A 
HETATM    3  C3  UNL     1     -35.229  18.138   1.891  1.00 20.00     0.001 A 
HETATM    4  C4  UNL     1     -33.970  18.731   1.894  1.00 20.00     0.001 A 
HETATM    5  C5  UNL     1     -35.411  16.905  -1.618  1.00 20.00     0.012 A 
HETATM    6  C6  UNL     1     -32.888  18.093  -1.611  1.00 20.00     0.012 A 
HETATM    7  C7  UNL     1     -35.713  17.532   0.731  1.00 20.00     0.012 A 
HETATM    8  C8  UNL     1     -33.189  18.719   0.738  1.00 20.00     0.012 A 
HETATM    9  C9  UNL     1     -34.941  17.511  -0.442  1.00 20.00    -0.026 A 
HETATM   10  C10 UNL     1     -33.660  18.114  -0.438  1.00 20.00    -0.026 A 
ENDROOT
TORSDOF 0
ENDMDL
