MODEL 1
REMARK VINA RESULT:      -6.2      0.000      0.000
REMARK  0 active torsions:
REMARK  status: ('A' for Active; 'I' for Inactive)
ROOT
HETATM    1  C1  UNL     1     -34.364   6.447   5.912  1.00 20.00     0.001 A 
HETATM    2  C2  UNL     1     -34.667   5.117   5.621  1.00 20.00     0.001 A 
HETATM    3  C3  UNL     1     -33.680   7.228   4.980  1.00 20.00     0.007 A 
HETATM    4  C4  UNL     1     -34.285   4.567   4.397  1.00 20.00     0.007 A 
HETATM    5  C5  UNL     1     -33.299   6.677   3.756  1.00 20.00    -0.056 A 
HETATM    6  C6  UNL     1     -33.601   5.347   3.465  1.00 20.00    -0.056 A 
HETATM    7  C7  UNL     1     -32.569   7.532   2.773  1.00 20.00     0.049 C 
HETATM    8  C8  UNL     1     -33.202   4.736   2.162  1.00 20.00     0.049 C 
ENDROOT
TORSDOF 0
ENDMDL
MODEL 2
REMARK VINA RESULT:      -6.2      0.026      2.251
REMARK  0 active torsions:
REMARK  status: ('A' for Active; 'I' for Inactive)
ROOT
HETATM    1  C1  UNL     1     -34.675   5.146   5.612  1.00 20.00     0.001 A 
HETATM    2  C2  UNL     1     -34.367   6.475   5.905  1.00 20.00     0.001 A 
HETATM    3  C3  UNL     1     -34.292   4.594   4.390  1.00 20.00     0.007 A 
HETATM    4  C4  UNL     1     -33.676   7.252   4.975  1.00 20.00     0.007 A 
HETATM    5  C5  UNL     1     -33.601   5.371   3.460  1.00 20.00    -0.056 A 
HETATM    6  C6  UNL     1     -33.293   6.700   3.752  1.00 20.00    -0.056 A 
HETATM    7  C7  UNL     1     -33.200   4.758   2.158  1.00 20.00     0.049 C 
HETATM    8  C8  UNL     1     -32.555   7.551   2.772  1.00 20.00     0.049 C 
ENDROOT
TORSDOF 0
ENDMDL
MODEL 3
REMARK VINA RESULT:      -5.9      0.668      2.486
REMARK  0 active torsions:
REMARK  status: ('A' for Active; 'I' for Inactive)
ROOT
HETATM    1  C1  UNL     1     -34.055   4.320   3.476  1.00 20.00     0.001 A 
HETATM    2  C2  UNL     1     -34.560   4.349   4.777  1.00 20.00     0.001 A 
HETATM    3  C3  UNL     1     -33.414   5.442   2.951  1.00 20.00     0.007 A 
HETATM    4  C4  UNL     1     -34.423   5.501   5.552  1.00 20.00     0.007 A 
HETATM    5  C5  UNL     1     -33.277   6.593   3.727  1.00 20.00    -0.056 A 
HETATM    6  C6  UNL     1     -33.782   6.623   5.027  1.00 20.00    -0.056 A 
HETATM    7  C7  UNL     1     -32.586   7.782   3.145  1.00 20.00     0.049 C 
HETATM    8  C8  UNL     1     -33.648   7.844   5.876  1.00 20.00     0.049 C 
ENDROOT
TORSDOF 0
ENDMDL
MODEL 4
REMARK VINA RESULT:      -5.9      0.675      2.355
REMARK  0 active torsions:
REMARK  status: ('A' for Active; 'I' for Inactive)
ROOT
HETATM    1  C1  UNL     1     -34.539   4.320   4.766  1.00 20.00     0.001 A 
HETATM    2  C2  UNL     1     -34.040   4.306   3.464  1.00 20.00     0.001 A 
HETATM    3  C3  UNL     1     -34.411   5.465   5.551  1.00 20.00     0.007 A 
HETATM    4  C4  UNL     1     -33.411   5.440   2.946  1.00 20.00     0.007 A 
HETATM    5  C5  UNL     1     -33.783   6.598   5.033  1.00 20.00    -0.056 A 
HETATM    6  C6  UNL     1     -33.283   6.585   3.731  1.00 20.00    -0.056 A 
HETATM    7  C7  UNL     1     -33.658   7.814   5.892  1.00 20.00     0.049 C 
HETATM    8  C8  UNL     1     -32.605   7.785   3.157  1.00 20.00     0.049 C 
ENDROOT
TORSDOF 0
ENDMDL
MODEL 5
REMARK VINA RESULT:      -5.6      0.849      2.771
REMARK  0 active torsions:
REMARK  status: ('A' for Active; 'I' for Inactive)
ROOT
HETATM    1  C1  UNL     1     -32.850   7.045   2.558  1.00 20.00     0.001 A 
HETATM    2  C2  UNL     1     -33.324   5.753   2.328  1.00 20.00     0.001 A 
HETATM    3  C3  UNL     1     -33.002   7.631   3.814  1.00 20.00     0.007 A 
HETATM    4  C4  UNL     1     -33.951   5.048   3.357  1.00 20.00     0.007 A 
HETATM    5  C5  UNL     1     -33.629   6.926   4.841  1.00 20.00    -0.056 A 
HETATM    6  C6  UNL     1     -34.103   5.635   4.613  1.00 20.00    -0.056 A 
HETATM    7  C7  UNL     1     -33.779   7.574   6.179  1.00 20.00     0.049 C 
HETATM    8  C8  UNL     1     -34.779   4.861   5.697  1.00 20.00     0.049 C 
ENDROOT
TORSDOF 0
ENDMDL
MODEL 6
REMARK VINA RESULT:      -5.6      0.847      3.562
REMARK  0 active torsions:
REMARK  status: ('A' for Active; 'I' for Inactive)
ROOT
HETATM    1  C1  UNL     1     -33.329   5.746   2.308  1.00 20.00     0.001 A 
HETATM    2  C2  UNL     1     -32.843   7.034   2.538  1.00 20.00     0.001 A 
HETATM    3  C3  UNL     1     -33.960   5.044   3.334  1.00 20.00     0.007 A 
HETATM    4  C4  UNL     1     -32.989   7.619   3.796  1.00 20.00     0.007 A 
HETATM    5  C5  UNL     1     -34.106   5.630   4.591  1.00 20.00    -0.056 A 
HETATM    6  C6  UNL     1     -33.621   6.917   4.823  1.00 20.00    -0.056 A 
HETATM    7  C7  UNL     1     -34.788   4.860   5.675  1.00 20.00     0.049 C 
HETATM    8  C8  UNL     1     -33.765   7.563   6.161  1.00 20.00     0.049 C 
ENDROOT
TORSDOF 0
ENDMDL
MODEL 7
REMARK VINA RESULT:      -5.5      1.020      3.617
REMARK  0 active torsions:
REMARK  status: ('A' for Active; 'I' for Inactive)
ROOT
HETATM    1  C1  UNL     1     -32.596   7.003   2.165  1.00 20.00     0.001 A 
HETATM    2  C2  UNL     1     -32.052   7.961   3.020  1.00 20.00     0.001 A 
HETATM    3  C3  UNL     1     -33.570   6.121   2.633  1.00 20.00     0.007 A 
HETATM    4  C4  UNL     1     -32.483   8.037   4.346  1.00 20.00     0.007 A 
HETATM    5  C5  UNL     1     -34.000   6.197   3.958  1.00 20.00    -0.056 A 
HETATM    6  C6  UNL     1     -33.456   7.155   4.814  1.00 20.00    -0.056 A 
HETATM    7  C7  UNL     1     -35.044   5.243   4.437  1.00 20.00     0.049 C 
HETATM    8  C8  UNL     1     -33.900   7.254   6.236  1.00 20.00     0.049 C 
ENDROOT
TORSDOF 0
ENDMDL
MODEL 8
REMARK VINA RESULT:      -5.3      0.816      2.467
REMARK  0 active torsions:
REMARK  status: ('A' for Active; 'I' for Inactive)
ROOT
HETATM    1  C1  UNL     1     -33.666   7.489   5.968  1.00 20.00     0.001 A 
HETATM    2  C2  UNL     1     -32.944   8.050   4.914  1.00 20.00     0.001 A 
HETATM    3  C3  UNL     1     -34.252   6.232   5.822  1.00 20.00     0.007 A 
HETATM    4  C4  UNL     1     -32.810   7.353   3.712  1.00 20.00     0.007 A 
HETATM    5  C5  UNL     1     -34.118   5.536   4.621  1.00 20.00    -0.056 A 
HETATM    6  C6  UNL     1     -33.397   6.096   3.566  1.00 20.00    -0.056 A 
HETATM    7  C7  UNL     1     -34.754   4.191   4.487  1.00 20.00     0.049 C 
HETATM    8  C8  UNL     1     -33.241   5.370   2.271  1.00 20.00     0.049 C 
ENDROOT
TORSDOF 0
ENDMDL
MODEL 9
REMARK VINA RESULT:      -5.3      0.814      2.096
REMARK  0 active torsions:
REMARK  status: ('A' for Active; 'I' for Inactive)
ROOT
HETATM    1  C1  UNL     1     -32.947   8.049   4.907  1.00 20.00     0.001 A 
HETATM    2  C2  UNL     1     -33.669   7.493   5.963  1.00 20.00     0.001 A 
HETATM    3  C3  UNL     1     -32.810   7.348   3.709  1.00 20.00     0.007 A 
HETATM    4  C4  UNL     1     -34.256   6.235   5.820  1.00 20.00     0.007 A 
HETATM    5  C5  UNL     1     -33.396   6.091   3.567  1.00 20.00    -0.056 A 
HETATM    6  C6  UNL     1     -34.119   5.534   4.622  1.00 20.00    -0.056 A 
HETATM    7  C7  UNL     1     -33.238   5.359   2.274  1.00 20.00     0.049 C 
HETATM    8  C8  UNL     1     -34.754   4.189   4.493  1.00 20.00     0.049 C 
ENDROOT
TORSDOF 0
ENDMDL
