MODEL 1
REMARK VINA RESULT:      -6.1      0.000      0.000
REMARK  1 active torsions:
REMARK  status: ('A' for Active; 'I' for Inactive)
REMARK    1  A    between atoms: C6_6  and  N9_9 
ROOT
HETATM    1  N8  UNL     1     -32.967  10.188   1.150  1.00 20.00     0.068 N 
HETATM    2  N9  UNL     1     -31.751   8.349   2.079  1.00 20.00    -0.073 NA
HETATM    3  N10 UNL     1     -32.389   9.310   1.596  1.00 20.00    -0.162 NA
ENDROOT
BRANCH   2   4
HETATM    4  C6  UNL     1     -32.517   7.577   2.958  1.00 20.00     0.093 A 
HETATM    5  C3  UNL     1     -32.637   7.956   4.295  1.00 20.00     0.035 A 
HETATM    6  C1  UNL     1     -33.402   7.187   5.172  1.00 20.00     0.009 A 
HETATM    7  C5  UNL     1     -34.045   6.037   4.713  1.00 20.00    -0.062 A 
HETATM    8  C2  UNL     1     -33.925   5.659   3.376  1.00 20.00     0.009 A 
HETATM    9  C7  UNL     1     -34.861   5.214   5.649  1.00 20.00     0.048 C 
HETATM   10  C4  UNL     1     -33.160   6.428   2.498  1.00 20.00     0.035 A 
ENDBRANCH   2   4
TORSDOF 1
ENDMDL
MODEL 2
REMARK VINA RESULT:      -6.1      0.046      1.528
REMARK  1 active torsions:
REMARK  status: ('A' for Active; 'I' for Inactive)
REMARK    1  A    between atoms: C6_6  and  N9_9 
ROOT
HETATM    1  N8  UNL     1     -32.960  10.205   1.156  1.00 20.00     0.068 N 
HETATM    2  N9  UNL     1     -31.768   8.333   2.047  1.00 20.00    -0.073 NA
HETATM    3  N10 UNL     1     -32.394   9.311   1.584  1.00 20.00    -0.162 NA
ENDROOT
BRANCH   2   4
HETATM    4  C6  UNL     1     -32.528   7.580   2.948  1.00 20.00     0.093 A 
HETATM    5  C3  UNL     1     -33.209   6.445   2.507  1.00 20.00     0.035 A 
HETATM    6  C1  UNL     1     -33.966   5.693   3.405  1.00 20.00     0.009 A 
HETATM    7  C5  UNL     1     -34.044   6.076   4.744  1.00 20.00    -0.062 A 
HETATM    8  C2  UNL     1     -33.363   7.211   5.185  1.00 20.00     0.009 A 
HETATM    9  C7  UNL     1     -34.853   5.274   5.704  1.00 20.00     0.048 C 
HETATM   10  C4  UNL     1     -32.605   7.964   4.287  1.00 20.00     0.035 A 
ENDBRANCH   2   4
TORSDOF 1
ENDMDL
MODEL 3
REMARK VINA RESULT:      -4.9      3.072      4.538
REMARK  1 active torsions:
REMARK  status: ('A' for Active; 'I' for Inactive)
REMARK    1  A    between atoms: C6_6  and  N9_9 
ROOT
HETATM    1  N8  UNL     1     -34.722   4.618   5.608  1.00 20.00     0.068 N 
HETATM    2  N9  UNL     1     -33.982   6.891   5.701  1.00 20.00    -0.073 NA
HETATM    3  N10 UNL     1     -34.367   5.702   5.650  1.00 20.00    -0.162 NA
ENDROOT
BRANCH   2   4
HETATM    4  C6  UNL     1     -33.353   7.309   4.524  1.00 20.00     0.093 A 
HETATM    5  C3  UNL     1     -33.831   6.875   3.287  1.00 20.00     0.035 A 
HETATM    6  C1  UNL     1     -33.206   7.293   2.112  1.00 20.00     0.009 A 
HETATM    7  C5  UNL     1     -32.102   8.143   2.174  1.00 20.00    -0.062 A 
HETATM    8  C2  UNL     1     -31.624   8.576   3.411  1.00 20.00     0.009 A 
HETATM    9  C7  UNL     1     -31.432   8.589   0.919  1.00 20.00     0.048 C 
HETATM   10  C4  UNL     1     -32.249   8.159   4.586  1.00 20.00     0.035 A 
ENDBRANCH   2   4
TORSDOF 1
ENDMDL
MODEL 4
REMARK VINA RESULT:      -4.9      3.073      4.307
REMARK  1 active torsions:
REMARK  status: ('A' for Active; 'I' for Inactive)
REMARK    1  A    between atoms: C6_6  and  N9_9 
ROOT
HETATM    1  N8  UNL     1     -34.723   4.617   5.609  1.00 20.00     0.068 N 
HETATM    2  N9  UNL     1     -33.984   6.890   5.701  1.00 20.00    -0.073 NA
HETATM    3  N10 UNL     1     -34.368   5.701   5.650  1.00 20.00    -0.162 NA
ENDROOT
BRANCH   2   4
HETATM    4  C6  UNL     1     -33.356   7.308   4.524  1.00 20.00     0.093 A 
HETATM    5  C3  UNL     1     -32.251   8.158   4.588  1.00 20.00     0.035 A 
HETATM    6  C1  UNL     1     -31.623   8.574   3.414  1.00 20.00     0.009 A 
HETATM    7  C5  UNL     1     -32.101   8.143   2.176  1.00 20.00    -0.062 A 
HETATM    8  C2  UNL     1     -33.206   7.294   2.113  1.00 20.00     0.009 A 
HETATM    9  C7  UNL     1     -31.432   8.589   0.921  1.00 20.00     0.048 C 
HETATM   10  C4  UNL     1     -33.834   6.876   3.287  1.00 20.00     0.035 A 
ENDBRANCH   2   4
TORSDOF 1
ENDMDL
MODEL 5
REMARK VINA RESULT:      -4.8     10.714     11.418
REMARK  1 active torsions:
REMARK  status: ('A' for Active; 'I' for Inactive)
REMARK    1  A    between atoms: C6_6  and  N9_9 
ROOT
HETATM    1  N8  UNL     1     -35.151  12.770  -7.458  1.00 20.00     0.068 N 
HETATM    2  N9  UNL     1     -35.824  12.960  -5.171  1.00 20.00    -0.073 NA
HETATM    3  N10 UNL     1     -35.470  12.863  -6.366  1.00 20.00    -0.162 NA
ENDROOT
BRANCH   2   4
HETATM    4  C6  UNL     1     -35.278  14.077  -4.531  1.00 20.00     0.093 A 
HETATM    5  C3  UNL     1     -33.894  14.197  -4.400  1.00 20.00     0.035 A 
HETATM    6  C1  UNL     1     -33.347  15.311  -3.764  1.00 20.00     0.009 A 
HETATM    7  C5  UNL     1     -34.185  16.306  -3.257  1.00 20.00    -0.062 A 
HETATM    8  C2  UNL     1     -35.568  16.185  -3.389  1.00 20.00     0.009 A 
HETATM    9  C7  UNL     1     -33.602  17.496  -2.576  1.00 20.00     0.048 C 
HETATM   10  C4  UNL     1     -36.115  15.071  -4.026  1.00 20.00     0.035 A 
ENDBRANCH   2   4
TORSDOF 1
ENDMDL
MODEL 6
REMARK VINA RESULT:      -4.8     10.704     11.388
REMARK  1 active torsions:
REMARK  status: ('A' for Active; 'I' for Inactive)
REMARK    1  A    between atoms: C6_6  and  N9_9 
ROOT
HETATM    1  N8  UNL     1     -35.154  12.777  -7.446  1.00 20.00     0.068 N 
HETATM    2  N9  UNL     1     -35.803  12.956  -5.150  1.00 20.00    -0.073 NA
HETATM    3  N10 UNL     1     -35.462  12.865  -6.350  1.00 20.00    -0.162 NA
ENDROOT
BRANCH   2   4
HETATM    4  C6  UNL     1     -35.254  14.074  -4.513  1.00 20.00     0.093 A 
HETATM    5  C3  UNL     1     -36.092  15.062  -3.997  1.00 20.00     0.035 A 
HETATM    6  C1  UNL     1     -35.546  16.176  -3.359  1.00 20.00     0.009 A 
HETATM    7  C5  UNL     1     -34.161  16.303  -3.241  1.00 20.00    -0.062 A 
HETATM    8  C2  UNL     1     -33.325  15.314  -3.758  1.00 20.00     0.009 A 
HETATM    9  C7  UNL     1     -33.577  17.494  -2.562  1.00 20.00     0.048 C 
HETATM   10  C4  UNL     1     -33.870  14.199  -4.394  1.00 20.00     0.035 A 
ENDBRANCH   2   4
TORSDOF 1
ENDMDL
MODEL 7
REMARK VINA RESULT:      -4.4     11.115     11.581
REMARK  1 active torsions:
REMARK  status: ('A' for Active; 'I' for Inactive)
REMARK    1  A    between atoms: C6_6  and  N9_9 
ROOT
HETATM    1  N8  UNL     1     -33.645  18.132   3.399  1.00 20.00     0.068 N 
HETATM    2  N9  UNL     1     -33.369  19.242   1.298  1.00 20.00    -0.073 NA
HETATM    3  N10 UNL     1     -33.514  18.658   2.394  1.00 20.00    -0.162 NA
ENDROOT
BRANCH   2   4
HETATM    4  C6  UNL     1     -33.738  18.449   0.208  1.00 20.00     0.093 A 
HETATM    5  C3  UNL     1     -32.848  18.261  -0.850  1.00 20.00     0.035 A 
HETATM    6  C1  UNL     1     -33.214  17.467  -1.937  1.00 20.00     0.009 A 
HETATM    7  C5  UNL     1     -34.472  16.864  -1.968  1.00 20.00    -0.062 A 
HETATM    8  C2  UNL     1     -35.361  17.052  -0.910  1.00 20.00     0.009 A 
HETATM    9  C7  UNL     1     -34.865  16.018  -3.130  1.00 20.00     0.048 C 
HETATM   10  C4  UNL     1     -34.995  17.845   0.178  1.00 20.00     0.035 A 
ENDBRANCH   2   4
TORSDOF 1
ENDMDL
MODEL 8
REMARK VINA RESULT:      -4.4     10.872     11.398
REMARK  1 active torsions:
REMARK  status: ('A' for Active; 'I' for Inactive)
REMARK    1  A    between atoms: C6_6  and  N9_9 
ROOT
HETATM    1  N8  UNL     1     -34.202  14.203  -4.117  1.00 20.00     0.068 N 
HETATM    2  N9  UNL     1     -35.490  16.041  -3.290  1.00 20.00    -0.073 NA
HETATM    3  N10 UNL     1     -34.815  15.080  -3.719  1.00 20.00    -0.162 NA
ENDROOT
BRANCH   2   4
HETATM    4  C6  UNL     1     -34.833  16.761  -2.287  1.00 20.00     0.093 A 
HETATM    5  C3  UNL     1     -35.483  17.029  -1.082  1.00 20.00     0.035 A 
HETATM    6  C1  UNL     1     -34.827  17.746  -0.081  1.00 20.00     0.009 A 
HETATM    7  C5  UNL     1     -33.523  18.196  -0.285  1.00 20.00    -0.062 A 
HETATM    8  C2  UNL     1     -32.874  17.928  -1.491  1.00 20.00     0.009 A 
HETATM    9  C7  UNL     1     -32.822  18.964   0.783  1.00 20.00     0.048 C 
HETATM   10  C4  UNL     1     -33.528  17.210  -2.492  1.00 20.00     0.035 A 
ENDBRANCH   2   4
TORSDOF 1
ENDMDL
MODEL 9
REMARK VINA RESULT:      -4.3     10.823     11.300
REMARK  1 active torsions:
REMARK  status: ('A' for Active; 'I' for Inactive)
REMARK    1  A    between atoms: C6_6  and  N9_9 
ROOT
HETATM    1  N8  UNL     1     -33.352  14.357  -4.368  1.00 20.00     0.068 N 
HETATM    2  N9  UNL     1     -33.444  16.724  -4.031  1.00 20.00    -0.073 NA
HETATM    3  N10 UNL     1     -33.398  15.486  -4.204  1.00 20.00    -0.162 NA
ENDROOT
BRANCH   2   4
HETATM    4  C6  UNL     1     -33.832  17.076  -2.734  1.00 20.00     0.093 A 
HETATM    5  C3  UNL     1     -32.994  17.865  -1.946  1.00 20.00     0.035 A 
HETATM    6  C1  UNL     1     -33.380  18.219  -0.654  1.00 20.00     0.009 A 
HETATM    7  C5  UNL     1     -34.605  17.782  -0.147  1.00 20.00    -0.062 A 
HETATM    8  C2  UNL     1     -35.443  16.993  -0.936  1.00 20.00     0.009 A 
HETATM    9  C7  UNL     1     -35.018  18.157   1.234  1.00 20.00     0.048 C 
HETATM   10  C4  UNL     1     -35.057  16.639  -2.229  1.00 20.00     0.035 A 
ENDBRANCH   2   4
TORSDOF 1
ENDMDL
