MODEL 1
REMARK VINA RESULT:      -5.9      0.000      0.000
REMARK  0 active torsions:
REMARK  status: ('A' for Active; 'I' for Inactive)
ROOT
HETATM    1  C1  UNL     1     -33.515   7.077   5.279  1.00 20.00     0.007 A 
HETATM    2  C2  UNL     1     -32.814   7.898   4.396  1.00 20.00     0.007 A 
HETATM    3  C3  UNL     1     -33.989   5.541   3.474  1.00 20.00     0.007 A 
HETATM    4  C4  UNL     1     -33.289   6.363   2.591  1.00 20.00     0.007 A 
HETATM    5  C5  UNL     1     -34.102   5.898   4.817  1.00 20.00    -0.062 A 
HETATM    6  C6  UNL     1     -32.702   7.541   3.052  1.00 20.00    -0.062 A 
HETATM    7  C7  UNL     1     -34.851   5.019   5.761  1.00 20.00     0.048 C 
HETATM    8  C8  UNL     1     -31.954   8.422   2.108  1.00 20.00     0.048 C 
ENDROOT
TORSDOF 0
ENDMDL
MODEL 2
REMARK VINA RESULT:      -5.9      0.018      3.353
REMARK  0 active torsions:
REMARK  status: ('A' for Active; 'I' for Inactive)
ROOT
HETATM    1  C1  UNL     1     -32.835   7.911   4.389  1.00 20.00     0.007 A 
HETATM    2  C2  UNL     1     -33.534   7.094   5.276  1.00 20.00     0.007 A 
HETATM    3  C3  UNL     1     -33.282   6.350   2.599  1.00 20.00     0.007 A 
HETATM    4  C4  UNL     1     -33.981   5.533   3.487  1.00 20.00     0.007 A 
HETATM    5  C5  UNL     1     -32.709   7.539   3.051  1.00 20.00    -0.062 A 
HETATM    6  C6  UNL     1     -34.107   5.904   4.826  1.00 20.00    -0.062 A 
HETATM    7  C7  UNL     1     -31.961   8.412   2.100  1.00 20.00     0.048 C 
HETATM    8  C8  UNL     1     -34.854   5.031   5.776  1.00 20.00     0.048 C 
ENDROOT
TORSDOF 0
ENDMDL
MODEL 3
REMARK VINA RESULT:      -5.9      0.037      3.764
REMARK  0 active torsions:
REMARK  status: ('A' for Active; 'I' for Inactive)
ROOT
HETATM    1  C1  UNL     1     -33.287   6.372   2.626  1.00 20.00     0.007 A 
HETATM    2  C2  UNL     1     -33.992   5.554   3.508  1.00 20.00     0.007 A 
HETATM    3  C3  UNL     1     -32.815   7.910   4.429  1.00 20.00     0.007 A 
HETATM    4  C4  UNL     1     -33.521   7.092   5.311  1.00 20.00     0.007 A 
HETATM    5  C5  UNL     1     -32.699   7.550   3.087  1.00 20.00    -0.062 A 
HETATM    6  C6  UNL     1     -34.110   5.915   4.851  1.00 20.00    -0.062 A 
HETATM    7  C7  UNL     1     -31.943   8.425   2.145  1.00 20.00     0.048 C 
HETATM    8  C8  UNL     1     -34.866   5.040   5.792  1.00 20.00     0.048 C 
ENDROOT
TORSDOF 0
ENDMDL
MODEL 4
REMARK VINA RESULT:      -5.9      0.047      1.709
REMARK  0 active torsions:
REMARK  status: ('A' for Active; 'I' for Inactive)
ROOT
HETATM    1  C1  UNL     1     -34.043   5.564   3.501  1.00 20.00     0.007 A 
HETATM    2  C2  UNL     1     -33.349   6.373   2.601  1.00 20.00     0.007 A 
HETATM    3  C3  UNL     1     -33.490   7.086   5.295  1.00 20.00     0.007 A 
HETATM    4  C4  UNL     1     -32.795   7.894   4.395  1.00 20.00     0.007 A 
HETATM    5  C5  UNL     1     -34.113   5.921   4.848  1.00 20.00    -0.062 A 
HETATM    6  C6  UNL     1     -32.725   7.538   3.049  1.00 20.00    -0.062 A 
HETATM    7  C7  UNL     1     -34.856   5.058   5.811  1.00 20.00     0.048 C 
HETATM    8  C8  UNL     1     -31.981   8.400   2.086  1.00 20.00     0.048 C 
ENDROOT
TORSDOF 0
ENDMDL
MODEL 5
REMARK VINA RESULT:      -4.6      1.119      2.629
REMARK  0 active torsions:
REMARK  status: ('A' for Active; 'I' for Inactive)
ROOT
HETATM    1  C1  UNL     1     -34.390   5.555   5.230  1.00 20.00     0.007 A 
HETATM    2  C2  UNL     1     -34.206   4.703   4.141  1.00 20.00     0.007 A 
HETATM    3  C3  UNL     1     -33.083   7.257   4.117  1.00 20.00     0.007 A 
HETATM    4  C4  UNL     1     -32.900   6.404   3.029  1.00 20.00     0.007 A 
HETATM    5  C5  UNL     1     -33.828   6.832   5.217  1.00 20.00    -0.062 A 
HETATM    6  C6  UNL     1     -33.461   5.127   3.040  1.00 20.00    -0.062 A 
HETATM    7  C7  UNL     1     -34.024   7.745   6.380  1.00 20.00     0.048 C 
HETATM    8  C8  UNL     1     -33.264   4.214   1.878  1.00 20.00     0.048 C 
ENDROOT
TORSDOF 0
ENDMDL
MODEL 6
REMARK VINA RESULT:      -4.6      1.130      2.931
REMARK  0 active torsions:
REMARK  status: ('A' for Active; 'I' for Inactive)
ROOT
HETATM    1  C1  UNL     1     -32.915   6.385   3.023  1.00 20.00     0.007 A 
HETATM    2  C2  UNL     1     -33.104   7.239   4.110  1.00 20.00     0.007 A 
HETATM    3  C3  UNL     1     -34.189   4.669   4.151  1.00 20.00     0.007 A 
HETATM    4  C4  UNL     1     -34.378   5.523   5.237  1.00 20.00     0.007 A 
HETATM    5  C5  UNL     1     -33.457   5.100   3.045  1.00 20.00    -0.062 A 
HETATM    6  C6  UNL     1     -33.836   6.808   5.217  1.00 20.00    -0.062 A 
HETATM    7  C7  UNL     1     -33.256   4.185   1.884  1.00 20.00     0.048 C 
HETATM    8  C8  UNL     1     -34.036   7.722   6.378  1.00 20.00     0.048 C 
ENDROOT
TORSDOF 0
ENDMDL
MODEL 7
REMARK VINA RESULT:      -4.2     11.761     12.240
REMARK  0 active torsions:
REMARK  status: ('A' for Active; 'I' for Inactive)
ROOT
HETATM    1  C1  UNL     1     -33.376  17.177  -2.402  1.00 20.00     0.007 A 
HETATM    2  C2  UNL     1     -32.853  17.948  -1.364  1.00 20.00     0.007 A 
HETATM    3  C3  UNL     1     -35.450  16.946  -1.185  1.00 20.00     0.007 A 
HETATM    4  C4  UNL     1     -34.927  17.716  -0.147  1.00 20.00     0.007 A 
HETATM    5  C5  UNL     1     -34.674  16.676  -2.312  1.00 20.00    -0.062 A 
HETATM    6  C6  UNL     1     -33.629  18.217  -0.236  1.00 20.00    -0.062 A 
HETATM    7  C7  UNL     1     -35.235  15.852  -3.422  1.00 20.00     0.048 C 
HETATM    8  C8  UNL     1     -33.068  19.040   0.874  1.00 20.00     0.048 C 
ENDROOT
TORSDOF 0
ENDMDL
MODEL 8
REMARK VINA RESULT:      -4.2     11.694     12.085
REMARK  0 active torsions:
REMARK  status: ('A' for Active; 'I' for Inactive)
ROOT
HETATM    1  C1  UNL     1     -33.218  18.327  -0.400  1.00 20.00     0.007 A 
HETATM    2  C2  UNL     1     -32.991  17.699  -1.625  1.00 20.00     0.007 A 
HETATM    3  C3  UNL     1     -35.433  17.366  -0.318  1.00 20.00     0.007 A 
HETATM    4  C4  UNL     1     -35.206  16.739  -1.543  1.00 20.00     0.007 A 
HETATM    5  C5  UNL     1     -34.439  18.160   0.253  1.00 20.00    -0.062 A 
HETATM    6  C6  UNL     1     -33.986  16.905  -2.197  1.00 20.00    -0.062 A 
HETATM    7  C7  UNL     1     -34.682  18.831   1.563  1.00 20.00     0.048 C 
HETATM    8  C8  UNL     1     -33.743  16.237  -3.507  1.00 20.00     0.048 C 
ENDROOT
TORSDOF 0
ENDMDL
MODEL 9
REMARK VINA RESULT:      -4.2     11.722     12.128
REMARK  0 active torsions:
REMARK  status: ('A' for Active; 'I' for Inactive)
ROOT
HETATM    1  C1  UNL     1     -35.508  17.341  -0.368  1.00 20.00     0.007 A 
HETATM    2  C2  UNL     1     -35.213  16.760  -1.601  1.00 20.00     0.007 A 
HETATM    3  C3  UNL     1     -33.299  18.321  -0.304  1.00 20.00     0.007 A 
HETATM    4  C4  UNL     1     -33.006  17.739  -1.536  1.00 20.00     0.007 A 
HETATM    5  C5  UNL     1     -34.550  18.122   0.280  1.00 20.00    -0.062 A 
HETATM    6  C6  UNL     1     -33.962  16.958  -2.185  1.00 20.00    -0.062 A 
HETATM    7  C7  UNL     1     -34.864  18.745   1.599  1.00 20.00     0.048 C 
HETATM    8  C8  UNL     1     -33.648  16.334  -3.503  1.00 20.00     0.048 C 
ENDROOT
TORSDOF 0
ENDMDL
