MODEL 1
REMARK VINA RESULT:      -6.0      0.000      0.000
REMARK  1 active torsions:
REMARK  status: ('A' for Active; 'I' for Inactive)
REMARK    1  A    between atoms: C6_6  and  N8_8 
ROOT
HETATM    1  N7  UNL     1     -32.619   9.275   1.138  1.00 20.00     0.068 N 
HETATM    2  N8  UNL     1     -31.792   8.126   3.067  1.00 20.00    -0.073 NA
HETATM    3  N9  UNL     1     -32.227   8.725   2.059  1.00 20.00    -0.162 NA
ENDROOT
BRANCH   2   4
HETATM    4  C6  UNL     1     -32.760   7.330   3.685  1.00 20.00     0.093 A 
HETATM    5  C4  UNL     1     -33.120   7.570   5.011  1.00 20.00     0.034 A 
HETATM    6  C2  UNL     1     -34.086   6.776   5.627  1.00 20.00     0.002 A 
HETATM    7  C1  UNL     1     -34.693   5.739   4.917  1.00 20.00     0.000 A 
HETATM    8  C3  UNL     1     -34.334   5.497   3.592  1.00 20.00     0.002 A 
HETATM    9  C5  UNL     1     -33.367   6.293   2.975  1.00 20.00     0.034 A 
ENDBRANCH   2   4
TORSDOF 1
ENDMDL
MODEL 2
REMARK VINA RESULT:      -6.0      0.018      1.611
REMARK  1 active torsions:
REMARK  status: ('A' for Active; 'I' for Inactive)
REMARK    1  A    between atoms: C6_6  and  N8_8 
ROOT
HETATM    1  N7  UNL     1     -32.625   9.309   1.164  1.00 20.00     0.068 N 
HETATM    2  N8  UNL     1     -31.793   8.135   3.075  1.00 20.00    -0.073 NA
HETATM    3  N9  UNL     1     -32.231   8.747   2.077  1.00 20.00    -0.162 NA
ENDROOT
BRANCH   2   4
HETATM    4  C6  UNL     1     -32.761   7.335   3.690  1.00 20.00     0.093 A 
HETATM    5  C4  UNL     1     -33.364   6.298   2.978  1.00 20.00     0.034 A 
HETATM    6  C2  UNL     1     -34.330   5.500   3.591  1.00 20.00     0.002 A 
HETATM    7  C1  UNL     1     -34.693   5.739   4.917  1.00 20.00     0.000 A 
HETATM    8  C3  UNL     1     -34.091   6.776   5.629  1.00 20.00     0.002 A 
HETATM    9  C5  UNL     1     -33.125   7.574   5.016  1.00 20.00     0.034 A 
ENDBRANCH   2   4
TORSDOF 1
ENDMDL
MODEL 3
REMARK VINA RESULT:      -4.5      2.819      4.077
REMARK  1 active torsions:
REMARK  status: ('A' for Active; 'I' for Inactive)
REMARK    1  A    between atoms: C6_6  and  N8_8 
ROOT
HETATM    1  N7  UNL     1     -34.722   4.585   5.669  1.00 20.00     0.068 N 
HETATM    2  N8  UNL     1     -34.053   6.882   5.667  1.00 20.00    -0.073 NA
HETATM    3  N9  UNL     1     -34.401   5.681   5.665  1.00 20.00    -0.162 NA
ENDROOT
BRANCH   2   4
HETATM    4  C6  UNL     1     -33.356   7.247   4.511  1.00 20.00     0.093 A 
HETATM    5  C4  UNL     1     -33.734   6.726   3.274  1.00 20.00     0.034 A 
HETATM    6  C2  UNL     1     -33.039   7.091   2.121  1.00 20.00     0.002 A 
HETATM    7  C1  UNL     1     -31.964   7.976   2.206  1.00 20.00     0.000 A 
HETATM    8  C3  UNL     1     -31.585   8.496   3.443  1.00 20.00     0.002 A 
HETATM    9  C5  UNL     1     -32.281   8.132   4.596  1.00 20.00     0.034 A 
ENDBRANCH   2   4
TORSDOF 1
ENDMDL
MODEL 4
REMARK VINA RESULT:      -4.5      2.832      4.068
REMARK  1 active torsions:
REMARK  status: ('A' for Active; 'I' for Inactive)
REMARK    1  A    between atoms: C6_6  and  N8_8 
ROOT
HETATM    1  N7  UNL     1     -34.169   3.620   4.412  1.00 20.00     0.068 N 
HETATM    2  N8  UNL     1     -34.816   5.919   4.277  1.00 20.00    -0.073 NA
HETATM    3  N9  UNL     1     -34.475   4.718   4.346  1.00 20.00    -0.162 NA
ENDROOT
BRANCH   2   4
HETATM    4  C6  UNL     1     -33.750   6.769   3.967  1.00 20.00     0.093 A 
HETATM    5  C4  UNL     1     -33.246   6.812   2.667  1.00 20.00     0.034 A 
HETATM    6  C2  UNL     1     -32.184   7.661   2.358  1.00 20.00     0.002 A 
HETATM    7  C1  UNL     1     -31.623   8.466   3.351  1.00 20.00     0.000 A 
HETATM    8  C3  UNL     1     -32.126   8.423   4.651  1.00 20.00     0.002 A 
HETATM    9  C5  UNL     1     -33.190   7.575   4.959  1.00 20.00     0.034 A 
ENDBRANCH   2   4
TORSDOF 1
ENDMDL
MODEL 5
REMARK VINA RESULT:      -4.5      2.820      3.803
REMARK  1 active torsions:
REMARK  status: ('A' for Active; 'I' for Inactive)
REMARK    1  A    between atoms: C6_6  and  N8_8 
ROOT
HETATM    1  N7  UNL     1     -34.729   4.587   5.670  1.00 20.00     0.068 N 
HETATM    2  N8  UNL     1     -34.051   6.881   5.671  1.00 20.00    -0.073 NA
HETATM    3  N9  UNL     1     -34.404   5.681   5.667  1.00 20.00    -0.162 NA
ENDROOT
BRANCH   2   4
HETATM    4  C6  UNL     1     -33.357   7.246   4.514  1.00 20.00     0.093 A 
HETATM    5  C4  UNL     1     -32.289   8.140   4.592  1.00 20.00     0.034 A 
HETATM    6  C2  UNL     1     -31.597   8.503   3.438  1.00 20.00     0.002 A 
HETATM    7  C1  UNL     1     -31.974   7.974   2.203  1.00 20.00     0.000 A 
HETATM    8  C3  UNL     1     -33.043   7.082   2.123  1.00 20.00     0.002 A 
HETATM    9  C5  UNL     1     -33.734   6.717   3.278  1.00 20.00     0.034 A 
ENDBRANCH   2   4
TORSDOF 1
ENDMDL
MODEL 6
REMARK VINA RESULT:      -4.4     10.866     11.594
REMARK  1 active torsions:
REMARK  status: ('A' for Active; 'I' for Inactive)
REMARK    1  A    between atoms: C6_6  and  N8_8 
ROOT
HETATM    1  N7  UNL     1     -35.068  12.813  -7.461  1.00 20.00     0.068 N 
HETATM    2  N8  UNL     1     -35.826  12.857  -5.193  1.00 20.00    -0.073 NA
HETATM    3  N9  UNL     1     -35.429  12.837  -6.378  1.00 20.00    -0.162 NA
ENDROOT
BRANCH   2   4
HETATM    4  C6  UNL     1     -35.594  14.083  -4.563  1.00 20.00     0.093 A 
HETATM    5  C4  UNL     1     -34.315  14.405  -4.111  1.00 20.00     0.034 A 
HETATM    6  C2  UNL     1     -34.083  15.629  -3.483  1.00 20.00     0.002 A 
HETATM    7  C1  UNL     1     -35.133  16.531  -3.306  1.00 20.00     0.000 A 
HETATM    8  C3  UNL     1     -36.413  16.209  -3.757  1.00 20.00     0.002 A 
HETATM    9  C5  UNL     1     -36.644  14.986  -4.385  1.00 20.00     0.034 A 
ENDBRANCH   2   4
TORSDOF 1
ENDMDL
MODEL 7
REMARK VINA RESULT:      -4.4     11.054     12.169
REMARK  1 active torsions:
REMARK  status: ('A' for Active; 'I' for Inactive)
REMARK    1  A    between atoms: C6_6  and  N8_8 
ROOT
HETATM    1  N7  UNL     1     -38.410  14.383  -5.082  1.00 20.00     0.068 N 
HETATM    2  N8  UNL     1     -36.357  13.162  -5.207  1.00 20.00    -0.073 NA
HETATM    3  N9  UNL     1     -37.428  13.804  -5.142  1.00 20.00    -0.162 NA
ENDROOT
BRANCH   2   4
HETATM    4  C6  UNL     1     -35.232  13.989  -5.282  1.00 20.00     0.093 A 
HETATM    5  C4  UNL     1     -34.848  14.535  -6.506  1.00 20.00     0.034 A 
HETATM    6  C2  UNL     1     -33.727  15.361  -6.581  1.00 20.00     0.002 A 
HETATM    7  C1  UNL     1     -32.988  15.640  -5.430  1.00 20.00     0.000 A 
HETATM    8  C3  UNL     1     -33.372  15.093  -4.205  1.00 20.00     0.002 A 
HETATM    9  C5  UNL     1     -34.494  14.268  -4.131  1.00 20.00     0.034 A 
ENDBRANCH   2   4
TORSDOF 1
ENDMDL
MODEL 8
REMARK VINA RESULT:      -4.2     11.503     11.741
REMARK  1 active torsions:
REMARK  status: ('A' for Active; 'I' for Inactive)
REMARK    1  A    between atoms: C6_6  and  N8_8 
ROOT
HETATM    1  N7  UNL     1     -30.749  18.854   1.682  1.00 20.00     0.068 N 
HETATM    2  N8  UNL     1     -31.450  18.409  -0.561  1.00 20.00    -0.073 NA
HETATM    3  N9  UNL     1     -31.087  18.641   0.613  1.00 20.00    -0.162 NA
ENDROOT
BRANCH   2   4
HETATM    4  C6  UNL     1     -32.796  18.045  -0.651  1.00 20.00     0.093 A 
HETATM    5  C4  UNL     1     -33.262  17.364  -1.776  1.00 20.00     0.034 A 
HETATM    6  C2  UNL     1     -34.605  16.999  -1.865  1.00 20.00     0.002 A 
HETATM    7  C1  UNL     1     -35.484  17.318  -0.829  1.00 20.00     0.000 A 
HETATM    8  C3  UNL     1     -35.020  18.000   0.296  1.00 20.00     0.002 A 
HETATM    9  C5  UNL     1     -33.676  18.363   0.385  1.00 20.00     0.034 A 
ENDBRANCH   2   4
TORSDOF 1
ENDMDL
MODEL 9
REMARK VINA RESULT:      -4.0      2.310      3.065
REMARK  1 active torsions:
REMARK  status: ('A' for Active; 'I' for Inactive)
REMARK    1  A    between atoms: C6_6  and  N8_8 
ROOT
HETATM    1  N7  UNL     1     -32.529   3.831   2.000  1.00 20.00     0.068 N 
HETATM    2  N8  UNL     1     -33.922   5.747   2.333  1.00 20.00    -0.073 NA
HETATM    3  N9  UNL     1     -33.193   4.746   2.162  1.00 20.00    -0.162 NA
ENDROOT
BRANCH   2   4
HETATM    4  C6  UNL     1     -33.941   6.185   3.661  1.00 20.00     0.093 A 
HETATM    5  C4  UNL     1     -34.667   5.478   4.618  1.00 20.00     0.034 A 
HETATM    6  C2  UNL     1     -34.686   5.914   5.943  1.00 20.00     0.002 A 
HETATM    7  C1  UNL     1     -33.978   7.060   6.310  1.00 20.00     0.000 A 
HETATM    8  C3  UNL     1     -33.252   7.767   5.352  1.00 20.00     0.002 A 
HETATM    9  C5  UNL     1     -33.233   7.330   4.028  1.00 20.00     0.034 A 
ENDBRANCH   2   4
TORSDOF 1
ENDMDL
