MODEL 1
REMARK VINA RESULT:      -7.0      0.000      0.000
REMARK  0 active torsions:
REMARK  status: ('A' for Active; 'I' for Inactive)
ROOT
HETATM    1  C1  UNL     1     -32.092   8.462   1.948  1.00 20.00     0.018 C 
HETATM    2  C2  UNL     1     -32.660   7.752   2.732  1.00 20.00    -0.078 C 
HETATM    3  C3  UNL     1     -34.657   5.258   5.487  1.00 20.00     0.000 A 
HETATM    4  C4  UNL     1     -34.203   6.515   5.886  1.00 20.00     0.001 A 
HETATM    5  C5  UNL     1     -34.451   4.825   4.177  1.00 20.00     0.001 A 
HETATM    6  C6  UNL     1     -33.542   7.339   4.975  1.00 20.00     0.020 A 
HETATM    7  C7  UNL     1     -33.791   5.649   3.266  1.00 20.00     0.020 A 
HETATM    8  C8  UNL     1     -33.336   6.906   3.665  1.00 20.00     0.016 A 
ENDROOT
TORSDOF 0
ENDMDL
MODEL 2
REMARK VINA RESULT:      -7.0      0.012      1.709
REMARK  0 active torsions:
REMARK  status: ('A' for Active; 'I' for Inactive)
ROOT
HETATM    1  C1  UNL     1     -32.075   8.464   1.961  1.00 20.00     0.018 C 
HETATM    2  C2  UNL     1     -32.649   7.755   2.742  1.00 20.00    -0.078 C 
HETATM    3  C3  UNL     1     -34.663   5.260   5.484  1.00 20.00     0.000 A 
HETATM    4  C4  UNL     1     -34.458   4.833   4.172  1.00 20.00     0.001 A 
HETATM    5  C5  UNL     1     -34.202   6.513   5.889  1.00 20.00     0.001 A 
HETATM    6  C6  UNL     1     -33.792   5.658   3.265  1.00 20.00     0.020 A 
HETATM    7  C7  UNL     1     -33.536   7.338   4.983  1.00 20.00     0.020 A 
HETATM    8  C8  UNL     1     -33.331   6.910   3.671  1.00 20.00     0.016 A 
ENDROOT
TORSDOF 0
ENDMDL
MODEL 3
REMARK VINA RESULT:      -4.8      1.021      1.491
REMARK  0 active torsions:
REMARK  status: ('A' for Active; 'I' for Inactive)
ROOT
HETATM    1  C1  UNL     1     -31.982   9.043   0.498  1.00 20.00     0.018 C 
HETATM    2  C2  UNL     1     -32.444   8.425   1.417  1.00 20.00    -0.078 C 
HETATM    3  C3  UNL     1     -34.068   6.255   4.651  1.00 20.00     0.000 A 
HETATM    4  C4  UNL     1     -33.209   7.327   4.891  1.00 20.00     0.001 A 
HETATM    5  C5  UNL     1     -34.391   5.900   3.341  1.00 20.00     0.001 A 
HETATM    6  C6  UNL     1     -32.672   8.045   3.822  1.00 20.00     0.020 A 
HETATM    7  C7  UNL     1     -33.854   6.617   2.271  1.00 20.00     0.020 A 
HETATM    8  C8  UNL     1     -32.995   7.690   2.512  1.00 20.00     0.016 A 
ENDROOT
TORSDOF 0
ENDMDL
MODEL 4
REMARK VINA RESULT:      -4.8      0.929      3.544
REMARK  0 active torsions:
REMARK  status: ('A' for Active; 'I' for Inactive)
ROOT
HETATM    1  C1  UNL     1     -34.913   5.122   5.600  1.00 20.00     0.018 C 
HETATM    2  C2  UNL     1     -34.245   5.844   4.912  1.00 20.00    -0.078 C 
HETATM    3  C3  UNL     1     -31.899   8.387   2.497  1.00 20.00     0.000 A 
HETATM    4  C4  UNL     1     -31.884   8.533   3.884  1.00 20.00     0.001 A 
HETATM    5  C5  UNL     1     -32.690   7.400   1.908  1.00 20.00     0.001 A 
HETATM    6  C6  UNL     1     -32.660   7.692   4.682  1.00 20.00     0.020 A 
HETATM    7  C7  UNL     1     -33.466   6.559   2.706  1.00 20.00     0.020 A 
HETATM    8  C8  UNL     1     -33.451   6.705   4.094  1.00 20.00     0.016 A 
ENDROOT
TORSDOF 0
ENDMDL
MODEL 5
REMARK VINA RESULT:      -4.8      0.936      3.920
REMARK  0 active torsions:
REMARK  status: ('A' for Active; 'I' for Inactive)
ROOT
HETATM    1  C1  UNL     1     -34.863   5.131   5.586  1.00 20.00     0.018 C 
HETATM    2  C2  UNL     1     -34.206   5.857   4.892  1.00 20.00    -0.078 C 
HETATM    3  C3  UNL     1     -31.894   8.408   2.453  1.00 20.00     0.000 A 
HETATM    4  C4  UNL     1     -32.678   7.410   1.874  1.00 20.00     0.001 A 
HETATM    5  C5  UNL     1     -31.875   8.563   3.839  1.00 20.00     0.001 A 
HETATM    6  C6  UNL     1     -33.442   6.567   2.680  1.00 20.00     0.020 A 
HETATM    7  C7  UNL     1     -32.639   7.719   4.646  1.00 20.00     0.020 A 
HETATM    8  C8  UNL     1     -33.422   6.721   4.067  1.00 20.00     0.016 A 
ENDROOT
TORSDOF 0
ENDMDL
MODEL 6
REMARK VINA RESULT:      -4.3     11.806     12.242
REMARK  0 active torsions:
REMARK  status: ('A' for Active; 'I' for Inactive)
ROOT
HETATM    1  C1  UNL     1     -33.994  15.549  -4.147  1.00 20.00     0.018 C 
HETATM    2  C2  UNL     1     -34.053  16.186  -3.131  1.00 20.00    -0.078 C 
HETATM    3  C3  UNL     1     -34.262  18.425   0.438  1.00 20.00     0.000 A 
HETATM    4  C4  UNL     1     -35.346  17.643   0.041  1.00 20.00     0.001 A 
HETATM    5  C5  UNL     1     -33.108  18.467  -0.345  1.00 20.00     0.001 A 
HETATM    6  C6  UNL     1     -35.277  16.903  -1.140  1.00 20.00     0.020 A 
HETATM    7  C7  UNL     1     -33.039  17.727  -1.525  1.00 20.00     0.020 A 
HETATM    8  C8  UNL     1     -34.123  16.945  -1.923  1.00 20.00     0.016 A 
ENDROOT
TORSDOF 0
ENDMDL
MODEL 7
REMARK VINA RESULT:      -4.3      1.176      2.476
REMARK  0 active torsions:
REMARK  status: ('A' for Active; 'I' for Inactive)
ROOT
HETATM    1  C1  UNL     1     -33.033   4.014   1.710  1.00 20.00     0.018 C 
HETATM    2  C2  UNL     1     -33.256   4.731   2.647  1.00 20.00    -0.078 C 
HETATM    3  C3  UNL     1     -34.036   7.252   5.939  1.00 20.00     0.000 A 
HETATM    4  C4  UNL     1     -33.225   7.698   4.895  1.00 20.00     0.001 A 
HETATM    5  C5  UNL     1     -34.589   5.972   5.894  1.00 20.00     0.001 A 
HETATM    6  C6  UNL     1     -32.967   6.864   3.807  1.00 20.00     0.020 A 
HETATM    7  C7  UNL     1     -34.331   5.138   4.806  1.00 20.00     0.020 A 
HETATM    8  C8  UNL     1     -33.520   5.584   3.762  1.00 20.00     0.016 A 
ENDROOT
TORSDOF 0
ENDMDL
MODEL 8
REMARK VINA RESULT:      -4.3     11.823     12.222
REMARK  0 active torsions:
REMARK  status: ('A' for Active; 'I' for Inactive)
ROOT
HETATM    1  C1  UNL     1     -34.017  15.590  -4.127  1.00 20.00     0.018 C 
HETATM    2  C2  UNL     1     -34.074  16.220  -3.107  1.00 20.00    -0.078 C 
HETATM    3  C3  UNL     1     -34.270  18.436   0.478  1.00 20.00     0.000 A 
HETATM    4  C4  UNL     1     -33.114  18.473  -0.302  1.00 20.00     0.001 A 
HETATM    5  C5  UNL     1     -35.361  17.667   0.073  1.00 20.00     0.001 A 
HETATM    6  C6  UNL     1     -33.050  17.740  -1.488  1.00 20.00     0.020 A 
HETATM    7  C7  UNL     1     -35.296  16.934  -1.112  1.00 20.00     0.020 A 
HETATM    8  C8  UNL     1     -34.141  16.970  -1.893  1.00 20.00     0.016 A 
ENDROOT
TORSDOF 0
ENDMDL
MODEL 9
REMARK VINA RESULT:      -4.1     11.967     12.410
REMARK  0 active torsions:
REMARK  status: ('A' for Active; 'I' for Inactive)
ROOT
HETATM    1  C1  UNL     1     -31.844  19.262   1.114  1.00 20.00     0.018 C 
HETATM    2  C2  UNL     1     -32.566  18.678   0.352  1.00 20.00    -0.078 C 
HETATM    3  C3  UNL     1     -35.105  16.627  -2.322  1.00 20.00     0.000 A 
HETATM    4  C4  UNL     1     -35.592  17.056  -1.087  1.00 20.00     0.001 A 
HETATM    5  C5  UNL     1     -33.778  16.876  -2.672  1.00 20.00     0.001 A 
HETATM    6  C6  UNL     1     -34.753  17.734  -0.203  1.00 20.00     0.020 A 
HETATM    7  C7  UNL     1     -32.938  17.555  -1.788  1.00 20.00     0.020 A 
HETATM    8  C8  UNL     1     -33.426  17.983  -0.554  1.00 20.00     0.016 A 
ENDROOT
TORSDOF 0
ENDMDL
