MODEL 1
REMARK VINA RESULT:      -6.6      0.000      0.000
REMARK  2 active torsions:
REMARK  status: ('A' for Active; 'I' for Inactive)
REMARK    1  A    between atoms: C6_6  and  C10_10 
REMARK    2  A    between atoms: C9_9  and  C10_10 
ROOT
HETATM    1  C1  UNL     1     -34.662   4.993   5.270  1.00 20.00     0.000 A 
HETATM    2  C2  UNL     1     -34.320   4.819   3.929  1.00 20.00     0.001 A 
HETATM    3  C3  UNL     1     -34.359   6.191   5.917  1.00 20.00     0.001 A 
HETATM    4  C4  UNL     1     -33.673   5.841   3.235  1.00 20.00     0.007 A 
HETATM    5  C5  UNL     1     -33.712   7.213   5.223  1.00 20.00     0.007 A 
HETATM    6  C6  UNL     1     -33.369   7.039   3.882  1.00 20.00    -0.054 A 
ENDROOT
BRANCH   6   7
HETATM    7  C10 UNL     1     -32.664   8.154   3.128  1.00 20.00     0.014 C 
HETATM    8  C8  UNL     1     -31.245   8.356   3.671  1.00 20.00     0.015 C 
BRANCH   7   9
HETATM    9  C9  UNL     1     -32.627   7.924   1.603  1.00 20.00     0.004 C 
HETATM   10  C7  UNL     1     -32.164   9.150   0.825  1.00 20.00     0.006 C 
ENDBRANCH   7   9
ENDBRANCH   6   7
TORSDOF 2
ENDMDL
MODEL 2
REMARK VINA RESULT:      -6.6      0.017      1.528
REMARK  2 active torsions:
REMARK  status: ('A' for Active; 'I' for Inactive)
REMARK    1  A    between atoms: C6_6  and  C10_10 
REMARK    2  A    between atoms: C9_9  and  C10_10 
ROOT
HETATM    1  C1  UNL     1     -34.672   5.006   5.277  1.00 20.00     0.000 A 
HETATM    2  C2  UNL     1     -34.349   6.198   5.926  1.00 20.00     0.001 A 
HETATM    3  C3  UNL     1     -34.339   4.831   3.934  1.00 20.00     0.001 A 
HETATM    4  C4  UNL     1     -33.696   7.217   5.231  1.00 20.00     0.007 A 
HETATM    5  C5  UNL     1     -33.687   5.850   3.239  1.00 20.00     0.007 A 
HETATM    6  C6  UNL     1     -33.365   7.042   3.887  1.00 20.00    -0.054 A 
ENDROOT
BRANCH   6   7
HETATM    7  C10 UNL     1     -32.654   8.150   3.129  1.00 20.00     0.014 C 
HETATM    8  C8  UNL     1     -31.230   8.339   3.663  1.00 20.00     0.015 C 
BRANCH   7   9
HETATM    9  C9  UNL     1     -32.628   7.920   1.603  1.00 20.00     0.004 C 
HETATM   10  C7  UNL     1     -32.152   9.140   0.823  1.00 20.00     0.006 C 
ENDBRANCH   7   9
ENDBRANCH   6   7
TORSDOF 2
ENDMDL
MODEL 3
REMARK VINA RESULT:      -5.6      0.992      1.379
REMARK  2 active torsions:
REMARK  status: ('A' for Active; 'I' for Inactive)
REMARK    1  A    between atoms: C6_6  and  C10_10 
REMARK    2  A    between atoms: C9_9  and  C10_10 
ROOT
HETATM    1  C1  UNL     1     -34.439   5.991   5.063  1.00 20.00     0.000 A 
HETATM    2  C2  UNL     1     -34.334   5.690   3.705  1.00 20.00     0.001 A 
HETATM    3  C3  UNL     1     -33.750   7.083   5.591  1.00 20.00     0.001 A 
HETATM    4  C4  UNL     1     -33.539   6.480   2.875  1.00 20.00     0.007 A 
HETATM    5  C5  UNL     1     -32.954   7.872   4.760  1.00 20.00     0.007 A 
HETATM    6  C6  UNL     1     -32.849   7.572   3.402  1.00 20.00    -0.054 A 
ENDROOT
BRANCH   6   7
HETATM    7  C10 UNL     1     -31.983   8.433   2.500  1.00 20.00     0.014 C 
HETATM    8  C8  UNL     1     -31.726   7.724   1.165  1.00 20.00     0.015 C 
BRANCH   7   9
HETATM    9  C9  UNL     1     -32.571   9.838   2.255  1.00 20.00     0.004 C 
HETATM   10  C7  UNL     1     -32.625  10.215   0.779  1.00 20.00     0.006 C 
ENDBRANCH   7   9
ENDBRANCH   6   7
TORSDOF 2
ENDMDL
MODEL 4
REMARK VINA RESULT:      -5.2      0.951      4.288
REMARK  2 active torsions:
REMARK  status: ('A' for Active; 'I' for Inactive)
REMARK    1  A    between atoms: C6_6  and  C10_10 
REMARK    2  A    between atoms: C9_9  and  C10_10 
ROOT
HETATM    1  C1  UNL     1     -31.877   8.561   1.652  1.00 20.00     0.000 A 
HETATM    2  C2  UNL     1     -31.363   8.778   2.930  1.00 20.00     0.001 A 
HETATM    3  C3  UNL     1     -32.936   7.671   1.468  1.00 20.00     0.001 A 
HETATM    4  C4  UNL     1     -31.905   8.105   4.024  1.00 20.00     0.007 A 
HETATM    5  C5  UNL     1     -33.478   6.997   2.563  1.00 20.00     0.007 A 
HETATM    6  C6  UNL     1     -32.963   7.214   3.841  1.00 20.00    -0.054 A 
ENDROOT
BRANCH   6   7
HETATM    7  C10 UNL     1     -33.555   6.480   5.031  1.00 20.00     0.014 C 
HETATM    8  C8  UNL     1     -33.904   7.466   6.152  1.00 20.00     0.015 C 
BRANCH   7   9
HETATM    9  C9  UNL     1     -34.787   5.626   4.666  1.00 20.00     0.004 C 
HETATM   10  C7  UNL     1     -34.465   4.143   4.520  1.00 20.00     0.006 C 
ENDBRANCH   7   9
ENDBRANCH   6   7
TORSDOF 2
ENDMDL
MODEL 5
REMARK VINA RESULT:      -5.1      1.056      4.238
REMARK  2 active torsions:
REMARK  status: ('A' for Active; 'I' for Inactive)
REMARK    1  A    between atoms: C6_6  and  C10_10 
REMARK    2  A    between atoms: C9_9  and  C10_10 
ROOT
HETATM    1  C1  UNL     1     -31.514   9.154   2.471  1.00 20.00     0.000 A 
HETATM    2  C2  UNL     1     -32.295   8.701   1.407  1.00 20.00     0.001 A 
HETATM    3  C3  UNL     1     -31.583   8.513   3.708  1.00 20.00     0.001 A 
HETATM    4  C4  UNL     1     -33.145   7.609   1.580  1.00 20.00     0.007 A 
HETATM    5  C5  UNL     1     -32.435   7.422   3.882  1.00 20.00     0.007 A 
HETATM    6  C6  UNL     1     -33.215   6.969   2.818  1.00 20.00    -0.054 A 
ENDROOT
BRANCH   6   7
HETATM    7  C10 UNL     1     -34.141   5.780   3.009  1.00 20.00     0.014 C 
HETATM    8  C8  UNL     1     -33.351   4.468   2.949  1.00 20.00     0.015 C 
BRANCH   7   9
HETATM    9  C9  UNL     1     -34.961   5.854   4.314  1.00 20.00     0.004 C 
HETATM   10  C7  UNL     1     -34.595   4.761   5.312  1.00 20.00     0.006 C 
ENDBRANCH   7   9
ENDBRANCH   6   7
TORSDOF 2
ENDMDL
MODEL 6
REMARK VINA RESULT:      -4.8     11.500     12.093
REMARK  2 active torsions:
REMARK  status: ('A' for Active; 'I' for Inactive)
REMARK    1  A    between atoms: C6_6  and  C10_10 
REMARK    2  A    between atoms: C9_9  and  C10_10 
ROOT
HETATM    1  C1  UNL     1     -34.882  16.617  -2.293  1.00 20.00     0.000 A 
HETATM    2  C2  UNL     1     -35.543  16.961  -1.114  1.00 20.00     0.001 A 
HETATM    3  C3  UNL     1     -33.567  17.033  -2.502  1.00 20.00     0.001 A 
HETATM    4  C4  UNL     1     -34.890  17.721  -0.144  1.00 20.00     0.007 A 
HETATM    5  C5  UNL     1     -32.915  17.794  -1.533  1.00 20.00     0.007 A 
HETATM    6  C6  UNL     1     -33.575  18.138  -0.354  1.00 20.00    -0.054 A 
ENDROOT
BRANCH   6   7
HETATM    7  C10 UNL     1     -32.862  18.967   0.701  1.00 20.00     0.014 C 
HETATM    8  C8  UNL     1     -33.444  18.684   2.091  1.00 20.00     0.015 C 
BRANCH   7   9
HETATM    9  C9  UNL     1     -31.334  18.757   0.707  1.00 20.00     0.004 C 
HETATM   10  C7  UNL     1     -30.732  18.781   2.106  1.00 20.00     0.006 C 
ENDBRANCH   7   9
ENDBRANCH   6   7
TORSDOF 2
ENDMDL
MODEL 7
REMARK VINA RESULT:      -4.7      1.245      4.684
REMARK  2 active torsions:
REMARK  status: ('A' for Active; 'I' for Inactive)
REMARK    1  A    between atoms: C6_6  and  C10_10 
REMARK    2  A    between atoms: C9_9  and  C10_10 
ROOT
HETATM    1  C1  UNL     1     -32.337  10.233   0.474  1.00 20.00     0.000 A 
HETATM    2  C2  UNL     1     -33.289  10.322   1.490  1.00 20.00     0.001 A 
HETATM    3  C3  UNL     1     -31.524   9.104   0.378  1.00 20.00     0.001 A 
HETATM    4  C4  UNL     1     -33.427   9.284   2.411  1.00 20.00     0.007 A 
HETATM    5  C5  UNL     1     -31.661   8.066   1.300  1.00 20.00     0.007 A 
HETATM    6  C6  UNL     1     -32.613   8.155   2.316  1.00 20.00    -0.054 A 
ENDROOT
BRANCH   6   7
HETATM    7  C10 UNL     1     -32.761   7.023   3.318  1.00 20.00     0.014 C 
HETATM    8  C8  UNL     1     -33.116   7.576   4.703  1.00 20.00     0.015 C 
BRANCH   7   9
HETATM    9  C9  UNL     1     -33.792   5.961   2.884  1.00 20.00     0.004 C 
HETATM   10  C7  UNL     1     -34.911   5.763   3.901  1.00 20.00     0.006 C 
ENDBRANCH   7   9
ENDBRANCH   6   7
TORSDOF 2
ENDMDL
MODEL 8
REMARK VINA RESULT:      -4.7      1.213      4.513
REMARK  2 active torsions:
REMARK  status: ('A' for Active; 'I' for Inactive)
REMARK    1  A    between atoms: C6_6  and  C10_10 
REMARK    2  A    between atoms: C9_9  and  C10_10 
ROOT
HETATM    1  C1  UNL     1     -32.318  10.219   0.491  1.00 20.00     0.000 A 
HETATM    2  C2  UNL     1     -31.497   9.093   0.426  1.00 20.00     0.001 A 
HETATM    3  C3  UNL     1     -33.291  10.316   1.486  1.00 20.00     0.001 A 
HETATM    4  C4  UNL     1     -31.649   8.063   1.354  1.00 20.00     0.007 A 
HETATM    5  C5  UNL     1     -33.444   9.285   2.413  1.00 20.00     0.007 A 
HETATM    6  C6  UNL     1     -32.624   8.159   2.348  1.00 20.00    -0.054 A 
ENDROOT
BRANCH   6   7
HETATM    7  C10 UNL     1     -32.792   7.038   3.359  1.00 20.00     0.014 C 
HETATM    8  C8  UNL     1     -33.148   7.606   4.737  1.00 20.00     0.015 C 
BRANCH   7   9
HETATM    9  C9  UNL     1     -33.834   5.985   2.928  1.00 20.00     0.004 C 
HETATM   10  C7  UNL     1     -34.909   5.741   3.980  1.00 20.00     0.006 C 
ENDBRANCH   7   9
ENDBRANCH   6   7
TORSDOF 2
ENDMDL
MODEL 9
REMARK VINA RESULT:      -4.7     10.971     11.818
REMARK  2 active torsions:
REMARK  status: ('A' for Active; 'I' for Inactive)
REMARK    1  A    between atoms: C6_6  and  C10_10 
REMARK    2  A    between atoms: C9_9  and  C10_10 
ROOT
HETATM    1  C1  UNL     1     -34.335  17.718  -0.650  1.00 20.00     0.000 A 
HETATM    2  C2  UNL     1     -33.203  17.699  -1.465  1.00 20.00     0.001 A 
HETATM    3  C3  UNL     1     -35.492  17.046  -1.048  1.00 20.00     0.001 A 
HETATM    4  C4  UNL     1     -33.227  17.012  -2.678  1.00 20.00     0.007 A 
HETATM    5  C5  UNL     1     -35.516  16.359  -2.262  1.00 20.00     0.007 A 
HETATM    6  C6  UNL     1     -34.384  16.341  -3.077  1.00 20.00    -0.054 A 
ENDROOT
BRANCH   6   7
HETATM    7  C10 UNL     1     -34.412  15.592  -4.398  1.00 20.00     0.014 C 
HETATM    8  C8  UNL     1     -33.107  15.814  -5.170  1.00 20.00     0.015 C 
BRANCH   7   9
HETATM    9  C9  UNL     1     -34.688  14.083  -4.234  1.00 20.00     0.004 C 
HETATM   10  C7  UNL     1     -35.860  13.594  -5.076  1.00 20.00     0.006 C 
ENDBRANCH   7   9
ENDBRANCH   6   7
TORSDOF 2
ENDMDL
