MODEL 1
REMARK VINA RESULT:      -6.6      0.000      0.000
REMARK  1 active torsions:
REMARK  status: ('A' for Active; 'I' for Inactive)
REMARK    1  A    between atoms: C6_6  and  C8_8 
ROOT
HETATM    1  C1  UNL     1     -34.651   5.139   5.591  1.00 20.00     0.000 A 
HETATM    2  C2  UNL     1     -34.458   4.624   4.309  1.00 20.00     0.001 A 
HETATM    3  C3  UNL     1     -34.249   6.441   5.887  1.00 20.00     0.001 A 
HETATM    4  C4  UNL     1     -33.862   5.411   3.323  1.00 20.00     0.011 A 
HETATM    5  C5  UNL     1     -33.654   7.229   4.901  1.00 20.00     0.011 A 
HETATM    6  C6  UNL     1     -33.460   6.714   3.620  1.00 20.00    -0.037 A 
ENDROOT
BRANCH   6   7
HETATM    7  C8  UNL     1     -32.839   7.535   2.593  1.00 20.00     0.001 C 
HETATM    8  C7  UNL     1     -31.759   8.277   2.797  1.00 20.00     0.012 C 
ENDBRANCH   6   7
TORSDOF 1
ENDMDL
MODEL 2
REMARK VINA RESULT:      -6.6      0.002      1.708
REMARK  1 active torsions:
REMARK  status: ('A' for Active; 'I' for Inactive)
REMARK    1  A    between atoms: C6_6  and  C8_8 
ROOT
HETATM    1  C1  UNL     1     -34.652   5.138   5.590  1.00 20.00     0.000 A 
HETATM    2  C2  UNL     1     -34.251   6.440   5.887  1.00 20.00     0.001 A 
HETATM    3  C3  UNL     1     -34.458   4.624   4.309  1.00 20.00     0.001 A 
HETATM    4  C4  UNL     1     -33.655   7.229   4.903  1.00 20.00     0.011 A 
HETATM    5  C5  UNL     1     -33.862   5.412   3.324  1.00 20.00     0.011 A 
HETATM    6  C6  UNL     1     -33.461   6.714   3.621  1.00 20.00    -0.037 A 
ENDROOT
BRANCH   6   7
HETATM    7  C8  UNL     1     -32.840   7.536   2.594  1.00 20.00     0.001 C 
HETATM    8  C7  UNL     1     -31.759   8.276   2.796  1.00 20.00     0.012 C 
ENDBRANCH   6   7
TORSDOF 1
ENDMDL
MODEL 3
REMARK VINA RESULT:      -6.0      0.909      1.942
REMARK  1 active torsions:
REMARK  status: ('A' for Active; 'I' for Inactive)
REMARK    1  A    between atoms: C6_6  and  C8_8 
ROOT
HETATM    1  C1  UNL     1     -34.734   6.236   5.378  1.00 20.00     0.000 A 
HETATM    2  C2  UNL     1     -33.819   7.212   5.774  1.00 20.00     0.001 A 
HETATM    3  C3  UNL     1     -34.739   5.779   4.061  1.00 20.00     0.001 A 
HETATM    4  C4  UNL     1     -32.909   7.730   4.852  1.00 20.00     0.011 A 
HETATM    5  C5  UNL     1     -33.829   6.296   3.139  1.00 20.00     0.011 A 
HETATM    6  C6  UNL     1     -32.914   7.272   3.535  1.00 20.00    -0.037 A 
ENDROOT
BRANCH   6   7
HETATM    7  C8  UNL     1     -31.966   7.812   2.573  1.00 20.00     0.001 C 
HETATM    8  C7  UNL     1     -32.225   8.845   1.783  1.00 20.00     0.012 C 
ENDBRANCH   6   7
TORSDOF 1
ENDMDL
MODEL 4
REMARK VINA RESULT:      -5.3      0.922      3.739
REMARK  1 active torsions:
REMARK  status: ('A' for Active; 'I' for Inactive)
REMARK    1  A    between atoms: C6_6  and  C8_8 
ROOT
HETATM    1  C1  UNL     1     -31.857   8.229   3.134  1.00 20.00     0.000 A 
HETATM    2  C2  UNL     1     -32.220   8.249   4.480  1.00 20.00     0.001 A 
HETATM    3  C3  UNL     1     -32.484   7.346   2.256  1.00 20.00     0.001 A 
HETATM    4  C4  UNL     1     -33.211   7.387   4.949  1.00 20.00     0.011 A 
HETATM    5  C5  UNL     1     -33.475   6.483   2.724  1.00 20.00     0.011 A 
HETATM    6  C6  UNL     1     -33.839   6.503   4.070  1.00 20.00    -0.037 A 
ENDROOT
BRANCH   6   7
HETATM    7  C8  UNL     1     -34.872   5.603   4.558  1.00 20.00     0.001 C 
HETATM    8  C7  UNL     1     -34.741   4.849   5.641  1.00 20.00     0.012 C 
ENDBRANCH   6   7
TORSDOF 1
ENDMDL
MODEL 5
REMARK VINA RESULT:      -5.3      0.918      3.375
REMARK  1 active torsions:
REMARK  status: ('A' for Active; 'I' for Inactive)
REMARK    1  A    between atoms: C6_6  and  C8_8 
ROOT
HETATM    1  C1  UNL     1     -31.886   8.256   3.126  1.00 20.00     0.000 A 
HETATM    2  C2  UNL     1     -32.527   7.399   2.231  1.00 20.00     0.001 A 
HETATM    3  C3  UNL     1     -32.227   8.234   4.477  1.00 20.00     0.001 A 
HETATM    4  C4  UNL     1     -33.508   6.520   2.688  1.00 20.00     0.011 A 
HETATM    5  C5  UNL     1     -33.209   7.355   4.935  1.00 20.00     0.011 A 
HETATM    6  C6  UNL     1     -33.849   6.498   4.041  1.00 20.00    -0.037 A 
ENDROOT
BRANCH   6   7
HETATM    7  C8  UNL     1     -34.873   5.581   4.518  1.00 20.00     0.001 C 
HETATM    8  C7  UNL     1     -34.721   4.793   5.574  1.00 20.00     0.012 C 
ENDBRANCH   6   7
TORSDOF 1
ENDMDL
MODEL 6
REMARK VINA RESULT:      -5.0      1.113      2.156
REMARK  1 active torsions:
REMARK  status: ('A' for Active; 'I' for Inactive)
REMARK    1  A    between atoms: C6_6  and  C8_8 
ROOT
HETATM    1  C1  UNL     1     -34.082   7.032   6.242  1.00 20.00     0.000 A 
HETATM    2  C2  UNL     1     -34.663   5.812   5.898  1.00 20.00     0.001 A 
HETATM    3  C3  UNL     1     -33.328   7.735   5.303  1.00 20.00     0.001 A 
HETATM    4  C4  UNL     1     -34.490   5.294   4.615  1.00 20.00     0.011 A 
HETATM    5  C5  UNL     1     -33.155   7.217   4.019  1.00 20.00     0.011 A 
HETATM    6  C6  UNL     1     -33.736   5.997   3.675  1.00 20.00    -0.037 A 
ENDROOT
BRANCH   6   7
HETATM    7  C8  UNL     1     -33.555   5.458   2.336  1.00 20.00     0.001 C 
HETATM    8  C7  UNL     1     -32.907   4.330   2.078  1.00 20.00     0.012 C 
ENDBRANCH   6   7
TORSDOF 1
ENDMDL
MODEL 7
REMARK VINA RESULT:      -4.9      1.113      2.466
REMARK  1 active torsions:
REMARK  status: ('A' for Active; 'I' for Inactive)
REMARK    1  A    between atoms: C6_6  and  C8_8 
ROOT
HETATM    1  C1  UNL     1     -34.071   7.029   6.243  1.00 20.00     0.000 A 
HETATM    2  C2  UNL     1     -33.304   7.732   5.315  1.00 20.00     0.001 A 
HETATM    3  C3  UNL     1     -34.652   5.812   5.889  1.00 20.00     0.001 A 
HETATM    4  C4  UNL     1     -33.118   7.218   4.032  1.00 20.00     0.011 A 
HETATM    5  C5  UNL     1     -34.466   5.297   4.606  1.00 20.00     0.011 A 
HETATM    6  C6  UNL     1     -33.699   6.000   3.677  1.00 20.00    -0.037 A 
ENDROOT
BRANCH   6   7
HETATM    7  C8  UNL     1     -33.506   5.463   2.339  1.00 20.00     0.001 C 
HETATM    8  C7  UNL     1     -32.908   4.306   2.089  1.00 20.00     0.012 C 
ENDBRANCH   6   7
TORSDOF 1
ENDMDL
MODEL 8
REMARK VINA RESULT:      -4.3      1.262      2.928
REMARK  1 active torsions:
REMARK  status: ('A' for Active; 'I' for Inactive)
REMARK    1  A    between atoms: C6_6  and  C8_8 
ROOT
HETATM    1  C1  UNL     1     -33.438   4.465   2.609  1.00 20.00     0.000 A 
HETATM    2  C2  UNL     1     -33.135   5.826   2.578  1.00 20.00     0.001 A 
HETATM    3  C3  UNL     1     -34.015   3.905   3.748  1.00 20.00     0.001 A 
HETATM    4  C4  UNL     1     -33.409   6.628   3.686  1.00 20.00     0.011 A 
HETATM    5  C5  UNL     1     -34.289   4.706   4.857  1.00 20.00     0.011 A 
HETATM    6  C6  UNL     1     -33.987   6.067   4.826  1.00 20.00    -0.037 A 
ENDROOT
BRANCH   6   7
HETATM    7  C8  UNL     1     -34.273   6.902   5.982  1.00 20.00     0.001 C 
HETATM    8  C7  UNL     1     -33.528   7.937   6.346  1.00 20.00     0.012 C 
ENDBRANCH   6   7
TORSDOF 1
ENDMDL
MODEL 9
REMARK VINA RESULT:      -4.2     11.936     12.367
REMARK  1 active torsions:
REMARK  status: ('A' for Active; 'I' for Inactive)
REMARK    1  A    between atoms: C6_6  and  C8_8 
ROOT
HETATM    1  C1  UNL     1     -34.451  18.281   0.455  1.00 20.00     0.000 A 
HETATM    2  C2  UNL     1     -35.443  17.483  -0.114  1.00 20.00     0.001 A 
HETATM    3  C3  UNL     1     -33.227  18.441  -0.194  1.00 20.00     0.001 A 
HETATM    4  C4  UNL     1     -35.212  16.845  -1.332  1.00 20.00     0.011 A 
HETATM    5  C5  UNL     1     -32.996  17.803  -1.413  1.00 20.00     0.011 A 
HETATM    6  C6  UNL     1     -33.988  17.005  -1.982  1.00 20.00    -0.037 A 
ENDROOT
BRANCH   6   7
HETATM    7  C8  UNL     1     -33.746  16.339  -3.252  1.00 20.00     0.001 C 
HETATM    8  C7  UNL     1     -34.495  15.350  -3.720  1.00 20.00     0.012 C 
ENDBRANCH   6   7
TORSDOF 1
ENDMDL
