MODEL 1
REMARK VINA RESULT:      -5.6      0.000      0.000
REMARK  0 active torsions:
REMARK  status: ('A' for Active; 'I' for Inactive)
ROOT
HETATM    1  C1  UNL     1     -34.913   5.412   4.863  1.00 20.00     0.001 A 
HETATM    2  C2  UNL     1     -34.446   6.183   5.917  1.00 20.00     0.001 A 
HETATM    3  C3  UNL     1     -34.441   5.628   3.566  1.00 20.00     0.013 A 
HETATM    4  C4  UNL     1     -33.498   7.185   5.700  1.00 20.00     0.019 A 
HETATM    5  C5  UNL     1     -32.851   7.041   2.087  1.00 20.00     0.020 A 
HETATM    6  C6  UNL     1     -31.959   8.073   2.257  1.00 20.00     0.051 A 
HETATM    7  C7  UNL     1     -33.479   6.636   3.313  1.00 20.00    -0.019 A 
HETATM    8  C8  UNL     1     -33.023   7.400   4.391  1.00 20.00     0.015 A 
HETATM    9  S9  UNL     1     -31.862   8.570   3.885  1.00 20.00    -0.101 SA
ENDROOT
TORSDOF 0
ENDMDL
MODEL 2
REMARK VINA RESULT:      -5.5      0.977      2.038
REMARK  0 active torsions:
REMARK  status: ('A' for Active; 'I' for Inactive)
ROOT
HETATM    1  C1  UNL     1     -34.620   5.943   5.684  1.00 20.00     0.001 A 
HETATM    2  C2  UNL     1     -34.984   5.398   4.460  1.00 20.00     0.001 A 
HETATM    3  C3  UNL     1     -33.646   6.942   5.749  1.00 20.00     0.013 A 
HETATM    4  C4  UNL     1     -34.384   5.839   3.279  1.00 20.00     0.019 A 
HETATM    5  C5  UNL     1     -32.009   8.413   4.384  1.00 20.00     0.020 A 
HETATM    6  C6  UNL     1     -31.657   8.582   3.066  1.00 20.00     0.051 A 
HETATM    7  C7  UNL     1     -33.020   7.411   4.570  1.00 20.00    -0.019 A 
HETATM    8  C8  UNL     1     -33.403   6.847   3.349  1.00 20.00     0.015 A 
HETATM    9  S9  UNL     1     -32.532   7.544   2.034  1.00 20.00    -0.101 SA
ENDROOT
TORSDOF 0
ENDMDL
MODEL 3
REMARK VINA RESULT:      -5.2      1.603      3.836
REMARK  0 active torsions:
REMARK  status: ('A' for Active; 'I' for Inactive)
ROOT
HETATM    1  C1  UNL     1     -31.760   8.418   2.924  1.00 20.00     0.001 A 
HETATM    2  C2  UNL     1     -32.340   7.600   1.965  1.00 20.00     0.001 A 
HETATM    3  C3  UNL     1     -32.146   8.316   4.264  1.00 20.00     0.013 A 
HETATM    4  C4  UNL     1     -33.314   6.665   2.321  1.00 20.00     0.019 A 
HETATM    5  C5  UNL     1     -33.683   7.092   5.950  1.00 20.00     0.020 A 
HETATM    6  C6  UNL     1     -34.631   6.097   5.919  1.00 20.00     0.051 A 
HETATM    7  C7  UNL     1     -33.130   7.379   4.657  1.00 20.00    -0.019 A 
HETATM    8  C8  UNL     1     -33.699   6.565   3.673  1.00 20.00     0.015 A 
HETATM    9  S9  UNL     1     -34.873   5.494   4.343  1.00 20.00    -0.101 SA
ENDROOT
TORSDOF 0
ENDMDL
MODEL 4
REMARK VINA RESULT:      -4.8      1.311      3.270
REMARK  0 active torsions:
REMARK  status: ('A' for Active; 'I' for Inactive)
ROOT
HETATM    1  C1  UNL     1     -32.001   7.956   2.106  1.00 20.00     0.001 A 
HETATM    2  C2  UNL     1     -31.605   8.599   3.270  1.00 20.00     0.001 A 
HETATM    3  C3  UNL     1     -32.986   6.965   2.147  1.00 20.00     0.013 A 
HETATM    4  C4  UNL     1     -32.183   8.268   4.497  1.00 20.00     0.019 A 
HETATM    5  C5  UNL     1     -34.608   5.636   3.667  1.00 20.00     0.020 A 
HETATM    6  C6  UNL     1     -34.931   5.584   5.002  1.00 20.00     0.051 A 
HETATM    7  C7  UNL     1     -33.591   6.606   3.375  1.00 20.00    -0.019 A 
HETATM    8  C8  UNL     1     -33.176   7.269   4.534  1.00 20.00     0.015 A 
HETATM    9  S9  UNL     1     -34.023   6.695   5.922  1.00 20.00    -0.101 SA
ENDROOT
TORSDOF 0
ENDMDL
MODEL 5
REMARK VINA RESULT:      -4.1     11.622     12.256
REMARK  0 active torsions:
REMARK  status: ('A' for Active; 'I' for Inactive)
ROOT
HETATM    1  C1  UNL     1     -33.631  17.029  -2.457  1.00 20.00     0.001 A 
HETATM    2  C2  UNL     1     -34.920  16.643  -2.116  1.00 20.00     0.001 A 
HETATM    3  C3  UNL     1     -32.876  17.817  -1.584  1.00 20.00     0.013 A 
HETATM    4  C4  UNL     1     -35.481  17.034  -0.899  1.00 20.00     0.019 A 
HETATM    5  C5  UNL     1     -32.845  19.028   0.705  1.00 20.00     0.020 A 
HETATM    6  C6  UNL     1     -33.699  19.209   1.767  1.00 20.00     0.051 A 
HETATM    7  C7  UNL     1     -33.416  18.230  -0.342  1.00 20.00    -0.019 A 
HETATM    8  C8  UNL     1     -34.716  17.828  -0.021  1.00 20.00     0.015 A 
HETATM    9  S9  UNL     1     -35.195  18.428   1.523  1.00 20.00    -0.101 SA
ENDROOT
TORSDOF 0
ENDMDL
MODEL 6
REMARK VINA RESULT:      -4.1     11.665     12.189
REMARK  0 active torsions:
REMARK  status: ('A' for Active; 'I' for Inactive)
ROOT
HETATM    1  C1  UNL     1     -34.947  16.638  -2.189  1.00 20.00     0.001 A 
HETATM    2  C2  UNL     1     -33.660  17.038  -2.517  1.00 20.00     0.001 A 
HETATM    3  C3  UNL     1     -35.509  17.001  -0.962  1.00 20.00     0.013 A 
HETATM    4  C4  UNL     1     -32.907  17.809  -1.629  1.00 20.00     0.019 A 
HETATM    5  C5  UNL     1     -35.126  18.275   1.260  1.00 20.00     0.020 A 
HETATM    6  C6  UNL     1     -34.122  19.006   1.849  1.00 20.00     0.051 A 
HETATM    7  C7  UNL     1     -34.771  17.783  -0.040  1.00 20.00    -0.019 A 
HETATM    8  C8  UNL     1     -33.476  18.175  -0.393  1.00 20.00     0.015 A 
HETATM    9  S9  UNL     1     -32.743  19.114   0.853  1.00 20.00    -0.101 SA
ENDROOT
TORSDOF 0
ENDMDL
MODEL 7
REMARK VINA RESULT:      -4.0     11.768     12.126
REMARK  0 active torsions:
REMARK  status: ('A' for Active; 'I' for Inactive)
ROOT
HETATM    1  C1  UNL     1     -34.635  17.851  -0.118  1.00 20.00     0.001 A 
HETATM    2  C2  UNL     1     -33.372  18.177  -0.591  1.00 20.00     0.001 A 
HETATM    3  C3  UNL     1     -35.514  17.107  -0.909  1.00 20.00     0.013 A 
HETATM    4  C4  UNL     1     -32.960  17.767  -1.861  1.00 20.00     0.019 A 
HETATM    5  C5  UNL     1     -35.841  15.912  -3.183  1.00 20.00     0.020 A 
HETATM    6  C6  UNL     1     -35.112  15.697  -4.328  1.00 20.00     0.051 A 
HETATM    7  C7  UNL     1     -35.127  16.676  -2.200  1.00 20.00    -0.019 A 
HETATM    8  C8  UNL     1     -33.849  17.016  -2.655  1.00 20.00     0.015 A 
HETATM    9  S9  UNL     1     -33.564  16.405  -4.242  1.00 20.00    -0.101 SA
ENDROOT
TORSDOF 0
ENDMDL
MODEL 8
REMARK VINA RESULT:      -4.0     11.873     12.356
REMARK  0 active torsions:
REMARK  status: ('A' for Active; 'I' for Inactive)
ROOT
HETATM    1  C1  UNL     1     -33.558  18.195  -0.778  1.00 20.00     0.001 A 
HETATM    2  C2  UNL     1     -34.590  18.081   0.143  1.00 20.00     0.001 A 
HETATM    3  C3  UNL     1     -32.271  18.537  -0.356  1.00 20.00     0.013 A 
HETATM    4  C4  UNL     1     -34.359  18.303   1.502  1.00 20.00     0.019 A 
HETATM    5  C5  UNL     1     -30.783  19.125   1.680  1.00 20.00     0.020 A 
HETATM    6  C6  UNL     1     -30.935  19.263   3.040  1.00 20.00     0.051 A 
HETATM    7  C7  UNL     1     -32.003  18.769   1.014  1.00 20.00    -0.019 A 
HETATM    8  C8  UNL     1     -33.058  18.647   1.924  1.00 20.00     0.015 A 
HETATM    9  S9  UNL     1     -32.539  18.967   3.536  1.00 20.00    -0.101 SA
ENDROOT
TORSDOF 0
ENDMDL
MODEL 9
REMARK VINA RESULT:      -3.9     11.787     12.158
REMARK  0 active torsions:
REMARK  status: ('A' for Active; 'I' for Inactive)
ROOT
HETATM    1  C1  UNL     1     -33.490  18.133  -0.452  1.00 20.00     0.001 A 
HETATM    2  C2  UNL     1     -34.794  17.820  -0.093  1.00 20.00     0.001 A 
HETATM    3  C3  UNL     1     -32.990  17.746  -1.698  1.00 20.00     0.013 A 
HETATM    4  C4  UNL     1     -35.624  17.117  -0.968  1.00 20.00     0.019 A 
HETATM    5  C5  UNL     1     -33.523  16.534  -3.924  1.00 20.00     0.020 A 
HETATM    6  C6  UNL     1     -34.592  15.883  -4.492  1.00 20.00     0.051 A 
HETATM    7  C7  UNL     1     -33.806  17.032  -2.608  1.00 20.00    -0.019 A 
HETATM    8  C8  UNL     1     -35.116  16.729  -2.224  1.00 20.00     0.015 A 
HETATM    9  S9  UNL     1     -35.947  15.859  -3.459  1.00 20.00    -0.101 SA
ENDROOT
TORSDOF 0
ENDMDL
