MODEL 1
REMARK VINA RESULT:      -4.0      0.000      0.000
REMARK  1 active torsions:
REMARK  status: ('A' for Active; 'I' for Inactive)
REMARK    1  A    between atoms: C4_4  and  S6_6 
ROOT
HETATM    1  C1  UNL     1     -34.698   5.066   4.456  1.00 20.00     0.009 A 
HETATM    2  C2  UNL     1     -34.020   5.678   3.363  1.00 20.00     0.026 A 
HETATM    3  C3  UNL     1     -34.566   5.791   5.620  1.00 20.00     0.051 A 
HETATM    4  C4  UNL     1     -33.394   6.849   3.733  1.00 20.00     0.038 A 
HETATM    5  S5  UNL     1     -33.626   7.204   5.392  1.00 20.00    -0.095 SA
ENDROOT
BRANCH   4   6
HETATM    6  S6  UNL     1     -32.460   7.896   2.680  1.00 20.00    -0.136 SA
HETATM    7  H10 UNL     1     -31.286   7.841   3.337  1.00 20.00     0.107 HD
ENDBRANCH   4   6
TORSDOF 1
ENDMDL
MODEL 2
REMARK VINA RESULT:      -3.9      1.319      1.717
REMARK  1 active torsions:
REMARK  status: ('A' for Active; 'I' for Inactive)
REMARK    1  A    between atoms: C4_4  and  S6_6 
ROOT
HETATM    1  C1  UNL     1     -34.409   6.294   5.798  1.00 20.00     0.009 A 
HETATM    2  C2  UNL     1     -33.513   7.270   5.274  1.00 20.00     0.026 A 
HETATM    3  C3  UNL     1     -34.782   5.369   4.847  1.00 20.00     0.051 A 
HETATM    4  C4  UNL     1     -33.234   7.054   3.942  1.00 20.00     0.038 A 
HETATM    5  S5  UNL     1     -34.052   5.680   3.330  1.00 20.00    -0.095 SA
ENDROOT
BRANCH   4   6
HETATM    6  S6  UNL     1     -32.176   8.030   2.939  1.00 20.00    -0.136 SA
HETATM    7  H10 UNL     1     -31.695   8.847   3.894  1.00 20.00     0.107 HD
ENDBRANCH   4   6
TORSDOF 1
ENDMDL
MODEL 3
REMARK VINA RESULT:      -3.0      1.534      2.816
REMARK  1 active torsions:
REMARK  status: ('A' for Active; 'I' for Inactive)
REMARK    1  A    between atoms: C4_4  and  S6_6 
ROOT
HETATM    1  C1  UNL     1     -32.513   7.282   2.709  1.00 20.00     0.009 A 
HETATM    2  C2  UNL     1     -33.318   6.120   2.889  1.00 20.00     0.026 A 
HETATM    3  C3  UNL     1     -32.441   8.044   3.854  1.00 20.00     0.051 A 
HETATM    4  C4  UNL     1     -33.829   6.039   4.166  1.00 20.00     0.038 A 
HETATM    5  S5  UNL     1     -33.340   7.359   5.140  1.00 20.00    -0.095 SA
ENDROOT
BRANCH   4   6
HETATM    6  S6  UNL     1     -34.862   4.761   4.783  1.00 20.00    -0.136 SA
HETATM    7  H10 UNL     1     -34.097   4.370   5.819  1.00 20.00     0.107 HD
ENDBRANCH   4   6
TORSDOF 1
ENDMDL
MODEL 4
REMARK VINA RESULT:      -3.0      1.739      3.289
REMARK  1 active torsions:
REMARK  status: ('A' for Active; 'I' for Inactive)
REMARK    1  A    between atoms: C4_4  and  S6_6 
ROOT
HETATM    1  C1  UNL     1     -32.571   7.980   3.805  1.00 20.00     0.009 A 
HETATM    2  C2  UNL     1     -33.266   7.322   4.861  1.00 20.00     0.026 A 
HETATM    3  C3  UNL     1     -32.619   7.264   2.629  1.00 20.00     0.051 A 
HETATM    4  C4  UNL     1     -33.818   6.128   4.451  1.00 20.00     0.038 A 
HETATM    5  S5  UNL     1     -33.498   5.805   2.800  1.00 20.00    -0.095 SA
ENDROOT
BRANCH   4   6
HETATM    6  S6  UNL     1     -34.750   5.027   5.450  1.00 20.00    -0.136 SA
HETATM    7  H10 UNL     1     -34.582   3.908   4.722  1.00 20.00     0.107 HD
ENDBRANCH   4   6
TORSDOF 1
ENDMDL
MODEL 5
REMARK VINA RESULT:      -2.8      1.233      2.373
REMARK  1 active torsions:
REMARK  status: ('A' for Active; 'I' for Inactive)
REMARK    1  A    between atoms: C4_4  and  S6_6 
ROOT
HETATM    1  C1  UNL     1     -34.337   4.130   4.235  1.00 20.00     0.009 A 
HETATM    2  C2  UNL     1     -34.386   5.042   5.328  1.00 20.00     0.026 A 
HETATM    3  C3  UNL     1     -33.803   4.706   3.103  1.00 20.00     0.051 A 
HETATM    4  C4  UNL     1     -33.887   6.281   4.990  1.00 20.00     0.038 A 
HETATM    5  S5  UNL     1     -33.363   6.341   3.361  1.00 20.00    -0.095 SA
ENDROOT
BRANCH   4   6
HETATM    6  S6  UNL     1     -33.772   7.672   6.055  1.00 20.00    -0.136 SA
HETATM    7  H10 UNL     1     -32.514   8.046   5.757  1.00 20.00     0.107 HD
ENDBRANCH   4   6
TORSDOF 1
ENDMDL
MODEL 6
REMARK VINA RESULT:      -2.6     12.471     12.972
REMARK  1 active torsions:
REMARK  status: ('A' for Active; 'I' for Inactive)
REMARK    1  A    between atoms: C4_4  and  S6_6 
ROOT
HETATM    1  C1  UNL     1     -34.166  15.271  -3.743  1.00 20.00     0.009 A 
HETATM    2  C2  UNL     1     -34.745  14.249  -4.549  1.00 20.00     0.026 A 
HETATM    3  C3  UNL     1     -33.423  16.160  -4.490  1.00 20.00     0.051 A 
HETATM    4  C4  UNL     1     -34.425  14.396  -5.881  1.00 20.00     0.038 A 
HETATM    5  S5  UNL     1     -33.428  15.761  -6.155  1.00 20.00    -0.095 SA
ENDROOT
BRANCH   4   6
HETATM    6  S6  UNL     1     -34.944  13.347  -7.189  1.00 20.00    -0.136 SA
HETATM    7  H10 UNL     1     -33.945  12.447  -7.129  1.00 20.00     0.107 HD
ENDBRANCH   4   6
TORSDOF 1
ENDMDL
MODEL 7
REMARK VINA RESULT:      -2.6     12.206     12.432
REMARK  1 active torsions:
REMARK  status: ('A' for Active; 'I' for Inactive)
REMARK    1  A    between atoms: C4_4  and  S6_6 
ROOT
HETATM    1  C1  UNL     1     -35.194  17.605  -0.207  1.00 20.00     0.009 A 
HETATM    2  C2  UNL     1     -35.247  16.821  -1.396  1.00 20.00     0.026 A 
HETATM    3  C3  UNL     1     -34.007  18.295  -0.095  1.00 20.00     0.051 A 
HETATM    4  C4  UNL     1     -34.099  16.943  -2.148  1.00 20.00     0.038 A 
HETATM    5  S5  UNL     1     -32.963  17.998  -1.419  1.00 20.00    -0.095 SA
ENDROOT
BRANCH   4   6
HETATM    6  S6  UNL     1     -33.777  16.143  -3.676  1.00 20.00    -0.136 SA
HETATM    7  H10 UNL     1     -32.523  15.726  -3.421  1.00 20.00     0.107 HD
ENDBRANCH   4   6
TORSDOF 1
ENDMDL
MODEL 8
REMARK VINA RESULT:      -2.5     12.087     12.951
REMARK  1 active torsions:
REMARK  status: ('A' for Active; 'I' for Inactive)
REMARK    1  A    between atoms: C4_4  and  S6_6 
ROOT
HETATM    1  C1  UNL     1     -33.139  14.816  -4.346  1.00 20.00     0.009 A 
HETATM    2  C2  UNL     1     -34.443  14.265  -4.180  1.00 20.00     0.026 A 
HETATM    3  C3  UNL     1     -33.063  15.641  -5.447  1.00 20.00     0.051 A 
HETATM    4  C4  UNL     1     -35.313  14.691  -5.160  1.00 20.00     0.038 A 
HETATM    5  S5  UNL     1     -34.558  15.749  -6.274  1.00 20.00    -0.095 SA
ENDROOT
BRANCH   4   6
HETATM    6  S6  UNL     1     -37.003  14.241  -5.304  1.00 20.00    -0.136 SA
HETATM    7  H10 UNL     1     -37.279  14.085  -3.996  1.00 20.00     0.107 HD
ENDBRANCH   4   6
TORSDOF 1
ENDMDL
MODEL 9
REMARK VINA RESULT:      -2.5     12.380     12.607
REMARK  1 active torsions:
REMARK  status: ('A' for Active; 'I' for Inactive)
REMARK    1  A    between atoms: C4_4  and  S6_6 
ROOT
HETATM    1  C1  UNL     1     -34.270  17.318  -1.154  1.00 20.00     0.009 A 
HETATM    2  C2  UNL     1     -33.415  17.078  -2.268  1.00 20.00     0.026 A 
HETATM    3  C3  UNL     1     -35.583  17.006  -1.432  1.00 20.00     0.051 A 
HETATM    4  C4  UNL     1     -34.107  16.591  -3.355  1.00 20.00     0.038 A 
HETATM    5  S5  UNL     1     -35.780  16.426  -3.031  1.00 20.00    -0.095 SA
ENDROOT
BRANCH   4   6
HETATM    6  S6  UNL     1     -33.417  16.169  -4.912  1.00 20.00    -0.136 SA
HETATM    7  H10 UNL     1     -33.861  14.901  -4.990  1.00 20.00     0.107 HD
ENDBRANCH   4   6
TORSDOF 1
ENDMDL
