MODEL 1
REMARK VINA RESULT:      -5.8      0.000      0.000
REMARK  1 active torsions:
REMARK  status: ('A' for Active; 'I' for Inactive)
REMARK    1  A    between atoms: C6_6  and  S8_8 
ROOT
HETATM    1  C1  UNL     1     -34.662   5.005   5.581  1.00 20.00     0.000 A 
HETATM    2  C2  UNL     1     -34.320   6.316   5.917  1.00 20.00     0.001 A 
HETATM    3  C3  UNL     1     -34.431   4.533   4.288  1.00 20.00     0.001 A 
HETATM    4  C4  UNL     1     -33.749   7.154   4.960  1.00 20.00     0.018 A 
HETATM    5  C5  UNL     1     -33.859   5.372   3.332  1.00 20.00     0.018 A 
HETATM    6  C6  UNL     1     -33.518   6.683   3.667  1.00 20.00    -0.000 A 
ENDROOT
BRANCH   6   7
HETATM    7  S8  UNL     1     -32.788   7.754   2.444  1.00 20.00    -0.134 SA
HETATM    8  C7  UNL     1     -31.370   8.361   3.384  1.00 20.00     0.095 C 
ENDBRANCH   6   7
TORSDOF 1
ENDMDL
MODEL 2
REMARK VINA RESULT:      -5.8      0.007      1.709
REMARK  1 active torsions:
REMARK  status: ('A' for Active; 'I' for Inactive)
REMARK    1  A    between atoms: C6_6  and  S8_8 
ROOT
HETATM    1  C1  UNL     1     -34.661   5.011   5.581  1.00 20.00     0.000 A 
HETATM    2  C2  UNL     1     -34.431   4.536   4.289  1.00 20.00     0.001 A 
HETATM    3  C3  UNL     1     -34.319   6.322   5.914  1.00 20.00     0.001 A 
HETATM    4  C4  UNL     1     -33.858   5.373   3.331  1.00 20.00     0.018 A 
HETATM    5  C5  UNL     1     -33.746   7.158   4.956  1.00 20.00     0.018 A 
HETATM    6  C6  UNL     1     -33.516   6.684   3.664  1.00 20.00    -0.000 A 
ENDROOT
BRANCH   6   7
HETATM    7  S8  UNL     1     -32.783   7.752   2.441  1.00 20.00    -0.134 SA
HETATM    8  C7  UNL     1     -31.377   8.374   3.388  1.00 20.00     0.095 C 
ENDBRANCH   6   7
TORSDOF 1
ENDMDL
MODEL 3
REMARK VINA RESULT:      -5.5      1.078      1.141
REMARK  1 active torsions:
REMARK  status: ('A' for Active; 'I' for Inactive)
REMARK    1  A    between atoms: C6_6  and  S8_8 
ROOT
HETATM    1  C1  UNL     1     -34.793   5.532   5.028  1.00 20.00     0.000 A 
HETATM    2  C2  UNL     1     -34.234   6.546   5.806  1.00 20.00     0.001 A 
HETATM    3  C3  UNL     1     -34.404   5.378   3.697  1.00 20.00     0.001 A 
HETATM    4  C4  UNL     1     -33.286   7.407   5.253  1.00 20.00     0.018 A 
HETATM    5  C5  UNL     1     -33.455   6.239   3.144  1.00 20.00     0.018 A 
HETATM    6  C6  UNL     1     -32.896   7.253   3.922  1.00 20.00    -0.000 A 
ENDROOT
BRANCH   6   7
HETATM    7  S8  UNL     1     -31.685   8.353   3.215  1.00 20.00    -0.134 SA
HETATM    8  C7  UNL     1     -32.468   8.677   1.621  1.00 20.00     0.095 C 
ENDBRANCH   6   7
TORSDOF 1
ENDMDL
MODEL 4
REMARK VINA RESULT:      -5.5      1.078      2.017
REMARK  1 active torsions:
REMARK  status: ('A' for Active; 'I' for Inactive)
REMARK    1  A    between atoms: C6_6  and  S8_8 
ROOT
HETATM    1  C1  UNL     1     -34.794   5.531   5.031  1.00 20.00     0.000 A 
HETATM    2  C2  UNL     1     -34.407   5.379   3.699  1.00 20.00     0.001 A 
HETATM    3  C3  UNL     1     -34.235   6.546   5.808  1.00 20.00     0.001 A 
HETATM    4  C4  UNL     1     -33.460   6.240   3.145  1.00 20.00     0.018 A 
HETATM    5  C5  UNL     1     -33.288   7.407   5.254  1.00 20.00     0.018 A 
HETATM    6  C6  UNL     1     -32.901   7.255   3.922  1.00 20.00    -0.000 A 
ENDROOT
BRANCH   6   7
HETATM    7  S8  UNL     1     -31.691   8.355   3.214  1.00 20.00    -0.134 SA
HETATM    8  C7  UNL     1     -32.473   8.676   1.618  1.00 20.00     0.095 C 
ENDBRANCH   6   7
TORSDOF 1
ENDMDL
MODEL 5
REMARK VINA RESULT:      -4.1      1.642      3.853
REMARK  1 active torsions:
REMARK  status: ('A' for Active; 'I' for Inactive)
REMARK    1  A    between atoms: C6_6  and  S8_8 
ROOT
HETATM    1  C1  UNL     1     -31.621   8.449   3.410  1.00 20.00     0.000 A 
HETATM    2  C2  UNL     1     -32.158   7.719   2.350  1.00 20.00     0.001 A 
HETATM    3  C3  UNL     1     -32.159   8.318   4.691  1.00 20.00     0.001 A 
HETATM    4  C4  UNL     1     -33.233   6.858   2.569  1.00 20.00     0.018 A 
HETATM    5  C5  UNL     1     -33.235   7.456   4.910  1.00 20.00     0.018 A 
HETATM    6  C6  UNL     1     -33.771   6.726   3.850  1.00 20.00    -0.000 A 
ENDROOT
BRANCH   6   7
HETATM    7  S8  UNL     1     -35.145   5.626   4.131  1.00 20.00    -0.134 SA
HETATM    8  C7  UNL     1     -34.243   4.097   4.459  1.00 20.00     0.095 C 
ENDBRANCH   6   7
TORSDOF 1
ENDMDL
MODEL 6
REMARK VINA RESULT:      -4.1      1.625      3.518
REMARK  1 active torsions:
REMARK  status: ('A' for Active; 'I' for Inactive)
REMARK    1  A    between atoms: C6_6  and  S8_8 
ROOT
HETATM    1  C1  UNL     1     -31.602   8.428   3.448  1.00 20.00     0.000 A 
HETATM    2  C2  UNL     1     -32.149   8.268   4.722  1.00 20.00     0.001 A 
HETATM    3  C3  UNL     1     -32.141   7.732   2.365  1.00 20.00     0.001 A 
HETATM    4  C4  UNL     1     -33.235   7.413   4.912  1.00 20.00     0.018 A 
HETATM    5  C5  UNL     1     -33.227   6.878   2.556  1.00 20.00     0.018 A 
HETATM    6  C6  UNL     1     -33.774   6.718   3.829  1.00 20.00    -0.000 A 
ENDROOT
BRANCH   6   7
HETATM    7  S8  UNL     1     -35.160   5.625   4.072  1.00 20.00    -0.134 SA
HETATM    8  C7  UNL     1     -34.277   4.110   4.501  1.00 20.00     0.095 C 
ENDBRANCH   6   7
TORSDOF 1
ENDMDL
MODEL 7
REMARK VINA RESULT:      -3.9      1.574      2.722
REMARK  1 active torsions:
REMARK  status: ('A' for Active; 'I' for Inactive)
REMARK    1  A    between atoms: C6_6  and  S8_8 
ROOT
HETATM    1  C1  UNL     1     -33.918   6.944   4.914  1.00 20.00     0.000 A 
HETATM    2  C2  UNL     1     -34.265   6.558   3.619  1.00 20.00     0.001 A 
HETATM    3  C3  UNL     1     -32.854   7.824   5.119  1.00 20.00     0.001 A 
HETATM    4  C4  UNL     1     -33.548   7.052   2.529  1.00 20.00     0.018 A 
HETATM    5  C5  UNL     1     -32.138   8.317   4.028  1.00 20.00     0.018 A 
HETATM    6  C6  UNL     1     -32.485   7.931   2.733  1.00 20.00    -0.000 A 
ENDROOT
BRANCH   6   7
HETATM    7  S8  UNL     1     -31.569   8.561   1.340  1.00 20.00    -0.134 SA
HETATM    8  C7  UNL     1     -32.606   9.977   0.914  1.00 20.00     0.095 C 
ENDBRANCH   6   7
TORSDOF 1
ENDMDL
MODEL 8
REMARK VINA RESULT:      -3.7     12.120     12.517
REMARK  1 active torsions:
REMARK  status: ('A' for Active; 'I' for Inactive)
REMARK    1  A    between atoms: C6_6  and  S8_8 
ROOT
HETATM    1  C1  UNL     1     -33.748  18.279  -0.107  1.00 20.00     0.000 A 
HETATM    2  C2  UNL     1     -35.015  17.696  -0.137  1.00 20.00     0.001 A 
HETATM    3  C3  UNL     1     -32.862  18.079  -1.166  1.00 20.00     0.001 A 
HETATM    4  C4  UNL     1     -35.396  16.912  -1.226  1.00 20.00     0.018 A 
HETATM    5  C5  UNL     1     -33.243  17.295  -2.255  1.00 20.00     0.018 A 
HETATM    6  C6  UNL     1     -34.510  16.712  -2.286  1.00 20.00    -0.000 A 
ENDROOT
BRANCH   6   7
HETATM    7  S8  UNL     1     -34.996  15.709  -3.677  1.00 20.00    -0.134 SA
HETATM    8  C7  UNL     1     -33.366  15.195  -4.260  1.00 20.00     0.095 C 
ENDBRANCH   6   7
TORSDOF 1
ENDMDL
MODEL 9
REMARK VINA RESULT:      -3.7     12.104     12.533
REMARK  1 active torsions:
REMARK  status: ('A' for Active; 'I' for Inactive)
REMARK    1  A    between atoms: C6_6  and  S8_8 
ROOT
HETATM    1  C1  UNL     1     -33.734  18.286  -0.097  1.00 20.00     0.000 A 
HETATM    2  C2  UNL     1     -32.867  18.098  -1.175  1.00 20.00     0.001 A 
HETATM    3  C3  UNL     1     -34.995  17.689  -0.105  1.00 20.00     0.001 A 
HETATM    4  C4  UNL     1     -33.261  17.315  -2.259  1.00 20.00     0.018 A 
HETATM    5  C5  UNL     1     -35.389  16.906  -1.190  1.00 20.00     0.018 A 
HETATM    6  C6  UNL     1     -34.522  16.719  -2.267  1.00 20.00    -0.000 A 
ENDROOT
BRANCH   6   7
HETATM    7  S8  UNL     1     -35.027  15.719  -3.653  1.00 20.00    -0.134 SA
HETATM    8  C7  UNL     1     -33.405  15.196  -4.253  1.00 20.00     0.095 C 
ENDBRANCH   6   7
TORSDOF 1
ENDMDL
