MODEL 1
REMARK VINA RESULT:      -6.2      0.000      0.000
REMARK  0 active torsions:
REMARK  status: ('A' for Active; 'I' for Inactive)
ROOT
HETATM    1  C1  UNL     1     -34.641   5.357   5.609  1.00 20.00     0.000 A 
HETATM    2  C2  UNL     1     -34.133   6.623   5.900  1.00 20.00     0.001 A 
HETATM    3  C3  UNL     1     -34.523   4.837   4.320  1.00 20.00     0.001 A 
HETATM    4  C4  UNL     1     -33.506   7.370   4.902  1.00 20.00     0.007 A 
HETATM    5  C5  UNL     1     -33.896   5.584   3.322  1.00 20.00     0.007 A 
HETATM    6  C6  UNL     1     -33.388   6.849   3.613  1.00 20.00    -0.062 A 
HETATM    7  C7  UNL     1     -32.718   7.647   2.546  1.00 20.00     0.048 C 
ENDROOT
TORSDOF 0
ENDMDL
MODEL 2
REMARK VINA RESULT:      -6.2      0.017      1.826
REMARK  0 active torsions:
REMARK  status: ('A' for Active; 'I' for Inactive)
ROOT
HETATM    1  C1  UNL     1     -34.643   5.375   5.620  1.00 20.00     0.000 A 
HETATM    2  C2  UNL     1     -34.537   4.854   4.331  1.00 20.00     0.001 A 
HETATM    3  C3  UNL     1     -34.121   6.636   5.908  1.00 20.00     0.001 A 
HETATM    4  C4  UNL     1     -33.910   5.594   3.329  1.00 20.00     0.007 A 
HETATM    5  C5  UNL     1     -33.492   7.376   4.906  1.00 20.00     0.007 A 
HETATM    6  C6  UNL     1     -33.388   6.855   3.617  1.00 20.00    -0.062 A 
HETATM    7  C7  UNL     1     -32.716   7.647   2.546  1.00 20.00     0.048 C 
ENDROOT
TORSDOF 0
ENDMDL
MODEL 3
REMARK VINA RESULT:      -5.4      0.688      1.690
REMARK  0 active torsions:
REMARK  status: ('A' for Active; 'I' for Inactive)
ROOT
HETATM    1  C1  UNL     1     -34.378   6.428   5.886  1.00 20.00     0.000 A 
HETATM    2  C2  UNL     1     -33.717   7.215   4.944  1.00 20.00     0.001 A 
HETATM    3  C3  UNL     1     -34.660   5.091   5.605  1.00 20.00     0.001 A 
HETATM    4  C4  UNL     1     -33.336   6.665   3.719  1.00 20.00     0.007 A 
HETATM    5  C5  UNL     1     -34.281   4.542   4.380  1.00 20.00     0.007 A 
HETATM    6  C6  UNL     1     -33.619   5.329   3.438  1.00 20.00    -0.062 A 
HETATM    7  C7  UNL     1     -33.213   4.740   2.129  1.00 20.00     0.048 C 
ENDROOT
TORSDOF 0
ENDMDL
MODEL 4
REMARK VINA RESULT:      -5.4      0.864      2.414
REMARK  0 active torsions:
REMARK  status: ('A' for Active; 'I' for Inactive)
ROOT
HETATM    1  C1  UNL     1     -33.950   4.610   3.265  1.00 20.00     0.000 A 
HETATM    2  C2  UNL     1     -33.430   5.867   2.959  1.00 20.00     0.001 A 
HETATM    3  C3  UNL     1     -34.456   4.355   4.540  1.00 20.00     0.001 A 
HETATM    4  C4  UNL     1     -33.417   6.871   3.928  1.00 20.00     0.007 A 
HETATM    5  C5  UNL     1     -34.442   5.359   5.508  1.00 20.00     0.007 A 
HETATM    6  C6  UNL     1     -33.923   6.616   5.202  1.00 20.00    -0.062 A 
HETATM    7  C7  UNL     1     -33.909   7.689   6.238  1.00 20.00     0.048 C 
ENDROOT
TORSDOF 0
ENDMDL
MODEL 5
REMARK VINA RESULT:      -5.4      0.682      2.146
REMARK  0 active torsions:
REMARK  status: ('A' for Active; 'I' for Inactive)
ROOT
HETATM    1  C1  UNL     1     -34.372   6.451   5.909  1.00 20.00     0.000 A 
HETATM    2  C2  UNL     1     -34.658   5.117   5.626  1.00 20.00     0.001 A 
HETATM    3  C3  UNL     1     -33.712   7.239   4.966  1.00 20.00     0.001 A 
HETATM    4  C4  UNL     1     -34.285   4.568   4.399  1.00 20.00     0.007 A 
HETATM    5  C5  UNL     1     -33.339   6.691   3.739  1.00 20.00     0.007 A 
HETATM    6  C6  UNL     1     -33.626   5.356   3.456  1.00 20.00    -0.062 A 
HETATM    7  C7  UNL     1     -33.226   4.771   2.143  1.00 20.00     0.048 C 
ENDROOT
TORSDOF 0
ENDMDL
MODEL 6
REMARK VINA RESULT:      -5.1      0.797      3.283
REMARK  0 active torsions:
REMARK  status: ('A' for Active; 'I' for Inactive)
ROOT
HETATM    1  C1  UNL     1     -32.647   7.562   3.115  1.00 20.00     0.000 A 
HETATM    2  C2  UNL     1     -33.201   6.387   2.609  1.00 20.00     0.001 A 
HETATM    3  C3  UNL     1     -32.821   7.893   4.459  1.00 20.00     0.001 A 
HETATM    4  C4  UNL     1     -33.929   5.541   3.447  1.00 20.00     0.007 A 
HETATM    5  C5  UNL     1     -33.549   7.048   5.296  1.00 20.00     0.007 A 
HETATM    6  C6  UNL     1     -34.102   5.872   4.790  1.00 20.00    -0.062 A 
HETATM    7  C7  UNL     1     -34.879   4.969   5.687  1.00 20.00     0.048 C 
ENDROOT
TORSDOF 0
ENDMDL
MODEL 7
REMARK VINA RESULT:      -5.1      0.801      2.740
REMARK  0 active torsions:
REMARK  status: ('A' for Active; 'I' for Inactive)
ROOT
HETATM    1  C1  UNL     1     -32.619   7.576   3.065  1.00 20.00     0.000 A 
HETATM    2  C2  UNL     1     -32.815   7.906   4.405  1.00 20.00     0.001 A 
HETATM    3  C3  UNL     1     -33.161   6.398   2.550  1.00 20.00     0.001 A 
HETATM    4  C4  UNL     1     -33.553   7.059   5.232  1.00 20.00     0.007 A 
HETATM    5  C5  UNL     1     -33.898   5.551   3.376  1.00 20.00     0.007 A 
HETATM    6  C6  UNL     1     -34.095   5.882   4.716  1.00 20.00    -0.062 A 
HETATM    7  C7  UNL     1     -34.884   4.975   5.599  1.00 20.00     0.048 C 
ENDROOT
TORSDOF 0
ENDMDL
MODEL 8
REMARK VINA RESULT:      -3.9     12.114     12.581
REMARK  0 active torsions:
REMARK  status: ('A' for Active; 'I' for Inactive)
ROOT
HETATM    1  C1  UNL     1     -34.086  18.478   0.437  1.00 20.00     0.000 A 
HETATM    2  C2  UNL     1     -32.982  18.506  -0.413  1.00 20.00     0.001 A 
HETATM    3  C3  UNL     1     -35.201  17.706   0.110  1.00 20.00     0.001 A 
HETATM    4  C4  UNL     1     -32.990  17.760  -1.593  1.00 20.00     0.007 A 
HETATM    5  C5  UNL     1     -35.209  16.961  -1.070  1.00 20.00     0.007 A 
HETATM    6  C6  UNL     1     -34.104  16.988  -1.920  1.00 20.00    -0.062 A 
HETATM    7  C7  UNL     1     -34.115  16.190  -3.180  1.00 20.00     0.048 C 
ENDROOT
TORSDOF 0
ENDMDL
MODEL 9
REMARK VINA RESULT:      -3.9     12.125     12.619
REMARK  0 active torsions:
REMARK  status: ('A' for Active; 'I' for Inactive)
ROOT
HETATM    1  C1  UNL     1     -34.071  18.488   0.449  1.00 20.00     0.000 A 
HETATM    2  C2  UNL     1     -35.189  17.723   0.119  1.00 20.00     0.001 A 
HETATM    3  C3  UNL     1     -32.964  18.508  -0.401  1.00 20.00     0.001 A 
HETATM    4  C4  UNL     1     -35.202  16.979  -1.061  1.00 20.00     0.007 A 
HETATM    5  C5  UNL     1     -32.977  17.763  -1.580  1.00 20.00     0.007 A 
HETATM    6  C6  UNL     1     -34.096  17.000  -1.910  1.00 20.00    -0.062 A 
HETATM    7  C7  UNL     1     -34.110  16.205  -3.172  1.00 20.00     0.048 C 
ENDROOT
TORSDOF 0
ENDMDL
