MODEL 1
REMARK VINA RESULT:      -2.3      0.000      0.000
REMARK  1 active torsions:
REMARK  status: ('A' for Active; 'I' for Inactive)
REMARK    1  A    between atoms: C6_6  and  O8_8 
ROOT
HETATM    1  C1  UNL     1     -34.369   6.089   3.636  1.00 20.00     0.000 A 
HETATM    2  C2  UNL     1     -34.119   7.422   3.962  1.00 20.00     0.003 A 
HETATM    3  C3  UNL     1     -33.719   5.503   2.551  1.00 20.00     0.003 A 
HETATM    4  C4  UNL     1     -33.218   8.168   3.203  1.00 20.00     0.037 A 
HETATM    5  C5  UNL     1     -32.818   6.249   1.791  1.00 20.00     0.037 A 
HETATM    6  C6  UNL     1     -32.568   7.583   2.118  1.00 20.00     0.068 A 
ENDROOT
BRANCH   6   7
HETATM    7  O8  UNL     1     -31.690   8.311   1.376  1.00 20.00    -0.356 OA
HETATM    8  C7  UNL     1     -32.228   9.374   0.591  1.00 20.00     0.210 C 
ENDBRANCH   6   7
TORSDOF 1
ENDMDL
MODEL 2
REMARK VINA RESULT:      -2.3      0.011      1.709
REMARK  1 active torsions:
REMARK  status: ('A' for Active; 'I' for Inactive)
REMARK    1  A    between atoms: C6_6  and  O8_8 
ROOT
HETATM    1  C1  UNL     1     -34.363   6.092   3.634  1.00 20.00     0.000 A 
HETATM    2  C2  UNL     1     -33.716   5.503   2.547  1.00 20.00     0.003 A 
HETATM    3  C3  UNL     1     -34.112   7.425   3.957  1.00 20.00     0.003 A 
HETATM    4  C4  UNL     1     -32.818   6.248   1.783  1.00 20.00     0.037 A 
HETATM    5  C5  UNL     1     -33.213   8.170   3.193  1.00 20.00     0.037 A 
HETATM    6  C6  UNL     1     -32.566   7.581   2.106  1.00 20.00     0.068 A 
ENDROOT
BRANCH   6   7
HETATM    7  O8  UNL     1     -31.688   8.307   1.361  1.00 20.00    -0.356 OA
HETATM    8  C7  UNL     1     -32.227   9.372   0.578  1.00 20.00     0.210 C 
ENDBRANCH   6   7
TORSDOF 1
ENDMDL
MODEL 3
REMARK VINA RESULT:      -2.0      1.973      3.447
REMARK  1 active torsions:
REMARK  status: ('A' for Active; 'I' for Inactive)
REMARK    1  A    between atoms: C6_6  and  O8_8 
ROOT
HETATM    1  C1  UNL     1     -32.023   7.844   1.774  1.00 20.00     0.000 A 
HETATM    2  C2  UNL     1     -32.680   8.306   2.915  1.00 20.00     0.003 A 
HETATM    3  C3  UNL     1     -32.220   6.534   1.338  1.00 20.00     0.003 A 
HETATM    4  C4  UNL     1     -33.534   7.457   3.619  1.00 20.00     0.037 A 
HETATM    5  C5  UNL     1     -33.074   5.686   2.043  1.00 20.00     0.037 A 
HETATM    6  C6  UNL     1     -33.731   6.147   3.184  1.00 20.00     0.068 A 
ENDROOT
BRANCH   6   7
HETATM    7  O8  UNL     1     -34.563   5.319   3.872  1.00 20.00    -0.356 OA
HETATM    8  C7  UNL     1     -34.049   4.038   4.236  1.00 20.00     0.210 C 
ENDBRANCH   6   7
TORSDOF 1
ENDMDL
MODEL 4
REMARK VINA RESULT:      -2.0      1.973      3.846
REMARK  1 active torsions:
REMARK  status: ('A' for Active; 'I' for Inactive)
REMARK    1  A    between atoms: C6_6  and  O8_8 
ROOT
HETATM    1  C1  UNL     1     -32.003   7.836   1.785  1.00 20.00     0.000 A 
HETATM    2  C2  UNL     1     -32.213   6.529   1.343  1.00 20.00     0.003 A 
HETATM    3  C3  UNL     1     -32.656   8.299   2.927  1.00 20.00     0.003 A 
HETATM    4  C4  UNL     1     -33.076   5.686   2.043  1.00 20.00     0.037 A 
HETATM    5  C5  UNL     1     -33.520   7.456   3.627  1.00 20.00     0.037 A 
HETATM    6  C6  UNL     1     -33.730   6.150   3.185  1.00 20.00     0.068 A 
ENDROOT
BRANCH   6   7
HETATM    7  O8  UNL     1     -34.573   5.328   3.867  1.00 20.00    -0.356 OA
HETATM    8  C7  UNL     1     -34.078   4.038   4.222  1.00 20.00     0.210 C 
ENDBRANCH   6   7
TORSDOF 1
ENDMDL
MODEL 5
REMARK VINA RESULT:      -1.9      2.328      3.720
REMARK  1 active torsions:
REMARK  status: ('A' for Active; 'I' for Inactive)
REMARK    1  A    between atoms: C6_6  and  O8_8 
ROOT
HETATM    1  C1  UNL     1     -33.035   7.704   2.396  1.00 20.00     0.000 A 
HETATM    2  C2  UNL     1     -33.872   7.772   3.510  1.00 20.00     0.003 A 
HETATM    3  C3  UNL     1     -32.689   6.465   1.857  1.00 20.00     0.003 A 
HETATM    4  C4  UNL     1     -34.364   6.600   4.084  1.00 20.00     0.037 A 
HETATM    5  C5  UNL     1     -33.181   5.293   2.432  1.00 20.00     0.037 A 
HETATM    6  C6  UNL     1     -34.019   5.361   3.546  1.00 20.00     0.068 A 
ENDROOT
BRANCH   6   7
HETATM    7  O8  UNL     1     -34.497   4.217   4.107  1.00 20.00    -0.356 OA
HETATM    8  C7  UNL     1     -33.538   3.244   4.517  1.00 20.00     0.210 C 
ENDBRANCH   6   7
TORSDOF 1
ENDMDL
MODEL 6
REMARK VINA RESULT:      -1.9      1.275      2.306
REMARK  1 active torsions:
REMARK  status: ('A' for Active; 'I' for Inactive)
REMARK    1  A    between atoms: C6_6  and  O8_8 
ROOT
HETATM    1  C1  UNL     1     -35.106   5.167   4.473  1.00 20.00     0.000 A 
HETATM    2  C2  UNL     1     -34.161   4.321   3.891  1.00 20.00     0.003 A 
HETATM    3  C3  UNL     1     -35.149   6.514   4.118  1.00 20.00     0.003 A 
HETATM    4  C4  UNL     1     -33.260   4.824   2.952  1.00 20.00     0.037 A 
HETATM    5  C5  UNL     1     -34.248   7.017   3.179  1.00 20.00     0.037 A 
HETATM    6  C6  UNL     1     -33.303   6.172   2.597  1.00 20.00     0.068 A 
ENDROOT
BRANCH   6   7
HETATM    7  O8  UNL     1     -32.422   6.663   1.682  1.00 20.00    -0.356 OA
HETATM    8  C7  UNL     1     -32.032   8.028   1.825  1.00 20.00     0.210 C 
ENDBRANCH   6   7
TORSDOF 1
ENDMDL
MODEL 7
REMARK VINA RESULT:      -1.9      2.346      4.075
REMARK  1 active torsions:
REMARK  status: ('A' for Active; 'I' for Inactive)
REMARK    1  A    between atoms: C6_6  and  O8_8 
ROOT
HETATM    1  C1  UNL     1     -33.062   7.662   2.389  1.00 20.00     0.000 A 
HETATM    2  C2  UNL     1     -32.672   6.427   1.868  1.00 20.00     0.003 A 
HETATM    3  C3  UNL     1     -33.925   7.716   3.483  1.00 20.00     0.003 A 
HETATM    4  C4  UNL     1     -33.147   5.248   2.442  1.00 20.00     0.037 A 
HETATM    5  C5  UNL     1     -34.400   6.536   4.056  1.00 20.00     0.037 A 
HETATM    6  C6  UNL     1     -34.011   5.302   3.535  1.00 20.00     0.068 A 
ENDROOT
BRANCH   6   7
HETATM    7  O8  UNL     1     -34.475   4.151   4.094  1.00 20.00    -0.356 OA
HETATM    8  C7  UNL     1     -33.503   3.211   4.547  1.00 20.00     0.210 C 
ENDBRANCH   6   7
TORSDOF 1
ENDMDL
MODEL 8
REMARK VINA RESULT:      -1.4      1.795      3.205
REMARK  1 active torsions:
REMARK  status: ('A' for Active; 'I' for Inactive)
REMARK    1  A    between atoms: C6_6  and  O8_8 
ROOT
HETATM    1  C1  UNL     1     -31.827   7.095   1.146  1.00 20.00     0.000 A 
HETATM    2  C2  UNL     1     -31.941   8.195   1.997  1.00 20.00     0.003 A 
HETATM    3  C3  UNL     1     -32.583   5.947   1.385  1.00 20.00     0.003 A 
HETATM    4  C4  UNL     1     -32.810   8.147   3.086  1.00 20.00     0.037 A 
HETATM    5  C5  UNL     1     -33.452   5.900   2.476  1.00 20.00     0.037 A 
HETATM    6  C6  UNL     1     -33.565   7.000   3.327  1.00 20.00     0.068 A 
ENDROOT
BRANCH   6   7
HETATM    7  O8  UNL     1     -34.412   6.952   4.391  1.00 20.00    -0.356 OA
HETATM    8  C7  UNL     1     -35.678   6.326   4.186  1.00 20.00     0.210 C 
ENDBRANCH   6   7
TORSDOF 1
ENDMDL
MODEL 9
REMARK VINA RESULT:      -1.0      1.726      2.974
REMARK  1 active torsions:
REMARK  status: ('A' for Active; 'I' for Inactive)
REMARK    1  A    between atoms: C6_6  and  O8_8 
ROOT
HETATM    1  C1  UNL     1     -32.003   6.330   1.038  1.00 20.00     0.000 A 
HETATM    2  C2  UNL     1     -31.802   7.618   1.537  1.00 20.00     0.003 A 
HETATM    3  C3  UNL     1     -32.951   5.494   1.627  1.00 20.00     0.003 A 
HETATM    4  C4  UNL     1     -32.551   8.068   2.624  1.00 20.00     0.037 A 
HETATM    5  C5  UNL     1     -33.700   5.945   2.715  1.00 20.00     0.037 A 
HETATM    6  C6  UNL     1     -33.499   7.233   3.213  1.00 20.00     0.068 A 
ENDROOT
BRANCH   6   7
HETATM    7  O8  UNL     1     -34.228   7.672   4.275  1.00 20.00    -0.356 OA
HETATM    8  C7  UNL     1     -33.508   8.252   5.362  1.00 20.00     0.210 C 
ENDBRANCH   6   7
TORSDOF 1
ENDMDL
