MODEL 1
REMARK VINA RESULT:      -2.4      0.000      0.000
REMARK  0 active torsions:
REMARK  status: ('A' for Active; 'I' for Inactive)
ROOT
HETATM    1  C1  UNL     1     -31.864   8.168   1.428  1.00 20.00     0.018 C 
HETATM    2  C2  UNL     1     -32.568   7.448   2.084  1.00 20.00    -0.078 C 
HETATM    3  C3  UNL     1     -35.039   4.919   4.385  1.00 20.00     0.000 A 
HETATM    4  C4  UNL     1     -33.951   4.389   3.692  1.00 20.00     0.001 A 
HETATM    5  C5  UNL     1     -35.310   6.285   4.317  1.00 20.00     0.001 A 
HETATM    6  C6  UNL     1     -33.134   5.225   2.930  1.00 20.00     0.020 A 
HETATM    7  C7  UNL     1     -34.493   7.121   3.556  1.00 20.00     0.020 A 
HETATM    8  C8  UNL     1     -33.405   6.591   2.863  1.00 20.00     0.016 A 
ENDROOT
TORSDOF 0
ENDMDL
MODEL 2
REMARK VINA RESULT:      -2.4      0.036      1.708
REMARK  0 active torsions:
REMARK  status: ('A' for Active; 'I' for Inactive)
ROOT
HETATM    1  C1  UNL     1     -31.890   8.212   1.469  1.00 20.00     0.018 C 
HETATM    2  C2  UNL     1     -32.590   7.479   2.116  1.00 20.00    -0.078 C 
HETATM    3  C3  UNL     1     -35.045   4.908   4.387  1.00 20.00     0.000 A 
HETATM    4  C4  UNL     1     -35.331   6.272   4.326  1.00 20.00     0.001 A 
HETATM    5  C5  UNL     1     -33.947   4.395   3.697  1.00 20.00     0.001 A 
HETATM    6  C6  UNL     1     -34.519   7.123   3.575  1.00 20.00     0.020 A 
HETATM    7  C7  UNL     1     -33.136   5.244   2.947  1.00 20.00     0.020 A 
HETATM    8  C8  UNL     1     -33.422   6.608   2.885  1.00 20.00     0.016 A 
ENDROOT
TORSDOF 0
ENDMDL
MODEL 3
REMARK VINA RESULT:      -2.4      1.007      3.897
REMARK  0 active torsions:
REMARK  status: ('A' for Active; 'I' for Inactive)
ROOT
HETATM    1  C1  UNL     1     -35.519   5.370   4.526  1.00 20.00     0.018 C 
HETATM    2  C2  UNL     1     -34.671   5.880   3.845  1.00 20.00    -0.078 C 
HETATM    3  C3  UNL     1     -31.693   7.672   1.454  1.00 20.00     0.000 A 
HETATM    4  C4  UNL     1     -32.265   8.386   2.506  1.00 20.00     0.001 A 
HETATM    5  C5  UNL     1     -32.105   6.366   1.192  1.00 20.00     0.001 A 
HETATM    6  C6  UNL     1     -33.250   7.794   3.297  1.00 20.00     0.020 A 
HETATM    7  C7  UNL     1     -33.090   5.774   1.982  1.00 20.00     0.020 A 
HETATM    8  C8  UNL     1     -33.662   6.487   3.035  1.00 20.00     0.016 A 
ENDROOT
TORSDOF 0
ENDMDL
MODEL 4
REMARK VINA RESULT:      -2.3      1.007      3.572
REMARK  0 active torsions:
REMARK  status: ('A' for Active; 'I' for Inactive)
ROOT
HETATM    1  C1  UNL     1     -35.518   5.371   4.526  1.00 20.00     0.018 C 
HETATM    2  C2  UNL     1     -34.670   5.881   3.845  1.00 20.00    -0.078 C 
HETATM    3  C3  UNL     1     -31.692   7.674   1.454  1.00 20.00     0.000 A 
HETATM    4  C4  UNL     1     -32.105   6.368   1.191  1.00 20.00     0.001 A 
HETATM    5  C5  UNL     1     -32.264   8.387   2.507  1.00 20.00     0.001 A 
HETATM    6  C6  UNL     1     -33.090   5.775   1.981  1.00 20.00     0.020 A 
HETATM    7  C7  UNL     1     -33.248   7.795   3.298  1.00 20.00     0.020 A 
HETATM    8  C8  UNL     1     -33.661   6.489   3.035  1.00 20.00     0.016 A 
ENDROOT
TORSDOF 0
ENDMDL
MODEL 5
REMARK VINA RESULT:      -1.6      1.055      3.670
REMARK  0 active torsions:
REMARK  status: ('A' for Active; 'I' for Inactive)
ROOT
HETATM    1  C1  UNL     1     -33.201   2.152   4.615  1.00 20.00     0.018 C 
HETATM    2  C2  UNL     1     -33.519   3.266   4.300  1.00 20.00    -0.078 C 
HETATM    3  C3  UNL     1     -34.636   7.180   3.191  1.00 20.00     0.000 A 
HETATM    4  C4  UNL     1     -35.423   6.458   4.087  1.00 20.00     0.001 A 
HETATM    5  C5  UNL     1     -33.479   6.609   2.661  1.00 20.00     0.001 A 
HETATM    6  C6  UNL     1     -35.054   5.163   4.454  1.00 20.00     0.020 A 
HETATM    7  C7  UNL     1     -33.110   5.315   3.028  1.00 20.00     0.020 A 
HETATM    8  C8  UNL     1     -33.897   4.592   3.924  1.00 20.00     0.016 A 
ENDROOT
TORSDOF 0
ENDMDL
MODEL 6
REMARK VINA RESULT:      -1.6      1.494      2.466
REMARK  0 active torsions:
REMARK  status: ('A' for Active; 'I' for Inactive)
ROOT
HETATM    1  C1  UNL     1     -31.809   4.624   0.424  1.00 20.00     0.018 C 
HETATM    2  C2  UNL     1     -32.343   5.316   1.248  1.00 20.00    -0.078 C 
HETATM    3  C3  UNL     1     -34.221   7.746   4.140  1.00 20.00     0.000 A 
HETATM    4  C4  UNL     1     -34.659   6.438   3.938  1.00 20.00     0.001 A 
HETATM    5  C5  UNL     1     -33.162   8.251   3.386  1.00 20.00     0.001 A 
HETATM    6  C6  UNL     1     -34.039   5.634   2.982  1.00 20.00     0.020 A 
HETATM    7  C7  UNL     1     -32.542   7.448   2.430  1.00 20.00     0.020 A 
HETATM    8  C8  UNL     1     -32.979   6.139   2.228  1.00 20.00     0.016 A 
ENDROOT
TORSDOF 0
ENDMDL
MODEL 7
REMARK VINA RESULT:      -1.6      1.495      2.572
REMARK  0 active torsions:
REMARK  status: ('A' for Active; 'I' for Inactive)
ROOT
HETATM    1  C1  UNL     1     -31.804   4.625   0.422  1.00 20.00     0.018 C 
HETATM    2  C2  UNL     1     -32.340   5.317   1.245  1.00 20.00    -0.078 C 
HETATM    3  C3  UNL     1     -34.220   7.745   4.137  1.00 20.00     0.000 A 
HETATM    4  C4  UNL     1     -33.162   8.251   3.383  1.00 20.00     0.001 A 
HETATM    5  C5  UNL     1     -34.656   6.436   3.935  1.00 20.00     0.001 A 
HETATM    6  C6  UNL     1     -32.539   7.448   2.427  1.00 20.00     0.020 A 
HETATM    7  C7  UNL     1     -34.035   5.633   2.980  1.00 20.00     0.020 A 
HETATM    8  C8  UNL     1     -32.977   6.139   2.225  1.00 20.00     0.016 A 
ENDROOT
TORSDOF 0
ENDMDL
MODEL 8
REMARK VINA RESULT:      -0.4      1.529      3.345
REMARK  0 active torsions:
REMARK  status: ('A' for Active; 'I' for Inactive)
ROOT
HETATM    1  C1  UNL     1     -34.222   8.327   5.338  1.00 20.00     0.018 C 
HETATM    2  C2  UNL     1     -33.740   7.856   4.344  1.00 20.00    -0.078 C 
HETATM    3  C3  UNL     1     -32.050   6.199   0.852  1.00 20.00     0.000 A 
HETATM    4  C4  UNL     1     -32.963   5.460   1.602  1.00 20.00     0.001 A 
HETATM    5  C5  UNL     1     -31.695   7.486   1.256  1.00 20.00     0.001 A 
HETATM    6  C6  UNL     1     -33.523   6.007   2.758  1.00 20.00     0.020 A 
HETATM    7  C7  UNL     1     -32.253   8.033   2.410  1.00 20.00     0.020 A 
HETATM    8  C8  UNL     1     -33.168   7.294   3.161  1.00 20.00     0.016 A 
ENDROOT
TORSDOF 0
ENDMDL
MODEL 9
REMARK VINA RESULT:       0.1      1.524      3.380
REMARK  0 active torsions:
REMARK  status: ('A' for Active; 'I' for Inactive)
ROOT
HETATM    1  C1  UNL     1     -33.695   8.363   5.507  1.00 20.00     0.018 C 
HETATM    2  C2  UNL     1     -33.391   7.832   4.473  1.00 20.00    -0.078 C 
HETATM    3  C3  UNL     1     -32.322   5.969   0.843  1.00 20.00     0.000 A 
HETATM    4  C4  UNL     1     -31.958   7.294   1.080  1.00 20.00     0.001 A 
HETATM    5  C5  UNL     1     -33.039   5.260   1.805  1.00 20.00     0.001 A 
HETATM    6  C6  UNL     1     -32.311   7.911   2.280  1.00 20.00     0.020 A 
HETATM    7  C7  UNL     1     -33.393   5.876   3.005  1.00 20.00     0.020 A 
HETATM    8  C8  UNL     1     -33.029   7.201   3.243  1.00 20.00     0.016 A 
ENDROOT
TORSDOF 0
ENDMDL
