MODEL 1
REMARK VINA RESULT:      -2.9      0.000      0.000
REMARK  2 active torsions:
REMARK  status: ('A' for Active; 'I' for Inactive)
REMARK    1  A    between atoms: C6_6  and  C8_8 
REMARK    2  A    between atoms: C8_8  and  C9_9 
ROOT
HETATM    1  C1  UNL     1     -34.399   5.989   3.712  1.00 20.00     0.000 A 
HETATM    2  C2  UNL     1     -34.190   7.334   4.016  1.00 20.00     0.001 A 
HETATM    3  C3  UNL     1     -33.738   5.408   2.630  1.00 20.00     0.001 A 
HETATM    4  C4  UNL     1     -33.321   8.099   3.238  1.00 20.00     0.007 A 
HETATM    5  C5  UNL     1     -32.870   6.172   1.851  1.00 20.00     0.007 A 
HETATM    6  C6  UNL     1     -32.661   7.518   2.155  1.00 20.00    -0.058 A 
ENDROOT
BRANCH   6   7
HETATM    7  C8  UNL     1     -31.732   8.334   1.322  1.00 20.00     0.038 C 
BRANCH   7   8
HETATM    8  C9  UNL     1     -32.326   9.707   0.971  1.00 20.00     0.000 C 
HETATM    9  C7  UNL     1     -32.632   9.833  -0.513  1.00 20.00     0.005 C 
ENDBRANCH   7   8
ENDBRANCH   6   7
TORSDOF 2
ENDMDL
MODEL 2
REMARK VINA RESULT:      -2.9      0.027      1.611
REMARK  2 active torsions:
REMARK  status: ('A' for Active; 'I' for Inactive)
REMARK    1  A    between atoms: C6_6  and  C8_8 
REMARK    2  A    between atoms: C8_8  and  C9_9 
ROOT
HETATM    1  C1  UNL     1     -34.423   5.976   3.712  1.00 20.00     0.000 A 
HETATM    2  C2  UNL     1     -33.753   5.400   2.633  1.00 20.00     0.001 A 
HETATM    3  C3  UNL     1     -34.220   7.320   4.023  1.00 20.00     0.001 A 
HETATM    4  C4  UNL     1     -32.878   6.168   1.865  1.00 20.00     0.007 A 
HETATM    5  C5  UNL     1     -33.345   8.088   3.255  1.00 20.00     0.007 A 
HETATM    6  C6  UNL     1     -32.675   7.512   2.176  1.00 20.00    -0.058 A 
ENDROOT
BRANCH   6   7
HETATM    7  C8  UNL     1     -31.739   8.335   1.355  1.00 20.00     0.038 C 
BRANCH   7   8
HETATM    8  C9  UNL     1     -32.339   9.701   0.991  1.00 20.00     0.000 C 
HETATM    9  C7  UNL     1     -32.628   9.819  -0.497  1.00 20.00     0.005 C 
ENDBRANCH   7   8
ENDBRANCH   6   7
TORSDOF 2
ENDMDL
MODEL 3
REMARK VINA RESULT:      -2.6      1.042      2.216
REMARK  2 active torsions:
REMARK  status: ('A' for Active; 'I' for Inactive)
REMARK    1  A    between atoms: C6_6  and  C8_8 
REMARK    2  A    between atoms: C8_8  and  C9_9 
ROOT
HETATM    1  C1  UNL     1     -35.125   5.113   4.521  1.00 20.00     0.000 A 
HETATM    2  C2  UNL     1     -34.162   4.280   3.951  1.00 20.00     0.001 A 
HETATM    3  C3  UNL     1     -35.193   6.456   4.151  1.00 20.00     0.001 A 
HETATM    4  C4  UNL     1     -33.267   4.790   3.012  1.00 20.00     0.007 A 
HETATM    5  C5  UNL     1     -34.298   6.966   3.211  1.00 20.00     0.007 A 
HETATM    6  C6  UNL     1     -33.335   6.133   2.642  1.00 20.00    -0.058 A 
ENDROOT
BRANCH   6   7
HETATM    7  C8  UNL     1     -32.378   6.680   1.637  1.00 20.00     0.038 C 
BRANCH   7   8
HETATM    8  C9  UNL     1     -31.975   8.128   1.951  1.00 20.00     0.000 C 
HETATM    9  C7  UNL     1     -32.240   9.061   0.780  1.00 20.00     0.005 C 
ENDBRANCH   7   8
ENDBRANCH   6   7
TORSDOF 2
ENDMDL
MODEL 4
REMARK VINA RESULT:      -2.6      1.039      1.632
REMARK  2 active torsions:
REMARK  status: ('A' for Active; 'I' for Inactive)
REMARK    1  A    between atoms: C6_6  and  C8_8 
REMARK    2  A    between atoms: C8_8  and  C9_9 
ROOT
HETATM    1  C1  UNL     1     -35.111   5.112   4.496  1.00 20.00     0.000 A 
HETATM    2  C2  UNL     1     -35.179   6.456   4.130  1.00 20.00     0.001 A 
HETATM    3  C3  UNL     1     -34.145   4.282   3.928  1.00 20.00     0.001 A 
HETATM    4  C4  UNL     1     -34.281   6.970   3.194  1.00 20.00     0.007 A 
HETATM    5  C5  UNL     1     -33.247   4.795   2.993  1.00 20.00     0.007 A 
HETATM    6  C6  UNL     1     -33.315   6.139   2.626  1.00 20.00    -0.058 A 
ENDROOT
BRANCH   6   7
HETATM    7  C8  UNL     1     -32.354   6.688   1.626  1.00 20.00     0.038 C 
BRANCH   7   8
HETATM    8  C9  UNL     1     -31.958   8.139   1.941  1.00 20.00     0.000 C 
HETATM    9  C7  UNL     1     -32.230   9.071   0.771  1.00 20.00     0.005 C 
ENDBRANCH   7   8
ENDBRANCH   6   7
TORSDOF 2
ENDMDL
MODEL 5
REMARK VINA RESULT:      -2.5      1.531      4.451
REMARK  2 active torsions:
REMARK  status: ('A' for Active; 'I' for Inactive)
REMARK    1  A    between atoms: C6_6  and  C8_8 
REMARK    2  A    between atoms: C8_8  and  C9_9 
ROOT
HETATM    1  C1  UNL     1     -32.279   7.934   1.902  1.00 20.00     0.000 A 
HETATM    2  C2  UNL     1     -32.995   8.267   3.051  1.00 20.00     0.001 A 
HETATM    3  C3  UNL     1     -32.269   6.618   1.441  1.00 20.00     0.001 A 
HETATM    4  C4  UNL     1     -33.701   7.282   3.742  1.00 20.00     0.007 A 
HETATM    5  C5  UNL     1     -32.976   5.633   2.132  1.00 20.00     0.007 A 
HETATM    6  C6  UNL     1     -33.692   5.966   3.282  1.00 20.00    -0.058 A 
ENDROOT
BRANCH   6   7
HETATM    7  C8  UNL     1     -34.447   4.912   4.019  1.00 20.00     0.038 C 
BRANCH   7   8
HETATM    8  C9  UNL     1     -33.782   3.532   3.897  1.00 20.00     0.000 C 
HETATM    9  C7  UNL     1     -33.037   3.145   5.165  1.00 20.00     0.005 C 
ENDBRANCH   7   8
ENDBRANCH   6   7
TORSDOF 2
ENDMDL
MODEL 6
REMARK VINA RESULT:      -2.5      1.524      4.724
REMARK  2 active torsions:
REMARK  status: ('A' for Active; 'I' for Inactive)
REMARK    1  A    between atoms: C6_6  and  C8_8 
REMARK    2  A    between atoms: C8_8  and  C9_9 
ROOT
HETATM    1  C1  UNL     1     -32.291   7.938   1.888  1.00 20.00     0.000 A 
HETATM    2  C2  UNL     1     -32.286   6.621   1.430  1.00 20.00     0.001 A 
HETATM    3  C3  UNL     1     -32.999   8.274   3.041  1.00 20.00     0.001 A 
HETATM    4  C4  UNL     1     -32.992   5.638   2.125  1.00 20.00     0.007 A 
HETATM    5  C5  UNL     1     -33.705   7.292   3.736  1.00 20.00     0.007 A 
HETATM    6  C6  UNL     1     -33.701   5.974   3.278  1.00 20.00    -0.058 A 
ENDROOT
BRANCH   6   7
HETATM    7  C8  UNL     1     -34.456   4.925   4.022  1.00 20.00     0.038 C 
BRANCH   7   8
HETATM    8  C9  UNL     1     -33.797   3.543   3.899  1.00 20.00     0.000 C 
HETATM    9  C7  UNL     1     -33.035   3.161   5.158  1.00 20.00     0.005 C 
ENDBRANCH   7   8
ENDBRANCH   6   7
TORSDOF 2
ENDMDL
MODEL 7
REMARK VINA RESULT:      -1.9      1.372      3.961
REMARK  2 active torsions:
REMARK  status: ('A' for Active; 'I' for Inactive)
REMARK    1  A    between atoms: C6_6  and  C8_8 
REMARK    2  A    between atoms: C8_8  and  C9_9 
ROOT
HETATM    1  C1  UNL     1     -31.614   6.886   0.974  1.00 20.00     0.000 A 
HETATM    2  C2  UNL     1     -31.691   8.068   1.711  1.00 20.00     0.001 A 
HETATM    3  C3  UNL     1     -32.459   5.819   1.277  1.00 20.00     0.001 A 
HETATM    4  C4  UNL     1     -32.613   8.182   2.751  1.00 20.00     0.007 A 
HETATM    5  C5  UNL     1     -33.381   5.933   2.318  1.00 20.00     0.007 A 
HETATM    6  C6  UNL     1     -33.458   7.115   3.054  1.00 20.00    -0.058 A 
ENDROOT
BRANCH   6   7
HETATM    7  C8  UNL     1     -34.444   7.236   4.167  1.00 20.00     0.038 C 
BRANCH   7   8
HETATM    8  C9  UNL     1     -35.535   6.157   4.092  1.00 20.00     0.000 C 
HETATM    9  C7  UNL     1     -35.043   4.813   4.607  1.00 20.00     0.005 C 
ENDBRANCH   7   8
ENDBRANCH   6   7
TORSDOF 2
ENDMDL
MODEL 8
REMARK VINA RESULT:      -1.8      1.375      4.230
REMARK  2 active torsions:
REMARK  status: ('A' for Active; 'I' for Inactive)
REMARK    1  A    between atoms: C6_6  and  C8_8 
REMARK    2  A    between atoms: C8_8  and  C9_9 
ROOT
HETATM    1  C1  UNL     1     -31.561   7.127   1.043  1.00 20.00     0.000 A 
HETATM    2  C2  UNL     1     -32.402   6.029   1.228  1.00 20.00     0.001 A 
HETATM    3  C3  UNL     1     -31.681   8.245   1.868  1.00 20.00     0.001 A 
HETATM    4  C4  UNL     1     -33.364   6.051   2.238  1.00 20.00     0.007 A 
HETATM    5  C5  UNL     1     -32.643   8.266   2.878  1.00 20.00     0.007 A 
HETATM    6  C6  UNL     1     -33.484   7.169   3.063  1.00 20.00    -0.058 A 
ENDROOT
BRANCH   6   7
HETATM    7  C8  UNL     1     -34.512   7.192   4.143  1.00 20.00     0.038 C 
BRANCH   7   8
HETATM    8  C9  UNL     1     -35.489   6.011   4.037  1.00 20.00     0.000 C 
HETATM    9  C7  UNL     1     -34.871   4.714   4.536  1.00 20.00     0.005 C 
ENDBRANCH   7   8
ENDBRANCH   6   7
TORSDOF 2
ENDMDL
MODEL 9
REMARK VINA RESULT:      -1.4      0.836      1.900
REMARK  2 active torsions:
REMARK  status: ('A' for Active; 'I' for Inactive)
REMARK    1  A    between atoms: C6_6  and  C8_8 
REMARK    2  A    between atoms: C8_8  and  C9_9 
ROOT
HETATM    1  C1  UNL     1     -33.243   5.474   2.418  1.00 20.00     0.000 A 
HETATM    2  C2  UNL     1     -32.395   5.673   1.329  1.00 20.00     0.001 A 
HETATM    3  C3  UNL     1     -33.602   6.551   3.228  1.00 20.00     0.001 A 
HETATM    4  C4  UNL     1     -31.905   6.949   1.050  1.00 20.00     0.007 A 
HETATM    5  C5  UNL     1     -33.112   7.827   2.950  1.00 20.00     0.007 A 
HETATM    6  C6  UNL     1     -32.264   8.025   1.861  1.00 20.00    -0.058 A 
ENDROOT
BRANCH   6   7
HETATM    7  C8  UNL     1     -31.740   9.390   1.564  1.00 20.00     0.038 C 
BRANCH   7   8
HETATM    8  C9  UNL     1     -32.736  10.225   0.743  1.00 20.00     0.000 C 
HETATM    9  C7  UNL     1     -32.669   9.895  -0.740  1.00 20.00     0.005 C 
ENDBRANCH   7   8
ENDBRANCH   6   7
TORSDOF 2
ENDMDL
