MODEL 1
REMARK VINA RESULT:      -2.9      0.000      0.000
REMARK  3 active torsions:
REMARK  status: ('A' for Active; 'I' for Inactive)
REMARK    1  A    between atoms: C6_6  and  C8_8 
REMARK    2  A    between atoms: C8_8  and  C10_10 
REMARK    3  A    between atoms: C9_9  and  C10_10 
ROOT
HETATM    1  C1  UNL     1     -35.111   5.431   4.404  1.00 20.00     0.000 A 
HETATM    2  C2  UNL     1     -35.020   6.791   4.110  1.00 20.00     0.001 A 
HETATM    3  C3  UNL     1     -34.252   4.524   3.785  1.00 20.00     0.001 A 
HETATM    4  C4  UNL     1     -34.069   7.245   3.196  1.00 20.00     0.007 A 
HETATM    5  C5  UNL     1     -33.300   4.978   2.871  1.00 20.00     0.007 A 
HETATM    6  C6  UNL     1     -33.209   6.337   2.577  1.00 20.00    -0.058 A 
ENDROOT
BRANCH   6   7
HETATM    7  C8  UNL     1     -32.180   6.827   1.588  1.00 20.00     0.038 C 
BRANCH   7   8
HETATM    8  C10 UNL     1     -31.981   8.342   1.689  1.00 20.00     0.004 C 
BRANCH   8   9
HETATM    9  C9  UNL     1     -31.941   8.989   0.304  1.00 20.00    -0.004 C 
HETATM   10  C7  UNL     1     -32.611  10.353   0.308  1.00 20.00     0.005 C 
ENDBRANCH   8   9
ENDBRANCH   7   8
ENDBRANCH   6   7
TORSDOF 3
ENDMDL
MODEL 2
REMARK VINA RESULT:      -2.9      0.048      1.529
REMARK  3 active torsions:
REMARK  status: ('A' for Active; 'I' for Inactive)
REMARK    1  A    between atoms: C6_6  and  C8_8 
REMARK    2  A    between atoms: C8_8  and  C10_10 
REMARK    3  A    between atoms: C9_9  and  C10_10 
ROOT
HETATM    1  C1  UNL     1     -35.082   5.420   4.392  1.00 20.00     0.000 A 
HETATM    2  C2  UNL     1     -34.221   4.509   3.780  1.00 20.00     0.001 A 
HETATM    3  C3  UNL     1     -34.990   6.778   4.090  1.00 20.00     0.001 A 
HETATM    4  C4  UNL     1     -33.268   4.956   2.865  1.00 20.00     0.007 A 
HETATM    5  C5  UNL     1     -34.036   7.225   3.174  1.00 20.00     0.007 A 
HETATM    6  C6  UNL     1     -33.176   6.315   2.562  1.00 20.00    -0.058 A 
ENDROOT
BRANCH   6   7
HETATM    7  C8  UNL     1     -32.146   6.799   1.573  1.00 20.00     0.038 C 
BRANCH   7   8
HETATM    8  C10 UNL     1     -31.936   8.312   1.676  1.00 20.00     0.004 C 
BRANCH   8   9
HETATM    9  C9  UNL     1     -31.904   8.963   0.292  1.00 20.00    -0.004 C 
HETATM   10  C7  UNL     1     -32.653  10.285   0.282  1.00 20.00     0.005 C 
ENDBRANCH   8   9
ENDBRANCH   7   8
ENDBRANCH   6   7
TORSDOF 3
ENDMDL
MODEL 3
REMARK VINA RESULT:      -2.6      1.394      4.820
REMARK  3 active torsions:
REMARK  status: ('A' for Active; 'I' for Inactive)
REMARK    1  A    between atoms: C6_6  and  C8_8 
REMARK    2  A    between atoms: C8_8  and  C10_10 
REMARK    3  A    between atoms: C9_9  and  C10_10 
ROOT
HETATM    1  C1  UNL     1     -31.816   7.669   1.859  1.00 20.00     0.000 A 
HETATM    2  C2  UNL     1     -32.407   6.491   1.401  1.00 20.00     0.001 A 
HETATM    3  C3  UNL     1     -32.333   8.319   2.979  1.00 20.00     0.001 A 
HETATM    4  C4  UNL     1     -33.515   5.962   2.064  1.00 20.00     0.007 A 
HETATM    5  C5  UNL     1     -33.442   7.790   3.642  1.00 20.00     0.007 A 
HETATM    6  C6  UNL     1     -34.032   6.613   3.184  1.00 20.00    -0.058 A 
ENDROOT
BRANCH   6   7
HETATM    7  C8  UNL     1     -35.230   6.042   3.901  1.00 20.00     0.038 C 
BRANCH   7   8
HETATM    8  C10 UNL     1     -34.862   4.792   4.704  1.00 20.00     0.004 C 
BRANCH   8   9
HETATM    9  C9  UNL     1     -33.874   3.911   3.938  1.00 20.00    -0.004 C 
HETATM   10  C7  UNL     1     -33.166   2.935   4.863  1.00 20.00     0.005 C 
ENDBRANCH   8   9
ENDBRANCH   7   8
ENDBRANCH   6   7
TORSDOF 3
ENDMDL
MODEL 4
REMARK VINA RESULT:      -2.6      1.391      4.631
REMARK  3 active torsions:
REMARK  status: ('A' for Active; 'I' for Inactive)
REMARK    1  A    between atoms: C6_6  and  C8_8 
REMARK    2  A    between atoms: C8_8  and  C10_10 
REMARK    3  A    between atoms: C9_9  and  C10_10 
ROOT
HETATM    1  C1  UNL     1     -31.841   7.681   1.846  1.00 20.00     0.000 A 
HETATM    2  C2  UNL     1     -32.376   8.331   2.958  1.00 20.00     0.001 A 
HETATM    3  C3  UNL     1     -32.404   6.487   1.398  1.00 20.00     0.001 A 
HETATM    4  C4  UNL     1     -33.476   7.787   3.623  1.00 20.00     0.007 A 
HETATM    5  C5  UNL     1     -33.504   5.943   2.063  1.00 20.00     0.007 A 
HETATM    6  C6  UNL     1     -34.039   6.593   3.174  1.00 20.00    -0.058 A 
ENDROOT
BRANCH   6   7
HETATM    7  C8  UNL     1     -35.227   6.004   3.892  1.00 20.00     0.038 C 
BRANCH   7   8
HETATM    8  C10 UNL     1     -34.832   4.783   4.726  1.00 20.00     0.004 C 
BRANCH   8   9
HETATM    9  C9  UNL     1     -33.875   3.871   3.957  1.00 20.00    -0.004 C 
HETATM   10  C7  UNL     1     -33.131   2.930   4.890  1.00 20.00     0.005 C 
ENDBRANCH   8   9
ENDBRANCH   7   8
ENDBRANCH   6   7
TORSDOF 3
ENDMDL
MODEL 5
REMARK VINA RESULT:      -2.5      0.833      1.250
REMARK  3 active torsions:
REMARK  status: ('A' for Active; 'I' for Inactive)
REMARK    1  A    between atoms: C6_6  and  C8_8 
REMARK    2  A    between atoms: C8_8  and  C10_10 
REMARK    3  A    between atoms: C9_9  and  C10_10 
ROOT
HETATM    1  C1  UNL     1     -34.591   5.827   3.661  1.00 20.00     0.000 A 
HETATM    2  C2  UNL     1     -34.465   7.128   4.150  1.00 20.00     0.001 A 
HETATM    3  C3  UNL     1     -33.801   5.405   2.592  1.00 20.00     0.001 A 
HETATM    4  C4  UNL     1     -33.548   8.006   3.570  1.00 20.00     0.007 A 
HETATM    5  C5  UNL     1     -32.884   6.282   2.013  1.00 20.00     0.007 A 
HETATM    6  C6  UNL     1     -32.758   7.582   2.502  1.00 20.00    -0.058 A 
ENDROOT
BRANCH   6   7
HETATM    7  C8  UNL     1     -31.767   8.530   1.875  1.00 20.00     0.038 C 
BRANCH   7   8
HETATM    8  C10 UNL     1     -31.797   8.445   0.346  1.00 20.00     0.004 C 
BRANCH   8   9
HETATM    9  C9  UNL     1     -32.520   9.648  -0.262  1.00 20.00    -0.004 C 
HETATM   10  C7  UNL     1     -32.725  10.751   0.763  1.00 20.00     0.005 C 
ENDBRANCH   8   9
ENDBRANCH   7   8
ENDBRANCH   6   7
TORSDOF 3
ENDMDL
MODEL 6
REMARK VINA RESULT:      -1.1      1.364      4.841
REMARK  3 active torsions:
REMARK  status: ('A' for Active; 'I' for Inactive)
REMARK    1  A    between atoms: C6_6  and  C8_8 
REMARK    2  A    between atoms: C8_8  and  C10_10 
REMARK    3  A    between atoms: C9_9  and  C10_10 
ROOT
HETATM    1  C1  UNL     1     -32.250   8.237   2.162  1.00 20.00     0.000 A 
HETATM    2  C2  UNL     1     -33.142   8.174   3.232  1.00 20.00     0.001 A 
HETATM    3  C3  UNL     1     -31.978   7.093   1.412  1.00 20.00     0.001 A 
HETATM    4  C4  UNL     1     -33.764   6.967   3.553  1.00 20.00     0.007 A 
HETATM    5  C5  UNL     1     -32.599   5.885   1.733  1.00 20.00     0.007 A 
HETATM    6  C6  UNL     1     -33.492   5.823   2.803  1.00 20.00    -0.058 A 
ENDROOT
BRANCH   6   7
HETATM    7  C8  UNL     1     -34.163   4.517   3.149  1.00 20.00     0.038 C 
BRANCH   7   8
HETATM    8  C10 UNL     1     -34.194   4.285   4.662  1.00 20.00     0.004 C 
BRANCH   8   9
HETATM    9  C9  UNL     1     -33.080   3.334   5.101  1.00 20.00    -0.004 C 
HETATM   10  C7  UNL     1     -33.240   1.961   4.470  1.00 20.00     0.005 C 
ENDBRANCH   8   9
ENDBRANCH   7   8
ENDBRANCH   6   7
TORSDOF 3
ENDMDL
MODEL 7
REMARK VINA RESULT:      -0.7      0.919      4.996
REMARK  3 active torsions:
REMARK  status: ('A' for Active; 'I' for Inactive)
REMARK    1  A    between atoms: C6_6  and  C8_8 
REMARK    2  A    between atoms: C8_8  and  C10_10 
REMARK    3  A    between atoms: C9_9  and  C10_10 
ROOT
HETATM    1  C1  UNL     1     -31.946   9.887  -0.038  1.00 20.00     0.000 A 
HETATM    2  C2  UNL     1     -31.332   8.635  -0.018  1.00 20.00     0.001 A 
HETATM    3  C3  UNL     1     -32.870  10.227   0.949  1.00 20.00     0.001 A 
HETATM    4  C4  UNL     1     -31.643   7.721   0.990  1.00 20.00     0.007 A 
HETATM    5  C5  UNL     1     -33.181   9.314   1.957  1.00 20.00     0.007 A 
HETATM    6  C6  UNL     1     -32.567   8.062   1.978  1.00 20.00    -0.058 A 
ENDROOT
BRANCH   6   7
HETATM    7  C8  UNL     1     -32.904   7.075   3.068  1.00 20.00     0.038 C 
BRANCH   7   8
HETATM    8  C10 UNL     1     -34.125   7.524   3.875  1.00 20.00     0.004 C 
BRANCH   8   9
HETATM    9  C9  UNL     1     -35.148   6.395   4.007  1.00 20.00    -0.004 C 
HETATM   10  C7  UNL     1     -34.474   5.033   4.026  1.00 20.00     0.005 C 
ENDBRANCH   8   9
ENDBRANCH   7   8
ENDBRANCH   6   7
TORSDOF 3
ENDMDL
MODEL 8
REMARK VINA RESULT:      -0.7      0.919      4.755
REMARK  3 active torsions:
REMARK  status: ('A' for Active; 'I' for Inactive)
REMARK    1  A    between atoms: C6_6  and  C8_8 
REMARK    2  A    between atoms: C8_8  and  C10_10 
REMARK    3  A    between atoms: C9_9  and  C10_10 
ROOT
HETATM    1  C1  UNL     1     -31.974   9.815  -0.084  1.00 20.00     0.000 A 
HETATM    2  C2  UNL     1     -32.888  10.255   0.874  1.00 20.00     0.001 A 
HETATM    3  C3  UNL     1     -31.363   8.569   0.056  1.00 20.00     0.001 A 
HETATM    4  C4  UNL     1     -33.192   9.449   1.971  1.00 20.00     0.007 A 
HETATM    5  C5  UNL     1     -31.667   7.763   1.154  1.00 20.00     0.007 A 
HETATM    6  C6  UNL     1     -32.581   8.203   2.110  1.00 20.00    -0.058 A 
ENDROOT
BRANCH   6   7
HETATM    7  C8  UNL     1     -32.909   7.331   3.296  1.00 20.00     0.038 C 
BRANCH   7   8
HETATM    8  C10 UNL     1     -34.300   7.640   3.854  1.00 20.00     0.004 C 
BRANCH   8   9
HETATM    9  C9  UNL     1     -35.120   6.363   4.041  1.00 20.00    -0.004 C 
HETATM   10  C7  UNL     1     -34.321   5.128   3.658  1.00 20.00     0.005 C 
ENDBRANCH   8   9
ENDBRANCH   7   8
ENDBRANCH   6   7
TORSDOF 3
ENDMDL
MODEL 9
REMARK VINA RESULT:      -0.6      1.238      2.078
REMARK  3 active torsions:
REMARK  status: ('A' for Active; 'I' for Inactive)
REMARK    1  A    between atoms: C6_6  and  C8_8 
REMARK    2  A    between atoms: C8_8  and  C10_10 
REMARK    3  A    between atoms: C9_9  and  C10_10 
ROOT
HETATM    1  C1  UNL     1     -35.261   4.999   4.783  1.00 20.00     0.000 A 
HETATM    2  C2  UNL     1     -34.292   4.075   4.390  1.00 20.00     0.001 A 
HETATM    3  C3  UNL     1     -35.338   6.240   4.152  1.00 20.00     0.001 A 
HETATM    4  C4  UNL     1     -33.400   4.393   3.365  1.00 20.00     0.007 A 
HETATM    5  C5  UNL     1     -34.446   6.557   3.127  1.00 20.00     0.007 A 
HETATM    6  C6  UNL     1     -33.478   5.634   2.733  1.00 20.00    -0.058 A 
ENDROOT
BRANCH   6   7
HETATM    7  C8  UNL     1     -32.514   5.979   1.626  1.00 20.00     0.038 C 
BRANCH   7   8
HETATM    8  C10 UNL     1     -32.596   7.461   1.250  1.00 20.00     0.004 C 
BRANCH   8   9
HETATM    9  C9  UNL     1     -31.405   8.241   1.808  1.00 20.00    -0.004 C 
HETATM   10  C7  UNL     1     -31.656   8.696   3.235  1.00 20.00     0.005 C 
ENDBRANCH   8   9
ENDBRANCH   7   8
ENDBRANCH   6   7
TORSDOF 3
ENDMDL
