MODEL 1
REMARK VINA RESULT:      -2.3      0.000      0.000
REMARK  4 active torsions:
REMARK  status: ('A' for Active; 'I' for Inactive)
REMARK    1  A    between atoms: C3_3  and  C5_5 
REMARK    2  A    between atoms: C4_4  and  C6_6 
REMARK    3  A    between atoms: C5_5  and  S7_7 
REMARK    4  A    between atoms: C6_6  and  S7_7 
ROOT
HETATM    1  S7  UNL     1     -32.974   6.796   2.058  1.00 20.00    -0.162 SA
ENDROOT
BRANCH   1   2
HETATM    2  C5  UNL     1     -33.755   7.266   3.624  1.00 20.00     0.100 C 
BRANCH   2   3
HETATM    3  C3  UNL     1     -35.056   6.548   3.787  1.00 20.00    -0.027 C 
HETATM    4  C1  UNL     1     -35.179   5.347   4.364  1.00 20.00     0.007 C 
ENDBRANCH   2   3
ENDBRANCH   1   2
BRANCH   1   5
HETATM    5  C6  UNL     1     -31.897   8.235   1.855  1.00 20.00     0.100 C 
BRANCH   5   6
HETATM    6  C4  UNL     1     -32.119   8.859   0.515  1.00 20.00    -0.027 C 
HETATM    7  C2  UNL     1     -32.497  10.129   0.338  1.00 20.00     0.007 C 
ENDBRANCH   5   6
ENDBRANCH   1   5
TORSDOF 4
ENDMDL
MODEL 2
REMARK VINA RESULT:      -2.3      0.182      4.717
REMARK  4 active torsions:
REMARK  status: ('A' for Active; 'I' for Inactive)
REMARK    1  A    between atoms: C3_3  and  C5_5 
REMARK    2  A    between atoms: C4_4  and  C6_6 
REMARK    3  A    between atoms: C5_5  and  S7_7 
REMARK    4  A    between atoms: C6_6  and  S7_7 
ROOT
HETATM    1  S7  UNL     1     -32.984   6.695   2.173  1.00 20.00    -0.162 SA
ENDROOT
BRANCH   1   2
HETATM    2  C5  UNL     1     -31.913   8.128   1.883  1.00 20.00     0.100 C 
BRANCH   2   3
HETATM    3  C3  UNL     1     -32.235   8.753   0.564  1.00 20.00    -0.027 C 
HETATM    4  C1  UNL     1     -32.450  10.063   0.391  1.00 20.00     0.007 C 
ENDBRANCH   2   3
ENDBRANCH   1   2
BRANCH   1   5
HETATM    5  C6  UNL     1     -33.896   7.329   3.600  1.00 20.00     0.100 C 
BRANCH   5   6
HETATM    6  C4  UNL     1     -35.057   6.438   3.906  1.00 20.00    -0.027 C 
HETATM    7  C2  UNL     1     -34.938   5.151   4.251  1.00 20.00     0.007 C 
ENDBRANCH   5   6
ENDBRANCH   1   5
TORSDOF 4
ENDMDL
MODEL 3
REMARK VINA RESULT:      -2.1      0.955      4.424
REMARK  4 active torsions:
REMARK  status: ('A' for Active; 'I' for Inactive)
REMARK    1  A    between atoms: C3_3  and  C5_5 
REMARK    2  A    between atoms: C4_4  and  C6_6 
REMARK    3  A    between atoms: C5_5  and  S7_7 
REMARK    4  A    between atoms: C6_6  and  S7_7 
ROOT
HETATM    1  S7  UNL     1     -32.024   6.392   1.449  1.00 20.00    -0.162 SA
ENDROOT
BRANCH   1   2
HETATM    2  C5  UNL     1     -32.294   8.142   1.838  1.00 20.00     0.100 C 
BRANCH   2   3
HETATM    3  C3  UNL     1     -31.910   8.994   0.671  1.00 20.00    -0.027 C 
HETATM    4  C1  UNL     1     -32.580  10.089   0.294  1.00 20.00     0.007 C 
ENDBRANCH   2   3
ENDBRANCH   1   2
BRANCH   1   5
HETATM    5  C6  UNL     1     -33.429   5.699   2.352  1.00 20.00     0.100 C 
BRANCH   5   6
HETATM    6  C4  UNL     1     -33.972   6.707   3.312  1.00 20.00    -0.027 C 
HETATM    7  C2  UNL     1     -35.096   6.536   4.017  1.00 20.00     0.007 C 
ENDBRANCH   5   6
ENDBRANCH   1   5
TORSDOF 4
ENDMDL
MODEL 4
REMARK VINA RESULT:      -2.1      1.966      2.783
REMARK  4 active torsions:
REMARK  status: ('A' for Active; 'I' for Inactive)
REMARK    1  A    between atoms: C3_3  and  C5_5 
REMARK    2  A    between atoms: C4_4  and  C6_6 
REMARK    3  A    between atoms: C5_5  and  S7_7 
REMARK    4  A    between atoms: C6_6  and  S7_7 
ROOT
HETATM    1  S7  UNL     1     -34.942   6.307   3.968  1.00 20.00    -0.162 SA
ENDROOT
BRANCH   1   2
HETATM    2  C5  UNL     1     -33.937   4.877   3.485  1.00 20.00     0.100 C 
BRANCH   2   3
HETATM    3  C3  UNL     1     -34.001   3.822   4.542  1.00 20.00    -0.027 C 
HETATM    4  C1  UNL     1     -33.084   2.859   4.693  1.00 20.00     0.007 C 
ENDBRANCH   2   3
ENDBRANCH   1   2
BRANCH   1   5
HETATM    5  C6  UNL     1     -33.747   7.611   3.593  1.00 20.00     0.100 C 
BRANCH   5   6
HETATM    6  C4  UNL     1     -32.877   7.199   2.449  1.00 20.00    -0.027 C 
HETATM    7  C2  UNL     1     -32.001   8.011   1.849  1.00 20.00     0.007 C 
ENDBRANCH   5   6
ENDBRANCH   1   5
TORSDOF 4
ENDMDL
MODEL 5
REMARK VINA RESULT:      -2.1      1.976      4.991
REMARK  4 active torsions:
REMARK  status: ('A' for Active; 'I' for Inactive)
REMARK    1  A    between atoms: C3_3  and  C5_5 
REMARK    2  A    between atoms: C4_4  and  C6_6 
REMARK    3  A    between atoms: C5_5  and  S7_7 
REMARK    4  A    between atoms: C6_6  and  S7_7 
ROOT
HETATM    1  S7  UNL     1     -34.977   6.260   3.971  1.00 20.00    -0.162 SA
ENDROOT
BRANCH   1   2
HETATM    2  C5  UNL     1     -33.756   7.557   3.634  1.00 20.00     0.100 C 
BRANCH   2   3
HETATM    3  C3  UNL     1     -32.900   7.169   2.471  1.00 20.00    -0.027 C 
HETATM    4  C1  UNL     1     -32.027   7.992   1.879  1.00 20.00     0.007 C 
ENDBRANCH   2   3
ENDBRANCH   1   2
BRANCH   1   5
HETATM    5  C6  UNL     1     -33.984   4.828   3.487  1.00 20.00     0.100 C 
BRANCH   5   6
HETATM    6  C4  UNL     1     -33.985   3.809   4.580  1.00 20.00    -0.027 C 
HETATM    7  C2  UNL     1     -33.057   2.854   4.709  1.00 20.00     0.007 C 
ENDBRANCH   5   6
ENDBRANCH   1   5
TORSDOF 4
ENDMDL
MODEL 6
REMARK VINA RESULT:      -1.9      1.456      4.855
REMARK  4 active torsions:
REMARK  status: ('A' for Active; 'I' for Inactive)
REMARK    1  A    between atoms: C3_3  and  C5_5 
REMARK    2  A    between atoms: C4_4  and  C6_6 
REMARK    3  A    between atoms: C5_5  and  S7_7 
REMARK    4  A    between atoms: C6_6  and  S7_7 
ROOT
HETATM    1  S7  UNL     1     -34.024   7.366   3.749  1.00 20.00    -0.162 SA
ENDROOT
BRANCH   1   2
HETATM    2  C5  UNL     1     -33.082   6.842   2.292  1.00 20.00     0.100 C 
BRANCH   2   3
HETATM    3  C3  UNL     1     -32.032   7.855   1.966  1.00 20.00    -0.027 C 
HETATM    4  C1  UNL     1     -32.174   8.802   1.031  1.00 20.00     0.007 C 
ENDBRANCH   2   3
ENDBRANCH   1   2
BRANCH   1   5
HETATM    5  C6  UNL     1     -34.886   5.811   4.082  1.00 20.00     0.100 C 
BRANCH   5   6
HETATM    6  C4  UNL     1     -34.040   4.654   3.659  1.00 20.00    -0.027 C 
HETATM    7  C2  UNL     1     -33.770   3.602   4.441  1.00 20.00     0.007 C 
ENDBRANCH   5   6
ENDBRANCH   1   5
TORSDOF 4
ENDMDL
MODEL 7
REMARK VINA RESULT:      -1.8      1.441      1.917
REMARK  4 active torsions:
REMARK  status: ('A' for Active; 'I' for Inactive)
REMARK    1  A    between atoms: C3_3  and  C5_5 
REMARK    2  A    between atoms: C4_4  and  C6_6 
REMARK    3  A    between atoms: C5_5  and  S7_7 
REMARK    4  A    between atoms: C6_6  and  S7_7 
ROOT
HETATM    1  S7  UNL     1     -33.941   7.338   3.784  1.00 20.00    -0.162 SA
ENDROOT
BRANCH   1   2
HETATM    2  C5  UNL     1     -34.917   5.823   3.984  1.00 20.00     0.100 C 
BRANCH   2   3
HETATM    3  C3  UNL     1     -34.098   4.630   3.611  1.00 20.00    -0.027 C 
HETATM    4  C1  UNL     1     -33.772   3.652   4.464  1.00 20.00     0.007 C 
ENDBRANCH   2   3
ENDBRANCH   1   2
BRANCH   1   5
HETATM    5  C6  UNL     1     -33.014   6.864   2.306  1.00 20.00     0.100 C 
BRANCH   5   6
HETATM    6  C4  UNL     1     -32.034   7.934   1.948  1.00 20.00    -0.027 C 
HETATM    7  C2  UNL     1     -32.215   8.808   0.952  1.00 20.00     0.007 C 
ENDBRANCH   5   6
ENDBRANCH   1   5
TORSDOF 4
ENDMDL
MODEL 8
REMARK VINA RESULT:      -1.3      1.762      4.450
REMARK  4 active torsions:
REMARK  status: ('A' for Active; 'I' for Inactive)
REMARK    1  A    between atoms: C3_3  and  C5_5 
REMARK    2  A    between atoms: C4_4  and  C6_6 
REMARK    3  A    between atoms: C5_5  and  S7_7 
REMARK    4  A    between atoms: C6_6  and  S7_7 
ROOT
HETATM    1  S7  UNL     1     -33.338   7.447   4.012  1.00 20.00    -0.162 SA
ENDROOT
BRANCH   1   2
HETATM    2  C5  UNL     1     -32.894   7.825   2.295  1.00 20.00     0.100 C 
BRANCH   2   3
HETATM    3  C3  UNL     1     -32.017   6.748   1.741  1.00 20.00    -0.027 C 
HETATM    4  C1  UNL     1     -32.475   5.590   1.252  1.00 20.00     0.007 C 
ENDBRANCH   2   3
ENDBRANCH   1   2
BRANCH   1   5
HETATM    5  C6  UNL     1     -34.999   6.797   3.720  1.00 20.00     0.100 C 
BRANCH   5   6
HETATM    6  C4  UNL     1     -35.145   5.452   4.355  1.00 20.00    -0.027 C 
HETATM    7  C2  UNL     1     -34.313   4.428   4.134  1.00 20.00     0.007 C 
ENDBRANCH   5   6
ENDBRANCH   1   5
TORSDOF 4
ENDMDL
MODEL 9
REMARK VINA RESULT:      -1.3      1.475      4.016
REMARK  4 active torsions:
REMARK  status: ('A' for Active; 'I' for Inactive)
REMARK    1  A    between atoms: C3_3  and  C5_5 
REMARK    2  A    between atoms: C4_4  and  C6_6 
REMARK    3  A    between atoms: C5_5  and  S7_7 
REMARK    4  A    between atoms: C6_6  and  S7_7 
ROOT
HETATM    1  S7  UNL     1     -33.572   5.183   3.210  1.00 20.00    -0.162 SA
ENDROOT
BRANCH   1   2
HETATM    2  C5  UNL     1     -33.310   6.083   1.658  1.00 20.00     0.100 C 
BRANCH   2   3
HETATM    3  C3  UNL     1     -31.981   6.767   1.678  1.00 20.00    -0.027 C 
HETATM    4  C1  UNL     1     -31.821   8.091   1.571  1.00 20.00     0.007 C 
ENDBRANCH   2   3
ENDBRANCH   1   2
BRANCH   1   5
HETATM    5  C6  UNL     1     -34.890   6.214   3.896  1.00 20.00     0.100 C 
BRANCH   5   6
HETATM    6  C4  UNL     1     -34.423   7.628   4.024  1.00 20.00    -0.027 C 
HETATM    7  C2  UNL     1     -33.501   8.032   4.906  1.00 20.00     0.007 C 
ENDBRANCH   5   6
ENDBRANCH   1   5
TORSDOF 4
ENDMDL
