MODEL 1
REMARK VINA RESULT:      -1.6      0.000      0.000
REMARK  1 active torsions:
REMARK  status: ('A' for Active; 'I' for Inactive)
REMARK    1  A    between atoms: C6_6  and  S8_8 
ROOT
HETATM    1  C1  UNL     1     -32.006   7.829   1.740  1.00 20.00     0.000 A 
HETATM    2  C2  UNL     1     -32.279   6.520   1.346  1.00 20.00     0.001 A 
HETATM    3  C3  UNL     1     -32.622   8.359   2.875  1.00 20.00     0.001 A 
HETATM    4  C4  UNL     1     -33.167   5.739   2.087  1.00 20.00     0.018 A 
HETATM    5  C5  UNL     1     -33.509   7.579   3.615  1.00 20.00     0.018 A 
HETATM    6  C6  UNL     1     -33.782   6.268   3.221  1.00 20.00    -0.000 A 
ENDROOT
BRANCH   6   7
HETATM    7  S8  UNL     1     -34.917   5.272   4.166  1.00 20.00    -0.134 SA
HETATM    8  C7  UNL     1     -33.907   3.789   4.385  1.00 20.00     0.095 C 
ENDBRANCH   6   7
TORSDOF 1
ENDMDL
MODEL 2
REMARK VINA RESULT:      -1.6      0.009      1.708
REMARK  1 active torsions:
REMARK  status: ('A' for Active; 'I' for Inactive)
REMARK    1  A    between atoms: C6_6  and  S8_8 
ROOT
HETATM    1  C1  UNL     1     -32.005   7.831   1.745  1.00 20.00     0.000 A 
HETATM    2  C2  UNL     1     -32.616   8.356   2.883  1.00 20.00     0.001 A 
HETATM    3  C3  UNL     1     -32.278   6.522   1.347  1.00 20.00     0.001 A 
HETATM    4  C4  UNL     1     -33.503   7.573   3.623  1.00 20.00     0.018 A 
HETATM    5  C5  UNL     1     -33.164   5.739   2.087  1.00 20.00     0.018 A 
HETATM    6  C6  UNL     1     -33.777   6.265   3.225  1.00 20.00    -0.000 A 
ENDROOT
BRANCH   6   7
HETATM    7  S8  UNL     1     -34.908   5.264   4.170  1.00 20.00    -0.134 SA
HETATM    8  C7  UNL     1     -33.895   3.784   4.385  1.00 20.00     0.095 C 
ENDBRANCH   6   7
TORSDOF 1
ENDMDL
MODEL 3
REMARK VINA RESULT:      -1.5      2.261      4.095
REMARK  1 active torsions:
REMARK  status: ('A' for Active; 'I' for Inactive)
REMARK    1  A    between atoms: C6_6  and  S8_8 
ROOT
HETATM    1  C1  UNL     1     -34.431   6.089   3.661  1.00 20.00     0.000 A 
HETATM    2  C2  UNL     1     -34.169   7.420   3.982  1.00 20.00     0.001 A 
HETATM    3  C3  UNL     1     -33.782   5.492   2.580  1.00 20.00     0.001 A 
HETATM    4  C4  UNL     1     -33.257   8.154   3.225  1.00 20.00     0.018 A 
HETATM    5  C5  UNL     1     -32.870   6.226   1.822  1.00 20.00     0.018 A 
HETATM    6  C6  UNL     1     -32.607   7.558   2.144  1.00 20.00    -0.000 A 
ENDROOT
BRANCH   6   7
HETATM    7  S8  UNL     1     -31.443   8.496   1.176  1.00 20.00    -0.134 SA
HETATM    8  C7  UNL     1     -32.567   9.704   0.440  1.00 20.00     0.095 C 
ENDBRANCH   6   7
TORSDOF 1
ENDMDL
MODEL 4
REMARK VINA RESULT:      -1.5      2.241      3.706
REMARK  1 active torsions:
REMARK  status: ('A' for Active; 'I' for Inactive)
REMARK    1  A    between atoms: C6_6  and  S8_8 
ROOT
HETATM    1  C1  UNL     1     -34.453   6.034   3.686  1.00 20.00     0.000 A 
HETATM    2  C2  UNL     1     -33.760   5.433   2.635  1.00 20.00     0.001 A 
HETATM    3  C3  UNL     1     -34.231   7.379   3.987  1.00 20.00     0.001 A 
HETATM    4  C4  UNL     1     -32.849   6.175   1.885  1.00 20.00     0.018 A 
HETATM    5  C5  UNL     1     -33.320   8.121   3.237  1.00 20.00     0.018 A 
HETATM    6  C6  UNL     1     -32.629   7.519   2.185  1.00 20.00    -0.000 A 
ENDROOT
BRANCH   6   7
HETATM    7  S8  UNL     1     -31.463   8.467   1.227  1.00 20.00    -0.134 SA
HETATM    8  C7  UNL     1     -32.592   9.656   0.468  1.00 20.00     0.095 C 
ENDBRANCH   6   7
TORSDOF 1
ENDMDL
MODEL 5
REMARK VINA RESULT:      -1.2      1.828      3.893
REMARK  1 active torsions:
REMARK  status: ('A' for Active; 'I' for Inactive)
REMARK    1  A    between atoms: C6_6  and  S8_8 
ROOT
HETATM    1  C1  UNL     1     -35.257   5.231   4.630  1.00 20.00     0.000 A 
HETATM    2  C2  UNL     1     -35.235   6.513   4.080  1.00 20.00     0.001 A 
HETATM    3  C3  UNL     1     -34.327   4.278   4.213  1.00 20.00     0.001 A 
HETATM    4  C4  UNL     1     -34.284   6.842   3.115  1.00 20.00     0.018 A 
HETATM    5  C5  UNL     1     -33.376   4.607   3.247  1.00 20.00     0.018 A 
HETATM    6  C6  UNL     1     -33.354   5.889   2.698  1.00 20.00    -0.000 A 
ENDROOT
BRANCH   6   7
HETATM    7  S8  UNL     1     -32.140   6.309   1.464  1.00 20.00    -0.134 SA
HETATM    8  C7  UNL     1     -31.972   8.078   1.794  1.00 20.00     0.095 C 
ENDBRANCH   6   7
TORSDOF 1
ENDMDL
MODEL 6
REMARK VINA RESULT:      -1.2      1.827      3.615
REMARK  1 active torsions:
REMARK  status: ('A' for Active; 'I' for Inactive)
REMARK    1  A    between atoms: C6_6  and  S8_8 
ROOT
HETATM    1  C1  UNL     1     -35.274   5.236   4.633  1.00 20.00     0.000 A 
HETATM    2  C2  UNL     1     -34.338   4.283   4.231  1.00 20.00     0.001 A 
HETATM    3  C3  UNL     1     -35.252   6.514   4.072  1.00 20.00     0.001 A 
HETATM    4  C4  UNL     1     -33.383   4.606   3.268  1.00 20.00     0.018 A 
HETATM    5  C5  UNL     1     -34.297   6.836   3.109  1.00 20.00     0.018 A 
HETATM    6  C6  UNL     1     -33.362   5.882   2.706  1.00 20.00    -0.000 A 
ENDROOT
BRANCH   6   7
HETATM    7  S8  UNL     1     -32.141   6.295   1.477  1.00 20.00    -0.134 SA
HETATM    8  C7  UNL     1     -31.977   8.066   1.795  1.00 20.00     0.095 C 
ENDBRANCH   6   7
TORSDOF 1
ENDMDL
MODEL 7
REMARK VINA RESULT:      -0.7      1.129      2.051
REMARK  1 active torsions:
REMARK  status: ('A' for Active; 'I' for Inactive)
REMARK    1  A    between atoms: C6_6  and  S8_8 
ROOT
HETATM    1  C1  UNL     1     -31.605   6.787   0.947  1.00 20.00     0.000 A 
HETATM    2  C2  UNL     1     -31.779   7.991   1.630  1.00 20.00     0.001 A 
HETATM    3  C3  UNL     1     -32.371   5.673   1.292  1.00 20.00     0.001 A 
HETATM    4  C4  UNL     1     -32.721   8.081   2.655  1.00 20.00     0.018 A 
HETATM    5  C5  UNL     1     -33.313   5.764   2.316  1.00 20.00     0.018 A 
HETATM    6  C6  UNL     1     -33.488   6.968   2.998  1.00 20.00    -0.000 A 
ENDROOT
BRANCH   6   7
HETATM    7  S8  UNL     1     -34.690   7.084   4.308  1.00 20.00    -0.134 SA
HETATM    8  C7  UNL     1     -35.297   5.382   4.312  1.00 20.00     0.095 C 
ENDBRANCH   6   7
TORSDOF 1
ENDMDL
MODEL 8
REMARK VINA RESULT:      -0.4      1.965      3.797
REMARK  1 active torsions:
REMARK  status: ('A' for Active; 'I' for Inactive)
REMARK    1  A    between atoms: C6_6  and  S8_8 
ROOT
HETATM    1  C1  UNL     1     -35.266   4.971   4.626  1.00 20.00     0.000 A 
HETATM    2  C2  UNL     1     -35.421   6.323   4.319  1.00 20.00     0.001 A 
HETATM    3  C3  UNL     1     -34.209   4.248   4.074  1.00 20.00     0.001 A 
HETATM    4  C4  UNL     1     -34.518   6.952   3.461  1.00 20.00     0.018 A 
HETATM    5  C5  UNL     1     -33.306   4.876   3.216  1.00 20.00     0.018 A 
HETATM    6  C6  UNL     1     -33.460   6.229   2.910  1.00 20.00    -0.000 A 
ENDROOT
BRANCH   6   7
HETATM    7  S8  UNL     1     -32.308   7.031   1.814  1.00 20.00    -0.134 SA
HETATM    8  C7  UNL     1     -31.722   5.595   0.888  1.00 20.00     0.095 C 
ENDBRANCH   6   7
TORSDOF 1
ENDMDL
MODEL 9
REMARK VINA RESULT:      -0.4      1.909      3.494
REMARK  1 active torsions:
REMARK  status: ('A' for Active; 'I' for Inactive)
REMARK    1  A    between atoms: C6_6  and  S8_8 
ROOT
HETATM    1  C1  UNL     1     -35.007   4.902   4.257  1.00 20.00     0.000 A 
HETATM    2  C2  UNL     1     -33.886   4.586   3.490  1.00 20.00     0.001 A 
HETATM    3  C3  UNL     1     -35.361   6.237   4.458  1.00 20.00     0.001 A 
HETATM    4  C4  UNL     1     -33.120   5.604   2.921  1.00 20.00     0.018 A 
HETATM    5  C5  UNL     1     -34.595   7.254   3.890  1.00 20.00     0.018 A 
HETATM    6  C6  UNL     1     -33.475   6.938   3.121  1.00 20.00    -0.000 A 
ENDROOT
BRANCH   6   7
HETATM    7  S8  UNL     1     -32.496   8.238   2.396  1.00 20.00    -0.134 SA
HETATM    8  C7  UNL     1     -31.568   7.276   1.180  1.00 20.00     0.095 C 
ENDBRANCH   6   7
TORSDOF 1
ENDMDL
