MODEL 1
REMARK VINA RESULT:      -2.2      0.000      0.000
REMARK  2 active torsions:
REMARK  status: ('A' for Active; 'I' for Inactive)
REMARK    1  A    between atoms: C6_6  and  C10_10 
REMARK    2  A    between atoms: C9_9  and  C10_10 
ROOT
HETATM    1  C1  UNL     1     -31.861   7.884   1.424  1.00 20.00     0.000 A 
HETATM    2  C2  UNL     1     -32.365   8.441   2.600  1.00 20.00     0.001 A 
HETATM    3  C3  UNL     1     -32.115   6.546   1.122  1.00 20.00     0.001 A 
HETATM    4  C4  UNL     1     -33.123   7.659   3.472  1.00 20.00     0.007 A 
HETATM    5  C5  UNL     1     -32.873   5.765   1.993  1.00 20.00     0.007 A 
HETATM    6  C6  UNL     1     -33.378   6.322   3.169  1.00 20.00    -0.054 A 
ENDROOT
BRANCH   6   7
HETATM    7  C10 UNL     1     -34.203   5.471   4.119  1.00 20.00     0.014 C 
HETATM    8  C8  UNL     1     -35.669   5.920   4.108  1.00 20.00     0.015 C 
BRANCH   7   9
HETATM    9  C9  UNL     1     -34.103   3.961   3.821  1.00 20.00     0.004 C 
HETATM   10  C7  UNL     1     -33.240   3.208   4.826  1.00 20.00     0.006 C 
ENDBRANCH   7   9
ENDBRANCH   6   7
TORSDOF 2
ENDMDL
MODEL 2
REMARK VINA RESULT:      -2.2      0.008      1.528
REMARK  2 active torsions:
REMARK  status: ('A' for Active; 'I' for Inactive)
REMARK    1  A    between atoms: C6_6  and  C10_10 
REMARK    2  A    between atoms: C9_9  and  C10_10 
ROOT
HETATM    1  C1  UNL     1     -31.860   7.879   1.414  1.00 20.00     0.000 A 
HETATM    2  C2  UNL     1     -32.114   6.540   1.114  1.00 20.00     0.001 A 
HETATM    3  C3  UNL     1     -32.366   8.438   2.588  1.00 20.00     0.001 A 
HETATM    4  C4  UNL     1     -32.872   5.762   1.988  1.00 20.00     0.007 A 
HETATM    5  C5  UNL     1     -33.123   7.660   3.462  1.00 20.00     0.007 A 
HETATM    6  C6  UNL     1     -33.377   6.321   3.162  1.00 20.00    -0.054 A 
ENDROOT
BRANCH   6   7
HETATM    7  C10 UNL     1     -34.203   5.473   4.115  1.00 20.00     0.014 C 
HETATM    8  C8  UNL     1     -35.667   5.927   4.105  1.00 20.00     0.015 C 
BRANCH   7   9
HETATM    9  C9  UNL     1     -34.108   3.963   3.820  1.00 20.00     0.004 C 
HETATM   10  C7  UNL     1     -33.248   3.210   4.828  1.00 20.00     0.006 C 
ENDBRANCH   7   9
ENDBRANCH   6   7
TORSDOF 2
ENDMDL
MODEL 3
REMARK VINA RESULT:      -1.7      1.445      4.856
REMARK  2 active torsions:
REMARK  status: ('A' for Active; 'I' for Inactive)
REMARK    1  A    between atoms: C6_6  and  C10_10 
REMARK    2  A    between atoms: C9_9  and  C10_10 
ROOT
HETATM    1  C1  UNL     1     -34.389   5.797   3.613  1.00 20.00     0.000 A 
HETATM    2  C2  UNL     1     -33.639   5.395   2.507  1.00 20.00     0.001 A 
HETATM    3  C3  UNL     1     -34.340   7.123   4.044  1.00 20.00     0.001 A 
HETATM    4  C4  UNL     1     -32.840   6.320   1.834  1.00 20.00     0.007 A 
HETATM    5  C5  UNL     1     -33.542   8.047   3.371  1.00 20.00     0.007 A 
HETATM    6  C6  UNL     1     -32.792   7.645   2.265  1.00 20.00    -0.054 A 
ENDROOT
BRANCH   6   7
HETATM    7  C10 UNL     1     -31.922   8.653   1.532  1.00 20.00     0.014 C 
HETATM    8  C8  UNL     1     -31.218   7.990   0.343  1.00 20.00     0.015 C 
BRANCH   7   9
HETATM    9  C9  UNL     1     -32.700   9.900   1.068  1.00 20.00     0.004 C 
HETATM   10  C7  UNL     1     -32.682  10.088  -0.444  1.00 20.00     0.006 C 
ENDBRANCH   7   9
ENDBRANCH   6   7
TORSDOF 2
ENDMDL
MODEL 4
REMARK VINA RESULT:      -1.7      1.446      4.616
REMARK  2 active torsions:
REMARK  status: ('A' for Active; 'I' for Inactive)
REMARK    1  A    between atoms: C6_6  and  C10_10 
REMARK    2  A    between atoms: C9_9  and  C10_10 
ROOT
HETATM    1  C1  UNL     1     -34.389   5.796   3.611  1.00 20.00     0.000 A 
HETATM    2  C2  UNL     1     -34.341   7.121   4.046  1.00 20.00     0.001 A 
HETATM    3  C3  UNL     1     -33.638   5.398   2.504  1.00 20.00     0.001 A 
HETATM    4  C4  UNL     1     -33.543   8.047   3.373  1.00 20.00     0.007 A 
HETATM    5  C5  UNL     1     -32.840   6.324   1.832  1.00 20.00     0.007 A 
HETATM    6  C6  UNL     1     -32.793   7.649   2.267  1.00 20.00    -0.054 A 
ENDROOT
BRANCH   6   7
HETATM    7  C10 UNL     1     -31.923   8.657   1.535  1.00 20.00     0.014 C 
HETATM    8  C8  UNL     1     -31.222   7.996   0.343  1.00 20.00     0.015 C 
BRANCH   7   9
HETATM    9  C9  UNL     1     -32.701   9.906   1.074  1.00 20.00     0.004 C 
HETATM   10  C7  UNL     1     -32.682  10.098  -0.438  1.00 20.00     0.006 C 
ENDBRANCH   7   9
ENDBRANCH   6   7
TORSDOF 2
ENDMDL
MODEL 5
REMARK VINA RESULT:      -1.4      0.982      4.435
REMARK  2 active torsions:
REMARK  status: ('A' for Active; 'I' for Inactive)
REMARK    1  A    between atoms: C6_6  and  C10_10 
REMARK    2  A    between atoms: C9_9  and  C10_10 
ROOT
HETATM    1  C1  UNL     1     -35.335   5.119   4.544  1.00 20.00     0.000 A 
HETATM    2  C2  UNL     1     -34.309   4.294   4.080  1.00 20.00     0.001 A 
HETATM    3  C3  UNL     1     -35.340   6.475   4.218  1.00 20.00     0.001 A 
HETATM    4  C4  UNL     1     -33.290   4.828   3.291  1.00 20.00     0.007 A 
HETATM    5  C5  UNL     1     -34.322   7.008   3.429  1.00 20.00     0.007 A 
HETATM    6  C6  UNL     1     -33.296   6.183   2.965  1.00 20.00    -0.054 A 
ENDROOT
BRANCH   6   7
HETATM    7  C10 UNL     1     -32.185   6.764   2.106  1.00 20.00     0.014 C 
HETATM    8  C8  UNL     1     -32.127   6.052   0.750  1.00 20.00     0.015 C 
BRANCH   7   9
HETATM    9  C9  UNL     1     -32.308   8.288   1.906  1.00 20.00     0.004 C 
HETATM   10  C7  UNL     1     -31.953   8.737   0.494  1.00 20.00     0.006 C 
ENDBRANCH   7   9
ENDBRANCH   6   7
TORSDOF 2
ENDMDL
MODEL 6
REMARK VINA RESULT:      -1.4      0.981      4.229
REMARK  2 active torsions:
REMARK  status: ('A' for Active; 'I' for Inactive)
REMARK    1  A    between atoms: C6_6  and  C10_10 
REMARK    2  A    between atoms: C9_9  and  C10_10 
ROOT
HETATM    1  C1  UNL     1     -35.328   5.103   4.531  1.00 20.00     0.000 A 
HETATM    2  C2  UNL     1     -35.350   6.463   4.218  1.00 20.00     0.001 A 
HETATM    3  C3  UNL     1     -34.293   4.296   4.060  1.00 20.00     0.001 A 
HETATM    4  C4  UNL     1     -34.336   7.013   3.435  1.00 20.00     0.007 A 
HETATM    5  C5  UNL     1     -33.279   4.847   3.277  1.00 20.00     0.007 A 
HETATM    6  C6  UNL     1     -33.301   6.207   2.964  1.00 20.00    -0.054 A 
ENDROOT
BRANCH   6   7
HETATM    7  C10 UNL     1     -32.196   6.806   2.110  1.00 20.00     0.014 C 
HETATM    8  C8  UNL     1     -32.134   6.109   0.746  1.00 20.00     0.015 C 
BRANCH   7   9
HETATM    9  C9  UNL     1     -32.331   8.331   1.928  1.00 20.00     0.004 C 
HETATM   10  C7  UNL     1     -31.967   8.800   0.524  1.00 20.00     0.006 C 
ENDBRANCH   7   9
ENDBRANCH   6   7
TORSDOF 2
ENDMDL
MODEL 7
REMARK VINA RESULT:      -0.9      1.140      3.993
REMARK  2 active torsions:
REMARK  status: ('A' for Active; 'I' for Inactive)
REMARK    1  A    between atoms: C6_6  and  C10_10 
REMARK    2  A    between atoms: C9_9  and  C10_10 
ROOT
HETATM    1  C1  UNL     1     -35.294   5.219   4.712  1.00 20.00     0.000 A 
HETATM    2  C2  UNL     1     -34.348   4.317   4.222  1.00 20.00     0.001 A 
HETATM    3  C3  UNL     1     -35.362   6.510   4.189  1.00 20.00     0.001 A 
HETATM    4  C4  UNL     1     -33.471   4.708   3.210  1.00 20.00     0.007 A 
HETATM    5  C5  UNL     1     -34.486   6.900   3.177  1.00 20.00     0.007 A 
HETATM    6  C6  UNL     1     -33.540   5.999   2.687  1.00 20.00    -0.054 A 
ENDROOT
BRANCH   6   7
HETATM    7  C10 UNL     1     -32.586   6.426   1.584  1.00 20.00     0.014 C 
HETATM    8  C8  UNL     1     -32.013   7.816   1.878  1.00 20.00     0.015 C 
BRANCH   7   9
HETATM    9  C9  UNL     1     -31.446   5.415   1.344  1.00 20.00     0.004 C 
HETATM   10  C7  UNL     1     -31.767   4.399   0.254  1.00 20.00     0.006 C 
ENDBRANCH   7   9
ENDBRANCH   6   7
TORSDOF 2
ENDMDL
MODEL 8
REMARK VINA RESULT:      -0.9      1.137      3.770
REMARK  2 active torsions:
REMARK  status: ('A' for Active; 'I' for Inactive)
REMARK    1  A    between atoms: C6_6  and  C10_10 
REMARK    2  A    between atoms: C9_9  and  C10_10 
ROOT
HETATM    1  C1  UNL     1     -35.286   5.201   4.713  1.00 20.00     0.000 A 
HETATM    2  C2  UNL     1     -35.366   6.494   4.194  1.00 20.00     0.001 A 
HETATM    3  C3  UNL     1     -34.333   4.310   4.222  1.00 20.00     0.001 A 
HETATM    4  C4  UNL     1     -34.491   6.894   3.183  1.00 20.00     0.007 A 
HETATM    5  C5  UNL     1     -33.458   4.710   3.212  1.00 20.00     0.007 A 
HETATM    6  C6  UNL     1     -33.537   6.003   2.693  1.00 20.00    -0.054 A 
ENDROOT
BRANCH   6   7
HETATM    7  C10 UNL     1     -32.584   6.437   1.592  1.00 20.00     0.014 C 
HETATM    8  C8  UNL     1     -32.017   7.830   1.891  1.00 20.00     0.015 C 
BRANCH   7   9
HETATM    9  C9  UNL     1     -31.439   5.433   1.351  1.00 20.00     0.004 C 
HETATM   10  C7  UNL     1     -31.758   4.413   0.264  1.00 20.00     0.006 C 
ENDBRANCH   7   9
ENDBRANCH   6   7
TORSDOF 2
ENDMDL
MODEL 9
REMARK VINA RESULT:      -0.4      1.304      1.834
REMARK  2 active torsions:
REMARK  status: ('A' for Active; 'I' for Inactive)
REMARK    1  A    between atoms: C6_6  and  C10_10 
REMARK    2  A    between atoms: C9_9  and  C10_10 
ROOT
HETATM    1  C1  UNL     1     -31.639   6.946   0.602  1.00 20.00     0.000 A 
HETATM    2  C2  UNL     1     -31.722   8.104   1.376  1.00 20.00     0.001 A 
HETATM    3  C3  UNL     1     -32.307   5.789   1.003  1.00 20.00     0.001 A 
HETATM    4  C4  UNL     1     -32.473   8.103   2.552  1.00 20.00     0.007 A 
HETATM    5  C5  UNL     1     -33.058   5.789   2.178  1.00 20.00     0.007 A 
HETATM    6  C6  UNL     1     -33.141   6.947   2.953  1.00 20.00    -0.054 A 
ENDROOT
BRANCH   6   7
HETATM    7  C10 UNL     1     -33.960   6.945   4.233  1.00 20.00     0.014 C 
HETATM    8  C8  UNL     1     -34.033   8.357   4.826  1.00 20.00     0.015 C 
BRANCH   7   9
HETATM    9  C9  UNL     1     -35.377   6.368   4.045  1.00 20.00     0.004 C 
HETATM   10  C7  UNL     1     -35.548   4.986   4.664  1.00 20.00     0.006 C 
ENDBRANCH   7   9
ENDBRANCH   6   7
TORSDOF 2
ENDMDL
