MODEL 1
REMARK VINA RESULT:      -1.8      0.000      0.000
REMARK  5 active torsions:
REMARK  status: ('A' for Active; 'I' for Inactive)
REMARK    1  A    between atoms: C3_3  and  C5_5 
REMARK    2  A    between atoms: C4_4  and  C6_6 
REMARK    3  A    between atoms: C5_5  and  S7_7 
REMARK    4  A    between atoms: C6_6  and  S8_8 
REMARK    5  A    between atoms: S7_7  and  S8_8 
ROOT
HETATM    1  S7  UNL     1     -33.056   6.420   2.247  1.00 20.00    -0.098 SA
ENDROOT
BRANCH   1   2
HETATM    2  C5  UNL     1     -32.221   8.029   2.169  1.00 20.00     0.086 C 
BRANCH   2   3
HETATM    3  C3  UNL     1     -31.889   8.390   0.726  1.00 20.00     0.006 C 
HETATM    4  C1  UNL     1     -32.409   9.776   0.374  1.00 20.00     0.006 C 
ENDBRANCH   2   3
ENDBRANCH   1   2
BRANCH   1   5
HETATM    5  S8  UNL     1     -34.440   6.743   3.730  1.00 20.00    -0.098 SA
BRANCH   5   6
HETATM    6  C6  UNL     1     -34.802   5.055   4.272  1.00 20.00     0.086 C 
BRANCH   6   7
HETATM    7  C4  UNL     1     -33.765   4.083   3.720  1.00 20.00     0.006 C 
HETATM    8  C2  UNL     1     -33.339   3.077   4.780  1.00 20.00     0.006 C 
ENDBRANCH   6   7
ENDBRANCH   5   6
ENDBRANCH   1   5
TORSDOF 5
ENDMDL
MODEL 2
REMARK VINA RESULT:      -1.8      0.101      5.474
REMARK  5 active torsions:
REMARK  status: ('A' for Active; 'I' for Inactive)
REMARK    1  A    between atoms: C3_3  and  C5_5 
REMARK    2  A    between atoms: C4_4  and  C6_6 
REMARK    3  A    between atoms: C5_5  and  S7_7 
REMARK    4  A    between atoms: C6_6  and  S8_8 
REMARK    5  A    between atoms: S7_7  and  S8_8 
ROOT
HETATM    1  S7  UNL     1     -34.521   6.679   3.737  1.00 20.00    -0.098 SA
ENDROOT
BRANCH   1   2
HETATM    2  C5  UNL     1     -34.806   4.993   4.345  1.00 20.00     0.086 C 
BRANCH   2   3
HETATM    3  C3  UNL     1     -33.774   4.033   3.763  1.00 20.00     0.006 C 
HETATM    4  C1  UNL     1     -33.295   3.042   4.812  1.00 20.00     0.006 C 
ENDBRANCH   2   3
ENDBRANCH   1   2
BRANCH   1   5
HETATM    5  S8  UNL     1     -33.059   6.368   2.328  1.00 20.00    -0.098 SA
BRANCH   5   6
HETATM    6  C6  UNL     1     -32.256   7.989   2.265  1.00 20.00     0.086 C 
BRANCH   6   7
HETATM    7  C4  UNL     1     -31.848   8.328   0.837  1.00 20.00     0.006 C 
HETATM    8  C2  UNL     1     -32.338   9.714   0.441  1.00 20.00     0.006 C 
ENDBRANCH   6   7
ENDBRANCH   5   6
ENDBRANCH   1   5
TORSDOF 5
ENDMDL
MODEL 3
REMARK VINA RESULT:      -1.6      0.712      1.058
REMARK  5 active torsions:
REMARK  status: ('A' for Active; 'I' for Inactive)
REMARK    1  A    between atoms: C3_3  and  C5_5 
REMARK    2  A    between atoms: C4_4  and  C6_6 
REMARK    3  A    between atoms: C5_5  and  S7_7 
REMARK    4  A    between atoms: C6_6  and  S8_8 
REMARK    5  A    between atoms: S7_7  and  S8_8 
ROOT
HETATM    1  S7  UNL     1     -33.024   6.861   1.974  1.00 20.00    -0.098 SA
ENDROOT
BRANCH   1   2
HETATM    2  C5  UNL     1     -31.864   8.246   1.801  1.00 20.00     0.086 C 
BRANCH   2   3
HETATM    3  C3  UNL     1     -31.904   8.803   0.382  1.00 20.00     0.006 C 
HETATM    4  C1  UNL     1     -32.584  10.163   0.346  1.00 20.00     0.006 C 
ENDBRANCH   2   3
ENDBRANCH   1   2
BRANCH   1   5
HETATM    5  S8  UNL     1     -33.870   7.258   3.804  1.00 20.00    -0.098 SA
BRANCH   5   6
HETATM    6  C6  UNL     1     -35.337   6.200   3.769  1.00 20.00     0.086 C 
BRANCH   6   7
HETATM    7  C4  UNL     1     -35.132   4.973   4.650  1.00 20.00     0.006 C 
HETATM    8  C2  UNL     1     -34.018   4.089   4.106  1.00 20.00     0.006 C 
ENDBRANCH   6   7
ENDBRANCH   5   6
ENDBRANCH   1   5
TORSDOF 5
ENDMDL
MODEL 4
REMARK VINA RESULT:      -1.5      1.988      5.432
REMARK  5 active torsions:
REMARK  status: ('A' for Active; 'I' for Inactive)
REMARK    1  A    between atoms: C3_3  and  C5_5 
REMARK    2  A    between atoms: C4_4  and  C6_6 
REMARK    3  A    between atoms: C5_5  and  S7_7 
REMARK    4  A    between atoms: C6_6  and  S8_8 
REMARK    5  A    between atoms: S7_7  and  S8_8 
ROOT
HETATM    1  S7  UNL     1     -32.386   6.032   1.384  1.00 20.00    -0.098 SA
ENDROOT
BRANCH   1   2
HETATM    2  C5  UNL     1     -33.486   5.467   2.712  1.00 20.00     0.086 C 
BRANCH   2   3
HETATM    3  C3  UNL     1     -34.107   6.657   3.434  1.00 20.00     0.006 C 
HETATM    4  C1  UNL     1     -35.406   6.264   4.122  1.00 20.00     0.006 C 
ENDBRANCH   2   3
ENDBRANCH   1   2
BRANCH   1   5
HETATM    5  S8  UNL     1     -32.112   8.005   1.886  1.00 20.00    -0.098 SA
BRANCH   5   6
HETATM    6  C6  UNL     1     -31.517   8.704   0.326  1.00 20.00     0.086 C 
BRANCH   6   7
HETATM    7  C4  UNL     1     -32.540   9.677  -0.248  1.00 20.00     0.006 C 
HETATM    8  C2  UNL     1     -32.796  10.831   0.711  1.00 20.00     0.006 C 
ENDBRANCH   6   7
ENDBRANCH   5   6
ENDBRANCH   1   5
TORSDOF 5
ENDMDL
MODEL 5
REMARK VINA RESULT:      -1.4      2.025      2.503
REMARK  5 active torsions:
REMARK  status: ('A' for Active; 'I' for Inactive)
REMARK    1  A    between atoms: C3_3  and  C5_5 
REMARK    2  A    between atoms: C4_4  and  C6_6 
REMARK    3  A    between atoms: C5_5  and  S7_7 
REMARK    4  A    between atoms: C6_6  and  S8_8 
REMARK    5  A    between atoms: S7_7  and  S8_8 
ROOT
HETATM    1  S7  UNL     1     -32.130   8.052   1.823  1.00 20.00    -0.098 SA
ENDROOT
BRANCH   1   2
HETATM    2  C5  UNL     1     -31.563   8.713   0.231  1.00 20.00     0.086 C 
BRANCH   2   3
HETATM    3  C3  UNL     1     -32.529   9.775  -0.281  1.00 20.00     0.006 C 
HETATM    4  C1  UNL     1     -32.802  10.826   0.785  1.00 20.00     0.006 C 
ENDBRANCH   2   3
ENDBRANCH   1   2
BRANCH   1   5
HETATM    5  S8  UNL     1     -32.307   6.049   1.399  1.00 20.00    -0.098 SA
BRANCH   5   6
HETATM    6  C6  UNL     1     -33.455   5.500   2.686  1.00 20.00     0.086 C 
BRANCH   6   7
HETATM    7  C4  UNL     1     -34.054   6.697   3.415  1.00 20.00     0.006 C 
HETATM    8  C2  UNL     1     -35.353   6.319   4.113  1.00 20.00     0.006 C 
ENDBRANCH   6   7
ENDBRANCH   5   6
ENDBRANCH   1   5
TORSDOF 5
ENDMDL
MODEL 6
REMARK VINA RESULT:      -1.3      1.411      5.449
REMARK  5 active torsions:
REMARK  status: ('A' for Active; 'I' for Inactive)
REMARK    1  A    between atoms: C3_3  and  C5_5 
REMARK    2  A    between atoms: C4_4  and  C6_6 
REMARK    3  A    between atoms: C5_5  and  S7_7 
REMARK    4  A    between atoms: C6_6  and  S8_8 
REMARK    5  A    between atoms: S7_7  and  S8_8 
ROOT
HETATM    1  S7  UNL     1     -33.272   5.807   2.200  1.00 20.00    -0.098 SA
ENDROOT
BRANCH   1   2
HETATM    2  C5  UNL     1     -33.955   6.985   3.400  1.00 20.00     0.086 C 
BRANCH   2   3
HETATM    3  C3  UNL     1     -35.186   6.400   4.083  1.00 20.00     0.006 C 
HETATM    4  C1  UNL     1     -34.991   4.922   4.389  1.00 20.00     0.006 C 
ENDBRANCH   2   3
ENDBRANCH   1   2
BRANCH   1   5
HETATM    5  S8  UNL     1     -31.665   6.852   1.463  1.00 20.00    -0.098 SA
BRANCH   5   6
HETATM    6  C6  UNL     1     -32.257   8.560   1.565  1.00 20.00     0.086 C 
BRANCH   6   7
HETATM    7  C4  UNL     1     -32.098   9.261   0.222  1.00 20.00     0.006 C 
HETATM    8  C2  UNL     1     -32.706  10.657   0.257  1.00 20.00     0.006 C 
ENDBRANCH   6   7
ENDBRANCH   5   6
ENDBRANCH   1   5
TORSDOF 5
ENDMDL
MODEL 7
REMARK VINA RESULT:      -1.2      1.693      1.996
REMARK  5 active torsions:
REMARK  status: ('A' for Active; 'I' for Inactive)
REMARK    1  A    between atoms: C3_3  and  C5_5 
REMARK    2  A    between atoms: C4_4  and  C6_6 
REMARK    3  A    between atoms: C5_5  and  S7_7 
REMARK    4  A    between atoms: C6_6  and  S8_8 
REMARK    5  A    between atoms: S7_7  and  S8_8 
ROOT
HETATM    1  S7  UNL     1     -33.841   7.653   4.113  1.00 20.00    -0.098 SA
ENDROOT
BRANCH   1   2
HETATM    2  C5  UNL     1     -32.723   7.597   2.685  1.00 20.00     0.086 C 
BRANCH   2   3
HETATM    3  C3  UNL     1     -33.162   6.516   1.704  1.00 20.00     0.006 C 
HETATM    4  C1  UNL     1     -31.990   5.633   1.300  1.00 20.00     0.006 C 
ENDBRANCH   2   3
ENDBRANCH   1   2
BRANCH   1   5
HETATM    5  S8  UNL     1     -35.240   6.240   3.598  1.00 20.00    -0.098 SA
BRANCH   5   6
HETATM    6  C6  UNL     1     -34.778   4.856   4.668  1.00 20.00     0.086 C 
BRANCH   6   7
HETATM    7  C4  UNL     1     -33.855   3.894   3.929  1.00 20.00     0.006 C 
HETATM    8  C2  UNL     1     -33.188   2.925   4.895  1.00 20.00     0.006 C 
ENDBRANCH   6   7
ENDBRANCH   5   6
ENDBRANCH   1   5
TORSDOF 5
ENDMDL
MODEL 8
REMARK VINA RESULT:      -1.1      1.645      4.702
REMARK  5 active torsions:
REMARK  status: ('A' for Active; 'I' for Inactive)
REMARK    1  A    between atoms: C3_3  and  C5_5 
REMARK    2  A    between atoms: C4_4  and  C6_6 
REMARK    3  A    between atoms: C5_5  and  S7_7 
REMARK    4  A    between atoms: C6_6  and  S8_8 
REMARK    5  A    between atoms: S7_7  and  S8_8 
ROOT
HETATM    1  S7  UNL     1     -35.255   6.291   3.658  1.00 20.00    -0.098 SA
ENDROOT
BRANCH   1   2
HETATM    2  C5  UNL     1     -34.856   4.834   4.665  1.00 20.00     0.086 C 
BRANCH   2   3
HETATM    3  C3  UNL     1     -33.870   3.932   3.932  1.00 20.00     0.006 C 
HETATM    4  C1  UNL     1     -33.183   2.975   4.896  1.00 20.00     0.006 C 
ENDBRANCH   2   3
ENDBRANCH   1   2
BRANCH   1   5
HETATM    5  S8  UNL     1     -33.704   7.554   4.126  1.00 20.00    -0.098 SA
BRANCH   5   6
HETATM    6  C6  UNL     1     -32.780   7.596   2.570  1.00 20.00     0.086 C 
BRANCH   6   7
HETATM    7  C4  UNL     1     -33.183   6.427   1.679  1.00 20.00     0.006 C 
HETATM    8  C2  UNL     1     -31.969   5.598   1.282  1.00 20.00     0.006 C 
ENDBRANCH   6   7
ENDBRANCH   5   6
ENDBRANCH   1   5
TORSDOF 5
ENDMDL
MODEL 9
REMARK VINA RESULT:      -0.4      1.925      2.505
REMARK  5 active torsions:
REMARK  status: ('A' for Active; 'I' for Inactive)
REMARK    1  A    between atoms: C3_3  and  C5_5 
REMARK    2  A    between atoms: C4_4  and  C6_6 
REMARK    3  A    between atoms: C5_5  and  S7_7 
REMARK    4  A    between atoms: C6_6  and  S8_8 
REMARK    5  A    between atoms: S7_7  and  S8_8 
ROOT
HETATM    1  S7  UNL     1     -32.562   8.016   2.750  1.00 20.00    -0.098 SA
ENDROOT
BRANCH   1   2
HETATM    2  C5  UNL     1     -32.979   6.685   1.589  1.00 20.00     0.086 C 
BRANCH   2   3
HETATM    3  C3  UNL     1     -31.853   5.660   1.525  1.00 20.00     0.006 C 
HETATM    4  C1  UNL     1     -32.138   4.598   0.474  1.00 20.00     0.006 C 
ENDBRANCH   2   3
ENDBRANCH   1   2
BRANCH   1   5
HETATM    5  S8  UNL     1     -33.869   7.644   4.291  1.00 20.00    -0.098 SA
BRANCH   5   6
HETATM    6  C6  UNL     1     -34.965   6.406   3.554  1.00 20.00     0.086 C 
BRANCH   6   7
HETATM    7  C4  UNL     1     -35.105   5.201   4.476  1.00 20.00     0.006 C 
HETATM    8  C2  UNL     1     -34.029   4.163   4.188  1.00 20.00     0.006 C 
ENDBRANCH   6   7
ENDBRANCH   5   6
ENDBRANCH   1   5
TORSDOF 5
ENDMDL
