MODEL 1
REMARK VINA RESULT:      -2.9      0.000      0.000
REMARK  0 active torsions:
REMARK  status: ('A' for Active; 'I' for Inactive)
ROOT
HETATM    1  C1  UNL     1     -31.993   7.412   1.781  1.00 20.00     0.000 A 
HETATM    2  C2  UNL     1     -32.506   8.217   2.798  1.00 20.00     0.001 A 
HETATM    3  C3  UNL     1     -32.541   6.151   1.546  1.00 20.00     0.001 A 
HETATM    4  C4  UNL     1     -33.565   7.760   3.582  1.00 20.00     0.007 A 
HETATM    5  C5  UNL     1     -33.600   5.694   2.330  1.00 20.00     0.007 A 
HETATM    6  C6  UNL     1     -34.113   6.498   3.348  1.00 20.00    -0.062 A 
HETATM    7  C7  UNL     1     -35.246   6.009   4.185  1.00 20.00     0.048 C 
ENDROOT
TORSDOF 0
ENDMDL
MODEL 2
REMARK VINA RESULT:      -2.9      0.079      1.828
REMARK  0 active torsions:
REMARK  status: ('A' for Active; 'I' for Inactive)
ROOT
HETATM    1  C1  UNL     1     -31.994   7.507   1.849  1.00 20.00     0.000 A 
HETATM    2  C2  UNL     1     -32.513   6.240   1.579  1.00 20.00     0.001 A 
HETATM    3  C3  UNL     1     -32.539   8.280   2.875  1.00 20.00     0.001 A 
HETATM    4  C4  UNL     1     -33.577   5.747   2.335  1.00 20.00     0.007 A 
HETATM    5  C5  UNL     1     -33.603   7.787   3.629  1.00 20.00     0.007 A 
HETATM    6  C6  UNL     1     -34.122   6.520   3.361  1.00 20.00    -0.062 A 
HETATM    7  C7  UNL     1     -35.260   5.994   4.168  1.00 20.00     0.048 C 
ENDROOT
TORSDOF 0
ENDMDL
MODEL 3
REMARK VINA RESULT:      -2.4      0.791      2.715
REMARK  0 active torsions:
REMARK  status: ('A' for Active; 'I' for Inactive)
ROOT
HETATM    1  C1  UNL     1     -34.580   5.928   3.867  1.00 20.00     0.000 A 
HETATM    2  C2  UNL     1     -34.356   7.275   4.153  1.00 20.00     0.001 A 
HETATM    3  C3  UNL     1     -33.892   5.313   2.821  1.00 20.00     0.001 A 
HETATM    4  C4  UNL     1     -33.444   8.007   3.393  1.00 20.00     0.007 A 
HETATM    5  C5  UNL     1     -32.981   6.046   2.060  1.00 20.00     0.007 A 
HETATM    6  C6  UNL     1     -32.756   7.393   2.346  1.00 20.00    -0.062 A 
HETATM    7  C7  UNL     1     -31.781   8.175   1.533  1.00 20.00     0.048 C 
ENDROOT
TORSDOF 0
ENDMDL
MODEL 4
REMARK VINA RESULT:      -2.4      0.739      3.259
REMARK  0 active torsions:
REMARK  status: ('A' for Active; 'I' for Inactive)
ROOT
HETATM    1  C1  UNL     1     -34.485   5.965   3.718  1.00 20.00     0.000 A 
HETATM    2  C2  UNL     1     -33.803   5.393   2.644  1.00 20.00     0.001 A 
HETATM    3  C3  UNL     1     -34.255   7.297   4.061  1.00 20.00     0.001 A 
HETATM    4  C4  UNL     1     -32.891   6.153   1.913  1.00 20.00     0.007 A 
HETATM    5  C5  UNL     1     -33.342   8.057   3.330  1.00 20.00     0.007 A 
HETATM    6  C6  UNL     1     -32.659   7.486   2.256  1.00 20.00    -0.062 A 
HETATM    7  C7  UNL     1     -31.684   8.299   1.475  1.00 20.00     0.048 C 
ENDROOT
TORSDOF 0
ENDMDL
MODEL 5
REMARK VINA RESULT:      -2.2      0.588      2.533
REMARK  0 active torsions:
REMARK  status: ('A' for Active; 'I' for Inactive)
ROOT
HETATM    1  C1  UNL     1     -33.713   7.829   3.783  1.00 20.00     0.000 A 
HETATM    2  C2  UNL     1     -32.679   8.205   2.926  1.00 20.00     0.001 A 
HETATM    3  C3  UNL     1     -34.285   6.562   3.673  1.00 20.00     0.001 A 
HETATM    4  C4  UNL     1     -32.218   7.313   1.957  1.00 20.00     0.007 A 
HETATM    5  C5  UNL     1     -33.824   5.671   2.705  1.00 20.00     0.007 A 
HETATM    6  C6  UNL     1     -32.790   6.045   1.846  1.00 20.00    -0.062 A 
HETATM    7  C7  UNL     1     -32.297   5.092   0.811  1.00 20.00     0.048 C 
ENDROOT
TORSDOF 0
ENDMDL
MODEL 6
REMARK VINA RESULT:      -1.8      1.714      2.855
REMARK  0 active torsions:
REMARK  status: ('A' for Active; 'I' for Inactive)
ROOT
HETATM    1  C1  UNL     1     -34.634   6.915   3.315  1.00 20.00     0.000 A 
HETATM    2  C2  UNL     1     -35.407   6.184   4.218  1.00 20.00     0.001 A 
HETATM    3  C3  UNL     1     -33.479   6.354   2.771  1.00 20.00     0.001 A 
HETATM    4  C4  UNL     1     -35.023   4.892   4.578  1.00 20.00     0.007 A 
HETATM    5  C5  UNL     1     -33.095   5.062   3.132  1.00 20.00     0.007 A 
HETATM    6  C6  UNL     1     -33.866   4.331   4.035  1.00 20.00    -0.062 A 
HETATM    7  C7  UNL     1     -33.456   2.950   4.420  1.00 20.00     0.048 C 
ENDROOT
TORSDOF 0
ENDMDL
MODEL 7
REMARK VINA RESULT:      -1.8      1.711      2.981
REMARK  0 active torsions:
REMARK  status: ('A' for Active; 'I' for Inactive)
ROOT
HETATM    1  C1  UNL     1     -34.603   6.919   3.297  1.00 20.00     0.000 A 
HETATM    2  C2  UNL     1     -33.456   6.341   2.751  1.00 20.00     0.001 A 
HETATM    3  C3  UNL     1     -35.378   6.204   4.209  1.00 20.00     0.001 A 
HETATM    4  C4  UNL     1     -33.087   5.046   3.117  1.00 20.00     0.007 A 
HETATM    5  C5  UNL     1     -35.009   4.910   4.574  1.00 20.00     0.007 A 
HETATM    6  C6  UNL     1     -33.863   4.330   4.029  1.00 20.00    -0.062 A 
HETATM    7  C7  UNL     1     -33.469   2.947   4.420  1.00 20.00     0.048 C 
ENDROOT
TORSDOF 0
ENDMDL
MODEL 8
REMARK VINA RESULT:      -0.8      1.071      2.836
REMARK  0 active torsions:
REMARK  status: ('A' for Active; 'I' for Inactive)
ROOT
HETATM    1  C1  UNL     1     -33.046   5.536   2.714  1.00 20.00     0.000 A 
HETATM    2  C2  UNL     1     -33.415   6.737   3.320  1.00 20.00     0.001 A 
HETATM    3  C3  UNL     1     -32.349   5.548   1.505  1.00 20.00     0.001 A 
HETATM    4  C4  UNL     1     -33.088   7.951   2.715  1.00 20.00     0.007 A 
HETATM    5  C5  UNL     1     -32.023   6.762   0.901  1.00 20.00     0.007 A 
HETATM    6  C6  UNL     1     -32.392   7.965   1.506  1.00 20.00    -0.062 A 
HETATM    7  C7  UNL     1     -32.042   9.262   0.860  1.00 20.00     0.048 C 
ENDROOT
TORSDOF 0
ENDMDL
MODEL 9
REMARK VINA RESULT:      -0.2      1.314      3.108
REMARK  0 active torsions:
REMARK  status: ('A' for Active; 'I' for Inactive)
ROOT
HETATM    1  C1  UNL     1     -34.140   4.097   3.898  1.00 20.00     0.000 A 
HETATM    2  C2  UNL     1     -33.206   4.724   3.073  1.00 20.00     0.001 A 
HETATM    3  C3  UNL     1     -35.118   4.853   4.546  1.00 20.00     0.001 A 
HETATM    4  C4  UNL     1     -33.249   6.107   2.897  1.00 20.00     0.007 A 
HETATM    5  C5  UNL     1     -35.160   6.235   4.370  1.00 20.00     0.007 A 
HETATM    6  C6  UNL     1     -34.226   6.864   3.546  1.00 20.00    -0.062 A 
HETATM    7  C7  UNL     1     -34.272   8.342   3.358  1.00 20.00     0.048 C 
ENDROOT
TORSDOF 0
ENDMDL
