MODEL 1
REMARK VINA RESULT:      -1.4      0.000      0.000
REMARK  0 active torsions:
REMARK  status: ('A' for Active; 'I' for Inactive)
ROOT
HETATM    1  C1  UNL     1     -32.490   5.546   1.533  1.00 20.00     0.021 C 
HETATM    2  C2  UNL     1     -31.925   7.975   1.875  1.00 20.00     0.021 C 
HETATM    3  C3  UNL     1     -33.047   6.944   1.789  1.00 20.00     0.045 C 
HETATM    4  I4  UNL     1     -34.181   6.949   3.626  1.00 20.00    -0.086 I 
ENDROOT
TORSDOF 0
ENDMDL
MODEL 2
REMARK VINA RESULT:      -1.2      0.487      1.845
REMARK  0 active torsions:
REMARK  status: ('A' for Active; 'I' for Inactive)
ROOT
HETATM    1  C1  UNL     1     -32.157   8.175   1.631  1.00 20.00     0.021 C 
HETATM    2  C2  UNL     1     -32.752   5.758   1.260  1.00 20.00     0.021 C 
HETATM    3  C3  UNL     1     -32.483   6.842   2.299  1.00 20.00     0.045 C 
HETATM    4  I4  UNL     1     -34.210   7.071   3.574  1.00 20.00    -0.086 I 
ENDROOT
TORSDOF 0
ENDMDL
MODEL 3
REMARK VINA RESULT:      -1.0      2.682      3.321
REMARK  0 active torsions:
REMARK  status: ('A' for Active; 'I' for Inactive)
ROOT
HETATM    1  C1  UNL     1     -33.495   7.936   4.723  1.00 20.00     0.021 C 
HETATM    2  C2  UNL     1     -35.150   6.171   4.024  1.00 20.00     0.021 C 
HETATM    3  C3  UNL     1     -34.242   7.304   3.552  1.00 20.00     0.045 C 
HETATM    4  I4  UNL     1     -32.825   6.547   2.110  1.00 20.00    -0.086 I 
ENDROOT
TORSDOF 0
ENDMDL
MODEL 4
REMARK VINA RESULT:      -0.8      2.625      2.858
REMARK  0 active torsions:
REMARK  status: ('A' for Active; 'I' for Inactive)
ROOT
HETATM    1  C1  UNL     1     -35.417   6.141   3.793  1.00 20.00     0.021 C 
HETATM    2  C2  UNL     1     -33.787   8.028   4.141  1.00 20.00     0.021 C 
HETATM    3  C3  UNL     1     -33.946   6.545   3.816  1.00 20.00     0.045 C 
HETATM    4  I4  UNL     1     -33.046   6.120   1.901  1.00 20.00    -0.086 I 
ENDROOT
TORSDOF 0
ENDMDL
MODEL 5
REMARK VINA RESULT:      -0.7      1.894      2.425
REMARK  0 active torsions:
REMARK  status: ('A' for Active; 'I' for Inactive)
ROOT
HETATM    1  C1  UNL     1     -33.806   6.390   3.230  1.00 20.00     0.021 C 
HETATM    2  C2  UNL     1     -32.412   5.278   1.452  1.00 20.00     0.021 C 
HETATM    3  C3  UNL     1     -33.208   6.524   1.832  1.00 20.00     0.045 C 
HETATM    4  I4  UNL     1     -31.925   8.258   1.754  1.00 20.00    -0.086 I 
ENDROOT
TORSDOF 0
ENDMDL
MODEL 6
REMARK VINA RESULT:      -0.6      2.383      2.470
REMARK  0 active torsions:
REMARK  status: ('A' for Active; 'I' for Inactive)
ROOT
HETATM    1  C1  UNL     1     -32.314   6.416   1.289  1.00 20.00     0.021 C 
HETATM    2  C2  UNL     1     -32.944   8.014   3.129  1.00 20.00     0.021 C 
HETATM    3  C3  UNL     1     -32.025   7.767   1.936  1.00 20.00     0.045 C 
HETATM    4  I4  UNL     1     -32.286   9.340   0.480  1.00 20.00    -0.086 I 
ENDROOT
TORSDOF 0
ENDMDL
MODEL 7
REMARK VINA RESULT:      -0.5      1.939      2.218
REMARK  0 active torsions:
REMARK  status: ('A' for Active; 'I' for Inactive)
ROOT
HETATM    1  C1  UNL     1     -33.130   5.506   1.475  1.00 20.00     0.021 C 
HETATM    2  C2  UNL     1     -34.121   6.863   3.350  1.00 20.00     0.021 C 
HETATM    3  C3  UNL     1     -32.851   6.528   2.574  1.00 20.00     0.045 C 
HETATM    4  I4  UNL     1     -32.035   8.327   1.703  1.00 20.00    -0.086 I 
ENDROOT
TORSDOF 0
ENDMDL
MODEL 8
REMARK VINA RESULT:      -0.5      2.043      2.298
REMARK  0 active torsions:
REMARK  status: ('A' for Active; 'I' for Inactive)
ROOT
HETATM    1  C1  UNL     1     -33.432   7.704   3.262  1.00 20.00     0.021 C 
HETATM    2  C2  UNL     1     -32.254   8.708   1.276  1.00 20.00     0.021 C 
HETATM    3  C3  UNL     1     -32.274   7.557   2.279  1.00 20.00     0.045 C 
HETATM    4  I4  UNL     1     -32.446   5.680   1.228  1.00 20.00    -0.086 I 
ENDROOT
TORSDOF 0
ENDMDL
MODEL 9
REMARK VINA RESULT:      -0.4      2.064      2.289
REMARK  0 active torsions:
REMARK  status: ('A' for Active; 'I' for Inactive)
ROOT
HETATM    1  C1  UNL     1     -32.983   6.319   2.065  1.00 20.00     0.021 C 
HETATM    2  C2  UNL     1     -34.067   7.420   4.053  1.00 20.00     0.021 C 
HETATM    3  C3  UNL     1     -34.122   6.246   3.079  1.00 20.00     0.045 C 
HETATM    4  I4  UNL     1     -34.003   4.388   4.171  1.00 20.00    -0.086 I 
ENDROOT
TORSDOF 0
ENDMDL
