MODEL 1
REMARK VINA RESULT:      -2.8      0.000      0.000
REMARK  1 active torsions:
REMARK  status: ('A' for Active; 'I' for Inactive)
REMARK    1  A    between atoms: C6_6  and  N8_8 
ROOT
HETATM    1  N7  UNL     1     -32.560   9.986   0.098  1.00 20.00     0.068 N 
HETATM    2  N8  UNL     1     -31.592   8.240   1.414  1.00 20.00    -0.073 NA
HETATM    3  N9  UNL     1     -32.101   9.152   0.727  1.00 20.00    -0.162 NA
ENDROOT
BRANCH   2   4
HETATM    4  C6  UNL     1     -32.535   7.532   2.163  1.00 20.00     0.093 A 
HETATM    5  C4  UNL     1     -33.170   8.145   3.245  1.00 20.00     0.034 A 
HETATM    6  C2  UNL     1     -34.111   7.438   3.993  1.00 20.00     0.002 A 
HETATM    7  C1  UNL     1     -34.420   6.119   3.660  1.00 20.00     0.000 A 
HETATM    8  C3  UNL     1     -33.787   5.507   2.578  1.00 20.00     0.002 A 
HETATM    9  C5  UNL     1     -32.844   6.213   1.831  1.00 20.00     0.034 A 
ENDBRANCH   2   4
TORSDOF 1
ENDMDL
MODEL 2
REMARK VINA RESULT:      -2.8      0.005      1.611
REMARK  1 active torsions:
REMARK  status: ('A' for Active; 'I' for Inactive)
REMARK    1  A    between atoms: C6_6  and  N8_8 
ROOT
HETATM    1  N7  UNL     1     -32.559   9.988   0.103  1.00 20.00     0.068 N 
HETATM    2  N8  UNL     1     -31.594   8.237   1.416  1.00 20.00    -0.073 NA
HETATM    3  N9  UNL     1     -32.101   9.152   0.730  1.00 20.00    -0.162 NA
ENDROOT
BRANCH   2   4
HETATM    4  C6  UNL     1     -32.538   7.532   2.166  1.00 20.00     0.093 A 
HETATM    5  C4  UNL     1     -32.849   6.213   1.834  1.00 20.00     0.034 A 
HETATM    6  C2  UNL     1     -33.792   5.509   2.583  1.00 20.00     0.002 A 
HETATM    7  C1  UNL     1     -34.423   6.123   3.665  1.00 20.00     0.000 A 
HETATM    8  C3  UNL     1     -34.112   7.441   3.998  1.00 20.00     0.002 A 
HETATM    9  C5  UNL     1     -33.170   8.146   3.248  1.00 20.00     0.034 A 
ENDBRANCH   2   4
TORSDOF 1
ENDMDL
MODEL 3
REMARK VINA RESULT:      -2.7      3.637      4.654
REMARK  1 active torsions:
REMARK  status: ('A' for Active; 'I' for Inactive)
REMARK    1  A    between atoms: C6_6  and  N8_8 
ROOT
HETATM    1  N7  UNL     1     -33.187   2.873   4.780  1.00 20.00     0.068 N 
HETATM    2  N8  UNL     1     -34.686   4.581   4.034  1.00 20.00    -0.073 NA
HETATM    3  N9  UNL     1     -33.900   3.690   4.423  1.00 20.00    -0.162 NA
ENDROOT
BRANCH   2   4
HETATM    4  C6  UNL     1     -34.030   5.663   3.441  1.00 20.00     0.093 A 
HETATM    5  C4  UNL     1     -33.240   5.464   2.308  1.00 20.00     0.034 A 
HETATM    6  C2  UNL     1     -32.585   6.545   1.716  1.00 20.00     0.002 A 
HETATM    7  C1  UNL     1     -32.721   7.824   2.256  1.00 20.00     0.000 A 
HETATM    8  C3  UNL     1     -33.511   8.023   3.388  1.00 20.00     0.002 A 
HETATM    9  C5  UNL     1     -34.165   6.942   3.981  1.00 20.00     0.034 A 
ENDBRANCH   2   4
TORSDOF 1
ENDMDL
MODEL 4
REMARK VINA RESULT:      -2.6      3.635      4.381
REMARK  1 active torsions:
REMARK  status: ('A' for Active; 'I' for Inactive)
REMARK    1  A    between atoms: C6_6  and  N8_8 
ROOT
HETATM    1  N7  UNL     1     -33.188   2.876   4.779  1.00 20.00     0.068 N 
HETATM    2  N8  UNL     1     -34.685   4.583   4.030  1.00 20.00    -0.073 NA
HETATM    3  N9  UNL     1     -33.900   3.692   4.421  1.00 20.00    -0.162 NA
ENDROOT
BRANCH   2   4
HETATM    4  C6  UNL     1     -34.029   5.665   3.436  1.00 20.00     0.093 A 
HETATM    5  C4  UNL     1     -34.166   6.945   3.974  1.00 20.00     0.034 A 
HETATM    6  C2  UNL     1     -33.511   8.024   3.380  1.00 20.00     0.002 A 
HETATM    7  C1  UNL     1     -32.719   7.824   2.250  1.00 20.00     0.000 A 
HETATM    8  C3  UNL     1     -32.582   6.544   1.712  1.00 20.00     0.002 A 
HETATM    9  C5  UNL     1     -33.238   5.465   2.305  1.00 20.00     0.034 A 
ENDBRANCH   2   4
TORSDOF 1
ENDMDL
MODEL 5
REMARK VINA RESULT:      -1.6      0.895      1.941
REMARK  1 active torsions:
REMARK  status: ('A' for Active; 'I' for Inactive)
REMARK    1  A    between atoms: C6_6  and  N8_8 
ROOT
HETATM    1  N7  UNL     1     -32.198   9.206   0.964  1.00 20.00     0.068 N 
HETATM    2  N8  UNL     1     -32.060   6.914   1.632  1.00 20.00    -0.073 NA
HETATM    3  N9  UNL     1     -32.134   8.112   1.284  1.00 20.00    -0.162 NA
ENDROOT
BRANCH   2   4
HETATM    4  C6  UNL     1     -33.060   6.546   2.536  1.00 20.00     0.093 A 
HETATM    5  C4  UNL     1     -33.364   5.198   2.729  1.00 20.00     0.034 A 
HETATM    6  C2  UNL     1     -34.363   4.831   3.632  1.00 20.00     0.002 A 
HETATM    7  C1  UNL     1     -35.056   5.811   4.342  1.00 20.00     0.000 A 
HETATM    8  C3  UNL     1     -34.751   7.159   4.150  1.00 20.00     0.002 A 
HETATM    9  C5  UNL     1     -33.753   7.526   3.246  1.00 20.00     0.034 A 
ENDBRANCH   2   4
TORSDOF 1
ENDMDL
MODEL 6
REMARK VINA RESULT:      -1.5      3.031      4.089
REMARK  1 active torsions:
REMARK  status: ('A' for Active; 'I' for Inactive)
REMARK    1  A    between atoms: C6_6  and  N8_8 
ROOT
HETATM    1  N7  UNL     1     -35.655   5.226   4.523  1.00 20.00     0.068 N 
HETATM    2  N8  UNL     1     -34.469   7.259   4.103  1.00 20.00    -0.073 NA
HETATM    3  N9  UNL     1     -35.088   6.195   4.320  1.00 20.00    -0.162 NA
ENDROOT
BRANCH   2   4
HETATM    4  C6  UNL     1     -33.526   7.140   3.079  1.00 20.00     0.093 A 
HETATM    5  C4  UNL     1     -33.404   5.940   2.378  1.00 20.00     0.034 A 
HETATM    6  C2  UNL     1     -32.461   5.821   1.357  1.00 20.00     0.002 A 
HETATM    7  C1  UNL     1     -31.642   6.903   1.034  1.00 20.00     0.000 A 
HETATM    8  C3  UNL     1     -31.764   8.103   1.733  1.00 20.00     0.002 A 
HETATM    9  C5  UNL     1     -32.706   8.221   2.756  1.00 20.00     0.034 A 
ENDBRANCH   2   4
TORSDOF 1
ENDMDL
MODEL 7
REMARK VINA RESULT:      -0.5      2.071      3.077
REMARK  1 active torsions:
REMARK  status: ('A' for Active; 'I' for Inactive)
REMARK    1  A    between atoms: C6_6  and  N8_8 
ROOT
HETATM    1  N7  UNL     1     -31.696   4.689   0.434  1.00 20.00     0.068 N 
HETATM    2  N8  UNL     1     -32.483   6.449   1.850  1.00 20.00    -0.073 NA
HETATM    3  N9  UNL     1     -32.074   5.527   1.111  1.00 20.00    -0.162 NA
ENDROOT
BRANCH   2   4
HETATM    4  C6  UNL     1     -33.426   6.017   2.787  1.00 20.00     0.093 A 
HETATM    5  C4  UNL     1     -33.369   4.714   3.283  1.00 20.00     0.034 A 
HETATM    6  C2  UNL     1     -34.311   4.283   4.218  1.00 20.00     0.002 A 
HETATM    7  C1  UNL     1     -35.307   5.155   4.658  1.00 20.00     0.000 A 
HETATM    8  C3  UNL     1     -35.363   6.457   4.163  1.00 20.00     0.002 A 
HETATM    9  C5  UNL     1     -34.422   6.888   3.227  1.00 20.00     0.034 A 
ENDBRANCH   2   4
TORSDOF 1
ENDMDL
MODEL 8
REMARK VINA RESULT:      -0.2      2.302      3.103
REMARK  1 active torsions:
REMARK  status: ('A' for Active; 'I' for Inactive)
REMARK    1  A    between atoms: C6_6  and  N8_8 
ROOT
HETATM    1  N7  UNL     1     -33.743   4.256  -0.352  1.00 20.00     0.068 N 
HETATM    2  N8  UNL     1     -32.204   5.376   1.096  1.00 20.00    -0.073 NA
HETATM    3  N9  UNL     1     -33.011   4.792   0.340  1.00 20.00    -0.162 NA
ENDROOT
BRANCH   2   4
HETATM    4  C6  UNL     1     -32.837   6.146   2.076  1.00 20.00     0.093 A 
HETATM    5  C4  UNL     1     -33.872   5.596   2.834  1.00 20.00     0.034 A 
HETATM    6  C2  UNL     1     -34.504   6.365   3.812  1.00 20.00     0.002 A 
HETATM    7  C1  UNL     1     -34.100   7.681   4.034  1.00 20.00     0.000 A 
HETATM    8  C3  UNL     1     -33.066   8.231   3.277  1.00 20.00     0.002 A 
HETATM    9  C5  UNL     1     -32.435   7.463   2.298  1.00 20.00     0.034 A 
ENDBRANCH   2   4
TORSDOF 1
ENDMDL
MODEL 9
REMARK VINA RESULT:      -0.2      2.293      2.923
REMARK  1 active torsions:
REMARK  status: ('A' for Active; 'I' for Inactive)
REMARK    1  A    between atoms: C6_6  and  N8_8 
ROOT
HETATM    1  N7  UNL     1     -33.668   4.230  -0.335  1.00 20.00     0.068 N 
HETATM    2  N8  UNL     1     -32.176   5.379   1.139  1.00 20.00    -0.073 NA
HETATM    3  N9  UNL     1     -32.958   4.780   0.370  1.00 20.00    -0.162 NA
ENDROOT
BRANCH   2   4
HETATM    4  C6  UNL     1     -32.839   6.138   2.107  1.00 20.00     0.093 A 
HETATM    5  C4  UNL     1     -32.477   7.469   2.318  1.00 20.00     0.034 A 
HETATM    6  C2  UNL     1     -33.139   8.227   3.285  1.00 20.00     0.002 A 
HETATM    7  C1  UNL     1     -34.164   7.655   4.038  1.00 20.00     0.000 A 
HETATM    8  C3  UNL     1     -34.527   6.325   3.826  1.00 20.00     0.002 A 
HETATM    9  C5  UNL     1     -33.864   5.567   2.861  1.00 20.00     0.034 A 
ENDBRANCH   2   4
TORSDOF 1
ENDMDL
