MODEL 1
REMARK VINA RESULT:      -2.6      0.000      0.000
REMARK  0 active torsions:
REMARK  status: ('A' for Active; 'I' for Inactive)
ROOT
HETATM    1  C1  UNL     1     -34.675   5.979   3.937  1.00 20.00     0.001 A 
HETATM    2  C2  UNL     1     -34.447   7.328   4.208  1.00 20.00     0.001 A 
HETATM    3  C3  UNL     1     -33.963   5.341   2.922  1.00 20.00     0.007 A 
HETATM    4  C4  UNL     1     -33.507   8.040   3.462  1.00 20.00     0.007 A 
HETATM    5  C5  UNL     1     -33.023   6.052   2.176  1.00 20.00    -0.056 A 
HETATM    6  C6  UNL     1     -32.795   7.402   2.447  1.00 20.00    -0.056 A 
HETATM    7  C7  UNL     1     -32.272   5.349   1.095  1.00 20.00     0.049 C 
HETATM    8  C8  UNL     1     -31.794   8.184   1.661  1.00 20.00     0.049 C 
ENDROOT
TORSDOF 0
ENDMDL
MODEL 2
REMARK VINA RESULT:      -2.6      0.022      2.251
REMARK  0 active torsions:
REMARK  status: ('A' for Active; 'I' for Inactive)
ROOT
HETATM    1  C1  UNL     1     -34.466   7.342   4.205  1.00 20.00     0.001 A 
HETATM    2  C2  UNL     1     -34.690   5.990   3.948  1.00 20.00     0.001 A 
HETATM    3  C3  UNL     1     -33.527   8.049   3.453  1.00 20.00     0.007 A 
HETATM    4  C4  UNL     1     -33.973   5.343   2.940  1.00 20.00     0.007 A 
HETATM    5  C5  UNL     1     -32.811   7.403   2.446  1.00 20.00    -0.056 A 
HETATM    6  C6  UNL     1     -33.034   6.050   2.190  1.00 20.00    -0.056 A 
HETATM    7  C7  UNL     1     -31.812   8.180   1.654  1.00 20.00     0.049 C 
HETATM    8  C8  UNL     1     -32.279   5.336   1.116  1.00 20.00     0.049 C 
ENDROOT
TORSDOF 0
ENDMDL
MODEL 3
REMARK VINA RESULT:      -2.5      0.853      3.547
REMARK  0 active torsions:
REMARK  status: ('A' for Active; 'I' for Inactive)
ROOT
HETATM    1  C1  UNL     1     -31.994   7.327   1.677  1.00 20.00     0.001 A 
HETATM    2  C2  UNL     1     -32.562   6.094   1.358  1.00 20.00     0.001 A 
HETATM    3  C3  UNL     1     -32.424   8.022   2.808  1.00 20.00     0.007 A 
HETATM    4  C4  UNL     1     -33.564   5.557   2.168  1.00 20.00     0.007 A 
HETATM    5  C5  UNL     1     -33.425   7.485   3.618  1.00 20.00    -0.056 A 
HETATM    6  C6  UNL     1     -33.994   6.252   3.298  1.00 20.00    -0.056 A 
HETATM    7  C7  UNL     1     -33.869   8.246   4.823  1.00 20.00     0.049 C 
HETATM    8  C8  UNL     1     -35.068   5.657   4.149  1.00 20.00     0.049 C 
ENDROOT
TORSDOF 0
ENDMDL
MODEL 4
REMARK VINA RESULT:      -2.4      0.875      2.771
REMARK  0 active torsions:
REMARK  status: ('A' for Active; 'I' for Inactive)
ROOT
HETATM    1  C1  UNL     1     -32.604   6.031   1.314  1.00 20.00     0.001 A 
HETATM    2  C2  UNL     1     -31.957   7.233   1.597  1.00 20.00     0.001 A 
HETATM    3  C3  UNL     1     -33.625   5.574   2.148  1.00 20.00     0.007 A 
HETATM    4  C4  UNL     1     -32.330   7.979   2.716  1.00 20.00     0.007 A 
HETATM    5  C5  UNL     1     -33.998   6.320   3.266  1.00 20.00    -0.056 A 
HETATM    6  C6  UNL     1     -33.350   7.522   3.550  1.00 20.00    -0.056 A 
HETATM    7  C7  UNL     1     -35.094   5.812   4.144  1.00 20.00     0.049 C 
HETATM    8  C8  UNL     1     -33.731   8.337   4.742  1.00 20.00     0.049 C 
ENDROOT
TORSDOF 0
ENDMDL
MODEL 5
REMARK VINA RESULT:      -1.3      0.845      2.520
REMARK  0 active torsions:
REMARK  status: ('A' for Active; 'I' for Inactive)
ROOT
HETATM    1  C1  UNL     1     -33.249   8.364   3.496  1.00 20.00     0.001 A 
HETATM    2  C2  UNL     1     -32.412   8.451   2.384  1.00 20.00     0.001 A 
HETATM    3  C3  UNL     1     -33.824   7.140   3.842  1.00 20.00     0.007 A 
HETATM    4  C4  UNL     1     -32.152   7.316   1.616  1.00 20.00     0.007 A 
HETATM    5  C5  UNL     1     -33.562   6.005   3.075  1.00 20.00    -0.056 A 
HETATM    6  C6  UNL     1     -32.726   6.093   1.961  1.00 20.00    -0.056 A 
HETATM    7  C7  UNL     1     -34.188   4.706   3.464  1.00 20.00     0.049 C 
HETATM    8  C8  UNL     1     -32.433   4.892   1.124  1.00 20.00     0.049 C 
ENDROOT
TORSDOF 0
ENDMDL
MODEL 6
REMARK VINA RESULT:      -1.3      0.821      2.518
REMARK  0 active torsions:
REMARK  status: ('A' for Active; 'I' for Inactive)
ROOT
HETATM    1  C1  UNL     1     -32.453   8.460   2.429  1.00 20.00     0.001 A 
HETATM    2  C2  UNL     1     -33.284   8.356   3.545  1.00 20.00     0.001 A 
HETATM    3  C3  UNL     1     -32.188   7.334   1.650  1.00 20.00     0.007 A 
HETATM    4  C4  UNL     1     -33.847   7.125   3.883  1.00 20.00     0.007 A 
HETATM    5  C5  UNL     1     -32.751   6.104   1.988  1.00 20.00    -0.056 A 
HETATM    6  C6  UNL     1     -33.581   6.000   3.104  1.00 20.00    -0.056 A 
HETATM    7  C7  UNL     1     -32.454   4.912   1.138  1.00 20.00     0.049 C 
HETATM    8  C8  UNL     1     -34.195   4.693   3.486  1.00 20.00     0.049 C 
ENDROOT
TORSDOF 0
ENDMDL
MODEL 7
REMARK VINA RESULT:      -0.7      1.069      2.122
REMARK  0 active torsions:
REMARK  status: ('A' for Active; 'I' for Inactive)
ROOT
HETATM    1  C1  UNL     1     -34.005   4.211   3.617  1.00 20.00     0.001 A 
HETATM    2  C2  UNL     1     -34.963   4.841   4.412  1.00 20.00     0.001 A 
HETATM    3  C3  UNL     1     -33.164   4.971   2.803  1.00 20.00     0.007 A 
HETATM    4  C4  UNL     1     -35.083   6.231   4.390  1.00 20.00     0.007 A 
HETATM    5  C5  UNL     1     -33.284   6.360   2.782  1.00 20.00    -0.056 A 
HETATM    6  C6  UNL     1     -34.243   6.990   3.576  1.00 20.00    -0.056 A 
HETATM    7  C7  UNL     1     -32.373   7.154   1.904  1.00 20.00     0.049 C 
HETATM    8  C8  UNL     1     -34.390   8.477   3.570  1.00 20.00     0.049 C 
ENDROOT
TORSDOF 0
ENDMDL
MODEL 8
REMARK VINA RESULT:      -0.7      0.805      2.616
REMARK  0 active torsions:
REMARK  status: ('A' for Active; 'I' for Inactive)
ROOT
HETATM    1  C1  UNL     1     -32.964   5.063   1.656  1.00 20.00     0.001 A 
HETATM    2  C2  UNL     1     -33.822   4.874   2.740  1.00 20.00     0.001 A 
HETATM    3  C3  UNL     1     -32.388   6.314   1.432  1.00 20.00     0.007 A 
HETATM    4  C4  UNL     1     -34.106   5.936   3.598  1.00 20.00     0.007 A 
HETATM    5  C5  UNL     1     -32.672   7.376   2.291  1.00 20.00    -0.056 A 
HETATM    6  C6  UNL     1     -33.531   7.187   3.374  1.00 20.00    -0.056 A 
HETATM    7  C7  UNL     1     -32.044   8.705   2.032  1.00 20.00     0.049 C 
HETATM    8  C8  UNL     1     -33.850   8.309   4.306  1.00 20.00     0.049 C 
ENDROOT
TORSDOF 0
ENDMDL
MODEL 9
REMARK VINA RESULT:      -0.7      1.072      2.595
REMARK  0 active torsions:
REMARK  status: ('A' for Active; 'I' for Inactive)
ROOT
HETATM    1  C1  UNL     1     -34.967   4.831   4.420  1.00 20.00     0.001 A 
HETATM    2  C2  UNL     1     -34.011   4.200   3.624  1.00 20.00     0.001 A 
HETATM    3  C3  UNL     1     -35.085   6.221   4.399  1.00 20.00     0.007 A 
HETATM    4  C4  UNL     1     -33.172   4.959   2.808  1.00 20.00     0.007 A 
HETATM    5  C5  UNL     1     -34.246   6.980   3.582  1.00 20.00    -0.056 A 
HETATM    6  C6  UNL     1     -33.289   6.349   2.787  1.00 20.00    -0.056 A 
HETATM    7  C7  UNL     1     -34.391   8.466   3.575  1.00 20.00     0.049 C 
HETATM    8  C8  UNL     1     -32.380   7.140   1.905  1.00 20.00     0.049 C 
ENDROOT
TORSDOF 0
ENDMDL
