MODEL 1
REMARK VINA RESULT:      -1.2      0.000      0.000
REMARK  0 active torsions:
REMARK  status: ('A' for Active; 'I' for Inactive)
ROOT
HETATM    1  C1  UNL     1     -34.715   5.648   4.032  1.00 20.00     0.001 A 
HETATM    2  C2  UNL     1     -34.671   7.019   4.285  1.00 20.00     0.001 A 
HETATM    3  C3  UNL     1     -33.930   5.100   3.018  1.00 20.00     0.008 A 
HETATM    4  C4  UNL     1     -33.842   7.842   3.523  1.00 20.00     0.019 A 
HETATM    5  C5  UNL     1     -33.101   5.924   2.255  1.00 20.00    -0.045 A 
HETATM    6  C6  UNL     1     -33.058   7.295   2.508  1.00 20.00     0.012 A 
HETATM    7  C7  UNL     1     -32.283   5.282   1.181  1.00 20.00     0.049 C 
HETATM    8  I8  UNL     1     -31.837   8.586   1.403  1.00 20.00    -0.044 I 
ENDROOT
TORSDOF 0
ENDMDL
MODEL 2
REMARK VINA RESULT:      -0.9      1.477      2.404
REMARK  0 active torsions:
REMARK  status: ('A' for Active; 'I' for Inactive)
ROOT
HETATM    1  C1  UNL     1     -34.506   7.438   4.252  1.00 20.00     0.001 A 
HETATM    2  C2  UNL     1     -34.772   6.084   4.043  1.00 20.00     0.001 A 
HETATM    3  C3  UNL     1     -33.542   8.087   3.481  1.00 20.00     0.008 A 
HETATM    4  C4  UNL     1     -34.072   5.380   3.063  1.00 20.00     0.019 A 
HETATM    5  C5  UNL     1     -32.842   7.382   2.501  1.00 20.00    -0.045 A 
HETATM    6  C6  UNL     1     -33.107   6.029   2.292  1.00 20.00     0.012 A 
HETATM    7  C7  UNL     1     -31.820   8.130   1.706  1.00 20.00     0.049 C 
HETATM    8  I8  UNL     1     -32.095   4.914   0.840  1.00 20.00    -0.044 I 
ENDROOT
TORSDOF 0
ENDMDL
MODEL 3
REMARK VINA RESULT:      -0.7      2.212      3.779
REMARK  0 active torsions:
REMARK  status: ('A' for Active; 'I' for Inactive)
ROOT
HETATM    1  C1  UNL     1     -31.792   7.660   1.515  1.00 20.00     0.001 A 
HETATM    2  C2  UNL     1     -32.230   6.386   1.150  1.00 20.00     0.001 A 
HETATM    3  C3  UNL     1     -32.275   8.257   2.679  1.00 20.00     0.008 A 
HETATM    4  C4  UNL     1     -33.150   5.710   1.951  1.00 20.00     0.019 A 
HETATM    5  C5  UNL     1     -33.197   7.581   3.479  1.00 20.00    -0.045 A 
HETATM    6  C6  UNL     1     -33.635   6.308   3.114  1.00 20.00     0.012 A 
HETATM    7  C7  UNL     1     -33.681   8.271   4.714  1.00 20.00     0.049 C 
HETATM    8  I8  UNL     1     -35.014   5.239   4.269  1.00 20.00    -0.044 I 
ENDROOT
TORSDOF 0
ENDMDL
MODEL 4
REMARK VINA RESULT:       0.0      1.078      2.536
REMARK  0 active torsions:
REMARK  status: ('A' for Active; 'I' for Inactive)
ROOT
HETATM    1  C1  UNL     1     -34.996   4.813   4.433  1.00 20.00     0.001 A 
HETATM    2  C2  UNL     1     -33.994   4.224   3.660  1.00 20.00     0.001 A 
HETATM    3  C3  UNL     1     -35.156   6.198   4.429  1.00 20.00     0.008 A 
HETATM    4  C4  UNL     1     -33.154   5.021   2.883  1.00 20.00     0.019 A 
HETATM    5  C5  UNL     1     -34.315   6.996   3.653  1.00 20.00    -0.045 A 
HETATM    6  C6  UNL     1     -33.313   6.407   2.880  1.00 20.00     0.012 A 
HETATM    7  C7  UNL     1     -34.532   8.475   3.688  1.00 20.00     0.049 C 
HETATM    8  I8  UNL     1     -32.019   7.544   1.693  1.00 20.00    -0.044 I 
ENDROOT
TORSDOF 0
ENDMDL
MODEL 5
REMARK VINA RESULT:       0.2      2.186      2.987
REMARK  0 active torsions:
REMARK  status: ('A' for Active; 'I' for Inactive)
ROOT
HETATM    1  C1  UNL     1     -31.623   8.296   1.864  1.00 20.00     0.001 A 
HETATM    2  C2  UNL     1     -32.236   8.691   3.054  1.00 20.00     0.001 A 
HETATM    3  C3  UNL     1     -31.959   7.076   1.278  1.00 20.00     0.008 A 
HETATM    4  C4  UNL     1     -33.185   7.865   3.656  1.00 20.00     0.019 A 
HETATM    5  C5  UNL     1     -32.908   6.250   1.880  1.00 20.00    -0.045 A 
HETATM    6  C6  UNL     1     -33.521   6.645   3.070  1.00 20.00     0.012 A 
HETATM    7  C7  UNL     1     -33.228   4.954   1.207  1.00 20.00     0.049 C 
HETATM    8  I8  UNL     1     -34.953   5.455   4.025  1.00 20.00    -0.044 I 
ENDROOT
TORSDOF 0
ENDMDL
MODEL 6
REMARK VINA RESULT:       0.6      1.607      2.489
REMARK  0 active torsions:
REMARK  status: ('A' for Active; 'I' for Inactive)
ROOT
HETATM    1  C1  UNL     1     -33.874   8.129   3.925  1.00 20.00     0.001 A 
HETATM    2  C2  UNL     1     -33.025   8.484   2.876  1.00 20.00     0.001 A 
HETATM    3  C3  UNL     1     -34.224   6.793   4.117  1.00 20.00     0.008 A 
HETATM    4  C4  UNL     1     -32.526   7.502   2.020  1.00 20.00     0.019 A 
HETATM    5  C5  UNL     1     -33.725   5.810   3.261  1.00 20.00    -0.045 A 
HETATM    6  C6  UNL     1     -32.876   6.166   2.212  1.00 20.00     0.012 A 
HETATM    7  C7  UNL     1     -34.134   4.395   3.515  1.00 20.00     0.049 C 
HETATM    8  I8  UNL     1     -32.093   4.744   0.893  1.00 20.00    -0.044 I 
ENDROOT
TORSDOF 0
ENDMDL
MODEL 7
REMARK VINA RESULT:       0.6      1.704      2.928
REMARK  0 active torsions:
REMARK  status: ('A' for Active; 'I' for Inactive)
ROOT
HETATM    1  C1  UNL     1     -32.556   5.917   1.046  1.00 20.00     0.001 A 
HETATM    2  C2  UNL     1     -31.910   7.126   1.308  1.00 20.00     0.001 A 
HETATM    3  C3  UNL     1     -33.501   5.422   1.944  1.00 20.00     0.008 A 
HETATM    4  C4  UNL     1     -32.209   7.838   2.469  1.00 20.00     0.019 A 
HETATM    5  C5  UNL     1     -33.800   6.134   3.106  1.00 20.00    -0.045 A 
HETATM    6  C6  UNL     1     -33.153   7.343   3.369  1.00 20.00     0.012 A 
HETATM    7  C7  UNL     1     -34.819   5.554   4.033  1.00 20.00     0.049 C 
HETATM    8  I8  UNL     1     -33.555   8.461   5.091  1.00 20.00    -0.044 I 
ENDROOT
TORSDOF 0
ENDMDL
MODEL 8
REMARK VINA RESULT:       0.7      2.150      2.785
REMARK  0 active torsions:
REMARK  status: ('A' for Active; 'I' for Inactive)
ROOT
HETATM    1  C1  UNL     1     -32.998   8.540   2.381  1.00 20.00     0.001 A 
HETATM    2  C2  UNL     1     -33.708   8.318   3.561  1.00 20.00     0.001 A 
HETATM    3  C3  UNL     1     -32.536   7.460   1.631  1.00 20.00     0.008 A 
HETATM    4  C4  UNL     1     -33.956   7.014   3.990  1.00 20.00     0.019 A 
HETATM    5  C5  UNL     1     -32.783   6.155   2.060  1.00 20.00    -0.045 A 
HETATM    6  C6  UNL     1     -33.493   5.933   3.241  1.00 20.00     0.012 A 
HETATM    7  C7  UNL     1     -32.263   5.036   1.216  1.00 20.00     0.049 C 
HETATM    8  I8  UNL     1     -33.900   4.004   3.941  1.00 20.00    -0.044 I 
ENDROOT
TORSDOF 0
ENDMDL
MODEL 9
REMARK VINA RESULT:       0.9      1.718      2.306
REMARK  0 active torsions:
REMARK  status: ('A' for Active; 'I' for Inactive)
ROOT
HETATM    1  C1  UNL     1     -35.433   6.250   4.452  1.00 20.00     0.001 A 
HETATM    2  C2  UNL     1     -34.884   7.135   3.523  1.00 20.00     0.001 A 
HETATM    3  C3  UNL     1     -34.935   4.952   4.559  1.00 20.00     0.008 A 
HETATM    4  C4  UNL     1     -33.837   6.720   2.700  1.00 20.00     0.019 A 
HETATM    5  C5  UNL     1     -33.888   4.537   3.735  1.00 20.00    -0.045 A 
HETATM    6  C6  UNL     1     -33.339   5.421   2.806  1.00 20.00     0.012 A 
HETATM    7  C7  UNL     1     -33.396   3.134   3.893  1.00 20.00     0.049 C 
HETATM    8  I8  UNL     1     -31.768   4.863   1.542  1.00 20.00    -0.044 I 
ENDROOT
TORSDOF 0
ENDMDL
