MODEL 1
REMARK VINA RESULT:      -2.2      0.000      0.000
REMARK  0 active torsions:
REMARK  status: ('A' for Active; 'I' for Inactive)
ROOT
HETATM    1  C1  UNL     1     -32.377   6.683   1.553  1.00 20.00    -0.030 C 
HETATM    2  C2  UNL     1     -33.173   5.715   2.029  1.00 20.00    -0.030 C 
HETATM    3  C3  UNL     1     -32.222   8.018   2.218  1.00 20.00     0.026 C 
HETATM    4  C4  UNL     1     -34.017   5.879   3.258  1.00 20.00     0.026 C 
HETATM    5  C5  UNL     1     -32.792   8.052   3.638  1.00 20.00     0.004 C 
HETATM    6  C6  UNL     1     -34.136   7.335   3.714  1.00 20.00     0.004 C 
ENDROOT
TORSDOF 0
ENDMDL
MODEL 2
REMARK VINA RESULT:      -2.2      0.066      2.083
REMARK  0 active torsions:
REMARK  status: ('A' for Active; 'I' for Inactive)
ROOT
HETATM    1  C1  UNL     1     -33.150   5.699   2.010  1.00 20.00    -0.030 C 
HETATM    2  C2  UNL     1     -32.358   6.654   1.504  1.00 20.00    -0.030 C 
HETATM    3  C3  UNL     1     -33.979   5.891   3.245  1.00 20.00     0.026 C 
HETATM    4  C4  UNL     1     -32.191   8.003   2.139  1.00 20.00     0.026 C 
HETATM    5  C5  UNL     1     -34.085   7.355   3.677  1.00 20.00     0.004 C 
HETATM    6  C6  UNL     1     -32.739   8.066   3.567  1.00 20.00     0.004 C 
ENDROOT
TORSDOF 0
ENDMDL
MODEL 3
REMARK VINA RESULT:      -2.1      0.660      2.820
REMARK  0 active torsions:
REMARK  status: ('A' for Active; 'I' for Inactive)
ROOT
HETATM    1  C1  UNL     1     -33.845   7.672   3.737  1.00 20.00    -0.030 C 
HETATM    2  C2  UNL     1     -32.823   8.093   2.980  1.00 20.00    -0.030 C 
HETATM    3  C3  UNL     1     -34.418   6.289   3.646  1.00 20.00     0.026 C 
HETATM    4  C4  UNL     1     -32.166   7.235   1.939  1.00 20.00     0.026 C 
HETATM    5  C5  UNL     1     -33.532   5.322   2.859  1.00 20.00     0.004 C 
HETATM    6  C6  UNL     1     -32.973   5.979   1.600  1.00 20.00     0.004 C 
ENDROOT
TORSDOF 0
ENDMDL
MODEL 4
REMARK VINA RESULT:      -2.1      0.660      2.092
REMARK  0 active torsions:
REMARK  status: ('A' for Active; 'I' for Inactive)
ROOT
HETATM    1  C1  UNL     1     -32.816   8.089   2.986  1.00 20.00    -0.030 C 
HETATM    2  C2  UNL     1     -33.836   7.678   3.752  1.00 20.00    -0.030 C 
HETATM    3  C3  UNL     1     -32.178   7.227   1.938  1.00 20.00     0.026 C 
HETATM    4  C4  UNL     1     -34.424   6.301   3.663  1.00 20.00     0.026 C 
HETATM    5  C5  UNL     1     -32.997   5.978   1.606  1.00 20.00     0.004 C 
HETATM    6  C6  UNL     1     -33.551   5.325   2.869  1.00 20.00     0.004 C 
ENDROOT
TORSDOF 0
ENDMDL
MODEL 5
REMARK VINA RESULT:      -2.0      0.534      2.088
REMARK  0 active torsions:
REMARK  status: ('A' for Active; 'I' for Inactive)
ROOT
HETATM    1  C1  UNL     1     -33.605   7.528   3.738  1.00 20.00    -0.030 C 
HETATM    2  C2  UNL     1     -34.043   6.344   3.289  1.00 20.00    -0.030 C 
HETATM    3  C3  UNL     1     -32.499   8.297   3.078  1.00 20.00     0.026 C 
HETATM    4  C4  UNL     1     -33.451   5.648   2.099  1.00 20.00     0.026 C 
HETATM    5  C5  UNL     1     -32.149   7.770   1.685  1.00 20.00     0.004 C 
HETATM    6  C6  UNL     1     -32.112   6.245   1.660  1.00 20.00     0.004 C 
ENDROOT
TORSDOF 0
ENDMDL
MODEL 6
REMARK VINA RESULT:      -2.0      0.547      2.699
REMARK  0 active torsions:
REMARK  status: ('A' for Active; 'I' for Inactive)
ROOT
HETATM    1  C1  UNL     1     -34.047   6.368   3.290  1.00 20.00    -0.030 C 
HETATM    2  C2  UNL     1     -33.601   7.554   3.729  1.00 20.00    -0.030 C 
HETATM    3  C3  UNL     1     -33.458   5.658   2.108  1.00 20.00     0.026 C 
HETATM    4  C4  UNL     1     -32.488   8.308   3.063  1.00 20.00     0.026 C 
HETATM    5  C5  UNL     1     -32.116   6.242   1.662  1.00 20.00     0.004 C 
HETATM    6  C6  UNL     1     -32.144   7.768   1.673  1.00 20.00     0.004 C 
ENDROOT
TORSDOF 0
ENDMDL
MODEL 7
REMARK VINA RESULT:      -1.3      1.125      3.167
REMARK  0 active torsions:
REMARK  status: ('A' for Active; 'I' for Inactive)
ROOT
HETATM    1  C1  UNL     1     -35.041   7.083   4.126  1.00 20.00    -0.030 C 
HETATM    2  C2  UNL     1     -33.979   7.606   3.497  1.00 20.00    -0.030 C 
HETATM    3  C3  UNL     1     -35.318   5.610   4.179  1.00 20.00     0.026 C 
HETATM    4  C4  UNL     1     -32.975   6.775   2.753  1.00 20.00     0.026 C 
HETATM    5  C5  UNL     1     -34.126   4.757   3.740  1.00 20.00     0.004 C 
HETATM    6  C6  UNL     1     -33.450   5.342   2.503  1.00 20.00     0.004 C 
ENDROOT
TORSDOF 0
ENDMDL
MODEL 8
REMARK VINA RESULT:      -1.0      0.698      2.167
REMARK  0 active torsions:
REMARK  status: ('A' for Active; 'I' for Inactive)
ROOT
HETATM    1  C1  UNL     1     -31.810   6.484   1.393  1.00 20.00    -0.030 C 
HETATM    2  C2  UNL     1     -31.777   7.821   1.482  1.00 20.00    -0.030 C 
HETATM    3  C3  UNL     1     -32.728   5.630   2.216  1.00 20.00     0.026 C 
HETATM    4  C4  UNL     1     -32.632   8.600   2.438  1.00 20.00     0.026 C 
HETATM    5  C5  UNL     1     -33.831   6.430   2.912  1.00 20.00     0.004 C 
HETATM    6  C6  UNL     1     -33.286   7.724   3.509  1.00 20.00     0.004 C 
ENDROOT
TORSDOF 0
ENDMDL
MODEL 9
REMARK VINA RESULT:       0.7      2.162      3.669
REMARK  0 active torsions:
REMARK  status: ('A' for Active; 'I' for Inactive)
ROOT
HETATM    1  C1  UNL     1     -32.850   9.401   2.118  1.00 20.00    -0.030 C 
HETATM    2  C2  UNL     1     -32.292   8.182   2.098  1.00 20.00    -0.030 C 
HETATM    3  C3  UNL     1     -32.815  10.338   0.948  1.00 20.00     0.026 C 
HETATM    4  C4  UNL     1     -31.548   7.642   0.913  1.00 20.00     0.026 C 
HETATM    5  C5  UNL     1     -32.380   9.659  -0.353  1.00 20.00     0.004 C 
HETATM    6  C6  UNL     1     -31.204   8.716  -0.122  1.00 20.00     0.004 C 
ENDROOT
TORSDOF 0
ENDMDL
