MODEL 1
REMARK VINA RESULT:      -1.5      0.000      0.000
REMARK  0 active torsions:
REMARK  status: ('A' for Active; 'I' for Inactive)
ROOT
HETATM    1  C1  UNL     1     -32.080   7.711   1.808  1.00 20.00     0.016 C 
HETATM    2  C2  UNL     1     -32.961   6.506   2.039  1.00 20.00     0.081 C 
HETATM    3 BR3  UNL     1     -34.187   6.855   3.507  1.00 20.00    -0.097 Br
ENDROOT
TORSDOF 0
ENDMDL
MODEL 2
REMARK VINA RESULT:      -1.4      2.127      2.376
REMARK  0 active torsions:
REMARK  status: ('A' for Active; 'I' for Inactive)
ROOT
HETATM    1  C1  UNL     1     -34.157   7.276   3.837  1.00 20.00     0.016 C 
HETATM    2  C2  UNL     1     -33.421   6.582   2.716  1.00 20.00     0.081 C 
HETATM    3 BR3  UNL     1     -32.138   7.802   1.913  1.00 20.00    -0.097 Br
ENDROOT
TORSDOF 0
ENDMDL
MODEL 3
REMARK VINA RESULT:      -1.4      2.619      2.798
REMARK  0 active torsions:
REMARK  status: ('A' for Active; 'I' for Inactive)
ROOT
HETATM    1  C1  UNL     1     -34.171   7.350   3.928  1.00 20.00     0.016 C 
HETATM    2  C2  UNL     1     -35.180   6.226   3.953  1.00 20.00     0.081 C 
HETATM    3 BR3  UNL     1     -34.263   4.519   4.112  1.00 20.00    -0.097 Br
ENDROOT
TORSDOF 0
ENDMDL
MODEL 4
REMARK VINA RESULT:      -1.3      2.863      3.138
REMARK  0 active torsions:
REMARK  status: ('A' for Active; 'I' for Inactive)
ROOT
HETATM    1  C1  UNL     1     -32.717  10.428   0.491  1.00 20.00     0.016 C 
HETATM    2  C2  UNL     1     -31.995   9.131   0.212  1.00 20.00     0.081 C 
HETATM    3 BR3  UNL     1     -32.039   7.996   1.791  1.00 20.00    -0.097 Br
ENDROOT
TORSDOF 0
ENDMDL
MODEL 5
REMARK VINA RESULT:      -1.3      2.593      2.832
REMARK  0 active torsions:
REMARK  status: ('A' for Active; 'I' for Inactive)
ROOT
HETATM    1  C1  UNL     1     -32.388   6.757   1.487  1.00 20.00     0.016 C 
HETATM    2  C2  UNL     1     -31.973   8.148   1.907  1.00 20.00     0.081 C 
HETATM    3 BR3  UNL     1     -32.317   9.405   0.465  1.00 20.00    -0.097 Br
ENDROOT
TORSDOF 0
ENDMDL
MODEL 6
REMARK VINA RESULT:      -1.3      3.081      3.222
REMARK  0 active torsions:
REMARK  status: ('A' for Active; 'I' for Inactive)
ROOT
HETATM    1  C1  UNL     1     -34.552   4.723   4.210  1.00 20.00     0.016 C 
HETATM    2  C2  UNL     1     -35.285   6.036   4.063  1.00 20.00     0.081 C 
HETATM    3 BR3  UNL     1     -34.006   7.493   3.914  1.00 20.00    -0.097 Br
ENDROOT
TORSDOF 0
ENDMDL
MODEL 7
REMARK VINA RESULT:      -1.2      1.804      1.996
REMARK  0 active torsions:
REMARK  status: ('A' for Active; 'I' for Inactive)
ROOT
HETATM    1  C1  UNL     1     -32.235   8.892   0.877  1.00 20.00     0.016 C 
HETATM    2  C2  UNL     1     -31.945   7.922   1.999  1.00 20.00     0.081 C 
HETATM    3 BR3  UNL     1     -32.656   6.167   1.556  1.00 20.00    -0.097 Br
ENDROOT
TORSDOF 0
ENDMDL
MODEL 8
REMARK VINA RESULT:      -1.1      2.011      2.295
REMARK  0 active torsions:
REMARK  status: ('A' for Active; 'I' for Inactive)
ROOT
HETATM    1  C1  UNL     1     -32.319   5.290   1.164  1.00 20.00     0.016 C 
HETATM    2  C2  UNL     1     -32.991   6.405   1.930  1.00 20.00     0.081 C 
HETATM    3 BR3  UNL     1     -31.955   8.042   1.759  1.00 20.00    -0.097 Br
ENDROOT
TORSDOF 0
ENDMDL
MODEL 9
REMARK VINA RESULT:      -1.1      2.728      3.014
REMARK  0 active torsions:
REMARK  status: ('A' for Active; 'I' for Inactive)
ROOT
HETATM    1  C1  UNL     1     -35.056   6.533   3.970  1.00 20.00     0.016 C 
HETATM    2  C2  UNL     1     -33.973   5.692   3.336  1.00 20.00     0.081 C 
HETATM    3 BR3  UNL     1     -33.869   3.967   4.226  1.00 20.00    -0.097 Br
ENDROOT
TORSDOF 0
ENDMDL
