MODEL 1
REMARK VINA RESULT:      -3.0      0.000      0.000
REMARK  1 active torsions:
REMARK  status: ('A' for Active; 'I' for Inactive)
REMARK    1  A    between atoms: C6_6  and  C9_9 
ROOT
HETATM    1  C1  UNL     1     -33.679   5.518   2.500  1.00 20.00     0.007 A 
HETATM    2  C2  UNL     1     -34.074   7.422   3.934  1.00 20.00     0.007 A 
HETATM    3  C3  UNL     1     -32.802   6.281   1.728  1.00 20.00     0.007 A 
HETATM    4  C4  UNL     1     -33.197   8.185   3.162  1.00 20.00     0.007 A 
HETATM    5  C5  UNL     1     -34.314   6.089   3.603  1.00 20.00    -0.062 A 
HETATM    6  C6  UNL     1     -32.563   7.615   2.058  1.00 20.00    -0.059 A 
HETATM    7  C7  UNL     1     -35.251   5.273   4.429  1.00 20.00     0.048 C 
ENDROOT
BRANCH   6   8
HETATM    8  C9  UNL     1     -31.624   8.430   1.233  1.00 20.00     0.034 C 
HETATM    9  C8  UNL     1     -32.333   9.560   0.493  1.00 20.00     0.010 C 
ENDBRANCH   6   8
TORSDOF 1
ENDMDL
MODEL 2
REMARK VINA RESULT:      -3.0      0.103      1.614
REMARK  1 active torsions:
REMARK  status: ('A' for Active; 'I' for Inactive)
REMARK    1  A    between atoms: C6_6  and  C9_9 
ROOT
HETATM    1  C1  UNL     1     -34.017   7.497   3.860  1.00 20.00     0.007 A 
HETATM    2  C2  UNL     1     -33.668   5.556   2.463  1.00 20.00     0.007 A 
HETATM    3  C3  UNL     1     -33.129   8.226   3.069  1.00 20.00     0.007 A 
HETATM    4  C4  UNL     1     -32.780   6.286   1.672  1.00 20.00     0.007 A 
HETATM    5  C5  UNL     1     -34.286   6.162   3.556  1.00 20.00    -0.062 A 
HETATM    6  C6  UNL     1     -32.510   7.620   1.975  1.00 20.00    -0.059 A 
HETATM    7  C7  UNL     1     -35.236   5.382   4.402  1.00 20.00     0.048 C 
ENDROOT
BRANCH   6   8
HETATM    8  C9  UNL     1     -31.561   8.401   1.128  1.00 20.00     0.034 C 
HETATM    9  C8  UNL     1     -32.241   9.572   0.425  1.00 20.00     0.010 C 
ENDBRANCH   6   8
TORSDOF 1
ENDMDL
MODEL 3
REMARK VINA RESULT:      -2.7      0.919      3.996
REMARK  1 active torsions:
REMARK  status: ('A' for Active; 'I' for Inactive)
REMARK    1  A    between atoms: C6_6  and  C9_9 
ROOT
HETATM    1  C1  UNL     1     -32.490   6.419   1.493  1.00 20.00     0.007 A 
HETATM    2  C2  UNL     1     -33.282   8.104   3.034  1.00 20.00     0.007 A 
HETATM    3  C3  UNL     1     -33.149   5.435   2.231  1.00 20.00     0.007 A 
HETATM    4  C4  UNL     1     -33.941   7.120   3.771  1.00 20.00     0.007 A 
HETATM    5  C5  UNL     1     -32.557   7.753   1.896  1.00 20.00    -0.062 A 
HETATM    6  C6  UNL     1     -33.874   5.785   3.370  1.00 20.00    -0.059 A 
HETATM    7  C7  UNL     1     -31.853   8.806   1.107  1.00 20.00     0.048 C 
ENDROOT
BRANCH   6   8
HETATM    8  C9  UNL     1     -34.580   4.732   4.157  1.00 20.00     0.034 C 
HETATM    9  C8  UNL     1     -33.694   3.520   4.431  1.00 20.00     0.010 C 
ENDBRANCH   6   8
TORSDOF 1
ENDMDL
MODEL 4
REMARK VINA RESULT:      -2.7      0.886      4.299
REMARK  1 active torsions:
REMARK  status: ('A' for Active; 'I' for Inactive)
REMARK    1  A    between atoms: C6_6  and  C9_9 
ROOT
HETATM    1  C1  UNL     1     -33.222   8.138   3.064  1.00 20.00     0.007 A 
HETATM    2  C2  UNL     1     -32.520   6.452   1.482  1.00 20.00     0.007 A 
HETATM    3  C3  UNL     1     -33.898   7.165   3.801  1.00 20.00     0.007 A 
HETATM    4  C4  UNL     1     -33.196   5.479   2.219  1.00 20.00     0.007 A 
HETATM    5  C5  UNL     1     -32.534   7.781   1.905  1.00 20.00    -0.062 A 
HETATM    6  C6  UNL     1     -33.886   5.836   3.378  1.00 20.00    -0.059 A 
HETATM    7  C7  UNL     1     -31.810   8.821   1.117  1.00 20.00     0.048 C 
ENDROOT
BRANCH   6   8
HETATM    8  C9  UNL     1     -34.608   4.796   4.167  1.00 20.00     0.034 C 
HETATM    9  C8  UNL     1     -33.752   3.557   4.415  1.00 20.00     0.010 C 
ENDBRANCH   6   8
TORSDOF 1
ENDMDL
MODEL 5
REMARK VINA RESULT:      -0.9      0.835      4.203
REMARK  1 active torsions:
REMARK  status: ('A' for Active; 'I' for Inactive)
REMARK    1  A    between atoms: C6_6  and  C9_9 
ROOT
HETATM    1  C1  UNL     1     -33.022   8.477   2.310  1.00 20.00     0.007 A 
HETATM    2  C2  UNL     1     -32.096   6.624   1.065  1.00 20.00     0.007 A 
HETATM    3  C3  UNL     1     -33.674   7.581   3.158  1.00 20.00     0.007 A 
HETATM    4  C4  UNL     1     -32.748   5.729   1.914  1.00 20.00     0.007 A 
HETATM    5  C5  UNL     1     -32.232   7.997   1.264  1.00 20.00    -0.062 A 
HETATM    6  C6  UNL     1     -33.538   6.208   2.959  1.00 20.00    -0.059 A 
HETATM    7  C7  UNL     1     -31.534   8.955   0.358  1.00 20.00     0.048 C 
ENDROOT
BRANCH   6   8
HETATM    8  C9  UNL     1     -34.235   5.251   3.867  1.00 20.00     0.034 C 
HETATM    9  C8  UNL     1     -35.600   5.764   4.315  1.00 20.00     0.010 C 
ENDBRANCH   6   8
TORSDOF 1
ENDMDL
MODEL 6
REMARK VINA RESULT:      -0.4      0.917      1.881
REMARK  1 active torsions:
REMARK  status: ('A' for Active; 'I' for Inactive)
REMARK    1  A    between atoms: C6_6  and  C9_9 
ROOT
HETATM    1  C1  UNL     1     -34.443   6.334   4.099  1.00 20.00     0.007 A 
HETATM    2  C2  UNL     1     -33.164   5.178   2.406  1.00 20.00     0.007 A 
HETATM    3  C3  UNL     1     -34.094   7.558   3.528  1.00 20.00     0.007 A 
HETATM    4  C4  UNL     1     -32.815   6.403   1.835  1.00 20.00     0.007 A 
HETATM    5  C5  UNL     1     -33.978   5.145   3.537  1.00 20.00    -0.062 A 
HETATM    6  C6  UNL     1     -33.280   7.592   2.397  1.00 20.00    -0.059 A 
HETATM    7  C7  UNL     1     -34.352   3.835   4.148  1.00 20.00     0.048 C 
ENDROOT
BRANCH   6   8
HETATM    8  C9  UNL     1     -32.908   8.902   1.785  1.00 20.00     0.034 C 
HETATM    9  C8  UNL     1     -31.556   8.850   1.079  1.00 20.00     0.010 C 
ENDBRANCH   6   8
TORSDOF 1
ENDMDL
MODEL 7
REMARK VINA RESULT:      -0.4      1.255      2.920
REMARK  1 active torsions:
REMARK  status: ('A' for Active; 'I' for Inactive)
REMARK    1  A    between atoms: C6_6  and  C9_9 
ROOT
HETATM    1  C1  UNL     1     -32.592   7.965   2.887  1.00 20.00     0.007 A 
HETATM    2  C2  UNL     1     -34.177   6.325   3.685  1.00 20.00     0.007 A 
HETATM    3  C3  UNL     1     -32.300   7.149   1.793  1.00 20.00     0.007 A 
HETATM    4  C4  UNL     1     -33.885   5.510   2.591  1.00 20.00     0.007 A 
HETATM    5  C5  UNL     1     -33.531   7.552   3.832  1.00 20.00    -0.062 A 
HETATM    6  C6  UNL     1     -32.945   5.922   1.646  1.00 20.00    -0.059 A 
HETATM    7  C7  UNL     1     -33.845   8.424   5.002  1.00 20.00     0.048 C 
ENDROOT
BRANCH   6   8
HETATM    8  C9  UNL     1     -32.633   5.051   0.475  1.00 20.00     0.034 C 
HETATM    9  C8  UNL     1     -31.266   4.385   0.595  1.00 20.00     0.010 C 
ENDBRANCH   6   8
TORSDOF 1
ENDMDL
MODEL 8
REMARK VINA RESULT:      -0.4      1.259      2.822
REMARK  1 active torsions:
REMARK  status: ('A' for Active; 'I' for Inactive)
REMARK    1  A    between atoms: C6_6  and  C9_9 
ROOT
HETATM    1  C1  UNL     1     -34.165   6.318   3.681  1.00 20.00     0.007 A 
HETATM    2  C2  UNL     1     -32.583   7.958   2.878  1.00 20.00     0.007 A 
HETATM    3  C3  UNL     1     -33.873   5.501   2.589  1.00 20.00     0.007 A 
HETATM    4  C4  UNL     1     -32.291   7.141   1.785  1.00 20.00     0.007 A 
HETATM    5  C5  UNL     1     -33.519   7.546   3.825  1.00 20.00    -0.062 A 
HETATM    6  C6  UNL     1     -32.937   5.913   1.640  1.00 20.00    -0.059 A 
HETATM    7  C7  UNL     1     -33.830   8.420   4.993  1.00 20.00     0.048 C 
ENDROOT
BRANCH   6   8
HETATM    8  C9  UNL     1     -32.624   5.037   0.473  1.00 20.00     0.034 C 
HETATM    9  C8  UNL     1     -31.259   4.367   0.600  1.00 20.00     0.010 C 
ENDBRANCH   6   8
TORSDOF 1
ENDMDL
MODEL 9
REMARK VINA RESULT:      -0.4      1.347      3.425
REMARK  1 active torsions:
REMARK  status: ('A' for Active; 'I' for Inactive)
REMARK    1  A    between atoms: C6_6  and  C9_9 
ROOT
HETATM    1  C1  UNL     1     -32.026   6.905   1.499  1.00 20.00     0.007 A 
HETATM    2  C2  UNL     1     -33.415   5.095   2.294  1.00 20.00     0.007 A 
HETATM    3  C3  UNL     1     -32.575   7.751   2.463  1.00 20.00     0.007 A 
HETATM    4  C4  UNL     1     -33.965   5.941   3.258  1.00 20.00     0.007 A 
HETATM    5  C5  UNL     1     -32.446   5.578   1.415  1.00 20.00    -0.062 A 
HETATM    6  C6  UNL     1     -33.545   7.269   3.342  1.00 20.00    -0.059 A 
HETATM    7  C7  UNL     1     -31.858   4.673   0.384  1.00 20.00     0.048 C 
ENDROOT
BRANCH   6   8
HETATM    8  C9  UNL     1     -34.131   8.173   4.374  1.00 20.00     0.034 C 
HETATM    9  C8  UNL     1     -33.167   8.442   5.526  1.00 20.00     0.010 C 
ENDBRANCH   6   8
TORSDOF 1
ENDMDL
