MODEL 1
REMARK VINA RESULT:      -2.2      0.000      0.000
REMARK  3 active torsions:
REMARK  status: ('A' for Active; 'I' for Inactive)
REMARK    1  A    between atoms: C2_2  and  C4_4 
REMARK    2  A    between atoms: C4_4  and  S6_6 
REMARK    3  A    between atoms: C5_5  and  S6_6 
ROOT
HETATM    1  C4  UNL     1     -31.996   8.163   2.018  1.00 20.00     0.100 C 
ENDROOT
BRANCH   1   2
HETATM    2  C2  UNL     1     -32.066   8.750   0.645  1.00 20.00    -0.027 C 
HETATM    3  C1  UNL     1     -32.482   9.995   0.387  1.00 20.00     0.007 C 
ENDBRANCH   1   2
BRANCH   1   4
HETATM    4  S6  UNL     1     -33.132   6.755   2.154  1.00 20.00    -0.166 SA
BRANCH   4   5
HETATM    5  C5  UNL     1     -34.008   7.265   3.650  1.00 20.00     0.069 C 
HETATM    6  C3  UNL     1     -35.147   6.310   3.952  1.00 20.00     0.016 C 
ENDBRANCH   4   5
ENDBRANCH   1   4
TORSDOF 3
ENDMDL
MODEL 2
REMARK VINA RESULT:      -1.9      0.512      4.262
REMARK  3 active torsions:
REMARK  status: ('A' for Active; 'I' for Inactive)
REMARK    1  A    between atoms: C2_2  and  C4_4 
REMARK    2  A    between atoms: C4_4  and  S6_6 
REMARK    3  A    between atoms: C5_5  and  S6_6 
ROOT
HETATM    1  C4  UNL     1     -33.802   7.315   3.580  1.00 20.00     0.100 C 
ENDROOT
BRANCH   1   2
HETATM    2  C2  UNL     1     -35.050   6.548   3.877  1.00 20.00    -0.027 C 
HETATM    3  C1  UNL     1     -35.062   5.271   4.276  1.00 20.00     0.007 C 
ENDBRANCH   1   2
BRANCH   1   4
HETATM    4  S6  UNL     1     -33.049   6.714   2.043  1.00 20.00    -0.166 SA
BRANCH   4   5
HETATM    5  C5  UNL     1     -31.817   8.018   1.824  1.00 20.00     0.069 C 
HETATM    6  C3  UNL     1     -32.288   9.028   0.794  1.00 20.00     0.016 C 
ENDBRANCH   4   5
ENDBRANCH   1   4
TORSDOF 3
ENDMDL
MODEL 3
REMARK VINA RESULT:      -1.8      1.185      3.973
REMARK  3 active torsions:
REMARK  status: ('A' for Active; 'I' for Inactive)
REMARK    1  A    between atoms: C2_2  and  C4_4 
REMARK    2  A    between atoms: C4_4  and  S6_6 
REMARK    3  A    between atoms: C5_5  and  S6_6 
ROOT
HETATM    1  C4  UNL     1     -32.959   6.607   1.857  1.00 20.00     0.100 C 
ENDROOT
BRANCH   1   2
HETATM    2  C2  UNL     1     -33.789   6.368   3.077  1.00 20.00    -0.027 C 
HETATM    3  C1  UNL     1     -34.193   7.338   3.904  1.00 20.00     0.007 C 
ENDBRANCH   1   2
BRANCH   1   4
HETATM    4  S6  UNL     1     -31.959   8.106   2.064  1.00 20.00    -0.166 SA
BRANCH   4   5
HETATM    5  C5  UNL     1     -32.073   8.735   0.374  1.00 20.00     0.069 C 
HETATM    6  C3  UNL     1     -32.540  10.179   0.372  1.00 20.00     0.016 C 
ENDBRANCH   4   5
ENDBRANCH   1   4
TORSDOF 3
ENDMDL
MODEL 4
REMARK VINA RESULT:      -1.7      2.071      4.812
REMARK  3 active torsions:
REMARK  status: ('A' for Active; 'I' for Inactive)
REMARK    1  A    between atoms: C2_2  and  C4_4 
REMARK    2  A    between atoms: C4_4  and  S6_6 
REMARK    3  A    between atoms: C5_5  and  S6_6 
ROOT
HETATM    1  C4  UNL     1     -34.898   5.372   4.182  1.00 20.00     0.100 C 
ENDROOT
BRANCH   1   2
HETATM    2  C2  UNL     1     -33.942   4.290   3.795  1.00 20.00    -0.027 C 
HETATM    3  C1  UNL     1     -33.567   3.300   4.612  1.00 20.00     0.007 C 
ENDBRANCH   1   2
BRANCH   1   4
HETATM    4  S6  UNL     1     -34.237   6.992   3.703  1.00 20.00    -0.166 SA
BRANCH   4   5
HETATM    5  C5  UNL     1     -33.208   6.459   2.316  1.00 20.00     0.069 C 
HETATM    6  C3  UNL     1     -32.255   7.564   1.904  1.00 20.00     0.016 C 
ENDBRANCH   4   5
ENDBRANCH   1   4
TORSDOF 3
ENDMDL
MODEL 5
REMARK VINA RESULT:      -1.7      1.282      1.691
REMARK  3 active torsions:
REMARK  status: ('A' for Active; 'I' for Inactive)
REMARK    1  A    between atoms: C2_2  and  C4_4 
REMARK    2  A    between atoms: C4_4  and  S6_6 
REMARK    3  A    between atoms: C5_5  and  S6_6 
ROOT
HETATM    1  C4  UNL     1     -33.115   6.761   2.266  1.00 20.00     0.100 C 
ENDROOT
BRANCH   1   2
HETATM    2  C2  UNL     1     -31.990   7.649   1.841  1.00 20.00    -0.027 C 
HETATM    3  C1  UNL     1     -32.150   8.756   1.108  1.00 20.00     0.007 C 
ENDBRANCH   1   2
BRANCH   1   4
HETATM    4  S6  UNL     1     -33.926   7.441   3.739  1.00 20.00    -0.166 SA
BRANCH   4   5
HETATM    5  C5  UNL     1     -35.167   6.149   3.978  1.00 20.00     0.069 C 
HETATM    6  C3  UNL     1     -34.504   4.791   4.113  1.00 20.00     0.016 C 
ENDBRANCH   4   5
ENDBRANCH   1   4
TORSDOF 3
ENDMDL
MODEL 6
REMARK VINA RESULT:      -1.5      1.921      2.626
REMARK  3 active torsions:
REMARK  status: ('A' for Active; 'I' for Inactive)
REMARK    1  A    between atoms: C2_2  and  C4_4 
REMARK    2  A    between atoms: C4_4  and  S6_6 
REMARK    3  A    between atoms: C5_5  and  S6_6 
ROOT
HETATM    1  C4  UNL     1     -33.802   7.517   3.652  1.00 20.00     0.100 C 
ENDROOT
BRANCH   1   2
HETATM    2  C2  UNL     1     -32.904   7.145   2.516  1.00 20.00    -0.027 C 
HETATM    3  C1  UNL     1     -32.125   8.016   1.866  1.00 20.00     0.007 C 
ENDBRANCH   1   2
BRANCH   1   4
HETATM    4  S6  UNL     1     -34.960   6.165   4.001  1.00 20.00    -0.166 SA
BRANCH   4   5
HETATM    5  C5  UNL     1     -33.948   4.790   3.410  1.00 20.00     0.069 C 
HETATM    6  C3  UNL     1     -33.830   3.718   4.476  1.00 20.00     0.016 C 
ENDBRANCH   4   5
ENDBRANCH   1   4
TORSDOF 3
ENDMDL
MODEL 7
REMARK VINA RESULT:      -1.5      2.284      3.882
REMARK  3 active torsions:
REMARK  status: ('A' for Active; 'I' for Inactive)
REMARK    1  A    between atoms: C2_2  and  C4_4 
REMARK    2  A    between atoms: C4_4  and  S6_6 
REMARK    3  A    between atoms: C5_5  and  S6_6 
ROOT
HETATM    1  C4  UNL     1     -33.440   7.667   3.523  1.00 20.00     0.100 C 
ENDROOT
BRANCH   1   2
HETATM    2  C2  UNL     1     -34.187   6.377   3.641  1.00 20.00    -0.027 C 
HETATM    3  C1  UNL     1     -35.457   6.286   4.049  1.00 20.00     0.007 C 
ENDBRANCH   1   2
BRANCH   1   4
HETATM    4  S6  UNL     1     -32.328   7.617   2.092  1.00 20.00    -0.166 SA
BRANCH   4   5
HETATM    5  C5  UNL     1     -32.871   6.043   1.390  1.00 20.00     0.069 C 
HETATM    6  C3  UNL     1     -31.680   5.143   1.116  1.00 20.00     0.016 C 
ENDBRANCH   4   5
ENDBRANCH   1   4
TORSDOF 3
ENDMDL
MODEL 8
REMARK VINA RESULT:      -1.4      1.521      1.891
REMARK  3 active torsions:
REMARK  status: ('A' for Active; 'I' for Inactive)
REMARK    1  A    between atoms: C2_2  and  C4_4 
REMARK    2  A    between atoms: C4_4  and  S6_6 
REMARK    3  A    between atoms: C5_5  and  S6_6 
ROOT
HETATM    1  C4  UNL     1     -31.910   8.238   1.329  1.00 20.00     0.100 C 
ENDROOT
BRANCH   1   2
HETATM    2  C2  UNL     1     -32.356   9.589   0.870  1.00 20.00    -0.027 C 
HETATM    3  C1  UNL     1     -32.624   9.891  -0.405  1.00 20.00     0.007 C 
ENDBRANCH   1   2
BRANCH   1   4
HETATM    4  S6  UNL     1     -32.723   7.809   2.892  1.00 20.00    -0.166 SA
BRANCH   4   5
HETATM    5  C5  UNL     1     -33.329   6.169   2.435  1.00 20.00     0.069 C 
HETATM    6  C3  UNL     1     -32.526   5.608   1.277  1.00 20.00     0.016 C 
ENDBRANCH   4   5
ENDBRANCH   1   4
TORSDOF 3
ENDMDL
MODEL 9
REMARK VINA RESULT:      -1.2      2.024      2.523
REMARK  3 active torsions:
REMARK  status: ('A' for Active; 'I' for Inactive)
REMARK    1  A    between atoms: C2_2  and  C4_4 
REMARK    2  A    between atoms: C4_4  and  S6_6 
REMARK    3  A    between atoms: C5_5  and  S6_6 
ROOT
HETATM    1  C4  UNL     1     -32.801   7.616   2.599  1.00 20.00     0.100 C 
ENDROOT
BRANCH   1   2
HETATM    2  C2  UNL     1     -33.090   6.395   1.785  1.00 20.00    -0.027 C 
HETATM    3  C1  UNL     1     -32.149   5.549   1.353  1.00 20.00     0.007 C 
ENDBRANCH   1   2
BRANCH   1   4
HETATM    4  S6  UNL     1     -33.781   7.596   4.125  1.00 20.00    -0.166 SA
BRANCH   4   5
HETATM    5  C5  UNL     1     -35.099   6.487   3.579  1.00 20.00     0.069 C 
HETATM    6  C3  UNL     1     -35.150   5.248   4.454  1.00 20.00     0.016 C 
ENDBRANCH   4   5
ENDBRANCH   1   4
TORSDOF 3
ENDMDL
