MODEL 1
REMARK VINA RESULT:      -0.9      0.000      0.000
REMARK  1 active torsions:
REMARK  status: ('A' for Active; 'I' for Inactive)
REMARK    1  A    between atoms: C4_4  and  S7_7 
ROOT
HETATM    1  C1  UNL     1     -32.194   8.217   2.329  1.00 20.00     0.009 A 
HETATM    2  C2  UNL     1     -33.192   7.857   3.281  1.00 20.00     0.026 A 
HETATM    3  C3  UNL     1     -31.947   7.202   1.431  1.00 20.00     0.051 A 
HETATM    4  C4  UNL     1     -33.671   6.582   3.073  1.00 20.00     0.040 A 
HETATM    5  S6  UNL     1     -32.916   5.824   1.734  1.00 20.00    -0.095 SA
ENDROOT
BRANCH   4   6
HETATM    6  S7  UNL     1     -34.902   5.774   4.025  1.00 20.00    -0.127 SA
HETATM    7  C5  UNL     1     -34.136   4.147   4.244  1.00 20.00     0.096 C 
ENDBRANCH   4   6
TORSDOF 1
ENDMDL
MODEL 2
REMARK VINA RESULT:      -0.8      1.562      3.629
REMARK  1 active torsions:
REMARK  status: ('A' for Active; 'I' for Inactive)
REMARK    1  A    between atoms: C4_4  and  S7_7 
ROOT
HETATM    1  C1  UNL     1     -34.362   7.043   3.957  1.00 20.00     0.009 A 
HETATM    2  C2  UNL     1     -33.467   8.011   3.416  1.00 20.00     0.026 A 
HETATM    3  C3  UNL     1     -34.269   5.832   3.307  1.00 20.00     0.051 A 
HETATM    4  C4  UNL     1     -32.724   7.503   2.373  1.00 20.00     0.040 A 
HETATM    5  S6  UNL     1     -33.107   5.865   2.050  1.00 20.00    -0.095 SA
ENDROOT
BRANCH   4   6
HETATM    6  S7  UNL     1     -31.516   8.374   1.447  1.00 20.00    -0.127 SA
HETATM    7  C5  UNL     1     -32.564   9.570   0.580  1.00 20.00     0.096 C 
ENDBRANCH   4   6
TORSDOF 1
ENDMDL
MODEL 3
REMARK VINA RESULT:      -0.8      1.229      1.584
REMARK  1 active torsions:
REMARK  status: ('A' for Active; 'I' for Inactive)
REMARK    1  A    between atoms: C4_4  and  S7_7 
ROOT
HETATM    1  C1  UNL     1     -32.129   6.822   1.349  1.00 20.00     0.009 A 
HETATM    2  C2  UNL     1     -33.017   5.855   1.901  1.00 20.00     0.026 A 
HETATM    3  C3  UNL     1     -32.106   7.984   2.088  1.00 20.00     0.051 A 
HETATM    4  C4  UNL     1     -33.639   6.313   3.042  1.00 20.00     0.040 A 
HETATM    5  S6  UNL     1     -33.152   7.906   3.441  1.00 20.00    -0.095 SA
ENDROOT
BRANCH   4   6
HETATM    6  S7  UNL     1     -34.797   5.425   4.013  1.00 20.00    -0.127 SA
HETATM    7  C5  UNL     1     -33.896   3.875   4.269  1.00 20.00     0.096 C 
ENDBRANCH   4   6
TORSDOF 1
ENDMDL
MODEL 4
REMARK VINA RESULT:      -0.7      1.278      3.541
REMARK  1 active torsions:
REMARK  status: ('A' for Active; 'I' for Inactive)
REMARK    1  A    between atoms: C4_4  and  S7_7 
ROOT
HETATM    1  C1  UNL     1     -35.305   6.372   4.261  1.00 20.00     0.009 A 
HETATM    2  C2  UNL     1     -34.392   6.861   3.282  1.00 20.00     0.026 A 
HETATM    3  C3  UNL     1     -35.122   5.030   4.513  1.00 20.00     0.051 A 
HETATM    4  C4  UNL     1     -33.545   5.875   2.825  1.00 20.00     0.040 A 
HETATM    5  S6  UNL     1     -33.854   4.366   3.574  1.00 20.00    -0.095 SA
ENDROOT
BRANCH   4   6
HETATM    6  S7  UNL     1     -32.283   6.075   1.624  1.00 20.00    -0.127 SA
HETATM    7  C5  UNL     1     -31.977   7.855   1.759  1.00 20.00     0.096 C 
ENDBRANCH   4   6
TORSDOF 1
ENDMDL
MODEL 5
REMARK VINA RESULT:      -0.4      1.803      3.894
REMARK  1 active torsions:
REMARK  status: ('A' for Active; 'I' for Inactive)
REMARK    1  A    between atoms: C4_4  and  S7_7 
ROOT
HETATM    1  C1  UNL     1     -34.336   5.602   3.186  1.00 20.00     0.009 A 
HETATM    2  C2  UNL     1     -33.282   5.985   2.308  1.00 20.00     0.026 A 
HETATM    3  C3  UNL     1     -34.673   6.611   4.062  1.00 20.00     0.051 A 
HETATM    4  C4  UNL     1     -32.854   7.273   2.544  1.00 20.00     0.040 A 
HETATM    5  S6  UNL     1     -33.721   8.013   3.822  1.00 20.00    -0.095 SA
ENDROOT
BRANCH   4   6
HETATM    6  S7  UNL     1     -31.580   8.111   1.678  1.00 20.00    -0.127 SA
HETATM    7  C5  UNL     1     -32.550   9.356   0.788  1.00 20.00     0.096 C 
ENDBRANCH   4   6
TORSDOF 1
ENDMDL
MODEL 6
REMARK VINA RESULT:      -0.4      1.265      3.785
REMARK  1 active torsions:
REMARK  status: ('A' for Active; 'I' for Inactive)
REMARK    1  A    between atoms: C4_4  and  S7_7 
ROOT
HETATM    1  C1  UNL     1     -34.884   4.846   4.321  1.00 20.00     0.009 A 
HETATM    2  C2  UNL     1     -33.845   4.694   3.358  1.00 20.00     0.026 A 
HETATM    3  C3  UNL     1     -35.267   6.162   4.465  1.00 20.00     0.051 A 
HETATM    4  C4  UNL     1     -33.475   5.898   2.801  1.00 20.00     0.040 A 
HETATM    5  S6  UNL     1     -34.377   7.206   3.441  1.00 20.00    -0.095 SA
ENDROOT
BRANCH   4   6
HETATM    6  S7  UNL     1     -32.237   6.134   1.581  1.00 20.00    -0.127 SA
HETATM    7  C5  UNL     1     -31.948   7.914   1.743  1.00 20.00     0.096 C 
ENDBRANCH   4   6
TORSDOF 1
ENDMDL
MODEL 7
REMARK VINA RESULT:      -0.3      1.201      1.376
REMARK  1 active torsions:
REMARK  status: ('A' for Active; 'I' for Inactive)
REMARK    1  A    between atoms: C4_4  and  S7_7 
ROOT
HETATM    1  C1  UNL     1     -31.600   7.657   1.339  1.00 20.00     0.009 A 
HETATM    2  C2  UNL     1     -32.348   8.167   2.440  1.00 20.00     0.026 A 
HETATM    3  C3  UNL     1     -31.926   6.348   1.056  1.00 20.00     0.051 A 
HETATM    4  C4  UNL     1     -33.217   7.231   2.954  1.00 20.00     0.040 A 
HETATM    5  S6  UNL     1     -33.128   5.742   2.112  1.00 20.00    -0.095 SA
ENDROOT
BRANCH   4   6
HETATM    6  S7  UNL     1     -34.309   7.469   4.305  1.00 20.00    -0.127 SA
HETATM    7  C5  UNL     1     -35.384   6.023   4.121  1.00 20.00     0.096 C 
ENDBRANCH   4   6
TORSDOF 1
ENDMDL
MODEL 8
REMARK VINA RESULT:       0.2      1.588      3.341
REMARK  1 active torsions:
REMARK  status: ('A' for Active; 'I' for Inactive)
REMARK    1  A    between atoms: C4_4  and  S7_7 
ROOT
HETATM    1  C1  UNL     1     -35.372   6.311   4.409  1.00 20.00     0.009 A 
HETATM    2  C2  UNL     1     -34.522   7.116   3.597  1.00 20.00     0.026 A 
HETATM    3  C3  UNL     1     -35.015   4.981   4.371  1.00 20.00     0.051 A 
HETATM    4  C4  UNL     1     -33.547   6.372   2.971  1.00 20.00     0.040 A 
HETATM    5  S6  UNL     1     -33.660   4.708   3.361  1.00 20.00    -0.095 SA
ENDROOT
BRANCH   4   6
HETATM    6  S7  UNL     1     -32.310   6.990   1.893  1.00 20.00    -0.127 SA
HETATM    7  C5  UNL     1     -31.857   5.477   1.006  1.00 20.00     0.096 C 
ENDBRANCH   4   6
TORSDOF 1
ENDMDL
MODEL 9
REMARK VINA RESULT:       0.5      1.526      3.104
REMARK  1 active torsions:
REMARK  status: ('A' for Active; 'I' for Inactive)
REMARK    1  A    between atoms: C4_4  and  S7_7 
ROOT
HETATM    1  C1  UNL     1     -34.596   7.503   4.477  1.00 20.00     0.009 A 
HETATM    2  C2  UNL     1     -33.544   7.944   3.624  1.00 20.00     0.026 A 
HETATM    3  C3  UNL     1     -34.966   6.203   4.212  1.00 20.00     0.051 A 
HETATM    4  C4  UNL     1     -33.148   6.964   2.740  1.00 20.00     0.040 A 
HETATM    5  S6  UNL     1     -34.045   5.519   2.941  1.00 20.00    -0.095 SA
ENDROOT
BRANCH   4   6
HETATM    6  S7  UNL     1     -31.886   7.113   1.532  1.00 20.00    -0.127 SA
HETATM    7  C5  UNL     1     -31.801   5.407   0.931  1.00 20.00     0.096 C 
ENDBRANCH   4   6
TORSDOF 1
ENDMDL
