MODEL 1
REMARK VINA RESULT:      -1.9      0.000      0.000
REMARK  5 active torsions:
REMARK  status: ('A' for Active; 'I' for Inactive)
REMARK    1  A    between atoms: C6_6  and  C8_8 
REMARK    2  A    between atoms: C8_8  and  C10_10 
REMARK    3  A    between atoms: C9_9  and  C11_11 
REMARK    4  A    between atoms: C10_10  and  C12_12 
REMARK    5  A    between atoms: C11_11  and  C12_12 
ROOT
HETATM    1  C1  UNL     1     -35.227   5.104   4.723  1.00 20.00     0.000 A 
HETATM    2  C2  UNL     1     -34.290   4.178   4.265  1.00 20.00     0.001 A 
HETATM    3  C3  UNL     1     -35.320   6.359   4.120  1.00 20.00     0.001 A 
HETATM    4  C4  UNL     1     -33.447   4.506   3.204  1.00 20.00     0.007 A 
HETATM    5  C5  UNL     1     -34.475   6.687   3.060  1.00 20.00     0.007 A 
HETATM    6  C6  UNL     1     -33.539   5.761   2.601  1.00 20.00    -0.058 A 
ENDROOT
BRANCH   6   7
HETATM    7  C8  UNL     1     -32.633   6.114   1.463  1.00 20.00     0.038 C 
BRANCH   7   8
HETATM    8  C10 UNL     1     -31.558   7.118   1.884  1.00 20.00     0.005 C 
BRANCH   8   9
HETATM    9  C12 UNL     1     -31.961   8.548   1.517  1.00 20.00     0.000 C 
BRANCH   9  10
HETATM   10  C11 UNL     1     -31.844   8.791   0.012  1.00 20.00    -0.000 C 
BRANCH  10  11
HETATM   11  C9  UNL     1     -32.654  10.013  -0.419  1.00 20.00    -0.005 C 
HETATM   12  C7  UNL     1     -32.871  10.974   0.740  1.00 20.00     0.005 C 
ENDBRANCH  10  11
ENDBRANCH   9  10
ENDBRANCH   8   9
ENDBRANCH   7   8
ENDBRANCH   6   7
TORSDOF 5
ENDMDL
MODEL 2
REMARK VINA RESULT:      -1.9      0.024      1.395
REMARK  5 active torsions:
REMARK  status: ('A' for Active; 'I' for Inactive)
REMARK    1  A    between atoms: C6_6  and  C8_8 
REMARK    2  A    between atoms: C8_8  and  C10_10 
REMARK    3  A    between atoms: C9_9  and  C11_11 
REMARK    4  A    between atoms: C10_10  and  C12_12 
REMARK    5  A    between atoms: C11_11  and  C12_12 
ROOT
HETATM    1  C1  UNL     1     -35.227   5.089   4.733  1.00 20.00     0.000 A 
HETATM    2  C2  UNL     1     -35.325   6.340   4.122  1.00 20.00     0.001 A 
HETATM    3  C3  UNL     1     -34.284   4.165   4.282  1.00 20.00     0.001 A 
HETATM    4  C4  UNL     1     -34.480   6.666   3.063  1.00 20.00     0.007 A 
HETATM    5  C5  UNL     1     -33.439   4.492   3.222  1.00 20.00     0.007 A 
HETATM    6  C6  UNL     1     -33.536   5.742   2.612  1.00 20.00    -0.058 A 
ENDROOT
BRANCH   6   7
HETATM    7  C8  UNL     1     -32.630   6.093   1.474  1.00 20.00     0.038 C 
BRANCH   7   8
HETATM    8  C10 UNL     1     -31.556   7.100   1.892  1.00 20.00     0.005 C 
BRANCH   8   9
HETATM    9  C12 UNL     1     -31.966   8.529   1.530  1.00 20.00     0.000 C 
BRANCH   9  10
HETATM   10  C11 UNL     1     -31.807   8.792   0.032  1.00 20.00    -0.000 C 
BRANCH  10  11
HETATM   11  C9  UNL     1     -32.649   9.986  -0.415  1.00 20.00    -0.005 C 
HETATM   12  C7  UNL     1     -32.877  10.966   0.726  1.00 20.00     0.005 C 
ENDBRANCH  10  11
ENDBRANCH   9  10
ENDBRANCH   8   9
ENDBRANCH   7   8
ENDBRANCH   6   7
TORSDOF 5
ENDMDL
MODEL 3
REMARK VINA RESULT:      -1.5      1.553      5.479
REMARK  5 active torsions:
REMARK  status: ('A' for Active; 'I' for Inactive)
REMARK    1  A    between atoms: C6_6  and  C8_8 
REMARK    2  A    between atoms: C8_8  and  C10_10 
REMARK    3  A    between atoms: C9_9  and  C11_11 
REMARK    4  A    between atoms: C10_10  and  C12_12 
REMARK    5  A    between atoms: C11_11  and  C12_12 
ROOT
HETATM    1  C1  UNL     1     -31.481   7.409   1.168  1.00 20.00     0.000 A 
HETATM    2  C2  UNL     1     -32.345   6.313   1.190  1.00 20.00     0.001 A 
HETATM    3  C3  UNL     1     -31.604   8.412   2.130  1.00 20.00     0.001 A 
HETATM    4  C4  UNL     1     -33.329   6.220   2.172  1.00 20.00     0.007 A 
HETATM    5  C5  UNL     1     -32.590   8.319   3.113  1.00 20.00     0.007 A 
HETATM    6  C6  UNL     1     -33.452   7.223   3.134  1.00 20.00    -0.058 A 
ENDROOT
BRANCH   6   7
HETATM    7  C8  UNL     1     -34.510   7.124   4.189  1.00 20.00     0.038 C 
BRANCH   7   8
HETATM    8  C10 UNL     1     -35.377   5.876   4.007  1.00 20.00     0.005 C 
BRANCH   8   9
HETATM    9  C12 UNL     1     -34.792   4.680   4.760  1.00 20.00     0.000 C 
BRANCH   9  10
HETATM   10  C11 UNL     1     -33.931   3.811   3.842  1.00 20.00    -0.000 C 
BRANCH  10  11
HETATM   11  C9  UNL     1     -33.187   2.735   4.633  1.00 20.00    -0.005 C 
HETATM   12  C7  UNL     1     -32.723   3.256   5.984  1.00 20.00     0.005 C 
ENDBRANCH  10  11
ENDBRANCH   9  10
ENDBRANCH   8   9
ENDBRANCH   7   8
ENDBRANCH   6   7
TORSDOF 5
ENDMDL
MODEL 4
REMARK VINA RESULT:      -1.4      1.029      5.725
REMARK  5 active torsions:
REMARK  status: ('A' for Active; 'I' for Inactive)
REMARK    1  A    between atoms: C6_6  and  C8_8 
REMARK    2  A    between atoms: C8_8  and  C10_10 
REMARK    3  A    between atoms: C9_9  and  C11_11 
REMARK    4  A    between atoms: C10_10  and  C12_12 
REMARK    5  A    between atoms: C11_11  and  C12_12 
ROOT
HETATM    1  C1  UNL     1     -31.780   9.704  -0.204  1.00 20.00     0.000 A 
HETATM    2  C2  UNL     1     -31.280   8.453   0.158  1.00 20.00     0.001 A 
HETATM    3  C3  UNL     1     -32.735  10.332   0.598  1.00 20.00     0.001 A 
HETATM    4  C4  UNL     1     -31.733   7.831   1.321  1.00 20.00     0.007 A 
HETATM    5  C5  UNL     1     -33.188   9.708   1.760  1.00 20.00     0.007 A 
HETATM    6  C6  UNL     1     -32.687   8.458   2.123  1.00 20.00    -0.058 A 
ENDROOT
BRANCH   6   7
HETATM    7  C8  UNL     1     -33.174   7.790   3.370  1.00 20.00     0.038 C 
BRANCH   7   8
HETATM    8  C10 UNL     1     -33.940   6.501   3.062  1.00 20.00     0.005 C 
BRANCH   8   9
HETATM    9  C12 UNL     1     -35.034   6.245   4.100  1.00 20.00     0.000 C 
BRANCH   9  10
HETATM   10  C11 UNL     1     -35.029   4.789   4.566  1.00 20.00    -0.000 C 
BRANCH  10  11
HETATM   11  C9  UNL     1     -33.906   3.996   3.899  1.00 20.00    -0.005 C 
HETATM   12  C7  UNL     1     -33.208   3.076   4.890  1.00 20.00     0.005 C 
ENDBRANCH  10  11
ENDBRANCH   9  10
ENDBRANCH   8   9
ENDBRANCH   7   8
ENDBRANCH   6   7
TORSDOF 5
ENDMDL
MODEL 5
REMARK VINA RESULT:      -1.4      1.041      5.892
REMARK  5 active torsions:
REMARK  status: ('A' for Active; 'I' for Inactive)
REMARK    1  A    between atoms: C6_6  and  C8_8 
REMARK    2  A    between atoms: C8_8  and  C10_10 
REMARK    3  A    between atoms: C9_9  and  C11_11 
REMARK    4  A    between atoms: C10_10  and  C12_12 
REMARK    5  A    between atoms: C11_11  and  C12_12 
ROOT
HETATM    1  C1  UNL     1     -31.791   9.735  -0.301  1.00 20.00     0.000 A 
HETATM    2  C2  UNL     1     -32.735  10.324   0.540  1.00 20.00     0.001 A 
HETATM    3  C3  UNL     1     -31.240   8.496   0.029  1.00 20.00     0.001 A 
HETATM    4  C4  UNL     1     -33.128   9.675   1.710  1.00 20.00     0.007 A 
HETATM    5  C5  UNL     1     -31.633   7.848   1.200  1.00 20.00     0.007 A 
HETATM    6  C6  UNL     1     -32.578   8.436   2.040  1.00 20.00    -0.058 A 
ENDROOT
BRANCH   6   7
HETATM    7  C8  UNL     1     -32.999   7.741   3.296  1.00 20.00     0.038 C 
BRANCH   7   8
HETATM    8  C10 UNL     1     -33.846   6.501   3.002  1.00 20.00     0.005 C 
BRANCH   8   9
HETATM    9  C12 UNL     1     -34.919   6.295   4.074  1.00 20.00     0.000 C 
BRANCH   9  10
HETATM   10  C11 UNL     1     -35.006   4.830   4.500  1.00 20.00    -0.000 C 
BRANCH  10  11
HETATM   11  C9  UNL     1     -33.874   4.004   3.889  1.00 20.00    -0.005 C 
HETATM   12  C7  UNL     1     -33.279   3.038   4.901  1.00 20.00     0.005 C 
ENDBRANCH  10  11
ENDBRANCH   9  10
ENDBRANCH   8   9
ENDBRANCH   7   8
ENDBRANCH   6   7
TORSDOF 5
ENDMDL
MODEL 6
REMARK VINA RESULT:      -0.7      0.826      5.680
REMARK  5 active torsions:
REMARK  status: ('A' for Active; 'I' for Inactive)
REMARK    1  A    between atoms: C6_6  and  C8_8 
REMARK    2  A    between atoms: C8_8  and  C10_10 
REMARK    3  A    between atoms: C9_9  and  C11_11 
REMARK    4  A    between atoms: C10_10  and  C12_12 
REMARK    5  A    between atoms: C11_11  and  C12_12 
ROOT
HETATM    1  C1  UNL     1     -32.568  10.656  -0.066  1.00 20.00     0.000 A 
HETATM    2  C2  UNL     1     -32.053   9.533  -0.714  1.00 20.00     0.001 A 
HETATM    3  C3  UNL     1     -32.904  10.587   1.286  1.00 20.00     0.001 A 
HETATM    4  C4  UNL     1     -31.875   8.342  -0.011  1.00 20.00     0.007 A 
HETATM    5  C5  UNL     1     -32.727   9.395   1.989  1.00 20.00     0.007 A 
HETATM    6  C6  UNL     1     -32.212   8.273   1.341  1.00 20.00    -0.058 A 
ENDROOT
BRANCH   6   7
HETATM    7  C8  UNL     1     -32.022   6.995   2.096  1.00 20.00     0.038 C 
BRANCH   7   8
HETATM    8  C10 UNL     1     -33.321   6.191   2.188  1.00 20.00     0.005 C 
BRANCH   8   9
HETATM    9  C12 UNL     1     -34.074   6.501   3.484  1.00 20.00     0.000 C 
BRANCH   9  10
HETATM   10  C11 UNL     1     -34.635   5.229   4.120  1.00 20.00    -0.000 C 
BRANCH  10  11
HETATM   11  C9  UNL     1     -33.843   3.995   3.686  1.00 20.00    -0.005 C 
HETATM   12  C7  UNL     1     -33.305   3.229   4.885  1.00 20.00     0.005 C 
ENDBRANCH  10  11
ENDBRANCH   9  10
ENDBRANCH   8   9
ENDBRANCH   7   8
ENDBRANCH   6   7
TORSDOF 5
ENDMDL
MODEL 7
REMARK VINA RESULT:      -0.6      0.950      5.154
REMARK  5 active torsions:
REMARK  status: ('A' for Active; 'I' for Inactive)
REMARK    1  A    between atoms: C6_6  and  C8_8 
REMARK    2  A    between atoms: C8_8  and  C10_10 
REMARK    3  A    between atoms: C9_9  and  C11_11 
REMARK    4  A    between atoms: C10_10  and  C12_12 
REMARK    5  A    between atoms: C11_11  and  C12_12 
ROOT
HETATM    1  C1  UNL     1     -32.725  10.627  -0.235  1.00 20.00     0.000 A 
HETATM    2  C2  UNL     1     -32.988  10.543   1.133  1.00 20.00     0.001 A 
HETATM    3  C3  UNL     1     -32.051   9.590  -0.880  1.00 20.00     0.001 A 
HETATM    4  C4  UNL     1     -32.576   9.423   1.854  1.00 20.00     0.007 A 
HETATM    5  C5  UNL     1     -31.639   8.471  -0.158  1.00 20.00     0.007 A 
HETATM    6  C6  UNL     1     -31.901   8.386   1.209  1.00 20.00    -0.058 A 
ENDROOT
BRANCH   6   7
HETATM    7  C8  UNL     1     -31.459   7.185   1.983  1.00 20.00     0.038 C 
BRANCH   7   8
HETATM    8  C10 UNL     1     -32.010   5.888   1.385  1.00 20.00     0.005 C 
BRANCH   8   9
HETATM    9  C12 UNL     1     -33.492   5.711   1.718  1.00 20.00     0.000 C 
BRANCH   9  10
HETATM   10  C11 UNL     1     -33.711   5.558   3.223  1.00 20.00    -0.000 C 
BRANCH  10  11
HETATM   11  C9  UNL     1     -34.759   6.545   3.736  1.00 20.00    -0.005 C 
HETATM   12  C7  UNL     1     -34.114   7.707   4.477  1.00 20.00     0.005 C 
ENDBRANCH  10  11
ENDBRANCH   9  10
ENDBRANCH   8   9
ENDBRANCH   7   8
ENDBRANCH   6   7
TORSDOF 5
ENDMDL
MODEL 8
REMARK VINA RESULT:       0.3      2.024      5.059
REMARK  5 active torsions:
REMARK  status: ('A' for Active; 'I' for Inactive)
REMARK    1  A    between atoms: C6_6  and  C8_8 
REMARK    2  A    between atoms: C8_8  and  C10_10 
REMARK    3  A    between atoms: C9_9  and  C11_11 
REMARK    4  A    between atoms: C10_10  and  C12_12 
REMARK    5  A    between atoms: C11_11  and  C12_12 
ROOT
HETATM    1  C1  UNL     1     -32.397   4.340   0.155  1.00 20.00     0.000 A 
HETATM    2  C2  UNL     1     -33.642   4.962   0.055  1.00 20.00     0.001 A 
HETATM    3  C3  UNL     1     -31.453   4.815   1.066  1.00 20.00     0.001 A 
HETATM    4  C4  UNL     1     -33.943   6.056   0.865  1.00 20.00     0.007 A 
HETATM    5  C5  UNL     1     -31.754   5.910   1.876  1.00 20.00     0.007 A 
HETATM    6  C6  UNL     1     -32.998   6.530   1.776  1.00 20.00    -0.058 A 
ENDROOT
BRANCH   6   7
HETATM    7  C8  UNL     1     -33.321   7.705   2.645  1.00 20.00     0.038 C 
BRANCH   7   8
HETATM    8  C10 UNL     1     -33.917   7.274   3.986  1.00 20.00     0.005 C 
BRANCH   8   9
HETATM    9  C12 UNL     1     -35.098   6.322   3.788  1.00 20.00     0.000 C 
BRANCH   9  10
HETATM   10  C11 UNL     1     -34.924   5.040   4.603  1.00 20.00    -0.000 C 
BRANCH  10  11
HETATM   11  C9  UNL     1     -34.063   4.020   3.858  1.00 20.00    -0.005 C 
HETATM   12  C7  UNL     1     -33.265   3.155   4.821  1.00 20.00     0.005 C 
ENDBRANCH  10  11
ENDBRANCH   9  10
ENDBRANCH   8   9
ENDBRANCH   7   8
ENDBRANCH   6   7
TORSDOF 5
ENDMDL
MODEL 9
REMARK VINA RESULT:       0.4      1.108      5.236
REMARK  5 active torsions:
REMARK  status: ('A' for Active; 'I' for Inactive)
REMARK    1  A    between atoms: C6_6  and  C8_8 
REMARK    2  A    between atoms: C8_8  and  C10_10 
REMARK    3  A    between atoms: C9_9  and  C11_11 
REMARK    4  A    between atoms: C10_10  and  C12_12 
REMARK    5  A    between atoms: C11_11  and  C12_12 
ROOT
HETATM    1  C1  UNL     1     -32.134  10.000  -0.400  1.00 20.00     0.000 A 
HETATM    2  C2  UNL     1     -32.969  10.508   0.596  1.00 20.00     0.001 A 
HETATM    3  C3  UNL     1     -31.402   8.835  -0.169  1.00 20.00     0.001 A 
HETATM    4  C4  UNL     1     -33.070   9.852   1.822  1.00 20.00     0.007 A 
HETATM    5  C5  UNL     1     -31.503   8.180   1.058  1.00 20.00     0.007 A 
HETATM    6  C6  UNL     1     -32.338   8.687   2.054  1.00 20.00    -0.058 A 
ENDROOT
BRANCH   6   7
HETATM    7  C8  UNL     1     -32.446   7.984   3.370  1.00 20.00     0.038 C 
BRANCH   7   8
HETATM    8  C10 UNL     1     -33.894   7.916   3.860  1.00 20.00     0.005 C 
BRANCH   8   9
HETATM    9  C12 UNL     1     -34.521   6.556   3.552  1.00 20.00     0.000 C 
BRANCH   9  10
HETATM   10  C11 UNL     1     -33.463   5.539   3.124  1.00 20.00    -0.000 C 
BRANCH  10  11
HETATM   11  C9  UNL     1     -33.444   5.360   1.606  1.00 20.00    -0.005 C 
HETATM   12  C7  UNL     1     -32.064   4.961   1.108  1.00 20.00     0.005 C 
ENDBRANCH  10  11
ENDBRANCH   9  10
ENDBRANCH   8   9
ENDBRANCH   7   8
ENDBRANCH   6   7
TORSDOF 5
ENDMDL
