MODEL 1
REMARK VINA RESULT:      -1.0      0.000      0.000
REMARK  0 active torsions:
REMARK  status: ('A' for Active; 'I' for Inactive)
ROOT
HETATM    1  C1  UNL     1     -33.562   5.412   2.490  1.00 20.00     0.008 A 
HETATM    2  C2  UNL     1     -34.165   7.247   3.939  1.00 20.00     0.008 A 
HETATM    3  C3  UNL     1     -32.829   6.285   1.688  1.00 20.00     0.019 A 
HETATM    4  C4  UNL     1     -33.431   8.121   3.138  1.00 20.00     0.019 A 
HETATM    5  C5  UNL     1     -34.231   5.892   3.616  1.00 20.00    -0.062 A 
HETATM    6  C6  UNL     1     -32.762   7.640   2.012  1.00 20.00     0.006 A 
HETATM    7  C7  UNL     1     -35.018   4.958   4.471  1.00 20.00     0.048 C 
HETATM    8  I8  UNL     1     -31.670   8.942   0.815  1.00 20.00    -0.045 I 
ENDROOT
TORSDOF 0
ENDMDL
MODEL 2
REMARK VINA RESULT:      -1.0      0.017      1.708
REMARK  0 active torsions:
REMARK  status: ('A' for Active; 'I' for Inactive)
ROOT
HETATM    1  C1  UNL     1     -34.179   7.244   3.942  1.00 20.00     0.008 A 
HETATM    2  C2  UNL     1     -33.574   5.402   2.501  1.00 20.00     0.008 A 
HETATM    3  C3  UNL     1     -33.443   8.114   3.140  1.00 20.00     0.019 A 
HETATM    4  C4  UNL     1     -32.837   6.273   1.698  1.00 20.00     0.019 A 
HETATM    5  C5  UNL     1     -34.246   5.887   3.623  1.00 20.00    -0.062 A 
HETATM    6  C6  UNL     1     -32.771   7.629   2.017  1.00 20.00     0.006 A 
HETATM    7  C7  UNL     1     -35.032   4.956   4.483  1.00 20.00     0.048 C 
HETATM    8  I8  UNL     1     -31.671   8.926   0.823  1.00 20.00    -0.045 I 
ENDROOT
TORSDOF 0
ENDMDL
MODEL 3
REMARK VINA RESULT:      -0.2      2.445      3.648
REMARK  0 active torsions:
REMARK  status: ('A' for Active; 'I' for Inactive)
ROOT
HETATM    1  C1  UNL     1     -32.224   6.731   1.236  1.00 20.00     0.008 A 
HETATM    2  C2  UNL     1     -33.152   8.263   2.857  1.00 20.00     0.008 A 
HETATM    3  C3  UNL     1     -32.720   5.654   1.969  1.00 20.00     0.019 A 
HETATM    4  C4  UNL     1     -33.649   7.186   3.590  1.00 20.00     0.019 A 
HETATM    5  C5  UNL     1     -32.440   8.036   1.680  1.00 20.00    -0.062 A 
HETATM    6  C6  UNL     1     -33.434   5.881   3.147  1.00 20.00     0.006 A 
HETATM    7  C7  UNL     1     -31.906   9.188   0.897  1.00 20.00     0.048 C 
HETATM    8  I8  UNL     1     -34.171   4.275   4.240  1.00 20.00    -0.045 I 
ENDROOT
TORSDOF 0
ENDMDL
MODEL 4
REMARK VINA RESULT:      -0.2      2.428      4.051
REMARK  0 active torsions:
REMARK  status: ('A' for Active; 'I' for Inactive)
ROOT
HETATM    1  C1  UNL     1     -32.725   8.397   2.783  1.00 20.00     0.008 A 
HETATM    2  C2  UNL     1     -32.332   6.593   1.225  1.00 20.00     0.008 A 
HETATM    3  C3  UNL     1     -33.482   7.542   3.583  1.00 20.00     0.019 A 
HETATM    4  C4  UNL     1     -33.089   5.738   2.026  1.00 20.00     0.019 A 
HETATM    5  C5  UNL     1     -32.150   7.923   1.604  1.00 20.00    -0.062 A 
HETATM    6  C6  UNL     1     -33.664   6.212   3.205  1.00 20.00     0.006 A 
HETATM    7  C7  UNL     1     -31.343   8.839   0.747  1.00 20.00     0.048 C 
HETATM    8  I8  UNL     1     -34.794   4.938   4.396  1.00 20.00    -0.045 I 
ENDROOT
TORSDOF 0
ENDMDL
MODEL 5
REMARK VINA RESULT:       1.3      1.770      2.571
REMARK  0 active torsions:
REMARK  status: ('A' for Active; 'I' for Inactive)
ROOT
HETATM    1  C1  UNL     1     -34.163   6.283   3.691  1.00 20.00     0.008 A 
HETATM    2  C2  UNL     1     -32.623   7.971   2.908  1.00 20.00     0.008 A 
HETATM    3  C3  UNL     1     -33.734   5.422   2.682  1.00 20.00     0.019 A 
HETATM    4  C4  UNL     1     -32.193   7.109   1.899  1.00 20.00     0.019 A 
HETATM    5  C5  UNL     1     -33.608   7.558   3.804  1.00 20.00    -0.062 A 
HETATM    6  C6  UNL     1     -32.748   5.835   1.785  1.00 20.00     0.006 A 
HETATM    7  C7  UNL     1     -34.070   8.479   4.882  1.00 20.00     0.048 C 
HETATM    8  I8  UNL     1     -32.110   4.552   0.280  1.00 20.00    -0.045 I 
ENDROOT
TORSDOF 0
ENDMDL
MODEL 6
REMARK VINA RESULT:       1.3      1.765      2.670
REMARK  0 active torsions:
REMARK  status: ('A' for Active; 'I' for Inactive)
ROOT
HETATM    1  C1  UNL     1     -32.644   7.981   2.915  1.00 20.00     0.008 A 
HETATM    2  C2  UNL     1     -34.166   6.290   3.727  1.00 20.00     0.008 A 
HETATM    3  C3  UNL     1     -32.227   7.120   1.901  1.00 20.00     0.019 A 
HETATM    4  C4  UNL     1     -33.750   5.429   2.713  1.00 20.00     0.019 A 
HETATM    5  C5  UNL     1     -33.613   7.567   3.829  1.00 20.00    -0.062 A 
HETATM    6  C6  UNL     1     -32.780   5.843   1.799  1.00 20.00     0.006 A 
HETATM    7  C7  UNL     1     -34.056   8.487   4.915  1.00 20.00     0.048 C 
HETATM    8  I8  UNL     1     -32.158   4.559   0.289  1.00 20.00    -0.045 I 
ENDROOT
TORSDOF 0
ENDMDL
MODEL 7
REMARK VINA RESULT:       1.9      1.035      1.189
REMARK  0 active torsions:
REMARK  status: ('A' for Active; 'I' for Inactive)
ROOT
HETATM    1  C1  UNL     1     -33.043   6.072   1.464  1.00 20.00     0.008 A 
HETATM    2  C2  UNL     1     -33.247   7.197   3.592  1.00 20.00     0.008 A 
HETATM    3  C3  UNL     1     -32.634   7.266   0.872  1.00 20.00     0.019 A 
HETATM    4  C4  UNL     1     -32.837   8.391   3.000  1.00 20.00     0.019 A 
HETATM    5  C5  UNL     1     -33.350   6.037   2.825  1.00 20.00    -0.062 A 
HETATM    6  C6  UNL     1     -32.530   8.426   1.640  1.00 20.00     0.006 A 
HETATM    7  C7  UNL     1     -33.790   4.760   3.456  1.00 20.00     0.048 C 
HETATM    8  I8  UNL     1     -31.922  10.206   0.756  1.00 20.00    -0.045 I 
ENDROOT
TORSDOF 0
ENDMDL
