MODEL 1
REMARK VINA RESULT:      -2.6      0.000      0.000
REMARK  1 active torsions:
REMARK  status: ('A' for Active; 'I' for Inactive)
REMARK    1  A    between atoms: C6_6  and  C9_9 
ROOT
HETATM    1  C1  UNL     1     -35.297   6.161   4.144  1.00 20.00     0.001 A 
HETATM    2  C2  UNL     1     -34.955   4.886   4.596  1.00 20.00     0.007 A 
HETATM    3  C3  UNL     1     -34.526   6.782   3.161  1.00 20.00     0.007 A 
HETATM    4  C4  UNL     1     -33.073   4.855   3.082  1.00 20.00     0.013 A 
HETATM    5  C5  UNL     1     -33.843   4.233   4.064  1.00 20.00    -0.061 A 
HETATM    6  C6  UNL     1     -33.414   6.130   2.630  1.00 20.00    -0.058 A 
HETATM    7  C7  UNL     1     -33.480   2.869   4.547  1.00 20.00     0.048 C 
ENDROOT
BRANCH   6   8
HETATM    8  C9  UNL     1     -32.590   6.795   1.580  1.00 20.00     0.034 C 
HETATM    9  C8  UNL     1     -32.028   8.136   2.046  1.00 20.00     0.010 C 
ENDBRANCH   6   8
TORSDOF 1
ENDMDL
MODEL 2
REMARK VINA RESULT:      -2.6      1.484      2.986
REMARK  1 active torsions:
REMARK  status: ('A' for Active; 'I' for Inactive)
REMARK    1  A    between atoms: C6_6  and  C9_9 
ROOT
HETATM    1  C1  UNL     1     -32.501   5.436   1.559  1.00 20.00     0.001 A 
HETATM    2  C2  UNL     1     -33.504   5.387   2.527  1.00 20.00     0.007 A 
HETATM    3  C3  UNL     1     -31.947   6.663   1.193  1.00 20.00     0.007 A 
HETATM    4  C4  UNL     1     -33.397   7.788   2.763  1.00 20.00     0.013 A 
HETATM    5  C5  UNL     1     -33.952   6.562   3.129  1.00 20.00    -0.061 A 
HETATM    6  C6  UNL     1     -32.394   7.838   1.794  1.00 20.00    -0.058 A 
HETATM    7  C7  UNL     1     -35.023   6.507   4.166  1.00 20.00     0.048 C 
ENDROOT
BRANCH   6   8
HETATM    8  C9  UNL     1     -31.801   9.150   1.402  1.00 20.00     0.034 C 
HETATM    9  C8  UNL     1     -32.488   9.756   0.181  1.00 20.00     0.010 C 
ENDBRANCH   6   8
TORSDOF 1
ENDMDL
MODEL 3
REMARK VINA RESULT:      -2.4      1.244      3.629
REMARK  1 active torsions:
REMARK  status: ('A' for Active; 'I' for Inactive)
REMARK    1  A    between atoms: C6_6  and  C9_9 
ROOT
HETATM    1  C1  UNL     1     -32.226   8.146   2.218  1.00 20.00     0.001 A 
HETATM    2  C2  UNL     1     -31.806   7.096   1.400  1.00 20.00     0.007 A 
HETATM    3  C3  UNL     1     -33.288   7.957   3.103  1.00 20.00     0.007 A 
HETATM    4  C4  UNL     1     -33.506   5.671   2.354  1.00 20.00     0.013 A 
HETATM    5  C5  UNL     1     -32.445   5.859   1.469  1.00 20.00    -0.061 A 
HETATM    6  C6  UNL     1     -33.928   6.720   3.172  1.00 20.00    -0.058 A 
HETATM    7  C7  UNL     1     -31.993   4.738   0.595  1.00 20.00     0.048 C 
ENDROOT
BRANCH   6   8
HETATM    8  C9  UNL     1     -35.063   6.518   4.118  1.00 20.00     0.034 C 
HETATM    9  C8  UNL     1     -35.257   5.050   4.487  1.00 20.00     0.010 C 
ENDBRANCH   6   8
TORSDOF 1
ENDMDL
MODEL 4
REMARK VINA RESULT:      -2.3      0.627      3.536
REMARK  1 active torsions:
REMARK  status: ('A' for Active; 'I' for Inactive)
REMARK    1  A    between atoms: C6_6  and  C9_9 
ROOT
HETATM    1  C1  UNL     1     -35.269   6.583   4.115  1.00 20.00     0.001 A 
HETATM    2  C2  UNL     1     -34.405   7.340   3.324  1.00 20.00     0.007 A 
HETATM    3  C3  UNL     1     -35.013   5.227   4.325  1.00 20.00     0.007 A 
HETATM    4  C4  UNL     1     -33.030   5.389   2.955  1.00 20.00     0.013 A 
HETATM    5  C5  UNL     1     -33.285   6.743   2.745  1.00 20.00    -0.061 A 
HETATM    6  C6  UNL     1     -33.895   4.630   3.746  1.00 20.00    -0.058 A 
HETATM    7  C7  UNL     1     -32.362   7.555   1.901  1.00 20.00     0.048 C 
ENDROOT
BRANCH   6   8
HETATM    8  C9  UNL     1     -33.622   3.180   3.970  1.00 20.00     0.034 C 
HETATM    9  C8  UNL     1     -32.826   2.931   5.249  1.00 20.00     0.010 C 
ENDBRANCH   6   8
TORSDOF 1
ENDMDL
MODEL 5
REMARK VINA RESULT:      -2.0      1.354      4.291
REMARK  1 active torsions:
REMARK  status: ('A' for Active; 'I' for Inactive)
REMARK    1  A    between atoms: C6_6  and  C9_9 
ROOT
HETATM    1  C1  UNL     1     -32.412   5.423   1.565  1.00 20.00     0.001 A 
HETATM    2  C2  UNL     1     -31.858   6.620   1.112  1.00 20.00     0.007 A 
HETATM    3  C3  UNL     1     -33.400   5.441   2.550  1.00 20.00     0.007 A 
HETATM    4  C4  UNL     1     -33.279   7.852   2.627  1.00 20.00     0.013 A 
HETATM    5  C5  UNL     1     -32.291   7.835   1.643  1.00 20.00    -0.061 A 
HETATM    6  C6  UNL     1     -33.833   6.655   3.081  1.00 20.00    -0.058 A 
HETATM    7  C7  UNL     1     -31.698   9.114   1.156  1.00 20.00     0.048 C 
ENDROOT
BRANCH   6   8
HETATM    8  C9  UNL     1     -34.890   6.674   4.135  1.00 20.00     0.034 C 
HETATM    9  C8  UNL     1     -35.365   5.272   4.505  1.00 20.00     0.010 C 
ENDBRANCH   6   8
TORSDOF 1
ENDMDL
MODEL 6
REMARK VINA RESULT:      -1.6      1.523      2.927
REMARK  1 active torsions:
REMARK  status: ('A' for Active; 'I' for Inactive)
REMARK    1  A    between atoms: C6_6  and  C9_9 
ROOT
HETATM    1  C1  UNL     1     -32.638   8.214   2.870  1.00 20.00     0.001 A 
HETATM    2  C2  UNL     1     -33.711   7.785   3.651  1.00 20.00     0.007 A 
HETATM    3  C3  UNL     1     -32.082   7.357   1.919  1.00 20.00     0.007 A 
HETATM    4  C4  UNL     1     -33.673   5.646   2.532  1.00 20.00     0.013 A 
HETATM    5  C5  UNL     1     -34.229   6.502   3.483  1.00 20.00    -0.061 A 
HETATM    6  C6  UNL     1     -32.599   6.073   1.750  1.00 20.00    -0.058 A 
HETATM    7  C7  UNL     1     -35.377   6.046   4.318  1.00 20.00     0.048 C 
ENDROOT
BRANCH   6   8
HETATM    8  C9  UNL     1     -32.004   5.157   0.734  1.00 20.00     0.034 C 
HETATM    9  C8  UNL     1     -33.064   4.344  -0.004  1.00 20.00     0.010 C 
ENDBRANCH   6   8
TORSDOF 1
ENDMDL
MODEL 7
REMARK VINA RESULT:      -1.5      1.866      2.760
REMARK  1 active torsions:
REMARK  status: ('A' for Active; 'I' for Inactive)
REMARK    1  A    between atoms: C6_6  and  C9_9 
ROOT
HETATM    1  C1  UNL     1     -32.718   8.495   4.725  1.00 20.00     0.001 A 
HETATM    2  C2  UNL     1     -33.823   7.654   4.852  1.00 20.00     0.007 A 
HETATM    3  C3  UNL     1     -32.065   8.607   3.497  1.00 20.00     0.007 A 
HETATM    4  C4  UNL     1     -33.623   7.038   2.526  1.00 20.00     0.013 A 
HETATM    5  C5  UNL     1     -34.276   6.925   3.753  1.00 20.00    -0.061 A 
HETATM    6  C6  UNL     1     -32.517   7.879   2.398  1.00 20.00    -0.058 A 
HETATM    7  C7  UNL     1     -35.459   6.028   3.890  1.00 20.00     0.048 C 
ENDROOT
BRANCH   6   8
HETATM    8  C9  UNL     1     -31.819   7.998   1.085  1.00 20.00     0.034 C 
HETATM    9  C8  UNL     1     -32.125   9.319   0.383  1.00 20.00     0.010 C 
ENDBRANCH   6   8
TORSDOF 1
ENDMDL
MODEL 8
REMARK VINA RESULT:      -1.3      1.717      2.798
REMARK  1 active torsions:
REMARK  status: ('A' for Active; 'I' for Inactive)
REMARK    1  A    between atoms: C6_6  and  C9_9 
ROOT
HETATM    1  C1  UNL     1     -33.839   6.714   3.368  1.00 20.00     0.001 A 
HETATM    2  C2  UNL     1     -33.410   5.595   2.655  1.00 20.00     0.007 A 
HETATM    3  C3  UNL     1     -33.405   7.987   2.994  1.00 20.00     0.007 A 
HETATM    4  C4  UNL     1     -32.116   7.019   1.195  1.00 20.00     0.013 A 
HETATM    5  C5  UNL     1     -32.549   5.747   1.569  1.00 20.00    -0.061 A 
HETATM    6  C6  UNL     1     -32.544   8.139   1.908  1.00 20.00    -0.058 A 
HETATM    7  C7  UNL     1     -32.093   4.549   0.807  1.00 20.00     0.048 C 
ENDROOT
BRANCH   6   8
HETATM    8  C9  UNL     1     -32.080   9.500   1.509  1.00 20.00     0.034 C 
HETATM    9  C8  UNL     1     -32.495   9.859   0.084  1.00 20.00     0.010 C 
ENDBRANCH   6   8
TORSDOF 1
ENDMDL
MODEL 9
REMARK VINA RESULT:      -0.7      1.121      3.846
REMARK  1 active torsions:
REMARK  status: ('A' for Active; 'I' for Inactive)
REMARK    1  A    between atoms: C6_6  and  C9_9 
ROOT
HETATM    1  C1  UNL     1     -32.589   6.451   1.617  1.00 20.00     0.001 A 
HETATM    2  C2  UNL     1     -33.007   7.529   2.398  1.00 20.00     0.007 A 
HETATM    3  C3  UNL     1     -32.865   5.146   2.027  1.00 20.00     0.007 A 
HETATM    4  C4  UNL     1     -33.976   5.998   3.995  1.00 20.00     0.013 A 
HETATM    5  C5  UNL     1     -33.701   7.303   3.587  1.00 20.00    -0.061 A 
HETATM    6  C6  UNL     1     -33.558   4.919   3.215  1.00 20.00    -0.058 A 
HETATM    7  C7  UNL     1     -34.148   8.456   4.419  1.00 20.00     0.048 C 
ENDROOT
BRANCH   6   8
HETATM    8  C9  UNL     1     -33.852   3.523   3.653  1.00 20.00     0.034 C 
HETATM    9  C8  UNL     1     -33.029   3.112   4.871  1.00 20.00     0.010 C 
ENDBRANCH   6   8
TORSDOF 1
ENDMDL
