MODEL 1
REMARK VINA RESULT:      -0.5      0.000      0.000
REMARK  1 active torsions:
REMARK  status: ('A' for Active; 'I' for Inactive)
REMARK    1  A    between atoms: C6_6  and  S8_8 
ROOT
HETATM    1  C1  UNL     1     -34.728   5.889   4.037  1.00 20.00     0.001 A 
HETATM    2  C2  UNL     1     -34.553   7.253   4.271  1.00 20.00     0.001 A 
HETATM    3  C3  UNL     1     -33.999   5.255   3.032  1.00 20.00     0.021 A 
HETATM    4  C4  UNL     1     -33.651   7.983   3.497  1.00 20.00     0.019 A 
HETATM    5  C5  UNL     1     -33.096   5.985   2.258  1.00 20.00     0.028 A 
HETATM    6  C6  UNL     1     -32.922   7.349   2.492  1.00 20.00     0.015 A 
HETATM    7  S7  UNL     1     -32.197   5.068   0.974  1.00 20.00    -0.051 SA
ENDROOT
BRANCH   6   8
HETATM    8  S8  UNL     1     -31.794   8.401   1.567  1.00 20.00    -0.142 SA
HETATM    9  H13 UNL     1     -32.711   9.285   1.153  1.00 20.00     0.107 HD
ENDBRANCH   6   8
TORSDOF 1
ENDMDL
MODEL 2
REMARK VINA RESULT:      -0.5      0.016      2.413
REMARK  1 active torsions:
REMARK  status: ('A' for Active; 'I' for Inactive)
REMARK    1  A    between atoms: C6_6  and  S8_8 
ROOT
HETATM    1  C1  UNL     1     -34.561   7.239   4.276  1.00 20.00     0.001 A 
HETATM    2  C2  UNL     1     -34.724   5.876   4.032  1.00 20.00     0.001 A 
HETATM    3  C3  UNL     1     -33.664   7.982   3.508  1.00 20.00     0.021 A 
HETATM    4  C4  UNL     1     -33.989   5.255   3.022  1.00 20.00     0.019 A 
HETATM    5  C5  UNL     1     -32.929   7.362   2.498  1.00 20.00     0.028 A 
HETATM    6  C6  UNL     1     -33.093   5.999   2.254  1.00 20.00     0.015 A 
HETATM    7  S7  UNL     1     -31.788   8.416   1.557  1.00 20.00    -0.051 SA
ENDROOT
BRANCH   6   8
HETATM    8  S8  UNL     1     -32.207   5.081   0.985  1.00 20.00    -0.142 SA
HETATM    9  H13 UNL     1     -33.042   4.035   0.941  1.00 20.00     0.107 HD
ENDBRANCH   6   8
TORSDOF 1
ENDMDL
MODEL 3
REMARK VINA RESULT:       0.1      2.223      2.918
REMARK  1 active torsions:
REMARK  status: ('A' for Active; 'I' for Inactive)
REMARK    1  A    between atoms: C6_6  and  S8_8 
ROOT
HETATM    1  C1  UNL     1     -32.395   6.184   1.118  1.00 20.00     0.001 A 
HETATM    2  C2  UNL     1     -31.917   7.451   1.455  1.00 20.00     0.001 A 
HETATM    3  C3  UNL     1     -33.296   5.532   1.960  1.00 20.00     0.021 A 
HETATM    4  C4  UNL     1     -32.339   8.064   2.635  1.00 20.00     0.019 A 
HETATM    5  C5  UNL     1     -33.718   6.146   3.140  1.00 20.00     0.028 A 
HETATM    6  C6  UNL     1     -33.240   7.412   3.476  1.00 20.00     0.015 A 
HETATM    7  S7  UNL     1     -34.891   5.214   4.167  1.00 20.00    -0.051 SA
ENDROOT
BRANCH   6   8
HETATM    8  S8  UNL     1     -33.704   8.310   4.965  1.00 20.00    -0.142 SA
HETATM    9  H13 UNL     1     -32.754   7.796   5.757  1.00 20.00     0.107 HD
ENDBRANCH   6   8
TORSDOF 1
ENDMDL
MODEL 4
REMARK VINA RESULT:       0.1      2.221      3.760
REMARK  1 active torsions:
REMARK  status: ('A' for Active; 'I' for Inactive)
REMARK    1  A    between atoms: C6_6  and  S8_8 
ROOT
HETATM    1  C1  UNL     1     -31.892   7.367   1.429  1.00 20.00     0.001 A 
HETATM    2  C2  UNL     1     -32.408   6.110   1.113  1.00 20.00     0.001 A 
HETATM    3  C3  UNL     1     -32.294   8.012   2.599  1.00 20.00     0.021 A 
HETATM    4  C4  UNL     1     -33.327   5.500   1.966  1.00 20.00     0.019 A 
HETATM    5  C5  UNL     1     -33.214   7.401   3.452  1.00 20.00     0.028 A 
HETATM    6  C6  UNL     1     -33.729   6.145   3.136  1.00 20.00     0.015 A 
HETATM    7  S7  UNL     1     -33.673   8.324   4.947  1.00 20.00    -0.051 SA
ENDROOT
BRANCH   6   8
HETATM    8  S8  UNL     1     -34.919   5.252   4.148  1.00 20.00    -0.142 SA
HETATM    9  H13 UNL     1     -34.116   5.068   5.204  1.00 20.00     0.107 HD
ENDBRANCH   6   8
TORSDOF 1
ENDMDL
MODEL 5
REMARK VINA RESULT:       0.8      1.614      2.711
REMARK  1 active torsions:
REMARK  status: ('A' for Active; 'I' for Inactive)
REMARK    1  A    between atoms: C6_6  and  S8_8 
ROOT
HETATM    1  C1  UNL     1     -33.238   8.421   3.408  1.00 20.00     0.001 A 
HETATM    2  C2  UNL     1     -32.433   8.494   2.270  1.00 20.00     0.001 A 
HETATM    3  C3  UNL     1     -33.757   7.193   3.817  1.00 20.00     0.021 A 
HETATM    4  C4  UNL     1     -32.150   7.339   1.542  1.00 20.00     0.019 A 
HETATM    5  C5  UNL     1     -33.473   6.038   3.088  1.00 20.00     0.028 A 
HETATM    6  C6  UNL     1     -32.670   6.111   1.952  1.00 20.00     0.015 A 
HETATM    7  S7  UNL     1     -34.198   4.490   3.703  1.00 20.00    -0.051 SA
ENDROOT
BRANCH   6   8
HETATM    8  S8  UNL     1     -32.230   4.699   0.927  1.00 20.00    -0.142 SA
HETATM    9  H13 UNL     1     -31.938   3.864   1.931  1.00 20.00     0.107 HD
ENDBRANCH   6   8
TORSDOF 1
ENDMDL
MODEL 6
REMARK VINA RESULT:       0.8      1.612      2.693
REMARK  1 active torsions:
REMARK  status: ('A' for Active; 'I' for Inactive)
REMARK    1  A    between atoms: C6_6  and  S8_8 
ROOT
HETATM    1  C1  UNL     1     -32.408   8.513   2.324  1.00 20.00     0.001 A 
HETATM    2  C2  UNL     1     -33.220   8.423   3.455  1.00 20.00     0.001 A 
HETATM    3  C3  UNL     1     -32.129   7.371   1.573  1.00 20.00     0.021 A 
HETATM    4  C4  UNL     1     -33.751   7.191   3.835  1.00 20.00     0.019 A 
HETATM    5  C5  UNL     1     -32.660   6.139   1.954  1.00 20.00     0.028 A 
HETATM    6  C6  UNL     1     -33.471   6.049   3.084  1.00 20.00     0.015 A 
HETATM    7  S7  UNL     1     -32.237   4.713   0.911  1.00 20.00    -0.051 SA
ENDROOT
BRANCH   6   8
HETATM    8  S8  UNL     1     -34.216   4.524   3.681  1.00 20.00    -0.142 SA
HETATM    9  H13 UNL     1     -33.566   4.482   4.851  1.00 20.00     0.107 HD
ENDBRANCH   6   8
TORSDOF 1
ENDMDL
MODEL 7
REMARK VINA RESULT:       1.2      1.627      2.322
REMARK  1 active torsions:
REMARK  status: ('A' for Active; 'I' for Inactive)
REMARK    1  A    between atoms: C6_6  and  S8_8 
ROOT
HETATM    1  C1  UNL     1     -35.362   6.378   4.249  1.00 20.00     0.001 A 
HETATM    2  C2  UNL     1     -34.774   7.187   3.277  1.00 20.00     0.001 A 
HETATM    3  C3  UNL     1     -34.875   5.091   4.473  1.00 20.00     0.021 A 
HETATM    4  C4  UNL     1     -33.699   6.707   2.527  1.00 20.00     0.019 A 
HETATM    5  C5  UNL     1     -33.800   4.611   3.724  1.00 20.00     0.028 A 
HETATM    6  C6  UNL     1     -33.212   5.419   2.752  1.00 20.00     0.015 A 
HETATM    7  S7  UNL     1     -33.242   2.922   4.091  1.00 20.00    -0.051 SA
ENDROOT
BRANCH   6   8
HETATM    8  S8  UNL     1     -31.825   4.921   1.720  1.00 20.00    -0.142 SA
HETATM    9  H13 UNL     1     -31.332   4.000   2.558  1.00 20.00     0.107 HD
ENDBRANCH   6   8
TORSDOF 1
ENDMDL
MODEL 8
REMARK VINA RESULT:       1.6      1.719      2.869
REMARK  1 active torsions:
REMARK  status: ('A' for Active; 'I' for Inactive)
REMARK    1  A    between atoms: C6_6  and  S8_8 
ROOT
HETATM    1  C1  UNL     1     -32.672   4.944   1.379  1.00 20.00     0.001 A 
HETATM    2  C2  UNL     1     -33.428   4.680   2.522  1.00 20.00     0.001 A 
HETATM    3  C3  UNL     1     -32.260   6.247   1.101  1.00 20.00     0.021 A 
HETATM    4  C4  UNL     1     -33.773   5.721   3.385  1.00 20.00     0.019 A 
HETATM    5  C5  UNL     1     -32.605   7.288   1.964  1.00 20.00     0.028 A 
HETATM    6  C6  UNL     1     -33.361   7.024   3.105  1.00 20.00     0.015 A 
HETATM    7  S7  UNL     1     -32.021   8.947   1.511  1.00 20.00    -0.051 SA
ENDROOT
BRANCH   6   8
HETATM    8  S8  UNL     1     -33.871   8.273   4.295  1.00 20.00    -0.142 SA
HETATM    9  H13 UNL     1     -33.092   9.258   3.829  1.00 20.00     0.107 HD
ENDBRANCH   6   8
TORSDOF 1
ENDMDL
MODEL 9
REMARK VINA RESULT:       1.6      1.704      2.751
REMARK  1 active torsions:
REMARK  status: ('A' for Active; 'I' for Inactive)
REMARK    1  A    between atoms: C6_6  and  S8_8 
ROOT
HETATM    1  C1  UNL     1     -33.442   4.660   2.511  1.00 20.00     0.001 A 
HETATM    2  C2  UNL     1     -32.672   4.931   1.380  1.00 20.00     0.001 A 
HETATM    3  C3  UNL     1     -33.793   5.694   3.379  1.00 20.00     0.021 A 
HETATM    4  C4  UNL     1     -32.251   6.236   1.119  1.00 20.00     0.019 A 
HETATM    5  C5  UNL     1     -33.373   6.998   3.118  1.00 20.00     0.028 A 
HETATM    6  C6  UNL     1     -32.603   7.269   1.988  1.00 20.00     0.015 A 
HETATM    7  S7  UNL     1     -33.881   8.271   4.310  1.00 20.00    -0.051 SA
ENDROOT
BRANCH   6   8
HETATM    8  S8  UNL     1     -31.998   8.902   1.539  1.00 20.00    -0.142 SA
HETATM    9  H13 UNL     1     -30.714   8.554   1.382  1.00 20.00     0.107 HD
ENDBRANCH   6   8
TORSDOF 1
ENDMDL
