MODEL 1
REMARK VINA RESULT:      -2.2      0.000      0.000
REMARK  2 active torsions:
REMARK  status: ('A' for Active; 'I' for Inactive)
REMARK    1  A    between atoms: C6_6  and  C7_7 
REMARK    2  A    between atoms: C7_7  and  S8_8 
ROOT
HETATM    1  C1  UNL     1     -34.379   6.095   3.658  1.00 20.00     0.000 A 
HETATM    2  C2  UNL     1     -34.119   7.424   3.994  1.00 20.00     0.001 A 
HETATM    3  C3  UNL     1     -33.740   5.517   2.560  1.00 20.00     0.001 A 
HETATM    4  C4  UNL     1     -33.223   8.174   3.233  1.00 20.00     0.008 A 
HETATM    5  C5  UNL     1     -32.845   6.267   1.799  1.00 20.00     0.008 A 
HETATM    6  C6  UNL     1     -32.585   7.596   2.135  1.00 20.00    -0.049 A 
ENDROOT
BRANCH   6   7
HETATM    7  C7  UNL     1     -31.627   8.398   1.321  1.00 20.00     0.109 C 
BRANCH   7   8
HETATM    8  S8  UNL     1     -32.452   9.700   0.356  1.00 20.00    -0.178 SA
HETATM    9  H16 UNL     1     -33.634   9.607   0.980  1.00 20.00     0.101 HD
ENDBRANCH   7   8
ENDBRANCH   6   7
TORSDOF 2
ENDMDL
MODEL 2
REMARK VINA RESULT:      -2.2      0.001      1.708
REMARK  2 active torsions:
REMARK  status: ('A' for Active; 'I' for Inactive)
REMARK    1  A    between atoms: C6_6  and  C7_7 
REMARK    2  A    between atoms: C7_7  and  S8_8 
ROOT
HETATM    1  C1  UNL     1     -34.378   6.095   3.658  1.00 20.00     0.000 A 
HETATM    2  C2  UNL     1     -33.741   5.517   2.560  1.00 20.00     0.001 A 
HETATM    3  C3  UNL     1     -34.119   7.424   3.994  1.00 20.00     0.001 A 
HETATM    4  C4  UNL     1     -32.845   6.267   1.799  1.00 20.00     0.008 A 
HETATM    5  C5  UNL     1     -33.223   8.174   3.233  1.00 20.00     0.008 A 
HETATM    6  C6  UNL     1     -32.586   7.596   2.135  1.00 20.00    -0.049 A 
ENDROOT
BRANCH   6   7
HETATM    7  C7  UNL     1     -31.627   8.398   1.321  1.00 20.00     0.109 C 
BRANCH   7   8
HETATM    8  S8  UNL     1     -32.452   9.700   0.357  1.00 20.00    -0.178 SA
HETATM    9  H16 UNL     1     -31.860  10.729   0.978  1.00 20.00     0.101 HD
ENDBRANCH   7   8
ENDBRANCH   6   7
TORSDOF 2
ENDMDL
MODEL 3
REMARK VINA RESULT:      -1.7      2.704      3.660
REMARK  2 active torsions:
REMARK  status: ('A' for Active; 'I' for Inactive)
REMARK    1  A    between atoms: C6_6  and  C7_7 
REMARK    2  A    between atoms: C7_7  and  S8_8 
ROOT
HETATM    1  C1  UNL     1     -32.088   7.903   1.800  1.00 20.00     0.000 A 
HETATM    2  C2  UNL     1     -32.764   8.336   2.941  1.00 20.00     0.001 A 
HETATM    3  C3  UNL     1     -32.235   6.586   1.361  1.00 20.00     0.001 A 
HETATM    4  C4  UNL     1     -33.584   7.453   3.643  1.00 20.00     0.008 A 
HETATM    5  C5  UNL     1     -33.054   5.704   2.063  1.00 20.00     0.008 A 
HETATM    6  C6  UNL     1     -33.730   6.137   3.205  1.00 20.00    -0.049 A 
ENDROOT
BRANCH   6   7
HETATM    7  C7  UNL     1     -34.607   5.193   3.956  1.00 20.00     0.109 C 
BRANCH   7   8
HETATM    8  S8  UNL     1     -33.748   3.657   4.412  1.00 20.00    -0.178 SA
HETATM    9  H16 UNL     1     -34.853   2.968   4.726  1.00 20.00     0.101 HD
ENDBRANCH   7   8
ENDBRANCH   6   7
TORSDOF 2
ENDMDL
MODEL 4
REMARK VINA RESULT:      -1.7      2.704      4.036
REMARK  2 active torsions:
REMARK  status: ('A' for Active; 'I' for Inactive)
REMARK    1  A    between atoms: C6_6  and  C7_7 
REMARK    2  A    between atoms: C7_7  and  S8_8 
ROOT
HETATM    1  C1  UNL     1     -32.087   7.905   1.800  1.00 20.00     0.000 A 
HETATM    2  C2  UNL     1     -32.232   6.589   1.362  1.00 20.00     0.001 A 
HETATM    3  C3  UNL     1     -32.762   8.337   2.942  1.00 20.00     0.001 A 
HETATM    4  C4  UNL     1     -33.052   5.706   2.064  1.00 20.00     0.008 A 
HETATM    5  C5  UNL     1     -33.583   7.455   3.644  1.00 20.00     0.008 A 
HETATM    6  C6  UNL     1     -33.728   6.139   3.205  1.00 20.00    -0.049 A 
ENDROOT
BRANCH   6   7
HETATM    7  C7  UNL     1     -34.606   5.195   3.955  1.00 20.00     0.109 C 
BRANCH   7   8
HETATM    8  S8  UNL     1     -33.747   3.657   4.410  1.00 20.00    -0.178 SA
HETATM    9  H16 UNL     1     -33.612   3.953   5.710  1.00 20.00     0.101 HD
ENDBRANCH   7   8
ENDBRANCH   6   7
TORSDOF 2
ENDMDL
MODEL 5
REMARK VINA RESULT:      -1.5      1.436      1.899
REMARK  2 active torsions:
REMARK  status: ('A' for Active; 'I' for Inactive)
REMARK    1  A    between atoms: C6_6  and  C7_7 
REMARK    2  A    between atoms: C7_7  and  S8_8 
ROOT
HETATM    1  C1  UNL     1     -35.195   5.175   4.575  1.00 20.00     0.000 A 
HETATM    2  C2  UNL     1     -35.193   6.485   4.094  1.00 20.00     0.001 A 
HETATM    3  C3  UNL     1     -34.265   4.254   4.094  1.00 20.00     0.001 A 
HETATM    4  C4  UNL     1     -34.260   6.872   3.132  1.00 20.00     0.008 A 
HETATM    5  C5  UNL     1     -33.333   4.641   3.132  1.00 20.00     0.008 A 
HETATM    6  C6  UNL     1     -33.330   5.951   2.651  1.00 20.00    -0.049 A 
ENDROOT
BRANCH   6   7
HETATM    7  C7  UNL     1     -32.333   6.366   1.621  1.00 20.00     0.109 C 
BRANCH   7   8
HETATM    8  S8  UNL     1     -31.937   8.138   1.710  1.00 20.00    -0.178 SA
HETATM    9  H16 UNL     1     -31.552   8.130   2.993  1.00 20.00     0.101 HD
ENDBRANCH   7   8
ENDBRANCH   6   7
TORSDOF 2
ENDMDL
MODEL 6
REMARK VINA RESULT:      -1.5      1.438      2.432
REMARK  2 active torsions:
REMARK  status: ('A' for Active; 'I' for Inactive)
REMARK    1  A    between atoms: C6_6  and  C7_7 
REMARK    2  A    between atoms: C7_7  and  S8_8 
ROOT
HETATM    1  C1  UNL     1     -35.193   5.173   4.576  1.00 20.00     0.000 A 
HETATM    2  C2  UNL     1     -34.264   4.251   4.093  1.00 20.00     0.001 A 
HETATM    3  C3  UNL     1     -35.190   6.483   4.095  1.00 20.00     0.001 A 
HETATM    4  C4  UNL     1     -33.333   4.639   3.130  1.00 20.00     0.008 A 
HETATM    5  C5  UNL     1     -34.258   6.870   3.133  1.00 20.00     0.008 A 
HETATM    6  C6  UNL     1     -33.329   5.948   2.650  1.00 20.00    -0.049 A 
ENDROOT
BRANCH   6   7
HETATM    7  C7  UNL     1     -32.332   6.363   1.621  1.00 20.00     0.109 C 
BRANCH   7   8
HETATM    8  S8  UNL     1     -31.932   8.135   1.713  1.00 20.00    -0.178 SA
HETATM    9  H16 UNL     1     -32.829   8.431   2.663  1.00 20.00     0.101 HD
ENDBRANCH   7   8
ENDBRANCH   6   7
TORSDOF 2
ENDMDL
MODEL 7
REMARK VINA RESULT:      -1.2      2.557      3.488
REMARK  2 active torsions:
REMARK  status: ('A' for Active; 'I' for Inactive)
REMARK    1  A    between atoms: C6_6  and  C7_7 
REMARK    2  A    between atoms: C7_7  and  S8_8 
ROOT
HETATM    1  C1  UNL     1     -31.728   6.961   1.153  1.00 20.00     0.000 A 
HETATM    2  C2  UNL     1     -31.998   8.089   1.927  1.00 20.00     0.001 A 
HETATM    3  C3  UNL     1     -32.456   5.787   1.353  1.00 20.00     0.001 A 
HETATM    4  C4  UNL     1     -32.995   8.043   2.902  1.00 20.00     0.008 A 
HETATM    5  C5  UNL     1     -33.451   5.741   2.328  1.00 20.00     0.008 A 
HETATM    6  C6  UNL     1     -33.721   6.870   3.103  1.00 20.00    -0.049 A 
ENDROOT
BRANCH   6   7
HETATM    7  C7  UNL     1     -34.786   6.821   4.146  1.00 20.00     0.109 C 
BRANCH   7   8
HETATM    8  S8  UNL     1     -35.297   5.121   4.542  1.00 20.00    -0.178 SA
HETATM    9  H16 UNL     1     -34.198   4.529   4.054  1.00 20.00     0.101 HD
ENDBRANCH   7   8
ENDBRANCH   6   7
TORSDOF 2
ENDMDL
MODEL 8
REMARK VINA RESULT:      -0.3      2.007      2.420
REMARK  2 active torsions:
REMARK  status: ('A' for Active; 'I' for Inactive)
REMARK    1  A    between atoms: C6_6  and  C7_7 
REMARK    2  A    between atoms: C7_7  and  S8_8 
ROOT
HETATM    1  C1  UNL     1     -35.310   5.155   4.678  1.00 20.00     0.000 A 
HETATM    2  C2  UNL     1     -35.367   6.467   4.210  1.00 20.00     0.001 A 
HETATM    3  C3  UNL     1     -34.322   4.289   4.206  1.00 20.00     0.001 A 
HETATM    4  C4  UNL     1     -34.438   6.914   3.270  1.00 20.00     0.008 A 
HETATM    5  C5  UNL     1     -33.394   4.735   3.266  1.00 20.00     0.008 A 
HETATM    6  C6  UNL     1     -33.452   6.048   2.798  1.00 20.00    -0.049 A 
ENDROOT
BRANCH   6   7
HETATM    7  C7  UNL     1     -32.459   6.525   1.792  1.00 20.00     0.109 C 
BRANCH   7   8
HETATM    8  S8  UNL     1     -31.789   5.173   0.779  1.00 20.00    -0.178 SA
HETATM    9  H16 UNL     1     -31.079   5.956  -0.046  1.00 20.00     0.101 HD
ENDBRANCH   7   8
ENDBRANCH   6   7
TORSDOF 2
ENDMDL
MODEL 9
REMARK VINA RESULT:      -0.3      2.014      2.856
REMARK  2 active torsions:
REMARK  status: ('A' for Active; 'I' for Inactive)
REMARK    1  A    between atoms: C6_6  and  C7_7 
REMARK    2  A    between atoms: C7_7  and  S8_8 
ROOT
HETATM    1  C1  UNL     1     -35.314   5.173   4.681  1.00 20.00     0.000 A 
HETATM    2  C2  UNL     1     -34.336   4.296   4.213  1.00 20.00     0.001 A 
HETATM    3  C3  UNL     1     -35.359   6.485   4.208  1.00 20.00     0.001 A 
HETATM    4  C4  UNL     1     -33.403   4.731   3.272  1.00 20.00     0.008 A 
HETATM    5  C5  UNL     1     -34.426   6.920   3.268  1.00 20.00     0.008 A 
HETATM    6  C6  UNL     1     -33.447   6.043   2.800  1.00 20.00    -0.049 A 
ENDROOT
BRANCH   6   7
HETATM    7  C7  UNL     1     -32.449   6.508   1.794  1.00 20.00     0.109 C 
BRANCH   7   8
HETATM    8  S8  UNL     1     -31.807   5.150   0.769  1.00 20.00    -0.178 SA
HETATM    9  H16 UNL     1     -31.729   5.857  -0.366  1.00 20.00     0.101 HD
ENDBRANCH   7   8
ENDBRANCH   6   7
TORSDOF 2
ENDMDL
