MODEL 1
REMARK VINA RESULT:      -1.3      0.000      0.000
REMARK  0 active torsions:
REMARK  status: ('A' for Active; 'I' for Inactive)
ROOT
HETATM    1  C1  UNL     1     -34.554   4.491   4.094  1.00 20.00     0.001 A 
HETATM    2  C2  UNL     1     -35.177   5.655   4.550  1.00 20.00     0.003 A 
HETATM    3  C3  UNL     1     -33.531   4.546   3.137  1.00 20.00     0.014 A 
HETATM    4  C4  UNL     1     -34.802   6.914   4.071  1.00 20.00     0.038 A 
HETATM    5  C5  UNL     1     -32.180   6.270   1.704  1.00 20.00     0.046 A 
HETATM    6  C6  UNL     1     -33.138   5.802   2.641  1.00 20.00     0.000 A 
HETATM    7  C7  UNL     1     -33.783   6.937   3.122  1.00 20.00     0.086 A 
HETATM    8  C8  UNL     1     -32.302   7.639   1.675  1.00 20.00     0.050 A 
HETATM    9  C9  UNL     1     -31.608   8.692   0.921  1.00 20.00     0.077 C 
HETATM   10  O10 UNL     1     -33.272   8.054   2.531  1.00 20.00    -0.315 OA
ENDROOT
TORSDOF 0
ENDMDL
MODEL 2
REMARK VINA RESULT:      -0.9      1.297      4.136
REMARK  0 active torsions:
REMARK  status: ('A' for Active; 'I' for Inactive)
ROOT
HETATM    1  C1  UNL     1     -31.714   8.328   1.508  1.00 20.00     0.001 A 
HETATM    2  C2  UNL     1     -31.559   7.069   0.924  1.00 20.00     0.003 A 
HETATM    3  C3  UNL     1     -32.606   8.528   2.571  1.00 20.00     0.014 A 
HETATM    4  C4  UNL     1     -32.286   5.964   1.378  1.00 20.00     0.038 A 
HETATM    5  C5  UNL     1     -34.314   7.220   4.061  1.00 20.00     0.046 A 
HETATM    6  C6  UNL     1     -33.346   7.430   3.045  1.00 20.00     0.000 A 
HETATM    7  C7  UNL     1     -33.163   6.192   2.436  1.00 20.00     0.086 A 
HETATM    8  C8  UNL     1     -34.652   5.888   4.007  1.00 20.00     0.050 A 
HETATM    9  C9  UNL     1     -35.584   5.058   4.782  1.00 20.00     0.077 C 
HETATM   10  O10 UNL     1     -33.959   5.256   3.024  1.00 20.00    -0.315 OA
ENDROOT
TORSDOF 0
ENDMDL
MODEL 3
REMARK VINA RESULT:      -0.8      0.820      1.858
REMARK  0 active torsions:
REMARK  status: ('A' for Active; 'I' for Inactive)
ROOT
HETATM    1  C1  UNL     1     -35.084   5.213   4.483  1.00 20.00     0.001 A 
HETATM    2  C2  UNL     1     -34.271   4.248   3.885  1.00 20.00     0.003 A 
HETATM    3  C3  UNL     1     -34.937   6.573   4.178  1.00 20.00     0.014 A 
HETATM    4  C4  UNL     1     -33.282   4.603   2.962  1.00 20.00     0.038 A 
HETATM    5  C5  UNL     1     -33.498   8.177   2.693  1.00 20.00     0.046 A 
HETATM    6  C6  UNL     1     -33.950   6.953   3.252  1.00 20.00     0.000 A 
HETATM    7  C7  UNL     1     -33.160   5.961   2.678  1.00 20.00     0.086 A 
HETATM    8  C8  UNL     1     -32.478   7.857   1.828  1.00 20.00     0.050 A 
HETATM    9  C9  UNL     1     -31.612   8.662   0.955  1.00 20.00     0.077 C 
HETATM   10  O10 UNL     1     -32.264   6.514   1.812  1.00 20.00    -0.315 OA
ENDROOT
TORSDOF 0
ENDMDL
MODEL 4
REMARK VINA RESULT:      -0.0      1.024      3.728
REMARK  0 active torsions:
REMARK  status: ('A' for Active; 'I' for Inactive)
ROOT
HETATM    1  C1  UNL     1     -31.462   7.331   0.994  1.00 20.00     0.001 A 
HETATM    2  C2  UNL     1     -31.788   8.488   1.706  1.00 20.00     0.003 A 
HETATM    3  C3  UNL     1     -32.078   6.106   1.283  1.00 20.00     0.014 A 
HETATM    4  C4  UNL     1     -32.738   8.465   2.731  1.00 20.00     0.038 A 
HETATM    5  C5  UNL     1     -33.858   5.057   2.889  1.00 20.00     0.046 A 
HETATM    6  C6  UNL     1     -33.037   6.059   2.310  1.00 20.00     0.000 A 
HETATM    7  C7  UNL     1     -33.334   7.234   2.996  1.00 20.00     0.086 A 
HETATM    8  C8  UNL     1     -34.590   5.676   3.876  1.00 20.00     0.050 A 
HETATM    9  C9  UNL     1     -35.603   5.194   4.825  1.00 20.00     0.077 C 
HETATM   10  O10 UNL     1     -34.279   6.997   3.948  1.00 20.00    -0.315 OA
ENDROOT
TORSDOF 0
ENDMDL
MODEL 5
REMARK VINA RESULT:       0.2      1.576      2.598
REMARK  0 active torsions:
REMARK  status: ('A' for Active; 'I' for Inactive)
ROOT
HETATM    1  C1  UNL     1     -34.223   8.014   4.163  1.00 20.00     0.001 A 
HETATM    2  C2  UNL     1     -34.898   6.810   4.374  1.00 20.00     0.003 A 
HETATM    3  C3  UNL     1     -33.190   8.109   3.219  1.00 20.00     0.014 A 
HETATM    4  C4  UNL     1     -34.569   5.657   3.654  1.00 20.00     0.038 A 
HETATM    5  C5  UNL     1     -31.895   6.651   1.474  1.00 20.00     0.046 A 
HETATM    6  C6  UNL     1     -32.843   6.962   2.483  1.00 20.00     0.000 A 
HETATM    7  C7  UNL     1     -33.540   5.782   2.724  1.00 20.00     0.086 A 
HETATM    8  C8  UNL     1     -32.073   5.322   1.169  1.00 20.00     0.050 A 
HETATM    9  C9  UNL     1     -31.413   4.413   0.222  1.00 20.00     0.077 C 
HETATM   10  O10 UNL     1     -33.068   4.785   1.922  1.00 20.00    -0.315 OA
ENDROOT
TORSDOF 0
ENDMDL
MODEL 6
REMARK VINA RESULT:       0.8      1.656      4.051
REMARK  0 active torsions:
REMARK  status: ('A' for Active; 'I' for Inactive)
ROOT
HETATM    1  C1  UNL     1     -33.911   8.128   2.857  1.00 20.00     0.001 A 
HETATM    2  C2  UNL     1     -32.945   7.686   1.950  1.00 20.00     0.003 A 
HETATM    3  C3  UNL     1     -34.485   7.251   3.787  1.00 20.00     0.014 A 
HETATM    4  C4  UNL     1     -32.516   6.354   1.938  1.00 20.00     0.038 A 
HETATM    5  C5  UNL     1     -34.390   4.747   4.546  1.00 20.00     0.046 A 
HETATM    6  C6  UNL     1     -34.068   5.907   3.794  1.00 20.00     0.000 A 
HETATM    7  C7  UNL     1     -33.104   5.507   2.874  1.00 20.00     0.086 A 
HETATM    8  C8  UNL     1     -33.612   3.730   4.043  1.00 20.00     0.050 A 
HETATM    9  C9  UNL     1     -33.477   2.308   4.386  1.00 20.00     0.077 C 
HETATM   10  O10 UNL     1     -32.828   4.181   3.028  1.00 20.00    -0.315 OA
ENDROOT
TORSDOF 0
ENDMDL
MODEL 7
REMARK VINA RESULT:       0.9      1.522      2.607
REMARK  0 active torsions:
REMARK  status: ('A' for Active; 'I' for Inactive)
ROOT
HETATM    1  C1  UNL     1     -34.561   7.437   4.292  1.00 20.00     0.001 A 
HETATM    2  C2  UNL     1     -33.599   8.387   3.942  1.00 20.00     0.003 A 
HETATM    3  C3  UNL     1     -34.577   6.170   3.693  1.00 20.00     0.014 A 
HETATM    4  C4  UNL     1     -32.621   8.110   2.982  1.00 20.00     0.038 A 
HETATM    5  C5  UNL     1     -33.285   4.746   1.917  1.00 20.00     0.046 A 
HETATM    6  C6  UNL     1     -33.602   5.868   2.726  1.00 20.00     0.000 A 
HETATM    7  C7  UNL     1     -32.662   6.843   2.405  1.00 20.00     0.086 A 
HETATM    8  C8  UNL     1     -32.189   5.103   1.167  1.00 20.00     0.050 A 
HETATM    9  C9  UNL     1     -31.393   4.397   0.155  1.00 20.00     0.077 C 
HETATM   10  O10 UNL     1     -31.803   6.374   1.455  1.00 20.00    -0.315 OA
ENDROOT
TORSDOF 0
ENDMDL
MODEL 8
REMARK VINA RESULT:       1.1      1.276      4.177
REMARK  0 active torsions:
REMARK  status: ('A' for Active; 'I' for Inactive)
ROOT
HETATM    1  C1  UNL     1     -32.576   9.322   1.448  1.00 20.00     0.001 A 
HETATM    2  C2  UNL     1     -31.666   8.411   0.907  1.00 20.00     0.003 A 
HETATM    3  C3  UNL     1     -33.543   8.914   2.377  1.00 20.00     0.014 A 
HETATM    4  C4  UNL     1     -31.687   7.061   1.271  1.00 20.00     0.038 A 
HETATM    5  C5  UNL     1     -34.375   6.775   3.635  1.00 20.00     0.046 A 
HETATM    6  C6  UNL     1     -33.583   7.561   2.758  1.00 20.00     0.000 A 
HETATM    7  C7  UNL     1     -32.659   6.685   2.196  1.00 20.00     0.086 A 
HETATM    8  C8  UNL     1     -33.889   5.491   3.552  1.00 20.00     0.050 A 
HETATM    9  C9  UNL     1     -34.272   4.230   4.203  1.00 20.00     0.077 C 
HETATM   10  O10 UNL     1     -32.848   5.425   2.681  1.00 20.00    -0.315 OA
ENDROOT
TORSDOF 0
ENDMDL
MODEL 9
REMARK VINA RESULT:       1.4      1.939      3.831
REMARK  0 active torsions:
REMARK  status: ('A' for Active; 'I' for Inactive)
ROOT
HETATM    1  C1  UNL     1     -33.664   7.512   2.554  1.00 20.00     0.001 A 
HETATM    2  C2  UNL     1     -34.741   7.517   3.444  1.00 20.00     0.003 A 
HETATM    3  C3  UNL     1     -32.874   6.367   2.379  1.00 20.00     0.014 A 
HETATM    4  C4  UNL     1     -35.069   6.381   4.191  1.00 20.00     0.038 A 
HETATM    5  C5  UNL     1     -32.657   3.901   3.230  1.00 20.00     0.046 A 
HETATM    6  C6  UNL     1     -33.187   5.213   3.120  1.00 20.00     0.000 A 
HETATM    7  C7  UNL     1     -34.267   5.259   3.997  1.00 20.00     0.086 A 
HETATM    8  C8  UNL     1     -33.437   3.242   4.151  1.00 20.00     0.050 A 
HETATM    9  C9  UNL     1     -33.408   1.879   4.698  1.00 20.00     0.077 C 
HETATM   10  O10 UNL     1     -34.417   4.058   4.623  1.00 20.00    -0.315 OA
ENDROOT
TORSDOF 0
ENDMDL
