MODEL 1
REMARK VINA RESULT:      -2.1      0.000      0.000
REMARK  1 active torsions:
REMARK  status: ('A' for Active; 'I' for Inactive)
REMARK    1  A    between atoms: C4_4  and  C7_7 
ROOT
HETATM    1  C1  UNL     1     -31.915   8.114   1.932  1.00 20.00     0.006 A 
HETATM    2  C2  UNL     1     -32.091   6.865   1.335  1.00 20.00     0.043 A 
HETATM    3  C3  UNL     1     -32.618   8.437   3.092  1.00 20.00     0.043 A 
HETATM    4  C4  UNL     1     -33.675   6.264   3.057  1.00 20.00     0.029 A 
HETATM    5  C5  UNL     1     -32.970   5.940   1.897  1.00 20.00     0.126 A 
HETATM    6  C6  UNL     1     -33.499   7.513   3.654  1.00 20.00     0.126 A 
HETATM    7  F8  UNL     1     -33.133   4.744   1.316  1.00 20.00    -0.205 F 
HETATM    8  F9  UNL     1     -34.171   7.833   4.769  1.00 20.00    -0.205 F 
ENDROOT
BRANCH   4   9
HETATM    9  C7  UNL     1     -34.615   5.276   3.659  1.00 20.00     0.130 C 
HETATM   10 BR10 UNL     1     -33.614   3.748   4.328  1.00 20.00    -0.091 Br
ENDBRANCH   4   9
TORSDOF 1
ENDMDL
MODEL 2
REMARK VINA RESULT:      -2.1      0.003      2.616
REMARK  1 active torsions:
REMARK  status: ('A' for Active; 'I' for Inactive)
REMARK    1  A    between atoms: C4_4  and  C7_7 
ROOT
HETATM    1  C1  UNL     1     -31.917   8.116   1.933  1.00 20.00     0.006 A 
HETATM    2  C2  UNL     1     -32.623   8.438   3.093  1.00 20.00     0.043 A 
HETATM    3  C3  UNL     1     -32.091   6.868   1.335  1.00 20.00     0.043 A 
HETATM    4  C4  UNL     1     -33.675   6.264   3.057  1.00 20.00     0.029 A 
HETATM    5  C5  UNL     1     -33.502   7.513   3.654  1.00 20.00     0.126 A 
HETATM    6  C6  UNL     1     -32.969   5.942   1.897  1.00 20.00     0.126 A 
HETATM    7  F8  UNL     1     -34.174   7.831   4.769  1.00 20.00    -0.205 F 
HETATM    8  F9  UNL     1     -33.130   4.745   1.316  1.00 20.00    -0.205 F 
ENDROOT
BRANCH   4   9
HETATM    9  C7  UNL     1     -34.615   5.273   3.657  1.00 20.00     0.130 C 
HETATM   10 BR10 UNL     1     -33.613   3.747   4.328  1.00 20.00    -0.091 Br
ENDBRANCH   4   9
TORSDOF 1
ENDMDL
MODEL 3
REMARK VINA RESULT:      -1.5      1.150      2.671
REMARK  1 active torsions:
REMARK  status: ('A' for Active; 'I' for Inactive)
REMARK    1  A    between atoms: C4_4  and  C7_7 
ROOT
HETATM    1  C1  UNL     1     -33.148   8.186   2.865  1.00 20.00     0.006 A 
HETATM    2  C2  UNL     1     -34.133   7.703   3.727  1.00 20.00     0.043 A 
HETATM    3  C3  UNL     1     -32.425   7.299   2.068  1.00 20.00     0.043 A 
HETATM    4  C4  UNL     1     -33.669   5.448   2.996  1.00 20.00     0.029 A 
HETATM    5  C5  UNL     1     -34.394   6.335   3.793  1.00 20.00     0.126 A 
HETATM    6  C6  UNL     1     -32.684   5.931   2.133  1.00 20.00     0.126 A 
HETATM    7  F8  UNL     1     -35.341   5.880   4.625  1.00 20.00    -0.205 F 
HETATM    8  F9  UNL     1     -31.984   5.086   1.363  1.00 20.00    -0.205 F 
ENDROOT
BRANCH   4   9
HETATM    9  C7  UNL     1     -33.947   3.984   3.065  1.00 20.00     0.130 C 
HETATM   10 BR10 UNL     1     -33.189   3.253   4.700  1.00 20.00    -0.091 Br
ENDBRANCH   4   9
TORSDOF 1
ENDMDL
MODEL 4
REMARK VINA RESULT:      -1.2      2.490      4.117
REMARK  1 active torsions:
REMARK  status: ('A' for Active; 'I' for Inactive)
REMARK    1  A    between atoms: C4_4  and  C7_7 
ROOT
HETATM    1  C1  UNL     1     -34.590   6.494   4.126  1.00 20.00     0.006 A 
HETATM    2  C2  UNL     1     -33.797   7.588   4.475  1.00 20.00     0.043 A 
HETATM    3  C3  UNL     1     -34.373   5.833   2.918  1.00 20.00     0.043 A 
HETATM    4  C4  UNL     1     -32.571   7.360   2.405  1.00 20.00     0.029 A 
HETATM    5  C5  UNL     1     -32.788   8.020   3.615  1.00 20.00     0.126 A 
HETATM    6  C6  UNL     1     -33.364   6.265   2.057  1.00 20.00     0.126 A 
HETATM    7  F8  UNL     1     -32.032   9.072   3.958  1.00 20.00    -0.205 F 
HETATM    8  F9  UNL     1     -33.163   5.624   0.898  1.00 20.00    -0.205 F 
ENDROOT
BRANCH   4   9
HETATM    9  C7  UNL     1     -31.492   7.821   1.486  1.00 20.00     0.130 C 
HETATM   10 BR10 UNL     1     -32.109   9.369   0.482  1.00 20.00    -0.091 Br
ENDBRANCH   4   9
TORSDOF 1
ENDMDL
MODEL 5
REMARK VINA RESULT:      -1.2      2.490      3.297
REMARK  1 active torsions:
REMARK  status: ('A' for Active; 'I' for Inactive)
REMARK    1  A    between atoms: C4_4  and  C7_7 
ROOT
HETATM    1  C1  UNL     1     -34.589   6.494   4.126  1.00 20.00     0.006 A 
HETATM    2  C2  UNL     1     -34.370   5.832   2.917  1.00 20.00     0.043 A 
HETATM    3  C3  UNL     1     -33.800   7.591   4.472  1.00 20.00     0.043 A 
HETATM    4  C4  UNL     1     -32.574   7.364   2.403  1.00 20.00     0.029 A 
HETATM    5  C5  UNL     1     -33.364   6.267   2.056  1.00 20.00     0.126 A 
HETATM    6  C6  UNL     1     -32.793   8.025   3.612  1.00 20.00     0.126 A 
HETATM    7  F8  UNL     1     -33.161   5.625   0.897  1.00 20.00    -0.205 F 
HETATM    8  F9  UNL     1     -32.040   9.080   3.953  1.00 20.00    -0.205 F 
ENDROOT
BRANCH   4   9
HETATM    9  C7  UNL     1     -31.497   7.829   1.482  1.00 20.00     0.130 C 
HETATM   10 BR10 UNL     1     -32.123   9.374   0.477  1.00 20.00    -0.091 Br
ENDBRANCH   4   9
TORSDOF 1
ENDMDL
MODEL 6
REMARK VINA RESULT:      -1.2      2.303      3.207
REMARK  1 active torsions:
REMARK  status: ('A' for Active; 'I' for Inactive)
REMARK    1  A    between atoms: C4_4  and  C7_7 
ROOT
HETATM    1  C1  UNL     1     -34.608   5.259   3.522  1.00 20.00     0.006 A 
HETATM    2  C2  UNL     1     -33.629   5.041   2.551  1.00 20.00     0.043 A 
HETATM    3  C3  UNL     1     -34.725   6.511   4.124  1.00 20.00     0.043 A 
HETATM    4  C4  UNL     1     -32.886   7.328   2.786  1.00 20.00     0.029 A 
HETATM    5  C5  UNL     1     -32.769   6.075   2.183  1.00 20.00     0.126 A 
HETATM    6  C6  UNL     1     -33.865   7.546   3.756  1.00 20.00     0.126 A 
HETATM    7  F8  UNL     1     -31.832   5.856   1.250  1.00 20.00    -0.205 F 
HETATM    8  F9  UNL     1     -33.985   8.746   4.340  1.00 20.00    -0.205 F 
ENDROOT
BRANCH   4   9
HETATM    9  C7  UNL     1     -31.967   8.434   2.392  1.00 20.00     0.130 C 
HETATM   10 BR10 UNL     1     -32.516   9.156   0.671  1.00 20.00    -0.091 Br
ENDBRANCH   4   9
TORSDOF 1
ENDMDL
MODEL 7
REMARK VINA RESULT:      -1.2      2.303      4.113
REMARK  1 active torsions:
REMARK  status: ('A' for Active; 'I' for Inactive)
REMARK    1  A    between atoms: C4_4  and  C7_7 
ROOT
HETATM    1  C1  UNL     1     -34.608   5.258   3.522  1.00 20.00     0.006 A 
HETATM    2  C2  UNL     1     -34.723   6.511   4.126  1.00 20.00     0.043 A 
HETATM    3  C3  UNL     1     -33.632   5.040   2.551  1.00 20.00     0.043 A 
HETATM    4  C4  UNL     1     -32.886   7.326   2.785  1.00 20.00     0.029 A 
HETATM    5  C5  UNL     1     -33.862   7.544   3.758  1.00 20.00     0.126 A 
HETATM    6  C6  UNL     1     -32.771   6.073   2.182  1.00 20.00     0.126 A 
HETATM    7  F8  UNL     1     -33.981   8.744   4.343  1.00 20.00    -0.205 F 
HETATM    8  F9  UNL     1     -31.837   5.854   1.247  1.00 20.00    -0.205 F 
ENDROOT
BRANCH   4   9
HETATM    9  C7  UNL     1     -31.965   8.431   2.392  1.00 20.00     0.130 C 
HETATM   10 BR10 UNL     1     -32.520   9.162   0.677  1.00 20.00    -0.091 Br
ENDBRANCH   4   9
TORSDOF 1
ENDMDL
MODEL 8
REMARK VINA RESULT:      -0.7      1.059      2.819
REMARK  1 active torsions:
REMARK  status: ('A' for Active; 'I' for Inactive)
REMARK    1  A    between atoms: C4_4  and  C7_7 
ROOT
HETATM    1  C1  UNL     1     -31.834   8.342   1.489  1.00 20.00     0.006 A 
HETATM    2  C2  UNL     1     -32.401   8.568   2.744  1.00 20.00     0.043 A 
HETATM    3  C3  UNL     1     -31.951   7.090   0.887  1.00 20.00     0.043 A 
HETATM    4  C4  UNL     1     -33.201   6.289   2.794  1.00 20.00     0.029 A 
HETATM    5  C5  UNL     1     -33.084   7.543   3.396  1.00 20.00     0.126 A 
HETATM    6  C6  UNL     1     -32.634   6.063   1.539  1.00 20.00     0.126 A 
HETATM    7  F8  UNL     1     -33.625   7.770   4.601  1.00 20.00    -0.205 F 
HETATM    8  F9  UNL     1     -32.742   4.863   0.953  1.00 20.00    -0.205 F 
ENDROOT
BRANCH   4   9
HETATM    9  C7  UNL     1     -33.933   5.192   3.491  1.00 20.00     0.130 C 
HETATM   10 BR10 UNL     1     -35.630   5.865   4.162  1.00 20.00    -0.091 Br
ENDBRANCH   4   9
TORSDOF 1
ENDMDL
MODEL 9
REMARK VINA RESULT:      -0.2      2.073      2.890
REMARK  1 active torsions:
REMARK  status: ('A' for Active; 'I' for Inactive)
REMARK    1  A    between atoms: C4_4  and  C7_7 
ROOT
HETATM    1  C1  UNL     1     -33.899   8.013   4.032  1.00 20.00     0.006 A 
HETATM    2  C2  UNL     1     -34.315   6.682   4.083  1.00 20.00     0.043 A 
HETATM    3  C3  UNL     1     -32.970   8.415   3.073  1.00 20.00     0.043 A 
HETATM    4  C4  UNL     1     -32.874   6.158   2.217  1.00 20.00     0.029 A 
HETATM    5  C5  UNL     1     -33.804   5.755   3.176  1.00 20.00     0.126 A 
HETATM    6  C6  UNL     1     -32.457   7.489   2.166  1.00 20.00     0.126 A 
HETATM    7  F8  UNL     1     -34.209   4.479   3.234  1.00 20.00    -0.205 F 
HETATM    8  F9  UNL     1     -31.565   7.885   1.247  1.00 20.00    -0.205 F 
ENDROOT
BRANCH   4   9
HETATM    9  C7  UNL     1     -32.327   5.167   1.246  1.00 20.00     0.130 C 
HETATM   10 BR10 UNL     1     -33.690   4.722  -0.069  1.00 20.00    -0.091 Br
ENDBRANCH   4   9
TORSDOF 1
ENDMDL
