MODEL 1
REMARK VINA RESULT:      -2.7      0.000      0.000
REMARK  4 active torsions:
REMARK  status: ('A' for Active; 'I' for Inactive)
REMARK    1  A    between atoms: C6_6  and  C8_8 
REMARK    2  A    between atoms: C8_8  and  C10_10 
REMARK    3  A    between atoms: C9_9  and  C11_11 
REMARK    4  A    between atoms: C10_10  and  C11_11 
ROOT
HETATM    1  C1  UNL     1     -35.173   5.149   4.546  1.00 20.00     0.000 A 
HETATM    2  C2  UNL     1     -34.204   4.288   4.028  1.00 20.00     0.001 A 
HETATM    3  C3  UNL     1     -35.229   6.474   4.117  1.00 20.00     0.001 A 
HETATM    4  C4  UNL     1     -33.292   4.753   3.081  1.00 20.00     0.007 A 
HETATM    5  C5  UNL     1     -34.317   6.940   3.170  1.00 20.00     0.007 A 
HETATM    6  C6  UNL     1     -33.348   6.080   2.652  1.00 20.00    -0.058 A 
ENDROOT
BRANCH   6   7
HETATM    7  C8  UNL     1     -32.369   6.581   1.635  1.00 20.00     0.038 C 
BRANCH   7   8
HETATM    8  C10 UNL     1     -32.043   8.070   1.784  1.00 20.00     0.005 C 
BRANCH   8   9
HETATM    9  C11 UNL     1     -31.458   8.692   0.512  1.00 20.00    -0.000 C 
BRANCH   9  10
HETATM   10  C9  UNL     1     -32.478   9.595  -0.181  1.00 20.00    -0.005 C 
HETATM   11  C7  UNL     1     -32.818  10.808   0.671  1.00 20.00     0.005 C 
ENDBRANCH   9  10
ENDBRANCH   8   9
ENDBRANCH   7   8
ENDBRANCH   6   7
TORSDOF 4
ENDMDL
MODEL 2
REMARK VINA RESULT:      -2.7      0.014      1.457
REMARK  4 active torsions:
REMARK  status: ('A' for Active; 'I' for Inactive)
REMARK    1  A    between atoms: C6_6  and  C8_8 
REMARK    2  A    between atoms: C8_8  and  C10_10 
REMARK    3  A    between atoms: C9_9  and  C11_11 
REMARK    4  A    between atoms: C10_10  and  C11_11 
ROOT
HETATM    1  C1  UNL     1     -35.171   5.150   4.558  1.00 20.00     0.000 A 
HETATM    2  C2  UNL     1     -35.235   6.476   4.127  1.00 20.00     0.001 A 
HETATM    3  C3  UNL     1     -34.203   4.293   4.036  1.00 20.00     0.001 A 
HETATM    4  C4  UNL     1     -34.331   6.944   3.173  1.00 20.00     0.007 A 
HETATM    5  C5  UNL     1     -33.298   4.761   3.082  1.00 20.00     0.007 A 
HETATM    6  C6  UNL     1     -33.363   6.086   2.650  1.00 20.00    -0.058 A 
ENDROOT
BRANCH   6   7
HETATM    7  C8  UNL     1     -32.392   6.587   1.625  1.00 20.00     0.038 C 
BRANCH   7   8
HETATM    8  C10 UNL     1     -32.058   8.074   1.778  1.00 20.00     0.005 C 
BRANCH   8   9
HETATM    9  C11 UNL     1     -31.460   8.693   0.511  1.00 20.00    -0.000 C 
BRANCH   9  10
HETATM   10  C9  UNL     1     -32.467   9.609  -0.184  1.00 20.00    -0.005 C 
HETATM   11  C7  UNL     1     -32.811  10.815   0.677  1.00 20.00     0.005 C 
ENDBRANCH   9  10
ENDBRANCH   8   9
ENDBRANCH   7   8
ENDBRANCH   6   7
TORSDOF 4
ENDMDL
MODEL 3
REMARK VINA RESULT:      -2.2      1.458      5.124
REMARK  4 active torsions:
REMARK  status: ('A' for Active; 'I' for Inactive)
REMARK    1  A    between atoms: C6_6  and  C8_8 
REMARK    2  A    between atoms: C8_8  and  C10_10 
REMARK    3  A    between atoms: C9_9  and  C11_11 
REMARK    4  A    between atoms: C10_10  and  C11_11 
ROOT
HETATM    1  C1  UNL     1     -31.463   7.395   1.131  1.00 20.00     0.000 A 
HETATM    2  C2  UNL     1     -32.301   6.279   1.163  1.00 20.00     0.001 A 
HETATM    3  C3  UNL     1     -31.624   8.415   2.068  1.00 20.00     0.001 A 
HETATM    4  C4  UNL     1     -33.300   6.185   2.132  1.00 20.00     0.007 A 
HETATM    5  C5  UNL     1     -32.623   8.321   3.037  1.00 20.00     0.007 A 
HETATM    6  C6  UNL     1     -33.461   7.206   3.069  1.00 20.00    -0.058 A 
ENDROOT
BRANCH   6   7
HETATM    7  C8  UNL     1     -34.534   7.106   4.110  1.00 20.00     0.038 C 
BRANCH   7   8
HETATM    8  C10 UNL     1     -35.407   5.856   3.967  1.00 20.00     0.005 C 
BRANCH   8   9
HETATM    9  C11 UNL     1     -34.916   4.675   4.810  1.00 20.00    -0.000 C 
BRANCH   9  10
HETATM   10  C9  UNL     1     -33.898   3.832   4.041  1.00 20.00    -0.005 C 
HETATM   11  C7  UNL     1     -33.104   2.930   4.973  1.00 20.00     0.005 C 
ENDBRANCH   9  10
ENDBRANCH   8   9
ENDBRANCH   7   8
ENDBRANCH   6   7
TORSDOF 4
ENDMDL
MODEL 4
REMARK VINA RESULT:      -2.2      1.455      5.266
REMARK  4 active torsions:
REMARK  status: ('A' for Active; 'I' for Inactive)
REMARK    1  A    between atoms: C6_6  and  C8_8 
REMARK    2  A    between atoms: C8_8  and  C10_10 
REMARK    3  A    between atoms: C9_9  and  C11_11 
REMARK    4  A    between atoms: C10_10  and  C11_11 
ROOT
HETATM    1  C1  UNL     1     -31.470   7.382   1.133  1.00 20.00     0.000 A 
HETATM    2  C2  UNL     1     -31.632   8.412   2.060  1.00 20.00     0.001 A 
HETATM    3  C3  UNL     1     -32.303   6.264   1.179  1.00 20.00     0.001 A 
HETATM    4  C4  UNL     1     -32.627   8.324   3.034  1.00 20.00     0.007 A 
HETATM    5  C5  UNL     1     -33.298   6.176   2.153  1.00 20.00     0.007 A 
HETATM    6  C6  UNL     1     -33.460   7.205   3.081  1.00 20.00    -0.058 A 
ENDROOT
BRANCH   6   7
HETATM    7  C8  UNL     1     -34.528   7.109   4.127  1.00 20.00     0.038 C 
BRANCH   7   8
HETATM    8  C10 UNL     1     -35.408   5.864   3.986  1.00 20.00     0.005 C 
BRANCH   8   9
HETATM    9  C11 UNL     1     -34.912   4.675   4.817  1.00 20.00    -0.000 C 
BRANCH   9  10
HETATM   10  C9  UNL     1     -33.919   3.825   4.025  1.00 20.00    -0.005 C 
HETATM   11  C7  UNL     1     -33.125   2.902   4.937  1.00 20.00     0.005 C 
ENDBRANCH   9  10
ENDBRANCH   8   9
ENDBRANCH   7   8
ENDBRANCH   6   7
TORSDOF 4
ENDMDL
MODEL 5
REMARK VINA RESULT:      -1.0      1.069      5.369
REMARK  4 active torsions:
REMARK  status: ('A' for Active; 'I' for Inactive)
REMARK    1  A    between atoms: C6_6  and  C8_8 
REMARK    2  A    between atoms: C8_8  and  C10_10 
REMARK    3  A    between atoms: C9_9  and  C11_11 
REMARK    4  A    between atoms: C10_10  and  C11_11 
ROOT
HETATM    1  C1  UNL     1     -31.790   8.771   0.488  1.00 20.00     0.000 A 
HETATM    2  C2  UNL     1     -32.657   9.642   1.149  1.00 20.00     0.001 A 
HETATM    3  C3  UNL     1     -31.601   7.476   0.968  1.00 20.00     0.001 A 
HETATM    4  C4  UNL     1     -33.335   9.217   2.291  1.00 20.00     0.007 A 
HETATM    5  C5  UNL     1     -32.280   7.050   2.110  1.00 20.00     0.007 A 
HETATM    6  C6  UNL     1     -33.147   7.920   2.772  1.00 20.00    -0.058 A 
ENDROOT
BRANCH   6   7
HETATM    7  C8  UNL     1     -33.875   7.462   3.999  1.00 20.00     0.038 C 
BRANCH   7   8
HETATM    8  C10 UNL     1     -35.067   6.551   3.695  1.00 20.00     0.005 C 
BRANCH   8   9
HETATM    9  C11 UNL     1     -34.984   5.191   4.395  1.00 20.00    -0.000 C 
BRANCH   9  10
HETATM   10  C9  UNL     1     -33.959   4.282   3.717  1.00 20.00    -0.005 C 
HETATM   11  C7  UNL     1     -33.459   3.201   4.664  1.00 20.00     0.005 C 
ENDBRANCH   9  10
ENDBRANCH   8   9
ENDBRANCH   7   8
ENDBRANCH   6   7
TORSDOF 4
ENDMDL
MODEL 6
REMARK VINA RESULT:      -1.0      0.955      5.370
REMARK  4 active torsions:
REMARK  status: ('A' for Active; 'I' for Inactive)
REMARK    1  A    between atoms: C6_6  and  C8_8 
REMARK    2  A    between atoms: C8_8  and  C10_10 
REMARK    3  A    between atoms: C9_9  and  C11_11 
REMARK    4  A    between atoms: C10_10  and  C11_11 
ROOT
HETATM    1  C1  UNL     1     -31.991   9.638  -0.178  1.00 20.00     0.000 A 
HETATM    2  C2  UNL     1     -32.833  10.234   0.761  1.00 20.00     0.001 A 
HETATM    3  C3  UNL     1     -31.424   8.392   0.085  1.00 20.00     0.001 A 
HETATM    4  C4  UNL     1     -33.109   9.583   1.964  1.00 20.00     0.007 A 
HETATM    5  C5  UNL     1     -31.699   7.740   1.288  1.00 20.00     0.007 A 
HETATM    6  C6  UNL     1     -32.541   8.336   2.228  1.00 20.00    -0.058 A 
ENDROOT
BRANCH   6   7
HETATM    7  C8  UNL     1     -32.836   7.635   3.518  1.00 20.00     0.038 C 
BRANCH   7   8
HETATM    8  C10 UNL     1     -34.323   7.630   3.883  1.00 20.00     0.005 C 
BRANCH   8   9
HETATM    9  C11 UNL     1     -34.928   6.223   3.939  1.00 20.00    -0.000 C 
BRANCH   9  10
HETATM   10  C9  UNL     1     -33.947   5.179   3.407  1.00 20.00    -0.005 C 
HETATM   11  C7  UNL     1     -33.947   3.925   4.267  1.00 20.00     0.005 C 
ENDBRANCH   9  10
ENDBRANCH   8   9
ENDBRANCH   7   8
ENDBRANCH   6   7
TORSDOF 4
ENDMDL
MODEL 7
REMARK VINA RESULT:      -1.0      0.941      5.215
REMARK  4 active torsions:
REMARK  status: ('A' for Active; 'I' for Inactive)
REMARK    1  A    between atoms: C6_6  and  C8_8 
REMARK    2  A    between atoms: C8_8  and  C10_10 
REMARK    3  A    between atoms: C9_9  and  C11_11 
REMARK    4  A    between atoms: C10_10  and  C11_11 
ROOT
HETATM    1  C1  UNL     1     -32.025   9.743  -0.197  1.00 20.00     0.000 A 
HETATM    2  C2  UNL     1     -31.428   8.499   0.012  1.00 20.00     0.001 A 
HETATM    3  C3  UNL     1     -32.883  10.275   0.765  1.00 20.00     0.001 A 
HETATM    4  C4  UNL     1     -31.690   7.788   1.183  1.00 20.00     0.007 A 
HETATM    5  C5  UNL     1     -33.145   9.564   1.936  1.00 20.00     0.007 A 
HETATM    6  C6  UNL     1     -32.549   8.320   2.146  1.00 20.00    -0.058 A 
ENDROOT
BRANCH   6   7
HETATM    7  C8  UNL     1     -32.831   7.557   3.403  1.00 20.00     0.038 C 
BRANCH   7   8
HETATM    8  C10 UNL     1     -34.310   7.563   3.801  1.00 20.00     0.005 C 
BRANCH   8   9
HETATM    9  C11 UNL     1     -34.900   6.157   3.958  1.00 20.00    -0.000 C 
BRANCH   9  10
HETATM   10  C9  UNL     1     -33.945   5.094   3.415  1.00 20.00    -0.005 C 
HETATM   11  C7  UNL     1     -33.904   3.869   4.317  1.00 20.00     0.005 C 
ENDBRANCH   9  10
ENDBRANCH   8   9
ENDBRANCH   7   8
ENDBRANCH   6   7
TORSDOF 4
ENDMDL
MODEL 8
REMARK VINA RESULT:      -0.6      1.000      5.046
REMARK  4 active torsions:
REMARK  status: ('A' for Active; 'I' for Inactive)
REMARK    1  A    between atoms: C6_6  and  C8_8 
REMARK    2  A    between atoms: C8_8  and  C10_10 
REMARK    3  A    between atoms: C9_9  and  C11_11 
REMARK    4  A    between atoms: C10_10  and  C11_11 
ROOT
HETATM    1  C1  UNL     1     -32.692  10.760   0.048  1.00 20.00     0.000 A 
HETATM    2  C2  UNL     1     -32.776  10.571   1.428  1.00 20.00     0.001 A 
HETATM    3  C3  UNL     1     -32.326   9.699  -0.780  1.00 20.00     0.001 A 
HETATM    4  C4  UNL     1     -32.495   9.321   1.980  1.00 20.00     0.007 A 
HETATM    5  C5  UNL     1     -32.045   8.449  -0.229  1.00 20.00     0.007 A 
HETATM    6  C6  UNL     1     -32.129   8.259   1.151  1.00 20.00    -0.058 A 
ENDROOT
BRANCH   6   7
HETATM    7  C8  UNL     1     -31.826   6.916   1.742  1.00 20.00     0.038 C 
BRANCH   7   8
HETATM    8  C10 UNL     1     -33.020   5.957   1.718  1.00 20.00     0.005 C 
BRANCH   8   9
HETATM    9  C11 UNL     1     -33.522   5.581   3.116  1.00 20.00    -0.000 C 
BRANCH   9  10
HETATM   10  C9  UNL     1     -34.647   6.513   3.568  1.00 20.00    -0.005 C 
HETATM   11  C7  UNL     1     -34.122   7.628   4.459  1.00 20.00     0.005 C 
ENDBRANCH   9  10
ENDBRANCH   8   9
ENDBRANCH   7   8
ENDBRANCH   6   7
TORSDOF 4
ENDMDL
MODEL 9
REMARK VINA RESULT:      -0.6      1.007      4.959
REMARK  4 active torsions:
REMARK  status: ('A' for Active; 'I' for Inactive)
REMARK    1  A    between atoms: C6_6  and  C8_8 
REMARK    2  A    between atoms: C8_8  and  C10_10 
REMARK    3  A    between atoms: C9_9  and  C11_11 
REMARK    4  A    between atoms: C10_10  and  C11_11 
ROOT
HETATM    1  C1  UNL     1     -32.697  10.753  -0.002  1.00 20.00     0.000 A 
HETATM    2  C2  UNL     1     -32.335   9.672  -0.806  1.00 20.00     0.001 A 
HETATM    3  C3  UNL     1     -32.771  10.600   1.382  1.00 20.00     0.001 A 
HETATM    4  C4  UNL     1     -32.046   8.437  -0.225  1.00 20.00     0.007 A 
HETATM    5  C5  UNL     1     -32.482   9.365   1.963  1.00 20.00     0.007 A 
HETATM    6  C6  UNL     1     -32.121   8.283   1.160  1.00 20.00    -0.058 A 
ENDROOT
BRANCH   6   7
HETATM    7  C8  UNL     1     -31.811   6.957   1.784  1.00 20.00     0.038 C 
BRANCH   7   8
HETATM    8  C10 UNL     1     -32.978   5.967   1.723  1.00 20.00     0.005 C 
BRANCH   8   9
HETATM    9  C11 UNL     1     -33.511   5.572   3.104  1.00 20.00    -0.000 C 
BRANCH   9  10
HETATM   10  C9  UNL     1     -34.647   6.496   3.543  1.00 20.00    -0.005 C 
HETATM   11  C7  UNL     1     -34.138   7.627   4.423  1.00 20.00     0.005 C 
ENDBRANCH   9  10
ENDBRANCH   8   9
ENDBRANCH   7   8
ENDBRANCH   6   7
TORSDOF 4
ENDMDL
