MODEL 1
REMARK VINA RESULT:      -2.1      0.000      0.000
REMARK  4 active torsions:
REMARK  status: ('A' for Active; 'I' for Inactive)
REMARK    1  A    between atoms: C6_6  and  C7_7 
REMARK    2  A    between atoms: C7_7  and  C8_8 
REMARK    3  A    between atoms: C8_8  and  C9_9 
REMARK    4  A    between atoms: C9_9  and  S10_10 
ROOT
HETATM    1  C1  UNL     1     -35.199   5.187   4.527  1.00 20.00     0.000 A 
HETATM    2  C2  UNL     1     -35.243   6.514   4.100  1.00 20.00     0.001 A 
HETATM    3  C3  UNL     1     -34.230   4.322   4.021  1.00 20.00     0.001 A 
HETATM    4  C4  UNL     1     -34.316   6.975   3.164  1.00 20.00     0.007 A 
HETATM    5  C5  UNL     1     -33.304   4.783   3.085  1.00 20.00     0.007 A 
HETATM    6  C6  UNL     1     -33.347   6.110   2.658  1.00 20.00    -0.058 A 
ENDROOT
BRANCH   6   7
HETATM    7  C7  UNL     1     -32.356   6.603   1.657  1.00 20.00     0.039 C 
BRANCH   7   8
HETATM    8  C8  UNL     1     -31.996   8.094   1.798  1.00 20.00     0.014 C 
BRANCH   8   9
HETATM    9  C9  UNL     1     -31.646   8.739   0.457  1.00 20.00     0.071 C 
BRANCH   9  10
HETATM   10  S10 UNL     1     -32.615  10.255   0.204  1.00 20.00    -0.182 SA
HETATM   11  H22 UNL     1     -32.060  10.946   1.209  1.00 20.00     0.101 HD
ENDBRANCH   9  10
ENDBRANCH   8   9
ENDBRANCH   7   8
ENDBRANCH   6   7
TORSDOF 4
ENDMDL
MODEL 2
REMARK VINA RESULT:      -2.1      0.004      1.528
REMARK  4 active torsions:
REMARK  status: ('A' for Active; 'I' for Inactive)
REMARK    1  A    between atoms: C6_6  and  C7_7 
REMARK    2  A    between atoms: C7_7  and  C8_8 
REMARK    3  A    between atoms: C8_8  and  C9_9 
REMARK    4  A    between atoms: C9_9  and  S10_10 
ROOT
HETATM    1  C1  UNL     1     -35.197   5.185   4.530  1.00 20.00     0.000 A 
HETATM    2  C2  UNL     1     -34.226   4.321   4.026  1.00 20.00     0.001 A 
HETATM    3  C3  UNL     1     -35.243   6.511   4.098  1.00 20.00     0.001 A 
HETATM    4  C4  UNL     1     -33.300   4.782   3.090  1.00 20.00     0.007 A 
HETATM    5  C5  UNL     1     -34.318   6.972   3.163  1.00 20.00     0.007 A 
HETATM    6  C6  UNL     1     -33.346   6.108   2.658  1.00 20.00    -0.058 A 
ENDROOT
BRANCH   6   7
HETATM    7  C7  UNL     1     -32.356   6.602   1.658  1.00 20.00     0.039 C 
BRANCH   7   8
HETATM    8  C8  UNL     1     -31.999   8.094   1.799  1.00 20.00     0.014 C 
BRANCH   8   9
HETATM    9  C9  UNL     1     -31.644   8.738   0.459  1.00 20.00     0.071 C 
BRANCH   9  10
HETATM   10  S10 UNL     1     -32.613  10.253   0.200  1.00 20.00    -0.182 SA
HETATM   11  H22 UNL     1     -32.532  10.689   1.464  1.00 20.00     0.101 HD
ENDBRANCH   9  10
ENDBRANCH   8   9
ENDBRANCH   7   8
ENDBRANCH   6   7
TORSDOF 4
ENDMDL
MODEL 3
REMARK VINA RESULT:      -1.5      2.907      4.670
REMARK  4 active torsions:
REMARK  status: ('A' for Active; 'I' for Inactive)
REMARK    1  A    between atoms: C6_6  and  C7_7 
REMARK    2  A    between atoms: C7_7  and  C8_8 
REMARK    3  A    between atoms: C8_8  and  C9_9 
REMARK    4  A    between atoms: C9_9  and  S10_10 
ROOT
HETATM    1  C1  UNL     1     -31.824   7.685   1.838  1.00 20.00     0.000 A 
HETATM    2  C2  UNL     1     -32.293   8.351   2.970  1.00 20.00     0.001 A 
HETATM    3  C3  UNL     1     -32.453   6.518   1.403  1.00 20.00     0.001 A 
HETATM    4  C4  UNL     1     -33.393   7.850   3.667  1.00 20.00     0.007 A 
HETATM    5  C5  UNL     1     -33.552   6.017   2.101  1.00 20.00     0.007 A 
HETATM    6  C6  UNL     1     -34.022   6.684   3.232  1.00 20.00    -0.058 A 
ENDROOT
BRANCH   6   7
HETATM    7  C7  UNL     1     -35.198   6.147   3.978  1.00 20.00     0.039 C 
BRANCH   7   8
HETATM    8  C8  UNL     1     -34.971   4.761   4.612  1.00 20.00     0.014 C 
BRANCH   8   9
HETATM    9  C9  UNL     1     -33.875   3.967   3.901  1.00 20.00     0.071 C 
BRANCH   9  10
HETATM   10  S10 UNL     1     -33.014   2.877   5.072  1.00 20.00    -0.182 SA
HETATM   11  H22 UNL     1     -33.949   2.933   6.029  1.00 20.00     0.101 HD
ENDBRANCH   9  10
ENDBRANCH   8   9
ENDBRANCH   7   8
ENDBRANCH   6   7
TORSDOF 4
ENDMDL
MODEL 4
REMARK VINA RESULT:      -1.4      2.896      4.833
REMARK  4 active torsions:
REMARK  status: ('A' for Active; 'I' for Inactive)
REMARK    1  A    between atoms: C6_6  and  C7_7 
REMARK    2  A    between atoms: C7_7  and  C8_8 
REMARK    3  A    between atoms: C8_8  and  C9_9 
REMARK    4  A    between atoms: C9_9  and  S10_10 
ROOT
HETATM    1  C1  UNL     1     -31.767   7.767   1.903  1.00 20.00     0.000 A 
HETATM    2  C2  UNL     1     -32.389   6.613   1.427  1.00 20.00     0.001 A 
HETATM    3  C3  UNL     1     -32.261   8.410   3.037  1.00 20.00     0.001 A 
HETATM    4  C4  UNL     1     -33.508   6.102   2.087  1.00 20.00     0.007 A 
HETATM    5  C5  UNL     1     -33.379   7.901   3.696  1.00 20.00     0.007 A 
HETATM    6  C6  UNL     1     -34.002   6.746   3.221  1.00 20.00    -0.058 A 
ENDROOT
BRANCH   6   7
HETATM    7  C7  UNL     1     -35.199   6.202   3.927  1.00 20.00     0.039 C 
BRANCH   7   8
HETATM    8  C8  UNL     1     -34.990   4.808   4.552  1.00 20.00     0.014 C 
BRANCH   8   9
HETATM    9  C9  UNL     1     -33.864   4.028   3.873  1.00 20.00     0.071 C 
BRANCH   9  10
HETATM   10  S10 UNL     1     -33.083   2.882   5.046  1.00 20.00    -0.182 SA
HETATM   11  H22 UNL     1     -34.176   2.680   5.794  1.00 20.00     0.101 HD
ENDBRANCH   9  10
ENDBRANCH   8   9
ENDBRANCH   7   8
ENDBRANCH   6   7
TORSDOF 4
ENDMDL
MODEL 5
REMARK VINA RESULT:       0.1      2.543      4.964
REMARK  4 active torsions:
REMARK  status: ('A' for Active; 'I' for Inactive)
REMARK    1  A    between atoms: C6_6  and  C7_7 
REMARK    2  A    between atoms: C7_7  and  C8_8 
REMARK    3  A    between atoms: C8_8  and  C9_9 
REMARK    4  A    between atoms: C9_9  and  S10_10 
ROOT
HETATM    1  C1  UNL     1     -31.907   9.899  -0.026  1.00 20.00     0.000 A 
HETATM    2  C2  UNL     1     -32.852  10.236   0.941  1.00 20.00     0.001 A 
HETATM    3  C3  UNL     1     -31.295   8.646   0.002  1.00 20.00     0.001 A 
HETATM    4  C4  UNL     1     -33.186   9.320   1.939  1.00 20.00     0.007 A 
HETATM    5  C5  UNL     1     -31.629   7.729   0.999  1.00 20.00     0.007 A 
HETATM    6  C6  UNL     1     -32.575   8.066   1.967  1.00 20.00    -0.058 A 
ENDROOT
BRANCH   6   7
HETATM    7  C7  UNL     1     -32.931   7.085   3.034  1.00 20.00     0.039 C 
BRANCH   7   8
HETATM    8  C8  UNL     1     -34.184   7.459   3.849  1.00 20.00     0.014 C 
BRANCH   8   9
HETATM    9  C9  UNL     1     -35.164   6.292   3.979  1.00 20.00     0.071 C 
BRANCH   9  10
HETATM   10  S10 UNL     1     -34.273   4.709   4.007  1.00 20.00    -0.182 SA
HETATM   11  H22 UNL     1     -35.304   3.977   4.449  1.00 20.00     0.101 HD
ENDBRANCH   9  10
ENDBRANCH   8   9
ENDBRANCH   7   8
ENDBRANCH   6   7
TORSDOF 4
ENDMDL
MODEL 6
REMARK VINA RESULT:       0.1      2.538      5.162
REMARK  4 active torsions:
REMARK  status: ('A' for Active; 'I' for Inactive)
REMARK    1  A    between atoms: C6_6  and  C7_7 
REMARK    2  A    between atoms: C7_7  and  C8_8 
REMARK    3  A    between atoms: C8_8  and  C9_9 
REMARK    4  A    between atoms: C9_9  and  S10_10 
ROOT
HETATM    1  C1  UNL     1     -31.900   9.895  -0.006  1.00 20.00     0.000 A 
HETATM    2  C2  UNL     1     -31.279   8.647   0.024  1.00 20.00     0.001 A 
HETATM    3  C3  UNL     1     -32.862  10.219   0.951  1.00 20.00     0.001 A 
HETATM    4  C4  UNL     1     -31.619   7.723   1.012  1.00 20.00     0.007 A 
HETATM    5  C5  UNL     1     -33.203   9.295   1.938  1.00 20.00     0.007 A 
HETATM    6  C6  UNL     1     -32.581   8.047   1.969  1.00 20.00    -0.058 A 
ENDROOT
BRANCH   6   7
HETATM    7  C7  UNL     1     -32.946   7.058   3.025  1.00 20.00     0.039 C 
BRANCH   7   8
HETATM    8  C8  UNL     1     -34.198   7.433   3.842  1.00 20.00     0.014 C 
BRANCH   8   9
HETATM    9  C9  UNL     1     -35.175   6.265   3.981  1.00 20.00     0.071 C 
BRANCH   9  10
HETATM   10  S10 UNL     1     -34.283   4.682   3.982  1.00 20.00    -0.182 SA
HETATM   11  H22 UNL     1     -35.017   4.109   4.945  1.00 20.00     0.101 HD
ENDBRANCH   9  10
ENDBRANCH   8   9
ENDBRANCH   7   8
ENDBRANCH   6   7
TORSDOF 4
ENDMDL
MODEL 7
REMARK VINA RESULT:       0.4      1.294      2.050
REMARK  4 active torsions:
REMARK  status: ('A' for Active; 'I' for Inactive)
REMARK    1  A    between atoms: C6_6  and  C7_7 
REMARK    2  A    between atoms: C7_7  and  C8_8 
REMARK    3  A    between atoms: C8_8  and  C9_9 
REMARK    4  A    between atoms: C9_9  and  S10_10 
ROOT
HETATM    1  C1  UNL     1     -35.151   5.023   4.819  1.00 20.00     0.000 A 
HETATM    2  C2  UNL     1     -34.206   4.103   4.367  1.00 20.00     0.001 A 
HETATM    3  C3  UNL     1     -35.342   6.223   4.134  1.00 20.00     0.001 A 
HETATM    4  C4  UNL     1     -33.451   4.383   3.227  1.00 20.00     0.007 A 
HETATM    5  C5  UNL     1     -34.587   6.504   2.996  1.00 20.00     0.007 A 
HETATM    6  C6  UNL     1     -33.642   5.583   2.542  1.00 20.00    -0.058 A 
ENDROOT
BRANCH   6   7
HETATM    7  C7  UNL     1     -32.834   5.884   1.324  1.00 20.00     0.039 C 
BRANCH   7   8
HETATM    8  C8  UNL     1     -31.601   6.772   1.582  1.00 20.00     0.014 C 
BRANCH   8   9
HETATM    9  C9  UNL     1     -31.961   8.253   1.690  1.00 20.00     0.071 C 
BRANCH   9  10
HETATM   10  S10 UNL     1     -31.830   8.820   3.411  1.00 20.00    -0.182 SA
HETATM   11  H22 UNL     1     -30.580   9.291   3.308  1.00 20.00     0.101 HD
ENDBRANCH   9  10
ENDBRANCH   8   9
ENDBRANCH   7   8
ENDBRANCH   6   7
TORSDOF 4
ENDMDL
MODEL 8
REMARK VINA RESULT:       0.4      3.122      4.966
REMARK  4 active torsions:
REMARK  status: ('A' for Active; 'I' for Inactive)
REMARK    1  A    between atoms: C6_6  and  C7_7 
REMARK    2  A    between atoms: C7_7  and  C8_8 
REMARK    3  A    between atoms: C8_8  and  C9_9 
REMARK    4  A    between atoms: C9_9  and  S10_10 
ROOT
HETATM    1  C1  UNL     1     -32.421   8.386   2.366  1.00 20.00     0.000 A 
HETATM    2  C2  UNL     1     -32.039   7.351   1.513  1.00 20.00     0.001 A 
HETATM    3  C3  UNL     1     -33.317   8.138   3.406  1.00 20.00     0.001 A 
HETATM    4  C4  UNL     1     -32.554   6.068   1.699  1.00 20.00     0.007 A 
HETATM    5  C5  UNL     1     -33.833   6.856   3.592  1.00 20.00     0.007 A 
HETATM    6  C6  UNL     1     -33.450   5.820   2.739  1.00 20.00    -0.058 A 
ENDROOT
BRANCH   6   7
HETATM    7  C7  UNL     1     -34.002   4.448   2.938  1.00 20.00     0.039 C 
BRANCH   7   8
HETATM    8  C8  UNL     1     -34.158   4.033   4.414  1.00 20.00     0.014 C 
BRANCH   8   9
HETATM    9  C9  UNL     1     -33.201   2.908   4.808  1.00 20.00     0.071 C 
BRANCH   9  10
HETATM   10  S10 UNL     1     -32.403   3.274   6.399  1.00 20.00    -0.182 SA
HETATM   11  H22 UNL     1     -31.529   4.166   5.915  1.00 20.00     0.101 HD
ENDBRANCH   9  10
ENDBRANCH   8   9
ENDBRANCH   7   8
ENDBRANCH   6   7
TORSDOF 4
ENDMDL
MODEL 9
REMARK VINA RESULT:       0.4      2.178      5.114
REMARK  4 active torsions:
REMARK  status: ('A' for Active; 'I' for Inactive)
REMARK    1  A    between atoms: C6_6  and  C7_7 
REMARK    2  A    between atoms: C7_7  and  C8_8 
REMARK    3  A    between atoms: C8_8  and  C9_9 
REMARK    4  A    between atoms: C9_9  and  S10_10 
ROOT
HETATM    1  C1  UNL     1     -32.459  10.667  -0.175  1.00 20.00     0.000 A 
HETATM    2  C2  UNL     1     -31.775   9.601  -0.758  1.00 20.00     0.001 A 
HETATM    3  C3  UNL     1     -32.964  10.547   1.120  1.00 20.00     0.001 A 
HETATM    4  C4  UNL     1     -31.596   8.414  -0.046  1.00 20.00     0.007 A 
HETATM    5  C5  UNL     1     -32.786   9.361   1.832  1.00 20.00     0.007 A 
HETATM    6  C6  UNL     1     -32.101   8.295   1.249  1.00 20.00    -0.058 A 
ENDROOT
BRANCH   6   7
HETATM    7  C7  UNL     1     -31.911   7.026   2.010  1.00 20.00     0.039 C 
BRANCH   7   8
HETATM    8  C8  UNL     1     -32.971   5.946   1.723  1.00 20.00     0.014 C 
BRANCH   8   9
HETATM    9  C9  UNL     1     -33.617   5.408   3.000  1.00 20.00     0.071 C 
BRANCH   9  10
HETATM   10  S10 UNL     1     -34.560   6.715   3.839  1.00 20.00    -0.182 SA
HETATM   11  H22 UNL     1     -33.716   7.711   3.540  1.00 20.00     0.101 HD
ENDBRANCH   9  10
ENDBRANCH   8   9
ENDBRANCH   7   8
ENDBRANCH   6   7
TORSDOF 4
ENDMDL
