MODEL 1
REMARK VINA RESULT:      -1.1      0.000      0.000
REMARK  0 active torsions:
REMARK  status: ('A' for Active; 'I' for Inactive)
ROOT
HETATM    1  C1  UNL     1     -31.974   7.769   1.726  1.00 20.00     0.016 C 
HETATM    2  C2  UNL     1     -32.892   6.579   1.956  1.00 20.00     0.075 C 
HETATM    3  I3  UNL     1     -34.213   6.944   3.587  1.00 20.00    -0.090 I 
ENDROOT
TORSDOF 0
ENDMDL
MODEL 2
REMARK VINA RESULT:      -1.1      2.454      2.812
REMARK  0 active torsions:
REMARK  status: ('A' for Active; 'I' for Inactive)
ROOT
HETATM    1  C1  UNL     1     -34.611   6.515   3.714  1.00 20.00     0.016 C 
HETATM    2  C2  UNL     1     -33.593   7.642   3.770  1.00 20.00     0.075 C 
HETATM    3  I3  UNL     1     -32.334   7.613   2.051  1.00 20.00    -0.090 I 
ENDROOT
TORSDOF 0
ENDMDL
MODEL 3
REMARK VINA RESULT:      -0.9      0.733      1.252
REMARK  0 active torsions:
REMARK  status: ('A' for Active; 'I' for Inactive)
ROOT
HETATM    1  C1  UNL     1     -32.613   5.810   1.439  1.00 20.00     0.016 C 
HETATM    2  C2  UNL     1     -32.785   7.141   2.151  1.00 20.00     0.075 C 
HETATM    3  I3  UNL     1     -34.266   6.999   3.677  1.00 20.00    -0.090 I 
ENDROOT
TORSDOF 0
ENDMDL
MODEL 4
REMARK VINA RESULT:      -0.9      2.696      2.927
REMARK  0 active torsions:
REMARK  status: ('A' for Active; 'I' for Inactive)
ROOT
HETATM    1  C1  UNL     1     -32.388   6.778   1.473  1.00 20.00     0.016 C 
HETATM    2  C2  UNL     1     -31.986   8.186   1.880  1.00 20.00     0.075 C 
HETATM    3  I3  UNL     1     -32.367   9.569   0.304  1.00 20.00    -0.090 I 
ENDROOT
TORSDOF 0
ENDMDL
MODEL 5
REMARK VINA RESULT:      -0.8      2.800      3.095
REMARK  0 active torsions:
REMARK  status: ('A' for Active; 'I' for Inactive)
ROOT
HETATM    1  C1  UNL     1     -32.701  10.500   0.415  1.00 20.00     0.016 C 
HETATM    2  C2  UNL     1     -32.037   9.163   0.132  1.00 20.00     0.075 C 
HETATM    3  I3  UNL     1     -32.130   7.893   1.841  1.00 20.00    -0.090 I 
ENDROOT
TORSDOF 0
ENDMDL
MODEL 6
REMARK VINA RESULT:      -0.8      2.563      2.588
REMARK  0 active torsions:
REMARK  status: ('A' for Active; 'I' for Inactive)
ROOT
HETATM    1  C1  UNL     1     -34.152   7.498   4.048  1.00 20.00     0.016 C 
HETATM    2  C2  UNL     1     -34.111   6.150   3.348  1.00 20.00     0.075 C 
HETATM    3  I3  UNL     1     -32.660   6.150   1.786  1.00 20.00    -0.090 I 
ENDROOT
TORSDOF 0
ENDMDL
MODEL 7
REMARK VINA RESULT:      -0.7      3.501      3.520
REMARK  0 active torsions:
REMARK  status: ('A' for Active; 'I' for Inactive)
ROOT
HETATM    1  C1  UNL     1     -33.883   3.952   4.195  1.00 20.00     0.016 C 
HETATM    2  C2  UNL     1     -34.985   4.980   4.384  1.00 20.00     0.075 C 
HETATM    3  I3  UNL     1     -34.348   6.904   3.722  1.00 20.00    -0.090 I 
ENDROOT
TORSDOF 0
ENDMDL
MODEL 8
REMARK VINA RESULT:      -0.7      1.925      2.104
REMARK  0 active torsions:
REMARK  status: ('A' for Active; 'I' for Inactive)
ROOT
HETATM    1  C1  UNL     1     -32.220   8.976   0.832  1.00 20.00     0.016 C 
HETATM    2  C2  UNL     1     -31.990   8.040   2.006  1.00 20.00     0.075 C 
HETATM    3  I3  UNL     1     -32.528   6.041   1.499  1.00 20.00    -0.090 I 
ENDROOT
TORSDOF 0
ENDMDL
MODEL 9
REMARK VINA RESULT:      -0.6      2.723      2.911
REMARK  0 active torsions:
REMARK  status: ('A' for Active; 'I' for Inactive)
ROOT
HETATM    1  C1  UNL     1     -34.152   7.418   3.878  1.00 20.00     0.016 C 
HETATM    2  C2  UNL     1     -35.123   6.254   3.974  1.00 20.00     0.075 C 
HETATM    3  I3  UNL     1     -34.077   4.403   4.127  1.00 20.00    -0.090 I 
ENDROOT
TORSDOF 0
ENDMDL
