MODEL 1
REMARK VINA RESULT:      -2.2      0.000      0.000
REMARK  1 active torsions:
REMARK  status: ('A' for Active; 'I' for Inactive)
REMARK    1  A    between atoms: C6_6  and  N8_8 
ROOT
HETATM    1  C1  UNL     1     -34.354   6.010   3.658  1.00 20.00     0.000 A 
HETATM    2  C2  UNL     1     -34.159   7.349   3.996  1.00 20.00     0.002 A 
HETATM    3  C3  UNL     1     -33.695   5.465   2.556  1.00 20.00     0.002 A 
HETATM    4  C4  UNL     1     -33.305   8.143   3.232  1.00 20.00     0.029 A 
HETATM    5  C5  UNL     1     -32.840   6.260   1.792  1.00 20.00     0.029 A 
HETATM    6  C6  UNL     1     -32.646   7.599   2.129  1.00 20.00     0.027 A 
ENDROOT
BRANCH   6   7
HETATM    7  N8  UNL     1     -31.782   8.403   1.356  1.00 20.00    -0.394 N 
HETATM    8  C7  UNL     1     -32.249   9.470   0.527  1.00 20.00     0.146 C 
HETATM    9  H17 UNL     1     -30.803   8.195   1.406  1.00 20.00     0.159 HD
ENDBRANCH   6   7
TORSDOF 1
ENDMDL
MODEL 2
REMARK VINA RESULT:      -2.2      0.005      1.708
REMARK  1 active torsions:
REMARK  status: ('A' for Active; 'I' for Inactive)
REMARK    1  A    between atoms: C6_6  and  N8_8 
ROOT
HETATM    1  C1  UNL     1     -34.353   6.011   3.654  1.00 20.00     0.000 A 
HETATM    2  C2  UNL     1     -33.694   5.468   2.551  1.00 20.00     0.002 A 
HETATM    3  C3  UNL     1     -34.158   7.350   3.993  1.00 20.00     0.002 A 
HETATM    4  C4  UNL     1     -32.839   6.263   1.788  1.00 20.00     0.029 A 
HETATM    5  C5  UNL     1     -33.303   8.145   3.230  1.00 20.00     0.029 A 
HETATM    6  C6  UNL     1     -32.643   7.602   2.127  1.00 20.00     0.027 A 
ENDROOT
BRANCH   6   7
HETATM    7  N8  UNL     1     -31.779   8.407   1.356  1.00 20.00    -0.394 N 
HETATM    8  C7  UNL     1     -32.245   9.469   0.521  1.00 20.00     0.146 C 
HETATM    9  H17 UNL     1     -30.799   8.204   1.413  1.00 20.00     0.159 HD
ENDBRANCH   6   7
TORSDOF 1
ENDMDL
MODEL 3
REMARK VINA RESULT:      -1.8      1.927      3.796
REMARK  1 active torsions:
REMARK  status: ('A' for Active; 'I' for Inactive)
REMARK    1  A    between atoms: C6_6  and  N8_8 
ROOT
HETATM    1  C1  UNL     1     -31.801   7.151   1.428  1.00 20.00     0.000 A 
HETATM    2  C2  UNL     1     -32.455   5.919   1.409  1.00 20.00     0.002 A 
HETATM    3  C3  UNL     1     -32.207   8.143   2.321  1.00 20.00     0.002 A 
HETATM    4  C4  UNL     1     -33.515   5.679   2.283  1.00 20.00     0.029 A 
HETATM    5  C5  UNL     1     -33.268   7.902   3.195  1.00 20.00     0.029 A 
HETATM    6  C6  UNL     1     -33.922   6.670   3.175  1.00 20.00     0.027 A 
ENDROOT
BRANCH   6   7
HETATM    7  N8  UNL     1     -34.994   6.428   4.059  1.00 20.00    -0.394 N 
HETATM    8  C7  UNL     1     -35.327   5.122   4.536  1.00 20.00     0.146 C 
HETATM    9  H17 UNL     1     -35.532   7.222   4.350  1.00 20.00     0.159 HD
ENDBRANCH   6   7
TORSDOF 1
ENDMDL
MODEL 4
REMARK VINA RESULT:      -1.8      2.011      3.524
REMARK  1 active torsions:
REMARK  status: ('A' for Active; 'I' for Inactive)
REMARK    1  A    between atoms: C6_6  and  N8_8 
ROOT
HETATM    1  C1  UNL     1     -32.065   7.936   1.805  1.00 20.00     0.000 A 
HETATM    2  C2  UNL     1     -32.742   8.302   2.968  1.00 20.00     0.002 A 
HETATM    3  C3  UNL     1     -32.185   6.639   1.307  1.00 20.00     0.002 A 
HETATM    4  C4  UNL     1     -33.539   7.371   3.633  1.00 20.00     0.029 A 
HETATM    5  C5  UNL     1     -32.983   5.707   1.973  1.00 20.00     0.029 A 
HETATM    6  C6  UNL     1     -33.660   6.074   3.136  1.00 20.00     0.027 A 
ENDROOT
BRANCH   6   7
HETATM    7  N8  UNL     1     -34.466   5.132   3.809  1.00 20.00    -0.394 N 
HETATM    8  C7  UNL     1     -33.962   3.887   4.297  1.00 20.00     0.146 C 
HETATM    9  H17 UNL     1     -35.431   5.369   3.937  1.00 20.00     0.159 HD
ENDBRANCH   6   7
TORSDOF 1
ENDMDL
MODEL 5
REMARK VINA RESULT:      -1.8      2.011      3.914
REMARK  1 active torsions:
REMARK  status: ('A' for Active; 'I' for Inactive)
REMARK    1  A    between atoms: C6_6  and  N8_8 
ROOT
HETATM    1  C1  UNL     1     -32.073   7.935   1.804  1.00 20.00     0.000 A 
HETATM    2  C2  UNL     1     -32.187   6.635   1.310  1.00 20.00     0.002 A 
HETATM    3  C3  UNL     1     -32.753   8.302   2.965  1.00 20.00     0.002 A 
HETATM    4  C4  UNL     1     -32.982   5.704   1.976  1.00 20.00     0.029 A 
HETATM    5  C5  UNL     1     -33.548   7.369   3.632  1.00 20.00     0.029 A 
HETATM    6  C6  UNL     1     -33.663   6.070   3.137  1.00 20.00     0.027 A 
ENDROOT
BRANCH   6   7
HETATM    7  N8  UNL     1     -34.467   5.127   3.811  1.00 20.00    -0.394 N 
HETATM    8  C7  UNL     1     -33.959   3.887   4.306  1.00 20.00     0.146 C 
HETATM    9  H17 UNL     1     -35.434   5.361   3.934  1.00 20.00     0.159 HD
ENDBRANCH   6   7
TORSDOF 1
ENDMDL
MODEL 6
REMARK VINA RESULT:      -1.8      1.920      3.420
REMARK  1 active torsions:
REMARK  status: ('A' for Active; 'I' for Inactive)
REMARK    1  A    between atoms: C6_6  and  N8_8 
ROOT
HETATM    1  C1  UNL     1     -31.805   7.158   1.413  1.00 20.00     0.000 A 
HETATM    2  C2  UNL     1     -32.217   8.156   2.296  1.00 20.00     0.002 A 
HETATM    3  C3  UNL     1     -32.450   5.921   1.408  1.00 20.00     0.002 A 
HETATM    4  C4  UNL     1     -33.274   7.918   3.174  1.00 20.00     0.029 A 
HETATM    5  C5  UNL     1     -33.507   5.683   2.287  1.00 20.00     0.029 A 
HETATM    6  C6  UNL     1     -33.919   6.681   3.170  1.00 20.00     0.027 A 
ENDROOT
BRANCH   6   7
HETATM    7  N8  UNL     1     -34.987   6.440   4.059  1.00 20.00    -0.394 N 
HETATM    8  C7  UNL     1     -35.331   5.132   4.523  1.00 20.00     0.146 C 
HETATM    9  H17 UNL     1     -35.514   7.236   4.363  1.00 20.00     0.159 HD
ENDBRANCH   6   7
TORSDOF 1
ENDMDL
MODEL 7
REMARK VINA RESULT:      -1.8      1.306      1.711
REMARK  1 active torsions:
REMARK  status: ('A' for Active; 'I' for Inactive)
REMARK    1  A    between atoms: C6_6  and  N8_8 
ROOT
HETATM    1  C1  UNL     1     -35.146   5.119   4.506  1.00 20.00     0.000 A 
HETATM    2  C2  UNL     1     -35.213   6.468   4.155  1.00 20.00     0.002 A 
HETATM    3  C3  UNL     1     -34.175   4.296   3.935  1.00 20.00     0.002 A 
HETATM    4  C4  UNL     1     -34.308   6.993   3.233  1.00 20.00     0.029 A 
HETATM    5  C5  UNL     1     -33.271   4.823   3.012  1.00 20.00     0.029 A 
HETATM    6  C6  UNL     1     -33.338   6.171   2.661  1.00 20.00     0.027 A 
ENDROOT
BRANCH   6   7
HETATM    7  N8  UNL     1     -32.423   6.702   1.728  1.00 20.00    -0.394 N 
HETATM    8  C7  UNL     1     -31.987   8.063   1.756  1.00 20.00     0.146 C 
HETATM    9  H17 UNL     1     -32.079   6.077   1.023  1.00 20.00     0.159 HD
ENDBRANCH   6   7
TORSDOF 1
ENDMDL
MODEL 8
REMARK VINA RESULT:      -1.8      1.306      2.314
REMARK  1 active torsions:
REMARK  status: ('A' for Active; 'I' for Inactive)
REMARK    1  A    between atoms: C6_6  and  N8_8 
ROOT
HETATM    1  C1  UNL     1     -35.138   5.113   4.500  1.00 20.00     0.000 A 
HETATM    2  C2  UNL     1     -34.162   4.295   3.930  1.00 20.00     0.002 A 
HETATM    3  C3  UNL     1     -35.212   6.461   4.147  1.00 20.00     0.002 A 
HETATM    4  C4  UNL     1     -33.260   4.825   3.008  1.00 20.00     0.029 A 
HETATM    5  C5  UNL     1     -34.309   6.990   3.224  1.00 20.00     0.029 A 
HETATM    6  C6  UNL     1     -33.333   6.172   2.655  1.00 20.00     0.027 A 
ENDROOT
BRANCH   6   7
HETATM    7  N8  UNL     1     -32.420   6.708   1.723  1.00 20.00    -0.394 N 
HETATM    8  C7  UNL     1     -31.979   8.067   1.761  1.00 20.00     0.146 C 
HETATM    9  H17 UNL     1     -32.082   6.088   1.011  1.00 20.00     0.159 HD
ENDBRANCH   6   7
TORSDOF 1
ENDMDL
MODEL 9
REMARK VINA RESULT:      -0.7      1.544      2.658
REMARK  1 active torsions:
REMARK  status: ('A' for Active; 'I' for Inactive)
REMARK    1  A    between atoms: C6_6  and  N8_8 
ROOT
HETATM    1  C1  UNL     1     -33.892   7.865   4.220  1.00 20.00     0.000 A 
HETATM    2  C2  UNL     1     -34.544   6.652   3.997  1.00 20.00     0.002 A 
HETATM    3  C3  UNL     1     -32.861   8.270   3.371  1.00 20.00     0.002 A 
HETATM    4  C4  UNL     1     -34.165   5.844   2.926  1.00 20.00     0.029 A 
HETATM    5  C5  UNL     1     -32.483   7.460   2.300  1.00 20.00     0.029 A 
HETATM    6  C6  UNL     1     -33.134   6.247   2.078  1.00 20.00     0.027 A 
ENDROOT
BRANCH   6   7
HETATM    7  N8  UNL     1     -32.750   5.429   0.995  1.00 20.00    -0.394 N 
HETATM    8  C7  UNL     1     -31.480   4.778   0.925  1.00 20.00     0.146 C 
HETATM    9  H17 UNL     1     -33.415   5.316   0.253  1.00 20.00     0.159 HD
ENDBRANCH   6   7
TORSDOF 1
ENDMDL
