MODEL 1
REMARK VINA RESULT:      -1.7      0.000      0.000
REMARK  0 active torsions:
REMARK  status: ('A' for Active; 'I' for Inactive)
ROOT
HETATM    1  C1  UNL     1     -31.859   7.655   1.713  1.00 20.00     0.000 A 
HETATM    2  C2  UNL     1     -32.305   6.369   1.412  1.00 20.00     0.001 A 
HETATM    3  C3  UNL     1     -32.431   8.364   2.769  1.00 20.00     0.001 A 
HETATM    4  C4  UNL     1     -33.325   5.790   2.168  1.00 20.00     0.019 A 
HETATM    5  C5  UNL     1     -33.451   7.784   3.525  1.00 20.00     0.019 A 
HETATM    6  C6  UNL     1     -33.897   6.498   3.225  1.00 20.00     0.011 A 
HETATM    7  S7  UNL     1     -35.213   5.752   4.201  1.00 20.00    -0.053 SA
ENDROOT
TORSDOF 0
ENDMDL
MODEL 2
REMARK VINA RESULT:      -1.7      0.001      1.826
REMARK  0 active torsions:
REMARK  status: ('A' for Active; 'I' for Inactive)
ROOT
HETATM    1  C1  UNL     1     -31.858   7.655   1.713  1.00 20.00     0.000 A 
HETATM    2  C2  UNL     1     -32.431   8.363   2.769  1.00 20.00     0.001 A 
HETATM    3  C3  UNL     1     -32.305   6.368   1.413  1.00 20.00     0.001 A 
HETATM    4  C4  UNL     1     -33.450   7.785   3.526  1.00 20.00     0.019 A 
HETATM    5  C5  UNL     1     -33.325   5.790   2.169  1.00 20.00     0.019 A 
HETATM    6  C6  UNL     1     -33.897   6.498   3.225  1.00 20.00     0.011 A 
HETATM    7  S7  UNL     1     -35.213   5.751   4.201  1.00 20.00    -0.053 SA
ENDROOT
TORSDOF 0
ENDMDL
MODEL 3
REMARK VINA RESULT:      -1.4      2.156      3.415
REMARK  0 active torsions:
REMARK  status: ('A' for Active; 'I' for Inactive)
ROOT
HETATM    1  C1  UNL     1     -34.614   5.818   3.889  1.00 20.00     0.000 A 
HETATM    2  C2  UNL     1     -34.473   7.173   4.185  1.00 20.00     0.001 A 
HETATM    3  C3  UNL     1     -33.885   5.254   2.842  1.00 20.00     0.001 A 
HETATM    4  C4  UNL     1     -33.602   7.965   3.435  1.00 20.00     0.019 A 
HETATM    5  C5  UNL     1     -33.014   6.045   2.092  1.00 20.00     0.019 A 
HETATM    6  C6  UNL     1     -32.873   7.400   2.389  1.00 20.00     0.011 A 
HETATM    7  S7  UNL     1     -31.750   8.421   1.421  1.00 20.00    -0.053 SA
ENDROOT
TORSDOF 0
ENDMDL
MODEL 4
REMARK VINA RESULT:      -1.4      2.187      2.882
REMARK  0 active torsions:
REMARK  status: ('A' for Active; 'I' for Inactive)
ROOT
HETATM    1  C1  UNL     1     -34.465   5.914   3.789  1.00 20.00     0.000 A 
HETATM    2  C2  UNL     1     -33.768   5.366   2.712  1.00 20.00     0.001 A 
HETATM    3  C3  UNL     1     -34.323   7.267   4.095  1.00 20.00     0.001 A 
HETATM    4  C4  UNL     1     -32.929   6.171   1.941  1.00 20.00     0.019 A 
HETATM    5  C5  UNL     1     -33.484   8.072   3.324  1.00 20.00     0.019 A 
HETATM    6  C6  UNL     1     -32.788   7.524   2.247  1.00 20.00     0.011 A 
HETATM    7  S7  UNL     1     -31.705   8.564   1.253  1.00 20.00    -0.053 SA
ENDROOT
TORSDOF 0
ENDMDL
MODEL 5
REMARK VINA RESULT:      -1.0      1.873      2.855
REMARK  0 active torsions:
REMARK  status: ('A' for Active; 'I' for Inactive)
ROOT
HETATM    1  C1  UNL     1     -33.865   7.801   3.915  1.00 20.00     0.000 A 
HETATM    2  C2  UNL     1     -32.826   8.220   3.084  1.00 20.00     0.001 A 
HETATM    3  C3  UNL     1     -34.401   6.522   3.771  1.00 20.00     0.001 A 
HETATM    4  C4  UNL     1     -32.322   7.359   2.109  1.00 20.00     0.019 A 
HETATM    5  C5  UNL     1     -33.897   5.661   2.795  1.00 20.00     0.019 A 
HETATM    6  C6  UNL     1     -32.858   6.079   1.965  1.00 20.00     0.011 A 
HETATM    7  S7  UNL     1     -32.209   4.967   0.706  1.00 20.00    -0.053 SA
ENDROOT
TORSDOF 0
ENDMDL
MODEL 6
REMARK VINA RESULT:      -0.7      2.027      3.072
REMARK  0 active torsions:
REMARK  status: ('A' for Active; 'I' for Inactive)
ROOT
HETATM    1  C1  UNL     1     -34.651   7.002   3.258  1.00 20.00     0.000 A 
HETATM    2  C2  UNL     1     -35.412   6.257   4.158  1.00 20.00     0.001 A 
HETATM    3  C3  UNL     1     -33.481   6.464   2.721  1.00 20.00     0.001 A 
HETATM    4  C4  UNL     1     -35.003   4.974   4.522  1.00 20.00     0.019 A 
HETATM    5  C5  UNL     1     -33.073   5.180   3.085  1.00 20.00     0.019 A 
HETATM    6  C6  UNL     1     -33.834   4.436   3.985  1.00 20.00     0.011 A 
HETATM    7  S7  UNL     1     -33.307   2.779   4.454  1.00 20.00    -0.053 SA
ENDROOT
TORSDOF 0
ENDMDL
MODEL 7
REMARK VINA RESULT:      -0.7      2.023      2.895
REMARK  0 active torsions:
REMARK  status: ('A' for Active; 'I' for Inactive)
ROOT
HETATM    1  C1  UNL     1     -34.645   7.007   3.253  1.00 20.00     0.000 A 
HETATM    2  C2  UNL     1     -33.477   6.468   2.716  1.00 20.00     0.001 A 
HETATM    3  C3  UNL     1     -35.406   6.263   4.154  1.00 20.00     0.001 A 
HETATM    4  C4  UNL     1     -33.069   5.183   3.079  1.00 20.00     0.019 A 
HETATM    5  C5  UNL     1     -34.999   4.978   4.517  1.00 20.00     0.019 A 
HETATM    6  C6  UNL     1     -33.831   4.439   3.980  1.00 20.00     0.011 A 
HETATM    7  S7  UNL     1     -33.306   2.782   4.449  1.00 20.00    -0.053 SA
ENDROOT
TORSDOF 0
ENDMDL
MODEL 8
REMARK VINA RESULT:      -0.6      1.113      2.134
REMARK  0 active torsions:
REMARK  status: ('A' for Active; 'I' for Inactive)
ROOT
HETATM    1  C1  UNL     1     -32.158   6.287   0.994  1.00 20.00     0.000 A 
HETATM    2  C2  UNL     1     -31.751   7.545   1.434  1.00 20.00     0.001 A 
HETATM    3  C3  UNL     1     -33.107   5.567   1.721  1.00 20.00     0.001 A 
HETATM    4  C4  UNL     1     -32.292   8.086   2.601  1.00 20.00     0.019 A 
HETATM    5  C5  UNL     1     -33.648   6.108   2.888  1.00 20.00     0.019 A 
HETATM    6  C6  UNL     1     -33.241   7.367   3.327  1.00 20.00     0.011 A 
HETATM    7  S7  UNL     1     -33.940   8.064   4.833  1.00 20.00    -0.053 SA
ENDROOT
TORSDOF 0
ENDMDL
MODEL 9
REMARK VINA RESULT:      -0.6      1.101      1.595
REMARK  0 active torsions:
REMARK  status: ('A' for Active; 'I' for Inactive)
ROOT
HETATM    1  C1  UNL     1     -32.147   6.320   0.998  1.00 20.00     0.000 A 
HETATM    2  C2  UNL     1     -33.086   5.580   1.716  1.00 20.00     0.001 A 
HETATM    3  C3  UNL     1     -31.762   7.582   1.448  1.00 20.00     0.001 A 
HETATM    4  C4  UNL     1     -33.640   6.103   2.885  1.00 20.00     0.019 A 
HETATM    5  C5  UNL     1     -32.317   8.105   2.617  1.00 20.00     0.019 A 
HETATM    6  C6  UNL     1     -33.255   7.365   3.335  1.00 20.00     0.011 A 
HETATM    7  S7  UNL     1     -33.970   8.041   4.843  1.00 20.00    -0.053 SA
ENDROOT
TORSDOF 0
ENDMDL
