MODEL 1
REMARK VINA RESULT:      -2.2      0.000      0.000
REMARK  2 active torsions:
REMARK  status: ('A' for Active; 'I' for Inactive)
REMARK    1  A    between atoms: C6_6  and  C10_10 
REMARK    2  A    between atoms: C9_9  and  C10_10 
ROOT
HETATM    1  C1  UNL     1     -35.192   5.092   4.691  1.00 20.00     0.000 A 
HETATM    2  C2  UNL     1     -35.314   6.407   4.242  1.00 20.00     0.001 A 
HETATM    3  C3  UNL     1     -34.250   4.242   4.112  1.00 20.00     0.001 A 
HETATM    4  C4  UNL     1     -34.494   6.872   3.213  1.00 20.00     0.007 A 
HETATM    5  C5  UNL     1     -33.430   4.707   3.083  1.00 20.00     0.007 A 
HETATM    6  C6  UNL     1     -33.553   6.022   2.635  1.00 20.00    -0.054 A 
ENDROOT
BRANCH   6   7
HETATM    7  C10 UNL     1     -32.659   6.528   1.515  1.00 20.00     0.014 C 
HETATM    8  C8  UNL     1     -31.681   5.433   1.069  1.00 20.00     0.015 C 
BRANCH   7   9
HETATM    9  C9  UNL     1     -31.882   7.807   1.885  1.00 20.00     0.004 C 
HETATM   10  C7  UNL     1     -32.178   8.977   0.954  1.00 20.00     0.006 C 
ENDBRANCH   7   9
ENDBRANCH   6   7
TORSDOF 2
ENDMDL
MODEL 2
REMARK VINA RESULT:      -2.2      0.021      1.528
REMARK  2 active torsions:
REMARK  status: ('A' for Active; 'I' for Inactive)
REMARK    1  A    between atoms: C6_6  and  C10_10 
REMARK    2  A    between atoms: C9_9  and  C10_10 
ROOT
HETATM    1  C1  UNL     1     -35.196   5.097   4.671  1.00 20.00     0.000 A 
HETATM    2  C2  UNL     1     -34.256   4.240   4.097  1.00 20.00     0.001 A 
HETATM    3  C3  UNL     1     -35.311   6.410   4.218  1.00 20.00     0.001 A 
HETATM    4  C4  UNL     1     -33.430   4.699   3.071  1.00 20.00     0.007 A 
HETATM    5  C5  UNL     1     -34.485   6.870   3.192  1.00 20.00     0.007 A 
HETATM    6  C6  UNL     1     -33.545   6.013   2.618  1.00 20.00    -0.054 A 
ENDROOT
BRANCH   6   7
HETATM    7  C10 UNL     1     -32.646   6.513   1.500  1.00 20.00     0.014 C 
HETATM    8  C8  UNL     1     -31.663   5.417   1.068  1.00 20.00     0.015 C 
BRANCH   7   9
HETATM    9  C9  UNL     1     -31.875   7.797   1.865  1.00 20.00     0.004 C 
HETATM   10  C7  UNL     1     -32.189   8.967   0.941  1.00 20.00     0.006 C 
ENDBRANCH   7   9
ENDBRANCH   6   7
TORSDOF 2
ENDMDL
MODEL 3
REMARK VINA RESULT:      -2.0      1.023      4.402
REMARK  2 active torsions:
REMARK  status: ('A' for Active; 'I' for Inactive)
REMARK    1  A    between atoms: C6_6  and  C10_10 
REMARK    2  A    between atoms: C9_9  and  C10_10 
ROOT
HETATM    1  C1  UNL     1     -32.124   8.002   1.751  1.00 20.00     0.000 A 
HETATM    2  C2  UNL     1     -32.115   6.711   1.223  1.00 20.00     0.001 A 
HETATM    3  C3  UNL     1     -32.837   8.273   2.918  1.00 20.00     0.001 A 
HETATM    4  C4  UNL     1     -32.821   5.691   1.862  1.00 20.00     0.007 A 
HETATM    5  C5  UNL     1     -33.543   7.254   3.557  1.00 20.00     0.007 A 
HETATM    6  C6  UNL     1     -33.534   5.963   3.029  1.00 20.00    -0.054 A 
ENDROOT
BRANCH   6   7
HETATM    7  C10 UNL     1     -34.303   4.853   3.726  1.00 20.00     0.014 C 
HETATM    8  C8  UNL     1     -35.537   5.418   4.440  1.00 20.00     0.015 C 
BRANCH   7   9
HETATM    9  C9  UNL     1     -33.443   4.047   4.720  1.00 20.00     0.004 C 
HETATM   10  C7  UNL     1     -33.339   2.570   4.360  1.00 20.00     0.006 C 
ENDBRANCH   7   9
ENDBRANCH   6   7
TORSDOF 2
ENDMDL
MODEL 4
REMARK VINA RESULT:      -1.9      1.022      4.200
REMARK  2 active torsions:
REMARK  status: ('A' for Active; 'I' for Inactive)
REMARK    1  A    between atoms: C6_6  and  C10_10 
REMARK    2  A    between atoms: C9_9  and  C10_10 
ROOT
HETATM    1  C1  UNL     1     -32.117   8.012   1.747  1.00 20.00     0.000 A 
HETATM    2  C2  UNL     1     -32.830   8.282   2.915  1.00 20.00     0.001 A 
HETATM    3  C3  UNL     1     -32.108   6.722   1.217  1.00 20.00     0.001 A 
HETATM    4  C4  UNL     1     -33.534   7.261   3.554  1.00 20.00     0.007 A 
HETATM    5  C5  UNL     1     -32.812   5.701   1.855  1.00 20.00     0.007 A 
HETATM    6  C6  UNL     1     -33.525   5.971   3.023  1.00 20.00    -0.054 A 
ENDROOT
BRANCH   6   7
HETATM    7  C10 UNL     1     -34.293   4.858   3.718  1.00 20.00     0.014 C 
HETATM    8  C8  UNL     1     -35.525   5.421   4.436  1.00 20.00     0.015 C 
BRANCH   7   9
HETATM    9  C9  UNL     1     -33.432   4.049   4.708  1.00 20.00     0.004 C 
HETATM   10  C7  UNL     1     -33.352   2.568   4.361  1.00 20.00     0.006 C 
ENDBRANCH   7   9
ENDBRANCH   6   7
TORSDOF 2
ENDMDL
MODEL 5
REMARK VINA RESULT:      -1.5      1.053      1.733
REMARK  2 active torsions:
REMARK  status: ('A' for Active; 'I' for Inactive)
REMARK    1  A    between atoms: C6_6  and  C10_10 
REMARK    2  A    between atoms: C9_9  and  C10_10 
ROOT
HETATM    1  C1  UNL     1     -34.692   5.625   3.979  1.00 20.00     0.000 A 
HETATM    2  C2  UNL     1     -34.664   7.002   4.201  1.00 20.00     0.001 A 
HETATM    3  C3  UNL     1     -33.890   5.062   2.987  1.00 20.00     0.001 A 
HETATM    4  C4  UNL     1     -33.834   7.816   3.429  1.00 20.00     0.007 A 
HETATM    5  C5  UNL     1     -33.061   5.876   2.215  1.00 20.00     0.007 A 
HETATM    6  C6  UNL     1     -33.033   7.252   2.437  1.00 20.00    -0.054 A 
ENDROOT
BRANCH   6   7
HETATM    7  C10 UNL     1     -32.128   8.138   1.597  1.00 20.00     0.014 C 
HETATM    8  C8  UNL     1     -30.823   8.438   2.344  1.00 20.00     0.015 C 
BRANCH   7   9
HETATM    9  C9  UNL     1     -32.799   9.456   1.160  1.00 20.00     0.004 C 
HETATM   10  C7  UNL     1     -32.441   9.866  -0.263  1.00 20.00     0.006 C 
ENDBRANCH   7   9
ENDBRANCH   6   7
TORSDOF 2
ENDMDL
MODEL 6
REMARK VINA RESULT:      -1.5      1.054      2.247
REMARK  2 active torsions:
REMARK  status: ('A' for Active; 'I' for Inactive)
REMARK    1  A    between atoms: C6_6  and  C10_10 
REMARK    2  A    between atoms: C9_9  and  C10_10 
ROOT
HETATM    1  C1  UNL     1     -34.703   5.630   3.992  1.00 20.00     0.000 A 
HETATM    2  C2  UNL     1     -33.902   5.061   3.002  1.00 20.00     0.001 A 
HETATM    3  C3  UNL     1     -34.672   7.007   4.208  1.00 20.00     0.001 A 
HETATM    4  C4  UNL     1     -33.069   5.870   2.228  1.00 20.00     0.007 A 
HETATM    5  C5  UNL     1     -33.839   7.817   3.435  1.00 20.00     0.007 A 
HETATM    6  C6  UNL     1     -33.039   7.247   2.445  1.00 20.00    -0.054 A 
ENDROOT
BRANCH   6   7
HETATM    7  C10 UNL     1     -32.132   8.129   1.602  1.00 20.00     0.014 C 
HETATM    8  C8  UNL     1     -30.825   8.426   2.347  1.00 20.00     0.015 C 
BRANCH   7   9
HETATM    9  C9  UNL     1     -32.799   9.448   1.165  1.00 20.00     0.004 C 
HETATM   10  C7  UNL     1     -32.425   9.868  -0.251  1.00 20.00     0.006 C 
ENDBRANCH   7   9
ENDBRANCH   6   7
TORSDOF 2
ENDMDL
MODEL 7
REMARK VINA RESULT:      -0.9      1.019      4.120
REMARK  2 active torsions:
REMARK  status: ('A' for Active; 'I' for Inactive)
REMARK    1  A    between atoms: C6_6  and  C10_10 
REMARK    2  A    between atoms: C9_9  and  C10_10 
ROOT
HETATM    1  C1  UNL     1     -31.486   6.596   0.874  1.00 20.00     0.000 A 
HETATM    2  C2  UNL     1     -31.552   7.831   1.520  1.00 20.00     0.001 A 
HETATM    3  C3  UNL     1     -32.408   5.597   1.183  1.00 20.00     0.001 A 
HETATM    4  C4  UNL     1     -32.540   8.065   2.477  1.00 20.00     0.007 A 
HETATM    5  C5  UNL     1     -33.396   5.831   2.140  1.00 20.00     0.007 A 
HETATM    6  C6  UNL     1     -33.462   7.065   2.786  1.00 20.00    -0.054 A 
ENDROOT
BRANCH   6   7
HETATM    7  C10 UNL     1     -34.538   7.320   3.828  1.00 20.00     0.014 C 
HETATM    8  C8  UNL     1     -33.913   7.811   5.140  1.00 20.00     0.015 C 
BRANCH   7   9
HETATM    9  C9  UNL     1     -35.430   6.092   4.097  1.00 20.00     0.004 C 
HETATM   10  C7  UNL     1     -34.637   4.851   4.488  1.00 20.00     0.006 C 
ENDBRANCH   7   9
ENDBRANCH   6   7
TORSDOF 2
ENDMDL
MODEL 8
REMARK VINA RESULT:      -0.8      0.621      1.909
REMARK  2 active torsions:
REMARK  status: ('A' for Active; 'I' for Inactive)
REMARK    1  A    between atoms: C6_6  and  C10_10 
REMARK    2  A    between atoms: C9_9  and  C10_10 
ROOT
HETATM    1  C1  UNL     1     -35.398   5.296   4.668  1.00 20.00     0.000 A 
HETATM    2  C2  UNL     1     -35.306   6.576   4.121  1.00 20.00     0.001 A 
HETATM    3  C3  UNL     1     -34.462   4.321   4.324  1.00 20.00     0.001 A 
HETATM    4  C4  UNL     1     -34.277   6.880   3.228  1.00 20.00     0.007 A 
HETATM    5  C5  UNL     1     -33.434   4.625   3.432  1.00 20.00     0.007 A 
HETATM    6  C6  UNL     1     -33.342   5.904   2.885  1.00 20.00    -0.054 A 
ENDROOT
BRANCH   6   7
HETATM    7  C10 UNL     1     -32.221   6.235   1.913  1.00 20.00     0.014 C 
HETATM    8  C8  UNL     1     -32.120   7.751   1.703  1.00 20.00     0.015 C 
BRANCH   7   9
HETATM    9  C9  UNL     1     -32.364   5.525   0.552  1.00 20.00     0.004 C 
HETATM   10  C7  UNL     1     -31.404   4.354   0.385  1.00 20.00     0.006 C 
ENDBRANCH   7   9
ENDBRANCH   6   7
TORSDOF 2
ENDMDL
MODEL 9
REMARK VINA RESULT:      -0.8      0.621      2.438
REMARK  2 active torsions:
REMARK  status: ('A' for Active; 'I' for Inactive)
REMARK    1  A    between atoms: C6_6  and  C10_10 
REMARK    2  A    between atoms: C9_9  and  C10_10 
ROOT
HETATM    1  C1  UNL     1     -35.395   5.279   4.673  1.00 20.00     0.000 A 
HETATM    2  C2  UNL     1     -34.455   4.308   4.329  1.00 20.00     0.001 A 
HETATM    3  C3  UNL     1     -35.309   6.558   4.124  1.00 20.00     0.001 A 
HETATM    4  C4  UNL     1     -33.427   4.616   3.437  1.00 20.00     0.007 A 
HETATM    5  C5  UNL     1     -34.282   6.867   3.232  1.00 20.00     0.007 A 
HETATM    6  C6  UNL     1     -33.342   5.896   2.888  1.00 20.00    -0.054 A 
ENDROOT
BRANCH   6   7
HETATM    7  C10 UNL     1     -32.224   6.232   1.916  1.00 20.00     0.014 C 
HETATM    8  C8  UNL     1     -32.130   7.749   1.707  1.00 20.00     0.015 C 
BRANCH   7   9
HETATM    9  C9  UNL     1     -32.365   5.522   0.555  1.00 20.00     0.004 C 
HETATM   10  C7  UNL     1     -31.401   4.354   0.387  1.00 20.00     0.006 C 
ENDBRANCH   7   9
ENDBRANCH   6   7
TORSDOF 2
ENDMDL
