MODEL 1
REMARK VINA RESULT:      -3.0      0.000      0.000
REMARK  5 active torsions:
REMARK  status: ('A' for Active; 'I' for Inactive)
REMARK    1  A    between atoms: C1_1  and  C5_5 
REMARK    2  A    between atoms: C2_2  and  C6_6 
REMARK    3  A    between atoms: C3_3  and  O9_9 
REMARK    4  A    between atoms: C6_6  and  C7_7 
REMARK    5  A    between atoms: C7_7  and  O9_9 
ROOT
HETATM    1  C6  UNL     1     -32.798   7.032   2.215  1.00 20.00     0.053 C 
ENDROOT
BRANCH   1   2
HETATM    2  C2  UNL     1     -33.199   7.699   3.501  1.00 20.00    -0.029 C 
HETATM    3  C1  UNL     1     -34.300   7.378   4.195  1.00 20.00    -0.031 C 
BRANCH   3   4
HETATM    4  C5  UNL     1     -35.270   6.312   3.777  1.00 20.00     0.022 C 
HETATM    5  C4  UNL     1     -34.910   4.966   4.384  1.00 20.00     0.009 C 
ENDBRANCH   3   4
ENDBRANCH   1   2
BRANCH   1   6
HETATM    6  C7  UNL     1     -31.920   7.938   1.360  1.00 20.00     0.181 C 
BRANCH   6   7
HETATM    7  O9  UNL     1     -32.469   9.250   1.334  1.00 20.00    -0.328 OA
BRANCH   7   8
HETATM    8  C3  UNL     1     -32.316   9.929   0.163  1.00 20.00     0.398 C 
HETATM    9  O8  UNL     1     -33.000   9.833  -0.843  1.00 20.00    -0.276 OA
ENDBRANCH   7   8
ENDBRANCH   6   7
ENDBRANCH   1   6
TORSDOF 5
ENDMDL
MODEL 2
REMARK VINA RESULT:      -2.9      3.448      5.352
REMARK  5 active torsions:
REMARK  status: ('A' for Active; 'I' for Inactive)
REMARK    1  A    between atoms: C1_1  and  C5_5 
REMARK    2  A    between atoms: C2_2  and  C6_6 
REMARK    3  A    between atoms: C3_3  and  O9_9 
REMARK    4  A    between atoms: C6_6  and  C7_7 
REMARK    5  A    between atoms: C7_7  and  O9_9 
ROOT
HETATM    1  C6  UNL     1     -34.131   6.327   3.303  1.00 20.00     0.053 C 
ENDROOT
BRANCH   1   2
HETATM    2  C2  UNL     1     -33.514   7.612   3.777  1.00 20.00    -0.029 C 
HETATM    3  C1  UNL     1     -32.583   8.291   3.091  1.00 20.00    -0.031 C 
BRANCH   3   4
HETATM    4  C5  UNL     1     -32.041   7.852   1.762  1.00 20.00     0.022 C 
HETATM    5  C4  UNL     1     -32.088   8.981   0.744  1.00 20.00     0.009 C 
ENDBRANCH   3   4
ENDBRANCH   1   2
BRANCH   1   6
HETATM    6  C7  UNL     1     -35.288   5.895   4.195  1.00 20.00     0.181 C 
BRANCH   6   7
HETATM    7  O9  UNL     1     -35.118   4.534   4.574  1.00 20.00    -0.328 OA
BRANCH   7   8
HETATM    8  C3  UNL     1     -33.947   3.956   4.185  1.00 20.00     0.398 C 
HETATM    9  O8  UNL     1     -33.318   3.091   4.772  1.00 20.00    -0.276 OA
ENDBRANCH   7   8
ENDBRANCH   6   7
ENDBRANCH   1   6
TORSDOF 5
ENDMDL
MODEL 3
REMARK VINA RESULT:      -2.8      3.246      5.405
REMARK  5 active torsions:
REMARK  status: ('A' for Active; 'I' for Inactive)
REMARK    1  A    between atoms: C1_1  and  C5_5 
REMARK    2  A    between atoms: C2_2  and  C6_6 
REMARK    3  A    between atoms: C3_3  and  O9_9 
REMARK    4  A    between atoms: C6_6  and  C7_7 
REMARK    5  A    between atoms: C7_7  and  O9_9 
ROOT
HETATM    1  C6  UNL     1     -35.217   6.269   3.775  1.00 20.00     0.053 C 
ENDROOT
BRANCH   1   2
HETATM    2  C2  UNL     1     -34.292   7.359   4.238  1.00 20.00    -0.029 C 
HETATM    3  C1  UNL     1     -33.203   7.751   3.562  1.00 20.00    -0.031 C 
BRANCH   3   4
HETATM    4  C5  UNL     1     -32.770   7.150   2.256  1.00 20.00     0.022 C 
HETATM    5  C4  UNL     1     -31.911   8.118   1.458  1.00 20.00     0.009 C 
ENDBRANCH   3   4
ENDBRANCH   1   2
BRANCH   1   6
HETATM    6  C7  UNL     1     -34.950   4.957   4.503  1.00 20.00     0.181 C 
BRANCH   6   7
HETATM    7  O9  UNL     1     -33.917   4.241   3.836  1.00 20.00    -0.328 OA
BRANCH   7   8
HETATM    8  C3  UNL     1     -33.517   3.086   4.437  1.00 20.00     0.398 C 
HETATM    9  O8  UNL     1     -32.741   2.968   5.371  1.00 20.00    -0.276 OA
ENDBRANCH   7   8
ENDBRANCH   6   7
ENDBRANCH   1   6
TORSDOF 5
ENDMDL
MODEL 4
REMARK VINA RESULT:      -2.6      1.121      1.452
REMARK  5 active torsions:
REMARK  status: ('A' for Active; 'I' for Inactive)
REMARK    1  A    between atoms: C1_1  and  C5_5 
REMARK    2  A    between atoms: C2_2  and  C6_6 
REMARK    3  A    between atoms: C3_3  and  O9_9 
REMARK    4  A    between atoms: C6_6  and  C7_7 
REMARK    5  A    between atoms: C7_7  and  O9_9 
ROOT
HETATM    1  C6  UNL     1     -33.241   6.768   2.281  1.00 20.00     0.053 C 
ENDROOT
BRANCH   1   2
HETATM    2  C2  UNL     1     -34.126   6.705   3.494  1.00 20.00    -0.029 C 
HETATM    3  C1  UNL     1     -34.486   5.563   4.097  1.00 20.00    -0.031 C 
BRANCH   3   4
HETATM    4  C5  UNL     1     -34.049   4.203   3.636  1.00 20.00     0.022 C 
HETATM    5  C4  UNL     1     -33.473   3.388   4.783  1.00 20.00     0.009 C 
ENDBRANCH   3   4
ENDBRANCH   1   2
BRANCH   1   6
HETATM    6  C7  UNL     1     -32.291   7.958   2.338  1.00 20.00     0.181 C 
BRANCH   6   7
HETATM    7  O9  UNL     1     -31.915   8.333   1.018  1.00 20.00    -0.328 OA
BRANCH   7   8
HETATM    8  C3  UNL     1     -32.352   9.556   0.605  1.00 20.00     0.398 C 
HETATM    9  O8  UNL     1     -32.759   9.860  -0.504  1.00 20.00    -0.276 OA
ENDBRANCH   7   8
ENDBRANCH   6   7
ENDBRANCH   1   6
TORSDOF 5
ENDMDL
MODEL 5
REMARK VINA RESULT:      -2.6      2.857      5.324
REMARK  5 active torsions:
REMARK  status: ('A' for Active; 'I' for Inactive)
REMARK    1  A    between atoms: C1_1  and  C5_5 
REMARK    2  A    between atoms: C2_2  and  C6_6 
REMARK    3  A    between atoms: C3_3  and  O9_9 
REMARK    4  A    between atoms: C6_6  and  C7_7 
REMARK    5  A    between atoms: C7_7  and  O9_9 
ROOT
HETATM    1  C6  UNL     1     -33.566   7.638   3.381  1.00 20.00     0.053 C 
ENDROOT
BRANCH   1   2
HETATM    2  C2  UNL     1     -32.549   7.217   2.358  1.00 20.00    -0.029 C 
HETATM    3  C1  UNL     1     -32.048   8.037   1.423  1.00 20.00    -0.031 C 
BRANCH   3   4
HETATM    4  C5  UNL     1     -32.438   9.479   1.281  1.00 20.00     0.022 C 
HETATM    5  C4  UNL     1     -32.527   9.888  -0.180  1.00 20.00     0.009 C 
ENDBRANCH   3   4
ENDBRANCH   1   2
BRANCH   1   6
HETATM    6  C7  UNL     1     -34.513   6.499   3.737  1.00 20.00     0.181 C 
BRANCH   6   7
HETATM    7  O9  UNL     1     -33.891   5.253   3.450  1.00 20.00    -0.328 OA
BRANCH   7   8
HETATM    8  C3  UNL     1     -34.177   4.238   4.313  1.00 20.00     0.398 C 
HETATM    9  O8  UNL     1     -33.496   3.253   4.548  1.00 20.00    -0.276 OA
ENDBRANCH   7   8
ENDBRANCH   6   7
ENDBRANCH   1   6
TORSDOF 5
ENDMDL
MODEL 6
REMARK VINA RESULT:      -2.5      1.431      2.638
REMARK  5 active torsions:
REMARK  status: ('A' for Active; 'I' for Inactive)
REMARK    1  A    between atoms: C1_1  and  C5_5 
REMARK    2  A    between atoms: C2_2  and  C6_6 
REMARK    3  A    between atoms: C3_3  and  O9_9 
REMARK    4  A    between atoms: C6_6  and  C7_7 
REMARK    5  A    between atoms: C7_7  and  O9_9 
ROOT
HETATM    1  C6  UNL     1     -34.438   6.822   3.241  1.00 20.00     0.053 C 
ENDROOT
BRANCH   1   2
HETATM    2  C2  UNL     1     -35.222   5.974   4.202  1.00 20.00    -0.029 C 
HETATM    3  C1  UNL     1     -34.914   4.703   4.498  1.00 20.00    -0.031 C 
BRANCH   3   4
HETATM    4  C5  UNL     1     -33.748   3.967   3.905  1.00 20.00     0.022 C 
HETATM    5  C4  UNL     1     -33.220   2.906   4.858  1.00 20.00     0.009 C 
ENDBRANCH   3   4
ENDBRANCH   1   2
BRANCH   1   6
HETATM    6  C7  UNL     1     -33.596   7.864   3.966  1.00 20.00     0.181 C 
BRANCH   6   7
HETATM    7  O9  UNL     1     -32.350   8.021   3.297  1.00 20.00    -0.328 OA
BRANCH   7   8
HETATM    8  C3  UNL     1     -32.377   7.835   1.948  1.00 20.00     0.398 C 
HETATM    9  O8  UNL     1     -32.085   8.645   1.083  1.00 20.00    -0.276 OA
ENDBRANCH   7   8
ENDBRANCH   6   7
ENDBRANCH   1   6
TORSDOF 5
ENDMDL
MODEL 7
REMARK VINA RESULT:      -2.5      2.513      4.992
REMARK  5 active torsions:
REMARK  status: ('A' for Active; 'I' for Inactive)
REMARK    1  A    between atoms: C1_1  and  C5_5 
REMARK    2  A    between atoms: C2_2  and  C6_6 
REMARK    3  A    between atoms: C3_3  and  O9_9 
REMARK    4  A    between atoms: C6_6  and  C7_7 
REMARK    5  A    between atoms: C7_7  and  O9_9 
ROOT
HETATM    1  C6  UNL     1     -32.714   6.402   1.445  1.00 20.00     0.053 C 
ENDROOT
BRANCH   1   2
HETATM    2  C2  UNL     1     -31.887   7.515   2.023  1.00 20.00    -0.029 C 
HETATM    3  C1  UNL     1     -31.724   8.708   1.433  1.00 20.00    -0.031 C 
BRANCH   3   4
HETATM    4  C5  UNL     1     -32.350   9.082   0.120  1.00 20.00     0.022 C 
HETATM    5  C4  UNL     1     -32.708  10.559   0.078  1.00 20.00     0.009 C 
ENDBRANCH   3   4
ENDBRANCH   1   2
BRANCH   1   6
HETATM    6  C7  UNL     1     -33.489   5.657   2.524  1.00 20.00     0.181 C 
BRANCH   6   7
HETATM    7  O9  UNL     1     -34.137   6.591   3.378  1.00 20.00    -0.328 OA
BRANCH   7   8
HETATM    8  C3  UNL     1     -35.181   6.101   4.104  1.00 20.00     0.398 C 
HETATM    9  O8  UNL     1     -35.353   4.948   4.467  1.00 20.00    -0.276 OA
ENDBRANCH   7   8
ENDBRANCH   6   7
ENDBRANCH   1   6
TORSDOF 5
ENDMDL
MODEL 8
REMARK VINA RESULT:      -2.4      1.172      2.032
REMARK  5 active torsions:
REMARK  status: ('A' for Active; 'I' for Inactive)
REMARK    1  A    between atoms: C1_1  and  C5_5 
REMARK    2  A    between atoms: C2_2  and  C6_6 
REMARK    3  A    between atoms: C3_3  and  O9_9 
REMARK    4  A    between atoms: C6_6  and  C7_7 
REMARK    5  A    between atoms: C7_7  and  O9_9 
ROOT
HETATM    1  C6  UNL     1     -33.843   7.341   3.806  1.00 20.00     0.053 C 
ENDROOT
BRANCH   1   2
HETATM    2  C2  UNL     1     -35.003   6.416   4.042  1.00 20.00    -0.029 C 
HETATM    3  C1  UNL     1     -34.900   5.079   4.056  1.00 20.00    -0.031 C 
BRANCH   3   4
HETATM    4  C5  UNL     1     -33.613   4.339   3.838  1.00 20.00     0.022 C 
HETATM    5  C4  UNL     1     -33.486   3.157   4.787  1.00 20.00     0.009 C 
ENDBRANCH   3   4
ENDBRANCH   1   2
BRANCH   1   6
HETATM    6  C7  UNL     1     -33.236   7.143   2.422  1.00 20.00     0.181 C 
BRANCH   6   7
HETATM    7  O9  UNL     1     -32.212   8.106   2.206  1.00 20.00    -0.328 OA
BRANCH   7   8
HETATM    8  C3  UNL     1     -32.176   8.659   0.961  1.00 20.00     0.398 C 
HETATM    9  O8  UNL     1     -32.428   9.813   0.657  1.00 20.00    -0.276 OA
ENDBRANCH   7   8
ENDBRANCH   6   7
ENDBRANCH   1   6
TORSDOF 5
ENDMDL
MODEL 9
REMARK VINA RESULT:      -2.3      0.959      1.531
REMARK  5 active torsions:
REMARK  status: ('A' for Active; 'I' for Inactive)
REMARK    1  A    between atoms: C1_1  and  C5_5 
REMARK    2  A    between atoms: C2_2  and  C6_6 
REMARK    3  A    between atoms: C3_3  and  O9_9 
REMARK    4  A    between atoms: C6_6  and  C7_7 
REMARK    5  A    between atoms: C7_7  and  O9_9 
ROOT
HETATM    1  C6  UNL     1     -32.972   6.971   1.315  1.00 20.00     0.053 C 
ENDROOT
BRANCH   1   2
HETATM    2  C2  UNL     1     -32.989   5.747   2.187  1.00 20.00    -0.029 C 
HETATM    3  C1  UNL     1     -33.785   5.604   3.256  1.00 20.00    -0.031 C 
BRANCH   3   4
HETATM    4  C5  UNL     1     -34.761   6.647   3.716  1.00 20.00     0.022 C 
HETATM    5  C4  UNL     1     -34.084   7.693   4.587  1.00 20.00     0.009 C 
ENDBRANCH   3   4
ENDBRANCH   1   2
BRANCH   1   6
HETATM    6  C7  UNL     1     -31.875   7.944   1.730  1.00 20.00     0.181 C 
BRANCH   6   7
HETATM    7  O9  UNL     1     -31.521   8.765   0.624  1.00 20.00    -0.328 OA
BRANCH   7   8
HETATM    8  C3  UNL     1     -32.417   9.741   0.304  1.00 20.00     0.398 C 
HETATM    9  O8  UNL     1     -32.990   9.898  -0.761  1.00 20.00    -0.276 OA
ENDBRANCH   7   8
ENDBRANCH   6   7
ENDBRANCH   1   6
TORSDOF 5
ENDMDL
