MODEL 1
REMARK VINA RESULT:      -2.2      0.000      0.000
REMARK  4 active torsions:
REMARK  status: ('A' for Active; 'I' for Inactive)
REMARK    1  A    between atoms: C6_6  and  C7_7 
REMARK    2  A    between atoms: C7_7  and  C8_8 
REMARK    3  A    between atoms: C8_8  and  C9_9 
REMARK    4  A    between atoms: C9_9  and  O10_10 
ROOT
HETATM    1  C1  UNL     1     -34.852   6.117   3.739  1.00 20.00     0.000 C 
HETATM    2  C2  UNL     1     -34.241   7.416   4.254  1.00 20.00     0.000 C 
HETATM    3  C3  UNL     1     -33.808   5.236   3.059  1.00 20.00     0.000 C 
HETATM    4  C4  UNL     1     -33.507   8.171   3.148  1.00 20.00     0.004 C 
HETATM    5  C5  UNL     1     -33.073   5.988   1.952  1.00 20.00     0.004 C 
HETATM    6  C6  UNL     1     -32.449   7.292   2.468  1.00 20.00    -0.014 C 
ENDROOT
BRANCH   6   7
HETATM    7  C7  UNL     1     -31.766   8.050   1.331  1.00 20.00     0.007 C 
BRANCH   7   8
HETATM    8  C8  UNL     1     -32.398   9.421   1.125  1.00 20.00     0.026 C 
BRANCH   8   9
HETATM    9  C9  UNL     1     -32.204   9.914  -0.302  1.00 20.00     0.164 C 
BRANCH   9  10
HETATM   10  O10 UNL     1     -33.470  10.264  -0.843  1.00 20.00    -0.401 OA
HETATM   11  H28 UNL     1     -33.300  10.746  -1.668  1.00 20.00     0.209 HD
ENDBRANCH   9  10
ENDBRANCH   8   9
ENDBRANCH   7   8
ENDBRANCH   6   7
TORSDOF 4
ENDMDL
MODEL 2
REMARK VINA RESULT:      -2.2      0.740      1.776
REMARK  4 active torsions:
REMARK  status: ('A' for Active; 'I' for Inactive)
REMARK    1  A    between atoms: C6_6  and  C7_7 
REMARK    2  A    between atoms: C7_7  and  C8_8 
REMARK    3  A    between atoms: C8_8  and  C9_9 
REMARK    4  A    between atoms: C9_9  and  O10_10 
ROOT
HETATM    1  C1  UNL     1     -34.563   5.141   4.020  1.00 20.00     0.000 C 
HETATM    2  C2  UNL     1     -33.866   4.827   2.700  1.00 20.00     0.000 C 
HETATM    3  C3  UNL     1     -35.057   6.585   4.064  1.00 20.00     0.000 C 
HETATM    4  C4  UNL     1     -32.737   5.814   2.411  1.00 20.00     0.004 C 
HETATM    5  C5  UNL     1     -33.930   7.574   3.776  1.00 20.00     0.004 C 
HETATM    6  C6  UNL     1     -33.231   7.266   2.445  1.00 20.00    -0.014 C 
ENDROOT
BRANCH   6   7
HETATM    7  C7  UNL     1     -32.075   8.236   2.206  1.00 20.00     0.007 C 
BRANCH   7   8
HETATM    8  C8  UNL     1     -31.917   8.551   0.724  1.00 20.00     0.026 C 
BRANCH   8   9
HETATM    9  C9  UNL     1     -32.410   9.954   0.398  1.00 20.00     0.164 C 
BRANCH   9  10
HETATM   10  O10 UNL     1     -33.020   9.941  -0.884  1.00 20.00    -0.401 OA
HETATM   11  H28 UNL     1     -32.810   9.082  -1.287  1.00 20.00     0.209 HD
ENDBRANCH   9  10
ENDBRANCH   8   9
ENDBRANCH   7   8
ENDBRANCH   6   7
TORSDOF 4
ENDMDL
MODEL 3
REMARK VINA RESULT:      -2.0      3.200      5.198
REMARK  4 active torsions:
REMARK  status: ('A' for Active; 'I' for Inactive)
REMARK    1  A    between atoms: C6_6  and  C7_7 
REMARK    2  A    between atoms: C7_7  and  C8_8 
REMARK    3  A    between atoms: C8_8  and  C9_9 
REMARK    4  A    between atoms: C9_9  and  O10_10 
ROOT
HETATM    1  C1  UNL     1     -31.916   8.061   1.595  1.00 20.00     0.000 C 
HETATM    2  C2  UNL     1     -32.047   6.559   1.366  1.00 20.00     0.000 C 
HETATM    3  C3  UNL     1     -32.147   8.428   3.059  1.00 20.00     0.000 C 
HETATM    4  C4  UNL     1     -33.386   6.026   1.871  1.00 20.00     0.004 C 
HETATM    5  C5  UNL     1     -33.486   7.897   3.566  1.00 20.00     0.004 C 
HETATM    6  C6  UNL     1     -33.618   6.384   3.345  1.00 20.00    -0.014 C 
ENDROOT
BRANCH   6   7
HETATM    7  C7  UNL     1     -34.985   5.888   3.812  1.00 20.00     0.007 C 
BRANCH   7   8
HETATM    8  C8  UNL     1     -34.860   4.595   4.608  1.00 20.00     0.026 C 
BRANCH   8   9
HETATM    9  C9  UNL     1     -33.765   3.700   4.045  1.00 20.00     0.164 C 
BRANCH   9  10
HETATM   10  O10 UNL     1     -33.130   3.019   5.118  1.00 20.00    -0.401 OA
HETATM   11  H28 UNL     1     -32.914   2.128   4.798  1.00 20.00     0.209 HD
ENDBRANCH   9  10
ENDBRANCH   8   9
ENDBRANCH   7   8
ENDBRANCH   6   7
TORSDOF 4
ENDMDL
MODEL 4
REMARK VINA RESULT:      -1.5      3.401      5.145
REMARK  4 active torsions:
REMARK  status: ('A' for Active; 'I' for Inactive)
REMARK    1  A    between atoms: C6_6  and  C7_7 
REMARK    2  A    between atoms: C7_7  and  C8_8 
REMARK    3  A    between atoms: C8_8  and  C9_9 
REMARK    4  A    between atoms: C9_9  and  O10_10 
ROOT
HETATM    1  C1  UNL     1     -31.725   7.826   1.848  1.00 20.00     0.000 C 
HETATM    2  C2  UNL     1     -32.662   8.560   2.803  1.00 20.00     0.000 C 
HETATM    3  C3  UNL     1     -32.436   6.676   1.139  1.00 20.00     0.000 C 
HETATM    4  C4  UNL     1     -33.312   7.605   3.801  1.00 20.00     0.004 C 
HETATM    5  C5  UNL     1     -33.086   5.718   2.135  1.00 20.00     0.004 C 
HETATM    6  C6  UNL     1     -34.035   6.451   3.092  1.00 20.00    -0.014 C 
ENDROOT
BRANCH   6   7
HETATM    7  C7  UNL     1     -34.631   5.481   4.110  1.00 20.00     0.007 C 
BRANCH   7   8
HETATM    8  C8  UNL     1     -34.197   4.048   3.826  1.00 20.00     0.026 C 
BRANCH   8   9
HETATM    9  C9  UNL     1     -33.417   3.462   4.994  1.00 20.00     0.164 C 
BRANCH   9  10
HETATM   10  O10 UNL     1     -33.090   2.112   4.697  1.00 20.00    -0.401 OA
HETATM   11  H28 UNL     1     -33.161   2.010   3.734  1.00 20.00     0.209 HD
ENDBRANCH   9  10
ENDBRANCH   8   9
ENDBRANCH   7   8
ENDBRANCH   6   7
TORSDOF 4
ENDMDL
MODEL 5
REMARK VINA RESULT:      -1.0      2.869      4.861
REMARK  4 active torsions:
REMARK  status: ('A' for Active; 'I' for Inactive)
REMARK    1  A    between atoms: C6_6  and  C7_7 
REMARK    2  A    between atoms: C7_7  and  C8_8 
REMARK    3  A    between atoms: C8_8  and  C9_9 
REMARK    4  A    between atoms: C9_9  and  O10_10 
ROOT
HETATM    1  C1  UNL     1     -31.676   7.387   0.784  1.00 20.00     0.000 C 
HETATM    2  C2  UNL     1     -32.119   6.019   1.293  1.00 20.00     0.000 C 
HETATM    3  C3  UNL     1     -31.479   8.376   1.930  1.00 20.00     0.000 C 
HETATM    4  C4  UNL     1     -33.368   6.120   2.166  1.00 20.00     0.004 C 
HETATM    5  C5  UNL     1     -32.727   8.480   2.804  1.00 20.00     0.004 C 
HETATM    6  C6  UNL     1     -33.170   7.106   3.325  1.00 20.00    -0.014 C 
ENDROOT
BRANCH   6   7
HETATM    7  C7  UNL     1     -34.449   7.230   4.152  1.00 20.00     0.007 C 
BRANCH   7   8
HETATM    8  C8  UNL     1     -35.436   6.121   3.810  1.00 20.00     0.026 C 
BRANCH   8   9
HETATM    9  C9  UNL     1     -35.361   4.981   4.816  1.00 20.00     0.164 C 
BRANCH   9  10
HETATM   10  O10 UNL     1     -34.430   4.016   4.346  1.00 20.00    -0.401 OA
HETATM   11  H28 UNL     1     -34.838   3.579   3.581  1.00 20.00     0.209 HD
ENDBRANCH   9  10
ENDBRANCH   8   9
ENDBRANCH   7   8
ENDBRANCH   6   7
TORSDOF 4
ENDMDL
MODEL 6
REMARK VINA RESULT:      -0.6      2.623      4.798
REMARK  4 active torsions:
REMARK  status: ('A' for Active; 'I' for Inactive)
REMARK    1  A    between atoms: C6_6  and  C7_7 
REMARK    2  A    between atoms: C7_7  and  C8_8 
REMARK    3  A    between atoms: C8_8  and  C9_9 
REMARK    4  A    between atoms: C9_9  and  O10_10 
ROOT
HETATM    1  C1  UNL     1     -32.266   9.347  -0.171  1.00 20.00     0.000 C 
HETATM    2  C2  UNL     1     -31.344   8.273   0.397  1.00 20.00     0.000 C 
HETATM    3  C3  UNL     1     -32.760  10.296   0.918  1.00 20.00     0.000 C 
HETATM    4  C4  UNL     1     -32.004   7.512   1.545  1.00 20.00     0.004 C 
HETATM    5  C5  UNL     1     -33.422   9.538   2.066  1.00 20.00     0.004 C 
HETATM    6  C6  UNL     1     -32.494   8.462   2.646  1.00 20.00    -0.014 C 
ENDROOT
BRANCH   6   7
HETATM    7  C7  UNL     1     -33.198   7.684   3.757  1.00 20.00     0.007 C 
BRANCH   7   8
HETATM    8  C8  UNL     1     -34.028   6.540   3.187  1.00 20.00     0.026 C 
BRANCH   8   9
HETATM    9  C9  UNL     1     -35.315   6.342   3.975  1.00 20.00     0.164 C 
BRANCH   9  10
HETATM   10  O10 UNL     1     -35.382   4.993   4.415  1.00 20.00    -0.401 OA
HETATM   11  H28 UNL     1     -36.023   4.542   3.841  1.00 20.00     0.209 HD
ENDBRANCH   9  10
ENDBRANCH   8   9
ENDBRANCH   7   8
ENDBRANCH   6   7
TORSDOF 4
ENDMDL
MODEL 7
REMARK VINA RESULT:      -0.3      2.124      2.859
REMARK  4 active torsions:
REMARK  status: ('A' for Active; 'I' for Inactive)
REMARK    1  A    between atoms: C6_6  and  C7_7 
REMARK    2  A    between atoms: C7_7  and  C8_8 
REMARK    3  A    between atoms: C8_8  and  C9_9 
REMARK    4  A    between atoms: C9_9  and  O10_10 
ROOT
HETATM    1  C1  UNL     1     -34.945   4.983   4.794  1.00 20.00     0.000 C 
HETATM    2  C2  UNL     1     -34.177   3.966   3.955  1.00 20.00     0.000 C 
HETATM    3  C3  UNL     1     -35.401   6.174   3.955  1.00 20.00     0.000 C 
HETATM    4  C4  UNL     1     -33.006   4.613   3.219  1.00 20.00     0.004 C 
HETATM    5  C5  UNL     1     -34.231   6.823   3.218  1.00 20.00     0.004 C 
HETATM    6  C6  UNL     1     -33.461   5.805   2.366  1.00 20.00    -0.014 C 
ENDROOT
BRANCH   6   7
HETATM    7  C7  UNL     1     -32.267   6.468   1.682  1.00 20.00     0.007 C 
BRANCH   7   8
HETATM    8  C8  UNL     1     -32.377   7.986   1.730  1.00 20.00     0.026 C 
BRANCH   8   9
HETATM    9  C9  UNL     1     -31.171   8.609   2.420  1.00 20.00     0.164 C 
BRANCH   9  10
HETATM   10  O10 UNL     1     -31.463   8.768   3.801  1.00 20.00    -0.401 OA
HETATM   11  H28 UNL     1     -32.087   9.508   3.874  1.00 20.00     0.209 HD
ENDBRANCH   9  10
ENDBRANCH   8   9
ENDBRANCH   7   8
ENDBRANCH   6   7
TORSDOF 4
ENDMDL
MODEL 8
REMARK VINA RESULT:      -0.1      2.688      4.731
REMARK  4 active torsions:
REMARK  status: ('A' for Active; 'I' for Inactive)
REMARK    1  A    between atoms: C6_6  and  C7_7 
REMARK    2  A    between atoms: C7_7  and  C8_8 
REMARK    3  A    between atoms: C8_8  and  C9_9 
REMARK    4  A    between atoms: C9_9  and  O10_10 
ROOT
HETATM    1  C1  UNL     1     -31.357   9.535   0.014  1.00 20.00     0.000 C 
HETATM    2  C2  UNL     1     -32.736  10.064   0.396  1.00 20.00     0.000 C 
HETATM    3  C3  UNL     1     -31.272   8.020   0.180  1.00 20.00     0.000 C 
HETATM    4  C4  UNL     1     -33.135   9.632   1.806  1.00 20.00     0.004 C 
HETATM    5  C5  UNL     1     -31.669   7.585   1.589  1.00 20.00     0.004 C 
HETATM    6  C6  UNL     1     -33.059   8.109   1.974  1.00 20.00    -0.014 C 
ENDROOT
BRANCH   6   7
HETATM    7  C7  UNL     1     -33.410   7.705   3.405  1.00 20.00     0.007 C 
BRANCH   7   8
HETATM    8  C8  UNL     1     -33.977   6.292   3.456  1.00 20.00     0.026 C 
BRANCH   8   9
HETATM    9  C9  UNL     1     -35.365   6.272   4.080  1.00 20.00     0.164 C 
BRANCH   9  10
HETATM   10  O10 UNL     1     -35.621   4.972   4.591  1.00 20.00    -0.401 OA
HETATM   11  H28 UNL     1     -34.778   4.490   4.570  1.00 20.00     0.209 HD
ENDBRANCH   9  10
ENDBRANCH   8   9
ENDBRANCH   7   8
ENDBRANCH   6   7
TORSDOF 4
ENDMDL
MODEL 9
REMARK VINA RESULT:       0.3      2.942      4.788
REMARK  4 active torsions:
REMARK  status: ('A' for Active; 'I' for Inactive)
REMARK    1  A    between atoms: C6_6  and  C7_7 
REMARK    2  A    between atoms: C7_7  and  C8_8 
REMARK    3  A    between atoms: C8_8  and  C9_9 
REMARK    4  A    between atoms: C9_9  and  O10_10 
ROOT
HETATM    1  C1  UNL     1     -31.009   8.508   2.525  1.00 20.00     0.000 C 
HETATM    2  C2  UNL     1     -31.846   8.987   3.707  1.00 20.00     0.000 C 
HETATM    3  C3  UNL     1     -31.888   8.016   1.379  1.00 20.00     0.000 C 
HETATM    4  C4  UNL     1     -32.825   7.913   4.176  1.00 20.00     0.004 C 
HETATM    5  C5  UNL     1     -32.868   6.941   1.844  1.00 20.00     0.004 C 
HETATM    6  C6  UNL     1     -33.718   7.421   3.028  1.00 20.00    -0.014 C 
ENDROOT
BRANCH   6   7
HETATM    7  C7  UNL     1     -34.651   6.311   3.508  1.00 20.00     0.007 C 
BRANCH   7   8
HETATM    8  C8  UNL     1     -33.979   4.947   3.415  1.00 20.00     0.026 C 
BRANCH   8   9
HETATM    9  C9  UNL     1     -34.372   4.054   4.584  1.00 20.00     0.164 C 
BRANCH   9  10
HETATM   10  O10 UNL     1     -35.636   4.473   5.078  1.00 20.00    -0.401 OA
HETATM   11  H28 UNL     1     -35.806   3.963   5.886  1.00 20.00     0.209 HD
ENDBRANCH   9  10
ENDBRANCH   8   9
ENDBRANCH   7   8
ENDBRANCH   6   7
TORSDOF 4
ENDMDL
