MODEL 1
REMARK VINA RESULT:      -2.7      0.000      0.000
REMARK  1 active torsions:
REMARK  status: ('A' for Active; 'I' for Inactive)
REMARK    1  A    between atoms: C4_4  and  C6_6 
ROOT
HETATM    1  C1  UNL     1     -31.724   7.360   1.415  1.00 20.00     0.027 A 
HETATM    2  C2  UNL     1     -32.368   8.070   2.457  1.00 20.00     0.034 A 
HETATM    3  C3  UNL     1     -32.332   6.127   1.361  1.00 20.00     0.142 A 
HETATM    4  C4  UNL     1     -33.323   7.221   2.965  1.00 20.00     0.052 A 
HETATM    5  O7  UNL     1     -33.308   6.034   2.302  1.00 20.00    -0.327 OA
ENDROOT
BRANCH   4   6
HETATM    6  C6  UNL     1     -34.313   7.351   4.043  1.00 20.00     0.060 C 
HETATM    7  C5  UNL     1     -35.315   6.190   4.084  1.00 20.00     0.012 C 
ENDBRANCH   4   6
TORSDOF 1
ENDMDL
MODEL 2
REMARK VINA RESULT:      -2.6      0.963      1.410
REMARK  1 active torsions:
REMARK  status: ('A' for Active; 'I' for Inactive)
REMARK    1  A    between atoms: C4_4  and  C6_6 
ROOT
HETATM    1  C1  UNL     1     -32.060   6.400   1.233  1.00 20.00     0.027 A 
HETATM    2  C2  UNL     1     -33.094   5.968   2.098  1.00 20.00     0.034 A 
HETATM    3  C3  UNL     1     -31.787   7.702   1.586  1.00 20.00     0.142 A 
HETATM    4  C4  UNL     1     -33.380   7.036   2.916  1.00 20.00     0.052 A 
HETATM    5  O7  UNL     1     -32.587   8.097   2.611  1.00 20.00    -0.327 OA
ENDROOT
BRANCH   4   6
HETATM    6  C6  UNL     1     -34.339   7.234   4.012  1.00 20.00     0.060 C 
HETATM    7  C5  UNL     1     -35.360   6.095   4.132  1.00 20.00     0.012 C 
ENDBRANCH   4   6
TORSDOF 1
ENDMDL
MODEL 3
REMARK VINA RESULT:      -2.4      1.018      3.056
REMARK  1 active torsions:
REMARK  status: ('A' for Active; 'I' for Inactive)
REMARK    1  A    between atoms: C4_4  and  C6_6 
ROOT
HETATM    1  C1  UNL     1     -34.546   6.891   4.094  1.00 20.00     0.027 A 
HETATM    2  C2  UNL     1     -33.664   7.914   3.671  1.00 20.00     0.034 A 
HETATM    3  C3  UNL     1     -34.300   5.812   3.277  1.00 20.00     0.142 A 
HETATM    4  C4  UNL     1     -32.942   7.387   2.626  1.00 20.00     0.052 A 
HETATM    5  O7  UNL     1     -33.323   6.106   2.379  1.00 20.00    -0.327 OA
ENDROOT
BRANCH   4   6
HETATM    6  C6  UNL     1     -31.881   7.928   1.764  1.00 20.00     0.060 C 
HETATM    7  C5  UNL     1     -32.352   9.099   0.891  1.00 20.00     0.012 C 
ENDBRANCH   4   6
TORSDOF 1
ENDMDL
MODEL 4
REMARK VINA RESULT:      -2.2      1.016      3.279
REMARK  1 active torsions:
REMARK  status: ('A' for Active; 'I' for Inactive)
REMARK    1  A    between atoms: C4_4  and  C6_6 
ROOT
HETATM    1  C1  UNL     1     -35.215   6.125   4.326  1.00 20.00     0.027 A 
HETATM    2  C2  UNL     1     -34.499   6.966   3.441  1.00 20.00     0.034 A 
HETATM    3  C3  UNL     1     -34.671   4.870   4.185  1.00 20.00     0.142 A 
HETATM    4  C4  UNL     1     -33.568   6.165   2.822  1.00 20.00     0.052 A 
HETATM    5  O7  UNL     1     -33.666   4.885   3.270  1.00 20.00    -0.327 OA
ENDROOT
BRANCH   4   6
HETATM    6  C6  UNL     1     -32.532   6.423   1.812  1.00 20.00     0.060 C 
HETATM    7  C5  UNL     1     -32.049   7.879   1.803  1.00 20.00     0.012 C 
ENDBRANCH   4   6
TORSDOF 1
ENDMDL
MODEL 5
REMARK VINA RESULT:      -2.2      1.411      3.323
REMARK  1 active torsions:
REMARK  status: ('A' for Active; 'I' for Inactive)
REMARK    1  A    between atoms: C4_4  and  C6_6 
ROOT
HETATM    1  C1  UNL     1     -34.259   6.054   3.425  1.00 20.00     0.027 A 
HETATM    2  C2  UNL     1     -33.331   6.108   2.357  1.00 20.00     0.034 A 
HETATM    3  C3  UNL     1     -34.195   7.278   4.050  1.00 20.00     0.142 A 
HETATM    4  C4  UNL     1     -32.766   7.361   2.405  1.00 20.00     0.052 A 
HETATM    5  O7  UNL     1     -33.287   8.081   3.434  1.00 20.00    -0.327 OA
ENDROOT
BRANCH   4   6
HETATM    6  C6  UNL     1     -31.748   8.037   1.588  1.00 20.00     0.060 C 
HETATM    7  C5  UNL     1     -32.311   9.211   0.776  1.00 20.00     0.012 C 
ENDBRANCH   4   6
TORSDOF 1
ENDMDL
MODEL 6
REMARK VINA RESULT:      -2.0      1.067      3.441
REMARK  1 active torsions:
REMARK  status: ('A' for Active; 'I' for Inactive)
REMARK    1  A    between atoms: C4_4  and  C6_6 
ROOT
HETATM    1  C1  UNL     1     -34.982   6.138   4.168  1.00 20.00     0.027 A 
HETATM    2  C2  UNL     1     -34.219   5.559   3.126  1.00 20.00     0.034 A 
HETATM    3  C3  UNL     1     -34.531   7.431   4.300  1.00 20.00     0.142 A 
HETATM    4  C4  UNL     1     -33.356   6.539   2.695  1.00 20.00     0.052 A 
HETATM    5  O7  UNL     1     -33.540   7.684   3.405  1.00 20.00    -0.327 OA
ENDROOT
BRANCH   4   6
HETATM    6  C6  UNL     1     -32.318   6.578   1.655  1.00 20.00     0.060 C 
HETATM    7  C5  UNL     1     -31.746   7.983   1.428  1.00 20.00     0.012 C 
ENDBRANCH   4   6
TORSDOF 1
ENDMDL
MODEL 7
REMARK VINA RESULT:      -2.0      2.617      3.639
REMARK  1 active torsions:
REMARK  status: ('A' for Active; 'I' for Inactive)
REMARK    1  A    between atoms: C4_4  and  C6_6 
ROOT
HETATM    1  C1  UNL     1     -34.475   6.718   3.472  1.00 20.00     0.027 A 
HETATM    2  C2  UNL     1     -33.541   5.678   3.252  1.00 20.00     0.034 A 
HETATM    3  C3  UNL     1     -35.488   6.169   4.223  1.00 20.00     0.142 A 
HETATM    4  C4  UNL     1     -34.050   4.567   3.884  1.00 20.00     0.052 A 
HETATM    5  O7  UNL     1     -35.237   4.858   4.479  1.00 20.00    -0.327 OA
ENDROOT
BRANCH   4   6
HETATM    6  C6  UNL     1     -33.570   3.185   4.029  1.00 20.00     0.060 C 
HETATM    7  C5  UNL     1     -32.774   2.957   5.321  1.00 20.00     0.012 C 
ENDBRANCH   4   6
TORSDOF 1
ENDMDL
MODEL 8
REMARK VINA RESULT:      -1.7      0.796      3.013
REMARK  1 active torsions:
REMARK  status: ('A' for Active; 'I' for Inactive)
REMARK    1  A    between atoms: C4_4  and  C6_6 
ROOT
HETATM    1  C1  UNL     1     -34.459   7.546   4.421  1.00 20.00     0.027 A 
HETATM    2  C2  UNL     1     -33.358   7.974   3.641  1.00 20.00     0.034 A 
HETATM    3  C3  UNL     1     -34.845   6.331   3.903  1.00 20.00     0.142 A 
HETATM    4  C4  UNL     1     -33.149   6.990   2.703  1.00 20.00     0.052 A 
HETATM    5  O7  UNL     1     -34.051   5.984   2.856  1.00 20.00    -0.327 OA
ENDROOT
BRANCH   4   6
HETATM    6  C6  UNL     1     -32.174   6.830   1.614  1.00 20.00     0.060 C 
HETATM    7  C5  UNL     1     -32.069   5.385   1.108  1.00 20.00     0.012 C 
ENDBRANCH   4   6
TORSDOF 1
ENDMDL
MODEL 9
REMARK VINA RESULT:      -1.7      0.685      1.121
REMARK  1 active torsions:
REMARK  status: ('A' for Active; 'I' for Inactive)
REMARK    1  A    between atoms: C4_4  and  C6_6 
ROOT
HETATM    1  C1  UNL     1     -31.845   6.961   1.219  1.00 20.00     0.027 A 
HETATM    2  C2  UNL     1     -32.382   7.832   2.198  1.00 20.00     0.034 A 
HETATM    3  C3  UNL     1     -32.505   5.763   1.370  1.00 20.00     0.142 A 
HETATM    4  C4  UNL     1     -33.331   7.104   2.878  1.00 20.00     0.052 A 
HETATM    5  O7  UNL     1     -33.412   5.842   2.379  1.00 20.00    -0.327 OA
ENDROOT
BRANCH   4   6
HETATM    6  C6  UNL     1     -34.233   7.423   3.993  1.00 20.00     0.060 C 
HETATM    7  C5  UNL     1     -33.538   8.179   5.132  1.00 20.00     0.012 C 
ENDBRANCH   4   6
TORSDOF 1
ENDMDL
