MODEL 1
REMARK VINA RESULT:      -2.7      0.000      0.000
REMARK  2 active torsions:
REMARK  status: ('A' for Active; 'I' for Inactive)
REMARK    1  A    between atoms: C6_6  and  C8_8 
REMARK    2  A    between atoms: C8_8  and  N10_10 
ROOT
HETATM    1  N9  UNL     1     -32.326   9.822   0.098  1.00 20.00     0.068 N 
HETATM    2  N10 UNL     1     -32.239   8.313   1.939  1.00 20.00    -0.111 NA
HETATM    3  N11 UNL     1     -32.284   9.095   0.975  1.00 20.00    -0.167 NA
ENDROOT
BRANCH   2   4
HETATM    4  C8  UNL     1     -32.478   6.899   1.622  1.00 20.00     0.227 C 
BRANCH   4   5
HETATM    5  C6  UNL     1     -33.342   6.230   2.637  1.00 20.00    -0.035 A 
HETATM    6  C3  UNL     1     -34.441   6.903   3.170  1.00 20.00     0.009 A 
HETATM    7  C1  UNL     1     -35.249   6.278   4.119  1.00 20.00     0.001 A 
HETATM    8  C2  UNL     1     -34.957   4.978   4.536  1.00 20.00     0.007 A 
HETATM    9  C5  UNL     1     -33.858   4.305   4.004  1.00 20.00    -0.061 A 
HETATM   10  C4  UNL     1     -33.049   4.931   3.054  1.00 20.00     0.015 A 
HETATM   11  C7  UNL     1     -33.547   2.916   4.449  1.00 20.00     0.048 C 
ENDBRANCH   4   5
ENDBRANCH   2   4
TORSDOF 2
ENDMDL
MODEL 2
REMARK VINA RESULT:      -2.0      3.577      4.540
REMARK  2 active torsions:
REMARK  status: ('A' for Active; 'I' for Inactive)
REMARK    1  A    between atoms: C6_6  and  C8_8 
REMARK    2  A    between atoms: C8_8  and  N10_10 
ROOT
HETATM    1  N9  UNL     1     -33.378   3.306   4.850  1.00 20.00     0.068 N 
HETATM    2  N10 UNL     1     -35.268   4.652   4.312  1.00 20.00    -0.111 NA
HETATM    3  N11 UNL     1     -34.279   3.956   4.592  1.00 20.00    -0.167 NA
ENDROOT
BRANCH   2   4
HETATM    4  C8  UNL     1     -35.047   6.104   4.326  1.00 20.00     0.227 C 
BRANCH   4   5
HETATM    5  C6  UNL     1     -33.970   6.521   3.382  1.00 20.00    -0.035 A 
HETATM    6  C3  UNL     1     -33.434   7.806   3.459  1.00 20.00     0.009 A 
HETATM    7  C1  UNL     1     -32.428   8.197   2.577  1.00 20.00     0.001 A 
HETATM    8  C2  UNL     1     -31.957   7.301   1.616  1.00 20.00     0.007 A 
HETATM    9  C5  UNL     1     -32.492   6.016   1.539  1.00 20.00    -0.061 A 
HETATM   10  C4  UNL     1     -33.499   5.626   2.422  1.00 20.00     0.015 A 
HETATM   11  C7  UNL     1     -31.987   5.059   0.513  1.00 20.00     0.048 C 
ENDBRANCH   4   5
ENDBRANCH   2   4
TORSDOF 2
ENDMDL
MODEL 3
REMARK VINA RESULT:      -1.7      3.719      4.708
REMARK  2 active torsions:
REMARK  status: ('A' for Active; 'I' for Inactive)
REMARK    1  A    between atoms: C6_6  and  C8_8 
REMARK    2  A    between atoms: C8_8  and  N10_10 
ROOT
HETATM    1  N9  UNL     1     -33.537   3.342   4.202  1.00 20.00     0.068 N 
HETATM    2  N10 UNL     1     -35.287   4.873   4.722  1.00 20.00    -0.111 NA
HETATM    3  N11 UNL     1     -34.374   4.078   4.446  1.00 20.00    -0.167 NA
ENDROOT
BRANCH   2   4
HETATM    4  C8  UNL     1     -35.488   5.968   3.763  1.00 20.00     0.227 C 
BRANCH   4   5
HETATM    5  C6  UNL     1     -34.295   6.856   3.660  1.00 20.00    -0.035 A 
HETATM    6  C3  UNL     1     -33.900   7.625   4.755  1.00 20.00     0.009 A 
HETATM    7  C1  UNL     1     -32.785   8.456   4.659  1.00 20.00     0.001 A 
HETATM    8  C2  UNL     1     -32.062   8.518   3.467  1.00 20.00     0.007 A 
HETATM    9  C5  UNL     1     -32.456   7.749   2.372  1.00 20.00    -0.061 A 
HETATM   10  C4  UNL     1     -33.572   6.918   2.468  1.00 20.00     0.015 A 
HETATM   11  C7  UNL     1     -31.682   7.815   1.098  1.00 20.00     0.048 C 
ENDBRANCH   4   5
ENDBRANCH   2   4
TORSDOF 2
ENDMDL
MODEL 4
REMARK VINA RESULT:      -1.6      1.356      2.470
REMARK  2 active torsions:
REMARK  status: ('A' for Active; 'I' for Inactive)
REMARK    1  A    between atoms: C6_6  and  C8_8 
REMARK    2  A    between atoms: C8_8  and  N10_10 
ROOT
HETATM    1  N9  UNL     1     -33.118  10.631  -0.421  1.00 20.00     0.068 N 
HETATM    2  N10 UNL     1     -31.540   9.032   0.373  1.00 20.00    -0.111 NA
HETATM    3  N11 UNL     1     -32.366   9.865  -0.035  1.00 20.00    -0.167 NA
ENDROOT
BRANCH   2   4
HETATM    4  C8  UNL     1     -31.603   8.726   1.808  1.00 20.00     0.227 C 
BRANCH   4   5
HETATM    5  C6  UNL     1     -32.366   7.476   2.087  1.00 20.00    -0.035 A 
HETATM    6  C3  UNL     1     -32.042   6.297   1.416  1.00 20.00     0.009 A 
HETATM    7  C1  UNL     1     -32.755   5.127   1.677  1.00 20.00     0.001 A 
HETATM    8  C2  UNL     1     -33.792   5.136   2.610  1.00 20.00     0.007 A 
HETATM    9  C5  UNL     1     -34.116   6.315   3.282  1.00 20.00    -0.061 A 
HETATM   10  C4  UNL     1     -33.403   7.485   3.020  1.00 20.00     0.015 A 
HETATM   11  C7  UNL     1     -35.225   6.323   4.280  1.00 20.00     0.048 C 
ENDBRANCH   4   5
ENDBRANCH   2   4
TORSDOF 2
ENDMDL
MODEL 5
REMARK VINA RESULT:      -1.3      1.636      2.298
REMARK  2 active torsions:
REMARK  status: ('A' for Active; 'I' for Inactive)
REMARK    1  A    between atoms: C6_6  and  C8_8 
REMARK    2  A    between atoms: C8_8  and  N10_10 
ROOT
HETATM    1  N9  UNL     1     -32.968  10.264  -0.425  1.00 20.00     0.068 N 
HETATM    2  N10 UNL     1     -31.376   8.925   0.737  1.00 20.00    -0.111 NA
HETATM    3  N11 UNL     1     -32.210   9.618   0.131  1.00 20.00    -0.167 NA
ENDROOT
BRANCH   2   4
HETATM    4  C8  UNL     1     -31.832   7.587   1.135  1.00 20.00     0.227 C 
BRANCH   4   5
HETATM    5  C6  UNL     1     -32.571   7.603   2.430  1.00 20.00    -0.035 A 
HETATM    6  C3  UNL     1     -32.164   8.455   3.455  1.00 20.00     0.009 A 
HETATM    7  C1  UNL     1     -32.855   8.470   4.666  1.00 20.00     0.001 A 
HETATM    8  C2  UNL     1     -33.955   7.632   4.851  1.00 20.00     0.007 A 
HETATM    9  C5  UNL     1     -34.364   6.780   3.826  1.00 20.00    -0.061 A 
HETATM   10  C4  UNL     1     -33.672   6.765   2.614  1.00 20.00     0.015 A 
HETATM   11  C7  UNL     1     -35.541   5.886   4.024  1.00 20.00     0.048 C 
ENDBRANCH   4   5
ENDBRANCH   2   4
TORSDOF 2
ENDMDL
MODEL 6
REMARK VINA RESULT:      -1.3      3.496      5.046
REMARK  2 active torsions:
REMARK  status: ('A' for Active; 'I' for Inactive)
REMARK    1  A    between atoms: C6_6  and  C8_8 
REMARK    2  A    between atoms: C8_8  and  N10_10 
ROOT
HETATM    1  N9  UNL     1     -33.310   3.096   4.877  1.00 20.00     0.068 N 
HETATM    2  N10 UNL     1     -35.018   4.618   4.215  1.00 20.00    -0.111 NA
HETATM    3  N11 UNL     1     -34.123   3.829   4.560  1.00 20.00    -0.167 NA
ENDROOT
BRANCH   2   4
HETATM    4  C8  UNL     1     -34.635   6.036   4.176  1.00 20.00     0.227 C 
BRANCH   4   5
HETATM    5  C6  UNL     1     -33.690   6.335   3.062  1.00 20.00    -0.035 A 
HETATM    6  C3  UNL     1     -33.176   5.297   2.285  1.00 20.00     0.009 A 
HETATM    7  C1  UNL     1     -32.292   5.576   1.243  1.00 20.00     0.001 A 
HETATM    8  C2  UNL     1     -31.921   6.895   0.979  1.00 20.00     0.007 A 
HETATM    9  C5  UNL     1     -32.435   7.933   1.755  1.00 20.00    -0.061 A 
HETATM   10  C4  UNL     1     -33.319   7.654   2.797  1.00 20.00     0.015 A 
HETATM   11  C7  UNL     1     -32.039   9.343   1.470  1.00 20.00     0.048 C 
ENDBRANCH   4   5
ENDBRANCH   2   4
TORSDOF 2
ENDMDL
MODEL 7
REMARK VINA RESULT:      -1.1      1.657      2.692
REMARK  2 active torsions:
REMARK  status: ('A' for Active; 'I' for Inactive)
REMARK    1  A    between atoms: C6_6  and  C8_8 
REMARK    2  A    between atoms: C8_8  and  N10_10 
ROOT
HETATM    1  N9  UNL     1     -32.833  11.092   0.666  1.00 20.00     0.068 N 
HETATM    2  N10 UNL     1     -31.987   9.018  -0.144  1.00 20.00    -0.111 NA
HETATM    3  N11 UNL     1     -32.426  10.097   0.284  1.00 20.00    -0.167 NA
ENDROOT
BRANCH   2   4
HETATM    4  C8  UNL     1     -31.293   8.179   0.841  1.00 20.00     0.227 C 
BRANCH   4   5
HETATM    5  C6  UNL     1     -32.241   7.465   1.745  1.00 20.00    -0.035 A 
HETATM    6  C3  UNL     1     -32.684   6.183   1.419  1.00 20.00     0.009 A 
HETATM    7  C1  UNL     1     -33.571   5.516   2.263  1.00 20.00     0.001 A 
HETATM    8  C2  UNL     1     -34.015   6.131   3.434  1.00 20.00     0.007 A 
HETATM    9  C5  UNL     1     -33.572   7.412   3.761  1.00 20.00    -0.061 A 
HETATM   10  C4  UNL     1     -32.685   8.080   2.916  1.00 20.00     0.015 A 
HETATM   11  C7  UNL     1     -34.046   8.069   5.014  1.00 20.00     0.048 C 
ENDBRANCH   4   5
ENDBRANCH   2   4
TORSDOF 2
ENDMDL
MODEL 8
REMARK VINA RESULT:      -1.0      3.517      4.767
REMARK  2 active torsions:
REMARK  status: ('A' for Active; 'I' for Inactive)
REMARK    1  A    between atoms: C6_6  and  C8_8 
REMARK    2  A    between atoms: C8_8  and  N10_10 
ROOT
HETATM    1  N9  UNL     1     -32.761   2.856   5.434  1.00 20.00     0.068 N 
HETATM    2  N10 UNL     1     -34.246   3.723   3.786  1.00 20.00    -0.111 NA
HETATM    3  N11 UNL     1     -33.473   3.277   4.648  1.00 20.00    -0.167 NA
ENDROOT
BRANCH   2   4
HETATM    4  C8  UNL     1     -34.933   4.974   4.135  1.00 20.00     0.227 C 
BRANCH   4   5
HETATM    5  C6  UNL     1     -34.165   6.179   3.709  1.00 20.00    -0.035 A 
HETATM    6  C3  UNL     1     -34.286   7.371   4.423  1.00 20.00     0.009 A 
HETATM    7  C1  UNL     1     -33.568   8.498   4.025  1.00 20.00     0.001 A 
HETATM    8  C2  UNL     1     -32.728   8.433   2.913  1.00 20.00     0.007 A 
HETATM    9  C5  UNL     1     -32.607   7.242   2.199  1.00 20.00    -0.061 A 
HETATM   10  C4  UNL     1     -33.326   6.114   2.596  1.00 20.00     0.015 A 
HETATM   11  C7  UNL     1     -31.708   7.173   1.010  1.00 20.00     0.048 C 
ENDBRANCH   4   5
ENDBRANCH   2   4
TORSDOF 2
ENDMDL
MODEL 9
REMARK VINA RESULT:      -0.3      1.594      2.372
REMARK  2 active torsions:
REMARK  status: ('A' for Active; 'I' for Inactive)
REMARK    1  A    between atoms: C6_6  and  C8_8 
REMARK    2  A    between atoms: C8_8  and  N10_10 
ROOT
HETATM    1  N9  UNL     1     -32.707   9.883  -0.928  1.00 20.00     0.068 N 
HETATM    2  N10 UNL     1     -32.631  10.240   1.426  1.00 20.00    -0.111 NA
HETATM    3  N11 UNL     1     -32.666  10.050   0.200  1.00 20.00    -0.167 NA
ENDROOT
BRANCH   2   4
HETATM    4  C8  UNL     1     -31.809   9.294   2.193  1.00 20.00     0.227 C 
BRANCH   4   5
HETATM    5  C6  UNL     1     -32.459   7.958   2.324  1.00 20.00    -0.035 A 
HETATM    6  C3  UNL     1     -33.420   7.744   3.312  1.00 20.00     0.009 A 
HETATM    7  C1  UNL     1     -34.028   6.495   3.436  1.00 20.00     0.001 A 
HETATM    8  C2  UNL     1     -33.674   5.459   2.570  1.00 20.00     0.007 A 
HETATM    9  C5  UNL     1     -32.715   5.673   1.581  1.00 20.00    -0.061 A 
HETATM   10  C4  UNL     1     -32.106   6.923   1.458  1.00 20.00     0.015 A 
HETATM   11  C7  UNL     1     -32.339   4.566   0.655  1.00 20.00     0.048 C 
ENDBRANCH   4   5
ENDBRANCH   2   4
TORSDOF 2
ENDMDL
