MODEL 1
REMARK VINA RESULT:      -1.6      0.000      0.000
REMARK  0 active torsions:
REMARK  status: ('A' for Active; 'I' for Inactive)
ROOT
HETATM    1  C1  UNL     1     -35.460   6.167   4.214  1.00 20.00     0.002 A 
HETATM    2  C2  UNL     1     -35.078   4.862   4.529  1.00 20.00     0.007 A 
HETATM    3  C3  UNL     1     -34.635   6.963   3.421  1.00 20.00     0.018 A 
HETATM    4  C4  UNL     1     -33.043   5.154   3.258  1.00 20.00     0.025 A 
HETATM    5  C5  UNL     1     -33.869   4.356   4.051  1.00 20.00    -0.061 A 
HETATM    6  C6  UNL     1     -33.426   6.457   2.943  1.00 20.00     0.006 A 
HETATM    7  C7  UNL     1     -33.460   2.962   4.389  1.00 20.00     0.048 C 
HETATM    8  I8  UNL     1     -32.197   7.645   1.761  1.00 20.00    -0.045 I 
ENDROOT
TORSDOF 0
ENDMDL
MODEL 2
REMARK VINA RESULT:      -0.5      1.558      2.939
REMARK  0 active torsions:
REMARK  status: ('A' for Active; 'I' for Inactive)
ROOT
HETATM    1  C1  UNL     1     -32.390   5.323   1.771  1.00 20.00     0.002 A 
HETATM    2  C2  UNL     1     -33.368   5.272   2.765  1.00 20.00     0.007 A 
HETATM    3  C3  UNL     1     -32.033   6.547   1.206  1.00 20.00     0.018 A 
HETATM    4  C4  UNL     1     -33.633   7.670   2.625  1.00 20.00     0.025 A 
HETATM    5  C5  UNL     1     -33.989   6.446   3.191  1.00 20.00    -0.061 A 
HETATM    6  C6  UNL     1     -32.655   7.721   1.633  1.00 20.00     0.006 A 
HETATM    7  C7  UNL     1     -35.036   6.391   4.253  1.00 20.00     0.048 C 
HETATM    8  I8  UNL     1     -32.122   9.544   0.791  1.00 20.00    -0.045 I 
ENDROOT
TORSDOF 0
ENDMDL
MODEL 3
REMARK VINA RESULT:      -0.3      1.890      2.889
REMARK  0 active torsions:
REMARK  status: ('A' for Active; 'I' for Inactive)
ROOT
HETATM    1  C1  UNL     1     -32.695   8.186   2.773  1.00 20.00     0.002 A 
HETATM    2  C2  UNL     1     -33.777   7.804   3.567  1.00 20.00     0.007 A 
HETATM    3  C3  UNL     1     -32.107   7.266   1.906  1.00 20.00     0.018 A 
HETATM    4  C4  UNL     1     -33.680   5.580   2.624  1.00 20.00     0.025 A 
HETATM    5  C5  UNL     1     -34.269   6.501   3.492  1.00 20.00    -0.061 A 
HETATM    6  C6  UNL     1     -32.599   5.963   1.831  1.00 20.00     0.006 A 
HETATM    7  C7  UNL     1     -35.425   6.091   4.342  1.00 20.00     0.048 C 
HETATM    8  I8  UNL     1     -31.722   4.594   0.537  1.00 20.00    -0.045 I 
ENDROOT
TORSDOF 0
ENDMDL
MODEL 4
REMARK VINA RESULT:      -0.3      2.140      3.255
REMARK  0 active torsions:
REMARK  status: ('A' for Active; 'I' for Inactive)
ROOT
HETATM    1  C1  UNL     1     -35.366   6.437   4.027  1.00 20.00     0.002 A 
HETATM    2  C2  UNL     1     -34.556   7.196   3.181  1.00 20.00     0.007 A 
HETATM    3  C3  UNL     1     -34.974   5.152   4.400  1.00 20.00     0.018 A 
HETATM    4  C4  UNL     1     -32.962   5.381   3.082  1.00 20.00     0.025 A 
HETATM    5  C5  UNL     1     -33.354   6.667   2.709  1.00 20.00    -0.061 A 
HETATM    6  C6  UNL     1     -33.772   4.623   3.928  1.00 20.00     0.006 A 
HETATM    7  C7  UNL     1     -32.489   7.478   1.804  1.00 20.00     0.048 C 
HETATM    8  I8  UNL     1     -33.189   2.709   4.486  1.00 20.00    -0.045 I 
ENDROOT
TORSDOF 0
ENDMDL
MODEL 5
REMARK VINA RESULT:      -0.0      2.489      3.627
REMARK  0 active torsions:
REMARK  status: ('A' for Active; 'I' for Inactive)
ROOT
HETATM    1  C1  UNL     1     -32.142   8.131   2.149  1.00 20.00     0.002 A 
HETATM    2  C2  UNL     1     -31.590   7.155   1.318  1.00 20.00     0.007 A 
HETATM    3  C3  UNL     1     -33.201   7.808   2.996  1.00 20.00     0.018 A 
HETATM    4  C4  UNL     1     -33.159   5.534   2.185  1.00 20.00     0.025 A 
HETATM    5  C5  UNL     1     -32.099   5.857   1.337  1.00 20.00    -0.061 A 
HETATM    6  C6  UNL     1     -33.710   6.510   3.015  1.00 20.00     0.006 A 
HETATM    7  C7  UNL     1     -31.510   4.813   0.448  1.00 20.00     0.048 C 
HETATM    8  I8  UNL     1     -35.286   6.029   4.280  1.00 20.00    -0.045 I 
ENDROOT
TORSDOF 0
ENDMDL
MODEL 6
REMARK VINA RESULT:       0.2      2.568      4.448
REMARK  0 active torsions:
REMARK  status: ('A' for Active; 'I' for Inactive)
ROOT
HETATM    1  C1  UNL     1     -31.968   5.682   1.284  1.00 20.00     0.002 A 
HETATM    2  C2  UNL     1     -31.659   7.001   0.949  1.00 20.00     0.007 A 
HETATM    3  C3  UNL     1     -32.958   5.416   2.228  1.00 20.00     0.018 A 
HETATM    4  C4  UNL     1     -33.332   7.786   2.508  1.00 20.00     0.025 A 
HETATM    5  C5  UNL     1     -32.341   8.053   1.562  1.00 20.00    -0.061 A 
HETATM    6  C6  UNL     1     -33.641   6.467   2.841  1.00 20.00     0.006 A 
HETATM    7  C7  UNL     1     -32.010   9.463   1.205  1.00 20.00     0.048 C 
HETATM    8  I8  UNL     1     -35.117   6.070   4.247  1.00 20.00    -0.045 I 
ENDROOT
TORSDOF 0
ENDMDL
MODEL 7
REMARK VINA RESULT:       0.7      2.073      2.754
REMARK  0 active torsions:
REMARK  status: ('A' for Active; 'I' for Inactive)
ROOT
HETATM    1  C1  UNL     1     -33.735   7.014   3.421  1.00 20.00     0.002 A 
HETATM    2  C2  UNL     1     -33.265   5.815   2.885  1.00 20.00     0.007 A 
HETATM    3  C3  UNL     1     -33.467   8.220   2.774  1.00 20.00     0.018 A 
HETATM    4  C4  UNL     1     -32.258   7.030   1.054  1.00 20.00     0.025 A 
HETATM    5  C5  UNL     1     -32.527   5.823   1.701  1.00 20.00    -0.061 A 
HETATM    6  C6  UNL     1     -32.729   8.228   1.591  1.00 20.00     0.006 A 
HETATM    7  C7  UNL     1     -32.024   4.541   1.128  1.00 20.00     0.048 C 
HETATM    8  I8  UNL     1     -32.331  10.026   0.627  1.00 20.00    -0.045 I 
ENDROOT
TORSDOF 0
ENDMDL
MODEL 8
REMARK VINA RESULT:       0.8      1.892      2.797
REMARK  0 active torsions:
REMARK  status: ('A' for Active; 'I' for Inactive)
ROOT
HETATM    1  C1  UNL     1     -32.717   8.483   4.793  1.00 20.00     0.002 A 
HETATM    2  C2  UNL     1     -33.813   7.627   4.908  1.00 20.00     0.007 A 
HETATM    3  C3  UNL     1     -32.095   8.657   3.557  1.00 20.00     0.018 A 
HETATM    4  C4  UNL     1     -33.662   7.118   2.550  1.00 20.00     0.025 A 
HETATM    5  C5  UNL     1     -34.285   6.945   3.787  1.00 20.00    -0.061 A 
HETATM    6  C6  UNL     1     -32.567   7.975   2.436  1.00 20.00     0.006 A 
HETATM    7  C7  UNL     1     -35.456   6.029   3.910  1.00 20.00     0.048 C 
HETATM    8  I8  UNL     1     -31.640   8.236   0.594  1.00 20.00    -0.045 I 
ENDROOT
TORSDOF 0
ENDMDL
