MODEL 1
REMARK VINA RESULT:      -1.6      0.000      0.000
REMARK  0 active torsions:
REMARK  status: ('A' for Active; 'I' for Inactive)
ROOT
HETATM    1  C1  UNL     1     -34.979   4.968   4.206  1.00 20.00     0.001 A 
HETATM    2  C2  UNL     1     -35.248   6.265   4.634  1.00 20.00     0.001 A 
HETATM    3  C3  UNL     1     -31.623   6.683   1.128  1.00 20.00     0.001 A 
HETATM    4  C4  UNL     1     -31.893   7.980   1.557  1.00 20.00     0.001 A 
HETATM    5  C5  UNL     1     -34.010   4.743   3.228  1.00 20.00     0.012 A 
HETATM    6  C6  UNL     1     -34.551   7.342   4.085  1.00 20.00     0.012 A 
HETATM    7  C7  UNL     1     -32.320   5.607   1.678  1.00 20.00     0.012 A 
HETATM    8  C8  UNL     1     -32.861   8.205   2.535  1.00 20.00     0.012 A 
HETATM    9  C9  UNL     1     -33.298   5.815   2.664  1.00 20.00    -0.026 A 
HETATM   10  C10 UNL     1     -33.573   7.133   3.099  1.00 20.00    -0.026 A 
ENDROOT
TORSDOF 0
ENDMDL
MODEL 2
REMARK VINA RESULT:      -1.6      0.063      2.071
REMARK  0 active torsions:
REMARK  status: ('A' for Active; 'I' for Inactive)
ROOT
HETATM    1  C1  UNL     1     -35.245   6.238   4.636  1.00 20.00     0.001 A 
HETATM    2  C2  UNL     1     -34.961   4.955   4.177  1.00 20.00     0.001 A 
HETATM    3  C3  UNL     1     -31.897   8.061   1.614  1.00 20.00     0.001 A 
HETATM    4  C4  UNL     1     -31.612   6.779   1.155  1.00 20.00     0.001 A 
HETATM    5  C5  UNL     1     -34.558   7.334   4.115  1.00 20.00     0.012 A 
HETATM    6  C6  UNL     1     -33.986   4.763   3.197  1.00 20.00     0.012 A 
HETATM    7  C7  UNL     1     -32.872   8.252   2.594  1.00 20.00     0.012 A 
HETATM    8  C8  UNL     1     -32.300   5.682   1.675  1.00 20.00     0.012 A 
HETATM    9  C9  UNL     1     -33.574   7.160   3.128  1.00 20.00    -0.026 A 
HETATM   10  C10 UNL     1     -33.284   5.856   2.663  1.00 20.00    -0.026 A 
ENDROOT
TORSDOF 0
ENDMDL
MODEL 3
REMARK VINA RESULT:      -1.6      0.095      4.020
REMARK  0 active torsions:
REMARK  status: ('A' for Active; 'I' for Inactive)
ROOT
HETATM    1  C1  UNL     1     -31.903   8.109   1.618  1.00 20.00     0.001 A 
HETATM    2  C2  UNL     1     -31.611   6.830   1.152  1.00 20.00     0.001 A 
HETATM    3  C3  UNL     1     -35.233   6.250   4.638  1.00 20.00     0.001 A 
HETATM    4  C4  UNL     1     -34.942   4.971   4.173  1.00 20.00     0.001 A 
HETATM    5  C5  UNL     1     -32.875   8.289   2.601  1.00 20.00     0.012 A 
HETATM    6  C6  UNL     1     -32.292   5.726   1.668  1.00 20.00     0.012 A 
HETATM    7  C7  UNL     1     -34.552   7.353   4.122  1.00 20.00     0.012 A 
HETATM    8  C8  UNL     1     -33.969   4.791   3.189  1.00 20.00     0.012 A 
HETATM    9  C9  UNL     1     -33.570   7.190   3.132  1.00 20.00    -0.026 A 
HETATM   10  C10 UNL     1     -33.274   5.890   2.658  1.00 20.00    -0.026 A 
ENDROOT
TORSDOF 0
ENDMDL
MODEL 4
REMARK VINA RESULT:      -1.6      0.125      3.446
REMARK  0 active torsions:
REMARK  status: ('A' for Active; 'I' for Inactive)
ROOT
HETATM    1  C1  UNL     1     -31.595   6.868   1.130  1.00 20.00     0.001 A 
HETATM    2  C2  UNL     1     -31.881   8.143   1.608  1.00 20.00     0.001 A 
HETATM    3  C3  UNL     1     -34.933   4.993   4.132  1.00 20.00     0.001 A 
HETATM    4  C4  UNL     1     -35.218   6.268   4.611  1.00 20.00     0.001 A 
HETATM    5  C5  UNL     1     -32.281   5.762   1.634  1.00 20.00     0.012 A 
HETATM    6  C6  UNL     1     -32.852   8.318   2.595  1.00 20.00     0.012 A 
HETATM    7  C7  UNL     1     -33.961   4.818   3.147  1.00 20.00     0.012 A 
HETATM    8  C8  UNL     1     -34.533   7.373   4.107  1.00 20.00     0.012 A 
HETATM    9  C9  UNL     1     -33.262   5.920   2.626  1.00 20.00    -0.026 A 
HETATM   10  C10 UNL     1     -33.551   7.216   3.114  1.00 20.00    -0.026 A 
ENDROOT
TORSDOF 0
ENDMDL
MODEL 5
REMARK VINA RESULT:       0.0      0.743      3.837
REMARK  0 active torsions:
REMARK  status: ('A' for Active; 'I' for Inactive)
ROOT
HETATM    1  C1  UNL     1     -33.113   8.913   2.418  1.00 20.00     0.001 A 
HETATM    2  C2  UNL     1     -32.193   8.134   1.723  1.00 20.00     0.001 A 
HETATM    3  C3  UNL     1     -34.988   4.900   4.431  1.00 20.00     0.001 A 
HETATM    4  C4  UNL     1     -34.068   4.121   3.735  1.00 20.00     0.001 A 
HETATM    5  C5  UNL     1     -34.039   8.308   3.268  1.00 20.00     0.012 A 
HETATM    6  C6  UNL     1     -32.197   6.746   1.872  1.00 20.00     0.012 A 
HETATM    7  C7  UNL     1     -34.984   6.287   4.281  1.00 20.00     0.012 A 
HETATM    8  C8  UNL     1     -33.142   4.726   2.886  1.00 20.00     0.012 A 
HETATM    9  C9  UNL     1     -34.058   6.913   3.431  1.00 20.00    -0.026 A 
HETATM   10  C10 UNL     1     -33.123   6.121   2.722  1.00 20.00    -0.026 A 
ENDROOT
TORSDOF 0
ENDMDL
