MODEL 1
REMARK VINA RESULT:      -1.9      0.000      0.000
REMARK  2 active torsions:
REMARK  status: ('A' for Active; 'I' for Inactive)
REMARK    1  A    between atoms: C6_6  and  C9_9 
REMARK    2  A    between atoms: C9_9  and  C10_10 
ROOT
HETATM    1  C1  UNL     1     -34.509   5.921   3.744  1.00 20.00     0.000 A 
HETATM    2  C2  UNL     1     -34.316   7.242   4.149  1.00 20.00     0.001 A 
HETATM    3  C3  UNL     1     -33.816   5.422   2.640  1.00 20.00     0.001 A 
HETATM    4  C4  UNL     1     -33.431   8.064   3.449  1.00 20.00     0.007 A 
HETATM    5  C5  UNL     1     -32.932   6.243   1.942  1.00 20.00     0.007 A 
HETATM    6  C6  UNL     1     -32.740   7.564   2.345  1.00 20.00    -0.058 A 
ENDROOT
BRANCH   6   7
HETATM    7  C9  UNL     1     -31.783   8.452   1.588  1.00 20.00     0.042 C 
BRANCH   7   8
HETATM    8  C10 UNL     1     -32.441   9.240   0.438  1.00 20.00    -0.019 C 
HETATM    9  C7  UNL     1     -32.770  10.678   0.842  1.00 20.00     0.010 C 
HETATM   10  C8  UNL     1     -31.517   9.245  -0.781  1.00 20.00     0.010 C 
ENDBRANCH   7   8
ENDBRANCH   6   7
TORSDOF 2
ENDMDL
MODEL 2
REMARK VINA RESULT:      -1.9      0.053      1.529
REMARK  2 active torsions:
REMARK  status: ('A' for Active; 'I' for Inactive)
REMARK    1  A    between atoms: C6_6  and  C9_9 
REMARK    2  A    between atoms: C9_9  and  C10_10 
ROOT
HETATM    1  C1  UNL     1     -34.463   5.914   3.745  1.00 20.00     0.000 A 
HETATM    2  C2  UNL     1     -33.756   5.410   2.652  1.00 20.00     0.001 A 
HETATM    3  C3  UNL     1     -34.301   7.246   4.126  1.00 20.00     0.001 A 
HETATM    4  C4  UNL     1     -32.887   6.240   1.942  1.00 20.00     0.007 A 
HETATM    5  C5  UNL     1     -33.433   8.075   3.416  1.00 20.00     0.007 A 
HETATM    6  C6  UNL     1     -32.725   7.572   2.324  1.00 20.00    -0.058 A 
ENDROOT
BRANCH   6   7
HETATM    7  C9  UNL     1     -31.786   8.469   1.556  1.00 20.00     0.042 C 
BRANCH   7   8
HETATM    8  C10 UNL     1     -32.473   9.278   0.438  1.00 20.00    -0.019 C 
HETATM    9  C7  UNL     1     -32.738  10.725   0.856  1.00 20.00     0.010 C 
HETATM   10  C8  UNL     1     -31.607   9.256  -0.824  1.00 20.00     0.010 C 
ENDBRANCH   7   8
ENDBRANCH   6   7
TORSDOF 2
ENDMDL
MODEL 3
REMARK VINA RESULT:      -1.6      1.134      2.338
REMARK  2 active torsions:
REMARK  status: ('A' for Active; 'I' for Inactive)
REMARK    1  A    between atoms: C6_6  and  C9_9 
REMARK    2  A    between atoms: C9_9  and  C10_10 
ROOT
HETATM    1  C1  UNL     1     -35.086   4.914   4.579  1.00 20.00     0.000 A 
HETATM    2  C2  UNL     1     -34.072   4.164   3.981  1.00 20.00     0.001 A 
HETATM    3  C3  UNL     1     -35.262   6.252   4.227  1.00 20.00     0.001 A 
HETATM    4  C4  UNL     1     -33.236   4.753   3.032  1.00 20.00     0.007 A 
HETATM    5  C5  UNL     1     -34.427   6.841   3.278  1.00 20.00     0.007 A 
HETATM    6  C6  UNL     1     -33.413   6.092   2.681  1.00 20.00    -0.058 A 
ENDROOT
BRANCH   6   7
HETATM    7  C9  UNL     1     -32.509   6.729   1.654  1.00 20.00     0.042 C 
BRANCH   7   8
HETATM    8  C10 UNL     1     -32.317   8.246   1.850  1.00 20.00    -0.019 C 
HETATM    9  C7  UNL     1     -31.191   8.560   2.837  1.00 20.00     0.010 C 
HETATM   10  C8  UNL     1     -32.021   8.908   0.502  1.00 20.00     0.010 C 
ENDBRANCH   7   8
ENDBRANCH   6   7
TORSDOF 2
ENDMDL
MODEL 4
REMARK VINA RESULT:      -1.6      1.134      1.883
REMARK  2 active torsions:
REMARK  status: ('A' for Active; 'I' for Inactive)
REMARK    1  A    between atoms: C6_6  and  C9_9 
REMARK    2  A    between atoms: C9_9  and  C10_10 
ROOT
HETATM    1  C1  UNL     1     -35.080   4.916   4.571  1.00 20.00     0.000 A 
HETATM    2  C2  UNL     1     -35.254   6.256   4.224  1.00 20.00     0.001 A 
HETATM    3  C3  UNL     1     -34.070   4.166   3.969  1.00 20.00     0.001 A 
HETATM    4  C4  UNL     1     -34.418   6.845   3.276  1.00 20.00     0.007 A 
HETATM    5  C5  UNL     1     -33.234   4.754   3.022  1.00 20.00     0.007 A 
HETATM    6  C6  UNL     1     -33.408   6.094   2.674  1.00 20.00    -0.058 A 
ENDROOT
BRANCH   6   7
HETATM    7  C9  UNL     1     -32.503   6.730   1.647  1.00 20.00     0.042 C 
BRANCH   7   8
HETATM    8  C10 UNL     1     -32.304   8.246   1.847  1.00 20.00    -0.019 C 
HETATM    9  C7  UNL     1     -31.178   8.552   2.837  1.00 20.00     0.010 C 
HETATM   10  C8  UNL     1     -32.004   8.910   0.502  1.00 20.00     0.010 C 
ENDBRANCH   7   8
ENDBRANCH   6   7
TORSDOF 2
ENDMDL
MODEL 5
REMARK VINA RESULT:      -0.5      2.213      5.275
REMARK  2 active torsions:
REMARK  status: ('A' for Active; 'I' for Inactive)
REMARK    1  A    between atoms: C6_6  and  C9_9 
REMARK    2  A    between atoms: C9_9  and  C10_10 
ROOT
HETATM    1  C1  UNL     1     -33.027   7.744   2.356  1.00 20.00     0.000 A 
HETATM    2  C2  UNL     1     -33.853   7.729   3.480  1.00 20.00     0.001 A 
HETATM    3  C3  UNL     1     -32.581   6.543   1.803  1.00 20.00     0.001 A 
HETATM    4  C4  UNL     1     -34.233   6.514   4.050  1.00 20.00     0.007 A 
HETATM    5  C5  UNL     1     -32.961   5.328   2.373  1.00 20.00     0.007 A 
HETATM    6  C6  UNL     1     -33.787   5.314   3.497  1.00 20.00    -0.058 A 
ENDROOT
BRANCH   6   7
HETATM    7  C9  UNL     1     -34.198   3.999   4.114  1.00 20.00     0.042 C 
BRANCH   7   8
HETATM    8  C10 UNL     1     -33.012   3.133   4.581  1.00 20.00    -0.019 C 
HETATM    9  C7  UNL     1     -32.600   3.451   6.020  1.00 20.00     0.010 C 
HETATM   10  C8  UNL     1     -33.376   1.651   4.465  1.00 20.00     0.010 C 
ENDBRANCH   7   8
ENDBRANCH   6   7
TORSDOF 2
ENDMDL
MODEL 6
REMARK VINA RESULT:      -0.5      2.202      5.464
REMARK  2 active torsions:
REMARK  status: ('A' for Active; 'I' for Inactive)
REMARK    1  A    between atoms: C6_6  and  C9_9 
REMARK    2  A    between atoms: C9_9  and  C10_10 
ROOT
HETATM    1  C1  UNL     1     -32.987   7.746   2.322  1.00 20.00     0.000 A 
HETATM    2  C2  UNL     1     -32.535   6.541   1.784  1.00 20.00     0.001 A 
HETATM    3  C3  UNL     1     -33.829   7.741   3.434  1.00 20.00     0.001 A 
HETATM    4  C4  UNL     1     -32.926   5.331   2.359  1.00 20.00     0.007 A 
HETATM    5  C5  UNL     1     -34.219   6.532   4.009  1.00 20.00     0.007 A 
HETATM    6  C6  UNL     1     -33.769   5.327   3.471  1.00 20.00    -0.058 A 
ENDROOT
BRANCH   6   7
HETATM    7  C9  UNL     1     -34.191   4.018   4.093  1.00 20.00     0.042 C 
BRANCH   7   8
HETATM    8  C10 UNL     1     -33.013   3.150   4.577  1.00 20.00    -0.019 C 
HETATM    9  C7  UNL     1     -32.611   3.478   6.016  1.00 20.00     0.010 C 
HETATM   10  C8  UNL     1     -33.384   1.669   4.470  1.00 20.00     0.010 C 
ENDBRANCH   7   8
ENDBRANCH   6   7
TORSDOF 2
ENDMDL
MODEL 7
REMARK VINA RESULT:      -0.4      1.006      4.398
REMARK  2 active torsions:
REMARK  status: ('A' for Active; 'I' for Inactive)
REMARK    1  A    between atoms: C6_6  and  C9_9 
REMARK    2  A    between atoms: C9_9  and  C10_10 
ROOT
HETATM    1  C1  UNL     1     -31.981  10.044  -0.284  1.00 20.00     0.000 A 
HETATM    2  C2  UNL     1     -32.860  10.385   0.745  1.00 20.00     0.001 A 
HETATM    3  C3  UNL     1     -31.360   8.795  -0.284  1.00 20.00     0.001 A 
HETATM    4  C4  UNL     1     -33.116   9.478   1.773  1.00 20.00     0.007 A 
HETATM    5  C5  UNL     1     -31.616   7.888   0.743  1.00 20.00     0.007 A 
HETATM    6  C6  UNL     1     -32.493   8.229   1.772  1.00 20.00    -0.058 A 
ENDROOT
BRANCH   6   7
HETATM    7  C9  UNL     1     -32.770   7.247   2.884  1.00 20.00     0.042 C 
BRANCH   7   8
HETATM    8  C10 UNL     1     -34.013   7.595   3.727  1.00 20.00    -0.019 C 
HETATM    9  C7  UNL     1     -34.953   6.397   3.886  1.00 20.00     0.010 C 
HETATM   10  C8  UNL     1     -33.579   8.096   5.106  1.00 20.00     0.010 C 
ENDBRANCH   7   8
ENDBRANCH   6   7
TORSDOF 2
ENDMDL
MODEL 8
REMARK VINA RESULT:      -0.4      1.007      4.631
REMARK  2 active torsions:
REMARK  status: ('A' for Active; 'I' for Inactive)
REMARK    1  A    between atoms: C6_6  and  C9_9 
REMARK    2  A    between atoms: C9_9  and  C10_10 
ROOT
HETATM    1  C1  UNL     1     -31.976  10.053  -0.286  1.00 20.00     0.000 A 
HETATM    2  C2  UNL     1     -31.354   8.804  -0.286  1.00 20.00     0.001 A 
HETATM    3  C3  UNL     1     -32.852  10.396   0.744  1.00 20.00     0.001 A 
HETATM    4  C4  UNL     1     -31.609   7.898   0.744  1.00 20.00     0.007 A 
HETATM    5  C5  UNL     1     -33.106   9.491   1.774  1.00 20.00     0.007 A 
HETATM    6  C6  UNL     1     -32.486   8.242   1.774  1.00 20.00    -0.058 A 
ENDROOT
BRANCH   6   7
HETATM    7  C9  UNL     1     -32.762   7.262   2.889  1.00 20.00     0.042 C 
BRANCH   7   8
HETATM    8  C10 UNL     1     -34.011   7.606   3.724  1.00 20.00    -0.019 C 
HETATM    9  C7  UNL     1     -34.943   6.403   3.883  1.00 20.00     0.010 C 
HETATM   10  C8  UNL     1     -33.587   8.116   5.103  1.00 20.00     0.010 C 
ENDBRANCH   7   8
ENDBRANCH   6   7
TORSDOF 2
ENDMDL
MODEL 9
REMARK VINA RESULT:      -0.4      1.507      4.726
REMARK  2 active torsions:
REMARK  status: ('A' for Active; 'I' for Inactive)
REMARK    1  A    between atoms: C6_6  and  C9_9 
REMARK    2  A    between atoms: C9_9  and  C10_10 
ROOT
HETATM    1  C1  UNL     1     -31.899   8.525   1.784  1.00 20.00     0.000 A 
HETATM    2  C2  UNL     1     -32.804   8.441   2.843  1.00 20.00     0.001 A 
HETATM    3  C3  UNL     1     -31.592   7.386   1.038  1.00 20.00     0.001 A 
HETATM    4  C4  UNL     1     -33.401   7.219   3.155  1.00 20.00     0.007 A 
HETATM    5  C5  UNL     1     -32.189   6.165   1.349  1.00 20.00     0.007 A 
HETATM    6  C6  UNL     1     -33.092   6.081   2.408  1.00 20.00    -0.058 A 
ENDROOT
BRANCH   6   7
HETATM    7  C9  UNL     1     -33.738   4.759   2.746  1.00 20.00     0.042 C 
BRANCH   7   8
HETATM    8  C10 UNL     1     -33.901   4.514   4.259  1.00 20.00    -0.019 C 
HETATM    9  C7  UNL     1     -35.323   4.811   4.738  1.00 20.00     0.010 C 
HETATM   10  C8  UNL     1     -33.536   3.066   4.591  1.00 20.00     0.010 C 
ENDBRANCH   7   8
ENDBRANCH   6   7
TORSDOF 2
ENDMDL
