MODEL 1
REMARK VINA RESULT:      -0.6      0.000      0.000
REMARK  3 active torsions:
REMARK  status: ('A' for Active; 'I' for Inactive)
REMARK    1  A    between atoms: C5_5  and  S7_7 
REMARK    2  A    between atoms: C6_6  and  S8_8 
REMARK    3  A    between atoms: S7_7  and  S8_8 
ROOT
HETATM    1  S7  UNL     1     -33.038   6.400   1.970  1.00 20.00    -0.093 SA
ENDROOT
BRANCH   1   2
HETATM    2  C5  UNL     1     -34.325   6.600   3.248  1.00 20.00     0.050 C 
HETATM    3  C1  UNL     1     -34.523   5.284   3.989  1.00 20.00     0.022 C 
HETATM    4  C2  UNL     1     -33.932   7.722   4.202  1.00 20.00     0.022 C 
ENDBRANCH   1   2
BRANCH   1   5
HETATM    5  S8  UNL     1     -32.009   8.167   2.153  1.00 20.00    -0.093 SA
BRANCH   5   6
HETATM    6  C6  UNL     1     -32.363   8.968   0.570  1.00 20.00     0.050 C 
HETATM    7  C3  UNL     1     -32.766  10.418   0.807  1.00 20.00     0.022 C 
HETATM    8  C4  UNL     1     -31.144   8.870  -0.340  1.00 20.00     0.022 C 
ENDBRANCH   5   6
ENDBRANCH   1   5
TORSDOF 3
ENDMDL
MODEL 2
REMARK VINA RESULT:      -0.5      0.556      1.296
REMARK  3 active torsions:
REMARK  status: ('A' for Active; 'I' for Inactive)
REMARK    1  A    between atoms: C5_5  and  S7_7 
REMARK    2  A    between atoms: C6_6  and  S8_8 
REMARK    3  A    between atoms: S7_7  and  S8_8 
ROOT
HETATM    1  S7  UNL     1     -33.255   6.587   2.056  1.00 20.00    -0.093 SA
ENDROOT
BRANCH   1   2
HETATM    2  C5  UNL     1     -33.921   6.654   3.754  1.00 20.00     0.050 C 
HETATM    3  C1  UNL     1     -33.722   8.050   4.330  1.00 20.00     0.022 C 
HETATM    4  C2  UNL     1     -35.392   6.258   3.746  1.00 20.00     0.022 C 
ENDBRANCH   1   2
BRANCH   1   5
HETATM    5  S8  UNL     1     -31.947   8.169   2.073  1.00 20.00    -0.093 SA
BRANCH   5   6
HETATM    6  C6  UNL     1     -32.349   8.998   0.516  1.00 20.00     0.050 C 
HETATM    7  C3  UNL     1     -32.757  10.440   0.793  1.00 20.00     0.022 C 
HETATM    8  C4  UNL     1     -31.154   8.929  -0.427  1.00 20.00     0.022 C 
ENDBRANCH   5   6
ENDBRANCH   1   5
TORSDOF 3
ENDMDL
MODEL 3
REMARK VINA RESULT:      -0.5      0.139      4.742
REMARK  3 active torsions:
REMARK  status: ('A' for Active; 'I' for Inactive)
REMARK    1  A    between atoms: C5_5  and  S7_7 
REMARK    2  A    between atoms: C6_6  and  S8_8 
REMARK    3  A    between atoms: S7_7  and  S8_8 
ROOT
HETATM    1  S7  UNL     1     -31.979   8.195   2.191  1.00 20.00    -0.093 SA
ENDROOT
BRANCH   1   2
HETATM    2  C5  UNL     1     -32.355   8.979   0.586  1.00 20.00     0.050 C 
HETATM    3  C1  UNL     1     -32.755  10.433   0.805  1.00 20.00     0.022 C 
HETATM    4  C2  UNL     1     -31.148   8.866  -0.337  1.00 20.00     0.022 C 
ENDBRANCH   1   2
BRANCH   1   5
HETATM    5  S8  UNL     1     -33.096   6.476   2.072  1.00 20.00    -0.093 SA
BRANCH   5   6
HETATM    6  C6  UNL     1     -34.363   6.771   3.328  1.00 20.00     0.050 C 
HETATM    7  C3  UNL     1     -34.707   5.462   4.029  1.00 20.00     0.022 C 
HETATM    8  C4  UNL     1     -33.872   7.820   4.319  1.00 20.00     0.022 C 
ENDBRANCH   5   6
ENDBRANCH   1   5
TORSDOF 3
ENDMDL
MODEL 4
REMARK VINA RESULT:      -0.5      0.551      4.684
REMARK  3 active torsions:
REMARK  status: ('A' for Active; 'I' for Inactive)
REMARK    1  A    between atoms: C5_5  and  S7_7 
REMARK    2  A    between atoms: C6_6  and  S8_8 
REMARK    3  A    between atoms: S7_7  and  S8_8 
ROOT
HETATM    1  S7  UNL     1     -31.971   8.192   2.091  1.00 20.00    -0.093 SA
ENDROOT
BRANCH   1   2
HETATM    2  C5  UNL     1     -32.354   9.003   0.502  1.00 20.00     0.050 C 
HETATM    3  C1  UNL     1     -32.769  10.448   0.748  1.00 20.00     0.022 C 
HETATM    4  C2  UNL     1     -31.145   8.920  -0.422  1.00 20.00     0.022 C 
ENDBRANCH   1   2
BRANCH   1   5
HETATM    5  S8  UNL     1     -33.283   6.614   2.066  1.00 20.00    -0.093 SA
BRANCH   5   6
HETATM    6  C6  UNL     1     -33.928   6.641   3.756  1.00 20.00     0.050 C 
HETATM    7  C3  UNL     1     -33.737   8.029   4.356  1.00 20.00     0.022 C 
HETATM    8  C4  UNL     1     -35.396   6.233   3.754  1.00 20.00     0.022 C 
ENDBRANCH   5   6
ENDBRANCH   1   5
TORSDOF 3
ENDMDL
MODEL 5
REMARK VINA RESULT:       0.0      1.222      1.526
REMARK  3 active torsions:
REMARK  status: ('A' for Active; 'I' for Inactive)
REMARK    1  A    between atoms: C5_5  and  S7_7 
REMARK    2  A    between atoms: C6_6  and  S8_8 
REMARK    3  A    between atoms: S7_7  and  S8_8 
ROOT
HETATM    1  S7  UNL     1     -32.963   8.130   3.359  1.00 20.00    -0.093 SA
ENDROOT
BRANCH   1   2
HETATM    2  C5  UNL     1     -33.579   6.413   3.336  1.00 20.00     0.050 C 
HETATM    3  C1  UNL     1     -35.053   6.390   3.720  1.00 20.00     0.022 C 
HETATM    4  C2  UNL     1     -33.353   5.804   1.957  1.00 20.00     0.022 C 
ENDBRANCH   1   2
BRANCH   1   5
HETATM    5  S8  UNL     1     -31.828   8.175   1.649  1.00 20.00    -0.093 SA
BRANCH   5   6
HETATM    6  C6  UNL     1     -32.754   9.340   0.621  1.00 20.00     0.050 C 
HETATM    7  C3  UNL     1     -32.622  10.747   1.192  1.00 20.00     0.022 C 
HETATM    8  C4  UNL     1     -32.249   9.273  -0.816  1.00 20.00     0.022 C 
ENDBRANCH   5   6
ENDBRANCH   1   5
TORSDOF 3
ENDMDL
MODEL 6
REMARK VINA RESULT:       0.0      1.194      4.501
REMARK  3 active torsions:
REMARK  status: ('A' for Active; 'I' for Inactive)
REMARK    1  A    between atoms: C5_5  and  S7_7 
REMARK    2  A    between atoms: C6_6  and  S8_8 
REMARK    3  A    between atoms: S7_7  and  S8_8 
ROOT
HETATM    1  S7  UNL     1     -31.853   8.184   1.724  1.00 20.00    -0.093 SA
ENDROOT
BRANCH   1   2
HETATM    2  C5  UNL     1     -32.760   9.326   0.628  1.00 20.00     0.050 C 
HETATM    3  C1  UNL     1     -32.671  10.745   1.176  1.00 20.00     0.022 C 
HETATM    4  C2  UNL     1     -32.197   9.239  -0.786  1.00 20.00     0.022 C 
ENDBRANCH   1   2
BRANCH   1   5
HETATM    5  S8  UNL     1     -33.088   8.131   3.363  1.00 20.00    -0.093 SA
BRANCH   5   6
HETATM    6  C6  UNL     1     -33.629   6.405   3.363  1.00 20.00     0.050 C 
HETATM    7  C3  UNL     1     -35.104   6.329   3.740  1.00 20.00     0.022 C 
HETATM    8  C4  UNL     1     -33.373   5.785   1.994  1.00 20.00     0.022 C 
ENDBRANCH   5   6
ENDBRANCH   1   5
TORSDOF 3
ENDMDL
MODEL 7
REMARK VINA RESULT:       0.1      1.162      4.363
REMARK  3 active torsions:
REMARK  status: ('A' for Active; 'I' for Inactive)
REMARK    1  A    between atoms: C5_5  and  S7_7 
REMARK    2  A    between atoms: C6_6  and  S8_8 
REMARK    3  A    between atoms: S7_7  and  S8_8 
ROOT
HETATM    1  S7  UNL     1     -32.745   6.623   1.098  1.00 20.00    -0.093 SA
ENDROOT
BRANCH   1   2
HETATM    2  C5  UNL     1     -32.375   8.345   1.574  1.00 20.00     0.050 C 
HETATM    3  C1  UNL     1     -31.108   8.384   2.419  1.00 20.00     0.022 C 
HETATM    4  C2  UNL     1     -32.238   9.206   0.324  1.00 20.00     0.022 C 
ENDBRANCH   1   2
BRANCH   1   5
HETATM    5  S8  UNL     1     -33.096   5.764   2.929  1.00 20.00    -0.093 SA
BRANCH   5   6
HETATM    6  C6  UNL     1     -34.440   6.792   3.568  1.00 20.00     0.050 C 
HETATM    7  C3  UNL     1     -35.517   5.907   4.183  1.00 20.00     0.022 C 
HETATM    8  C4  UNL     1     -33.888   7.786   4.585  1.00 20.00     0.022 C 
ENDBRANCH   5   6
ENDBRANCH   1   5
TORSDOF 3
ENDMDL
MODEL 8
REMARK VINA RESULT:       0.1      1.381      2.076
REMARK  3 active torsions:
REMARK  status: ('A' for Active; 'I' for Inactive)
REMARK    1  A    between atoms: C5_5  and  S7_7 
REMARK    2  A    between atoms: C6_6  and  S8_8 
REMARK    3  A    between atoms: S7_7  and  S8_8 
ROOT
HETATM    1  S7  UNL     1     -33.581   5.449   1.738  1.00 20.00    -0.093 SA
ENDROOT
BRANCH   1   2
HETATM    2  C5  UNL     1     -33.825   5.548   3.544  1.00 20.00     0.050 C 
HETATM    3  C1  UNL     1     -35.016   6.447   3.853  1.00 20.00     0.022 C 
HETATM    4  C2  UNL     1     -34.021   4.149   4.114  1.00 20.00     0.022 C 
ENDBRANCH   1   2
BRANCH   1   5
HETATM    5  S8  UNL     1     -31.853   6.532   1.504  1.00 20.00    -0.093 SA
BRANCH   5   6
HETATM    6  C6  UNL     1     -32.410   8.207   1.901  1.00 20.00     0.050 C 
HETATM    7  C3  UNL     1     -31.747   8.677   3.191  1.00 20.00     0.022 C 
HETATM    8  C4  UNL     1     -32.094   9.143   0.740  1.00 20.00     0.022 C 
ENDBRANCH   5   6
ENDBRANCH   1   5
TORSDOF 3
ENDMDL
MODEL 9
REMARK VINA RESULT:       0.1      1.388      4.472
REMARK  3 active torsions:
REMARK  status: ('A' for Active; 'I' for Inactive)
REMARK    1  A    between atoms: C5_5  and  S7_7 
REMARK    2  A    between atoms: C6_6  and  S8_8 
REMARK    3  A    between atoms: S7_7  and  S8_8 
ROOT
HETATM    1  S7  UNL     1     -31.852   6.525   1.487  1.00 20.00    -0.093 SA
ENDROOT
BRANCH   1   2
HETATM    2  C5  UNL     1     -32.404   8.214   1.903  1.00 20.00     0.050 C 
HETATM    3  C1  UNL     1     -31.723   8.677   3.185  1.00 20.00     0.022 C 
HETATM    4  C2  UNL     1     -32.103   9.154   0.742  1.00 20.00     0.022 C 
ENDBRANCH   1   2
BRANCH   1   5
HETATM    5  S8  UNL     1     -33.588   5.459   1.741  1.00 20.00    -0.093 SA
BRANCH   5   6
HETATM    6  C6  UNL     1     -33.821   5.552   3.533  1.00 20.00     0.050 C 
HETATM    7  C3  UNL     1     -35.015   6.443   3.850  1.00 20.00     0.022 C 
HETATM    8  C4  UNL     1     -34.005   4.150   4.101  1.00 20.00     0.022 C 
ENDBRANCH   5   6
ENDBRANCH   1   5
TORSDOF 3
ENDMDL
