MODEL 1
REMARK VINA RESULT:      -2.6      0.000      0.000
REMARK  0 active torsions:
REMARK  status: ('A' for Active; 'I' for Inactive)
ROOT
HETATM    1  C1  UNL     1     -33.713   5.508   2.548  1.00 20.00     0.007 A 
HETATM    2  C2  UNL     1     -32.807   6.244   1.784  1.00 20.00     0.007 A 
HETATM    3  C3  UNL     1     -34.096   7.435   3.953  1.00 20.00     0.007 A 
HETATM    4  C4  UNL     1     -33.189   8.171   3.190  1.00 20.00     0.007 A 
HETATM    5  C5  UNL     1     -34.358   6.103   3.631  1.00 20.00    -0.062 A 
HETATM    6  C6  UNL     1     -32.545   7.576   2.106  1.00 20.00    -0.062 A 
HETATM    7  C7  UNL     1     -35.327   5.317   4.447  1.00 20.00     0.048 C 
HETATM    8  C8  UNL     1     -31.573   8.362   1.291  1.00 20.00     0.048 C 
ENDROOT
TORSDOF 0
ENDMDL
MODEL 2
REMARK VINA RESULT:      -2.6      0.012      1.708
REMARK  0 active torsions:
REMARK  status: ('A' for Active; 'I' for Inactive)
ROOT
HETATM    1  C1  UNL     1     -34.094   7.432   3.943  1.00 20.00     0.007 A 
HETATM    2  C2  UNL     1     -33.190   8.171   3.180  1.00 20.00     0.007 A 
HETATM    3  C3  UNL     1     -33.702   5.504   2.541  1.00 20.00     0.007 A 
HETATM    4  C4  UNL     1     -32.799   6.243   1.777  1.00 20.00     0.007 A 
HETATM    5  C5  UNL     1     -34.350   6.099   3.624  1.00 20.00    -0.062 A 
HETATM    6  C6  UNL     1     -32.542   7.577   2.097  1.00 20.00    -0.062 A 
HETATM    7  C7  UNL     1     -35.315   5.308   4.440  1.00 20.00     0.048 C 
HETATM    8  C8  UNL     1     -31.578   8.369   1.279  1.00 20.00     0.048 C 
ENDROOT
TORSDOF 0
ENDMDL
MODEL 3
REMARK VINA RESULT:      -2.6      0.012      3.354
REMARK  0 active torsions:
REMARK  status: ('A' for Active; 'I' for Inactive)
ROOT
HETATM    1  C1  UNL     1     -32.804   6.241   1.775  1.00 20.00     0.007 A 
HETATM    2  C2  UNL     1     -33.711   5.507   2.540  1.00 20.00     0.007 A 
HETATM    3  C3  UNL     1     -33.176   8.169   3.182  1.00 20.00     0.007 A 
HETATM    4  C4  UNL     1     -34.083   7.436   3.946  1.00 20.00     0.007 A 
HETATM    5  C5  UNL     1     -32.537   7.571   2.096  1.00 20.00    -0.062 A 
HETATM    6  C6  UNL     1     -34.350   6.105   3.626  1.00 20.00    -0.062 A 
HETATM    7  C7  UNL     1     -31.567   8.356   1.278  1.00 20.00     0.048 C 
HETATM    8  C8  UNL     1     -35.322   5.321   4.442  1.00 20.00     0.048 C 
ENDROOT
TORSDOF 0
ENDMDL
MODEL 4
REMARK VINA RESULT:      -2.6      0.022      3.764
REMARK  0 active torsions:
REMARK  status: ('A' for Active; 'I' for Inactive)
ROOT
HETATM    1  C1  UNL     1     -33.194   8.185   3.201  1.00 20.00     0.007 A 
HETATM    2  C2  UNL     1     -34.095   7.438   3.961  1.00 20.00     0.007 A 
HETATM    3  C3  UNL     1     -32.802   6.269   1.782  1.00 20.00     0.007 A 
HETATM    4  C4  UNL     1     -33.702   5.523   2.542  1.00 20.00     0.007 A 
HETATM    5  C5  UNL     1     -32.548   7.601   2.112  1.00 20.00    -0.062 A 
HETATM    6  C6  UNL     1     -34.349   6.107   3.631  1.00 20.00    -0.062 A 
HETATM    7  C7  UNL     1     -31.586   8.398   1.299  1.00 20.00     0.048 C 
HETATM    8  C8  UNL     1     -35.311   5.308   4.445  1.00 20.00     0.048 C 
ENDROOT
TORSDOF 0
ENDMDL
MODEL 5
REMARK VINA RESULT:      -1.4      0.943      2.467
REMARK  0 active torsions:
REMARK  status: ('A' for Active; 'I' for Inactive)
ROOT
HETATM    1  C1  UNL     1     -32.557   7.928   2.800  1.00 20.00     0.007 A 
HETATM    2  C2  UNL     1     -32.156   7.095   1.755  1.00 20.00     0.007 A 
HETATM    3  C3  UNL     1     -34.092   6.227   3.567  1.00 20.00     0.007 A 
HETATM    4  C4  UNL     1     -33.692   5.395   2.522  1.00 20.00     0.007 A 
HETATM    5  C5  UNL     1     -33.524   7.494   3.706  1.00 20.00    -0.062 A 
HETATM    6  C6  UNL     1     -32.724   5.828   1.616  1.00 20.00    -0.062 A 
HETATM    7  C7  UNL     1     -33.952   8.384   4.823  1.00 20.00     0.048 C 
HETATM    8  C8  UNL     1     -32.297   4.939   0.496  1.00 20.00     0.048 C 
ENDROOT
TORSDOF 0
ENDMDL
MODEL 6
REMARK VINA RESULT:      -1.4      0.942      3.041
REMARK  0 active torsions:
REMARK  status: ('A' for Active; 'I' for Inactive)
ROOT
HETATM    1  C1  UNL     1     -32.158   7.096   1.755  1.00 20.00     0.007 A 
HETATM    2  C2  UNL     1     -32.557   7.929   2.801  1.00 20.00     0.007 A 
HETATM    3  C3  UNL     1     -33.694   5.396   2.521  1.00 20.00     0.007 A 
HETATM    4  C4  UNL     1     -34.093   6.228   3.567  1.00 20.00     0.007 A 
HETATM    5  C5  UNL     1     -32.726   5.830   1.615  1.00 20.00    -0.062 A 
HETATM    6  C6  UNL     1     -33.525   7.494   3.707  1.00 20.00    -0.062 A 
HETATM    7  C7  UNL     1     -32.299   4.940   0.498  1.00 20.00     0.048 C 
HETATM    8  C8  UNL     1     -33.951   8.384   4.826  1.00 20.00     0.048 C 
ENDROOT
TORSDOF 0
ENDMDL
MODEL 7
REMARK VINA RESULT:      -1.4      0.943      2.297
REMARK  0 active torsions:
REMARK  status: ('A' for Active; 'I' for Inactive)
ROOT
HETATM    1  C1  UNL     1     -34.091   6.229   3.566  1.00 20.00     0.007 A 
HETATM    2  C2  UNL     1     -33.691   5.397   2.520  1.00 20.00     0.007 A 
HETATM    3  C3  UNL     1     -32.555   7.930   2.801  1.00 20.00     0.007 A 
HETATM    4  C4  UNL     1     -32.155   7.098   1.756  1.00 20.00     0.007 A 
HETATM    5  C5  UNL     1     -33.524   7.495   3.706  1.00 20.00    -0.062 A 
HETATM    6  C6  UNL     1     -32.722   5.832   1.615  1.00 20.00    -0.062 A 
HETATM    7  C7  UNL     1     -33.952   8.385   4.824  1.00 20.00     0.048 C 
HETATM    8  C8  UNL     1     -32.293   4.941   0.498  1.00 20.00     0.048 C 
ENDROOT
TORSDOF 0
ENDMDL
MODEL 8
REMARK VINA RESULT:      -1.4      0.943      2.907
REMARK  0 active torsions:
REMARK  status: ('A' for Active; 'I' for Inactive)
ROOT
HETATM    1  C1  UNL     1     -33.688   5.396   2.519  1.00 20.00     0.007 A 
HETATM    2  C2  UNL     1     -34.090   6.228   3.565  1.00 20.00     0.007 A 
HETATM    3  C3  UNL     1     -32.153   7.098   1.754  1.00 20.00     0.007 A 
HETATM    4  C4  UNL     1     -32.555   7.929   2.799  1.00 20.00     0.007 A 
HETATM    5  C5  UNL     1     -32.721   5.831   1.614  1.00 20.00    -0.062 A 
HETATM    6  C6  UNL     1     -33.522   7.495   3.705  1.00 20.00    -0.062 A 
HETATM    7  C7  UNL     1     -32.292   4.942   0.496  1.00 20.00     0.048 C 
HETATM    8  C8  UNL     1     -33.953   8.385   4.822  1.00 20.00     0.048 C 
ENDROOT
TORSDOF 0
ENDMDL
MODEL 9
REMARK VINA RESULT:      -0.7      1.036      1.219
REMARK  0 active torsions:
REMARK  status: ('A' for Active; 'I' for Inactive)
ROOT
HETATM    1  C1  UNL     1     -32.268   5.529   2.014  1.00 20.00     0.007 A 
HETATM    2  C2  UNL     1     -31.821   6.669   1.345  1.00 20.00     0.007 A 
HETATM    3  C3  UNL     1     -33.834   6.877   3.267  1.00 20.00     0.007 A 
HETATM    4  C4  UNL     1     -33.387   8.016   2.599  1.00 20.00     0.007 A 
HETATM    5  C5  UNL     1     -33.273   5.633   2.974  1.00 20.00    -0.062 A 
HETATM    6  C6  UNL     1     -32.381   7.913   1.638  1.00 20.00    -0.062 A 
HETATM    7  C7  UNL     1     -33.751   4.414   3.688  1.00 20.00     0.048 C 
HETATM    8  C8  UNL     1     -31.901   9.133   0.924  1.00 20.00     0.048 C 
ENDROOT
TORSDOF 0
ENDMDL
