MODEL 1
REMARK VINA RESULT:      -2.9      0.000      0.000
REMARK  1 active torsions:
REMARK  status: ('A' for Active; 'I' for Inactive)
REMARK    1  A    between atoms: C6_6  and  C9_9 
ROOT
HETATM    1  C1  UNL     1     -34.637   6.160   3.907  1.00 20.00     0.001 A 
HETATM    2  C2  UNL     1     -34.330   7.497   4.156  1.00 20.00     0.001 A 
HETATM    3  C3  UNL     1     -33.980   5.472   2.885  1.00 20.00     0.007 A 
HETATM    4  C4  UNL     1     -33.368   8.148   3.385  1.00 20.00     0.007 A 
HETATM    5  C5  UNL     1     -33.017   6.122   2.114  1.00 20.00    -0.056 A 
HETATM    6  C6  UNL     1     -32.711   7.460   2.363  1.00 20.00    -0.053 A 
HETATM    7  C7  UNL     1     -32.327   5.366   1.028  1.00 20.00     0.049 C 
ENDROOT
BRANCH   6   8
HETATM    8  C9  UNL     1     -31.684   8.178   1.550  1.00 20.00     0.034 C 
HETATM    9  C8  UNL     1     -32.291   9.298   0.711  1.00 20.00     0.010 C 
ENDBRANCH   6   8
TORSDOF 1
ENDMDL
MODEL 2
REMARK VINA RESULT:      -2.6      1.026      4.022
REMARK  1 active torsions:
REMARK  status: ('A' for Active; 'I' for Inactive)
REMARK    1  A    between atoms: C6_6  and  C9_9 
ROOT
HETATM    1  C1  UNL     1     -31.934   7.646   1.565  1.00 20.00     0.001 A 
HETATM    2  C2  UNL     1     -32.227   6.339   1.177  1.00 20.00     0.001 A 
HETATM    3  C3  UNL     1     -32.503   8.174   2.725  1.00 20.00     0.007 A 
HETATM    4  C4  UNL     1     -33.088   5.559   1.947  1.00 20.00     0.007 A 
HETATM    5  C5  UNL     1     -33.365   7.394   3.495  1.00 20.00    -0.056 A 
HETATM    6  C6  UNL     1     -33.658   6.086   3.106  1.00 20.00    -0.053 A 
HETATM    7  C7  UNL     1     -33.962   7.979   4.732  1.00 20.00     0.049 C 
ENDROOT
BRANCH   6   8
HETATM    8  C9  UNL     1     -34.578   5.232   3.915  1.00 20.00     0.034 C 
HETATM    9  C8  UNL     1     -33.951   3.890   4.278  1.00 20.00     0.010 C 
ENDBRANCH   6   8
TORSDOF 1
ENDMDL
MODEL 3
REMARK VINA RESULT:      -1.7      0.552      2.659
REMARK  1 active torsions:
REMARK  status: ('A' for Active; 'I' for Inactive)
REMARK    1  A    between atoms: C6_6  and  C9_9 
ROOT
HETATM    1  C1  UNL     1     -34.516   7.308   4.231  1.00 20.00     0.001 A 
HETATM    2  C2  UNL     1     -34.684   5.946   3.979  1.00 20.00     0.001 A 
HETATM    3  C3  UNL     1     -33.592   8.046   3.491  1.00 20.00     0.007 A 
HETATM    4  C4  UNL     1     -33.928   5.322   2.987  1.00 20.00     0.007 A 
HETATM    5  C5  UNL     1     -32.836   7.422   2.499  1.00 20.00    -0.056 A 
HETATM    6  C6  UNL     1     -33.003   6.060   2.247  1.00 20.00    -0.053 A 
HETATM    7  C7  UNL     1     -31.853   8.231   1.719  1.00 20.00     0.049 C 
ENDROOT
BRANCH   6   8
HETATM    8  C9  UNL     1     -32.204   5.369   1.191  1.00 20.00     0.034 C 
HETATM    9  C8  UNL     1     -33.085   4.608   0.205  1.00 20.00     0.010 C 
ENDBRANCH   6   8
TORSDOF 1
ENDMDL
MODEL 4
REMARK VINA RESULT:      -1.5      1.055      3.288
REMARK  1 active torsions:
REMARK  status: ('A' for Active; 'I' for Inactive)
REMARK    1  A    between atoms: C6_6  and  C9_9 
ROOT
HETATM    1  C1  UNL     1     -32.920   8.367   2.894  1.00 20.00     0.001 A 
HETATM    2  C2  UNL     1     -33.794   8.019   3.923  1.00 20.00     0.001 A 
HETATM    3  C3  UNL     1     -32.459   7.391   2.009  1.00 20.00     0.007 A 
HETATM    4  C4  UNL     1     -34.208   6.695   4.069  1.00 20.00     0.007 A 
HETATM    5  C5  UNL     1     -32.873   6.068   2.155  1.00 20.00    -0.056 A 
HETATM    6  C6  UNL     1     -33.747   5.719   3.185  1.00 20.00    -0.053 A 
HETATM    7  C7  UNL     1     -32.368   5.040   1.197  1.00 20.00     0.049 C 
ENDROOT
BRANCH   6   8
HETATM    8  C9  UNL     1     -34.204   4.308   3.361  1.00 20.00     0.034 C 
HETATM    9  C8  UNL     1     -33.482   3.606   4.507  1.00 20.00     0.010 C 
ENDBRANCH   6   8
TORSDOF 1
ENDMDL
MODEL 5
REMARK VINA RESULT:      -1.4      0.969      3.169
REMARK  1 active torsions:
REMARK  status: ('A' for Active; 'I' for Inactive)
REMARK    1  A    between atoms: C6_6  and  C9_9 
ROOT
HETATM    1  C1  UNL     1     -32.008   8.450   2.082  1.00 20.00     0.001 A 
HETATM    2  C2  UNL     1     -32.780   8.542   3.239  1.00 20.00     0.001 A 
HETATM    3  C3  UNL     1     -31.966   7.255   1.363  1.00 20.00     0.007 A 
HETATM    4  C4  UNL     1     -33.511   7.439   3.679  1.00 20.00     0.007 A 
HETATM    5  C5  UNL     1     -32.697   6.152   1.803  1.00 20.00    -0.056 A 
HETATM    6  C6  UNL     1     -33.470   6.243   2.961  1.00 20.00    -0.053 A 
HETATM    7  C7  UNL     1     -32.638   4.883   1.018  1.00 20.00     0.049 C 
ENDROOT
BRANCH   6   8
HETATM    8  C9  UNL     1     -34.261   5.075   3.452  1.00 20.00     0.034 C 
HETATM    9  C8  UNL     1     -35.391   5.494   4.386  1.00 20.00     0.010 C 
ENDBRANCH   6   8
TORSDOF 1
ENDMDL
MODEL 6
REMARK VINA RESULT:      -1.3      0.983      3.071
REMARK  1 active torsions:
REMARK  status: ('A' for Active; 'I' for Inactive)
REMARK    1  A    between atoms: C6_6  and  C9_9 
ROOT
HETATM    1  C1  UNL     1     -31.984   6.286   1.043  1.00 20.00     0.001 A 
HETATM    2  C2  UNL     1     -31.863   7.623   1.418  1.00 20.00     0.001 A 
HETATM    3  C3  UNL     1     -32.810   5.429   1.772  1.00 20.00     0.007 A 
HETATM    4  C4  UNL     1     -32.566   8.105   2.521  1.00 20.00     0.007 A 
HETATM    5  C5  UNL     1     -33.514   5.911   2.875  1.00 20.00    -0.056 A 
HETATM    6  C6  UNL     1     -33.392   7.249   3.250  1.00 20.00    -0.053 A 
HETATM    7  C7  UNL     1     -34.392   4.977   3.639  1.00 20.00     0.049 C 
ENDROOT
BRANCH   6   8
HETATM    8  C9  UNL     1     -34.136   7.788   4.428  1.00 20.00     0.034 C 
HETATM    9  C8  UNL     1     -33.206   8.416   5.460  1.00 20.00     0.010 C 
ENDBRANCH   6   8
TORSDOF 1
ENDMDL
MODEL 7
REMARK VINA RESULT:      -1.3      0.793      2.441
REMARK  1 active torsions:
REMARK  status: ('A' for Active; 'I' for Inactive)
REMARK    1  A    between atoms: C6_6  and  C9_9 
ROOT
HETATM    1  C1  UNL     1     -33.516   4.913   2.452  1.00 20.00     0.001 A 
HETATM    2  C2  UNL     1     -32.651   5.232   1.405  1.00 20.00     0.001 A 
HETATM    3  C3  UNL     1     -33.916   5.901   3.353  1.00 20.00     0.007 A 
HETATM    4  C4  UNL     1     -32.185   6.538   1.259  1.00 20.00     0.007 A 
HETATM    5  C5  UNL     1     -33.451   7.207   3.207  1.00 20.00    -0.056 A 
HETATM    6  C6  UNL     1     -32.584   7.526   2.160  1.00 20.00    -0.053 A 
HETATM    7  C7  UNL     1     -33.892   8.248   4.181  1.00 20.00     0.049 C 
ENDROOT
BRANCH   6   8
HETATM    8  C9  UNL     1     -32.072   8.918   1.984  1.00 20.00     0.034 C 
HETATM    9  C8  UNL     1     -32.354   9.466   0.589  1.00 20.00     0.010 C 
ENDBRANCH   6   8
TORSDOF 1
ENDMDL
MODEL 8
REMARK VINA RESULT:      -0.6      1.088      3.069
REMARK  1 active torsions:
REMARK  status: ('A' for Active; 'I' for Inactive)
REMARK    1  A    between atoms: C6_6  and  C9_9 
ROOT
HETATM    1  C1  UNL     1     -32.358   8.719   3.745  1.00 20.00     0.001 A 
HETATM    2  C2  UNL     1     -31.648   8.444   2.577  1.00 20.00     0.001 A 
HETATM    3  C3  UNL     1     -33.423   7.900   4.124  1.00 20.00     0.007 A 
HETATM    4  C4  UNL     1     -32.000   7.351   1.787  1.00 20.00     0.007 A 
HETATM    5  C5  UNL     1     -33.776   6.807   3.333  1.00 20.00    -0.056 A 
HETATM    6  C6  UNL     1     -33.065   6.532   2.164  1.00 20.00    -0.053 A 
HETATM    7  C7  UNL     1     -34.918   5.944   3.757  1.00 20.00     0.049 C 
ENDROOT
BRANCH   6   8
HETATM    8  C9  UNL     1     -33.425   5.368   1.301  1.00 20.00     0.034 C 
HETATM    9  C8  UNL     1     -32.208   4.764   0.609  1.00 20.00     0.010 C 
ENDBRANCH   6   8
TORSDOF 1
ENDMDL
MODEL 9
REMARK VINA RESULT:      -0.3      1.251      2.669
REMARK  1 active torsions:
REMARK  status: ('A' for Active; 'I' for Inactive)
REMARK    1  A    between atoms: C6_6  and  C9_9 
ROOT
HETATM    1  C1  UNL     1     -34.816   4.621   4.540  1.00 20.00     0.001 A 
HETATM    2  C2  UNL     1     -33.862   4.040   3.705  1.00 20.00     0.001 A 
HETATM    3  C3  UNL     1     -35.094   5.985   4.441  1.00 20.00     0.007 A 
HETATM    4  C4  UNL     1     -33.185   4.823   2.770  1.00 20.00     0.007 A 
HETATM    5  C5  UNL     1     -34.416   6.767   3.506  1.00 20.00    -0.056 A 
HETATM    6  C6  UNL     1     -33.461   6.186   2.671  1.00 20.00    -0.053 A 
HETATM    7  C7  UNL     1     -34.730   8.224   3.417  1.00 20.00     0.049 C 
ENDROOT
BRANCH   6   8
HETATM    8  C9  UNL     1     -32.723   7.004   1.662  1.00 20.00     0.034 C 
HETATM    9  C8  UNL     1     -31.685   7.917   2.307  1.00 20.00     0.010 C 
ENDBRANCH   6   8
TORSDOF 1
ENDMDL
