MODEL 1
REMARK VINA RESULT:      -2.6      0.000      0.000
REMARK  0 active torsions:
REMARK  status: ('A' for Active; 'I' for Inactive)
ROOT
HETATM    1  C1  UNL     1     -32.568   8.161   2.737  1.00 20.00     0.001 A 
HETATM    2  C2  UNL     1     -32.036   7.270   1.806  1.00 20.00     0.007 A 
HETATM    3  C3  UNL     1     -33.643   7.773   3.538  1.00 20.00     0.007 A 
HETATM    4  C4  UNL     1     -33.652   5.603   2.476  1.00 20.00     0.013 A 
HETATM    5  C5  UNL     1     -32.578   5.990   1.675  1.00 20.00    -0.061 A 
HETATM    6  C6  UNL     1     -34.185   6.494   3.408  1.00 20.00    -0.061 A 
HETATM    7  C7  UNL     1     -32.007   5.038   0.680  1.00 20.00     0.048 C 
HETATM    8  C8  UNL     1     -35.333   6.080   4.263  1.00 20.00     0.048 C 
ENDROOT
TORSDOF 0
ENDMDL
MODEL 2
REMARK VINA RESULT:      -2.6      0.028      3.028
REMARK  0 active torsions:
REMARK  status: ('A' for Active; 'I' for Inactive)
ROOT
HETATM    1  C1  UNL     1     -32.527   8.155   2.744  1.00 20.00     0.001 A 
HETATM    2  C2  UNL     1     -33.608   7.778   3.542  1.00 20.00     0.007 A 
HETATM    3  C3  UNL     1     -32.008   7.262   1.806  1.00 20.00     0.007 A 
HETATM    4  C4  UNL     1     -33.650   5.617   2.463  1.00 20.00     0.013 A 
HETATM    5  C5  UNL     1     -34.169   6.509   3.401  1.00 20.00    -0.061 A 
HETATM    6  C6  UNL     1     -32.570   5.993   1.665  1.00 20.00    -0.061 A 
HETATM    7  C7  UNL     1     -35.325   6.107   4.254  1.00 20.00     0.048 C 
HETATM    8  C8  UNL     1     -32.015   5.039   0.663  1.00 20.00     0.048 C 
ENDROOT
TORSDOF 0
ENDMDL
MODEL 3
REMARK VINA RESULT:      -2.2      1.489      3.205
REMARK  0 active torsions:
REMARK  status: ('A' for Active; 'I' for Inactive)
ROOT
HETATM    1  C1  UNL     1     -35.355   6.315   4.082  1.00 20.00     0.001 A 
HETATM    2  C2  UNL     1     -35.016   5.015   4.457  1.00 20.00     0.007 A 
HETATM    3  C3  UNL     1     -34.520   7.034   3.226  1.00 20.00     0.007 A 
HETATM    4  C4  UNL     1     -33.008   5.154   3.121  1.00 20.00     0.013 A 
HETATM    5  C5  UNL     1     -33.841   4.434   3.976  1.00 20.00    -0.061 A 
HETATM    6  C6  UNL     1     -33.346   6.453   2.746  1.00 20.00    -0.061 A 
HETATM    7  C7  UNL     1     -33.480   3.044   4.377  1.00 20.00     0.048 C 
HETATM    8  C8  UNL     1     -32.454   7.223   1.832  1.00 20.00     0.048 C 
ENDROOT
TORSDOF 0
ENDMDL
MODEL 4
REMARK VINA RESULT:      -2.2      1.491      2.698
REMARK  0 active torsions:
REMARK  status: ('A' for Active; 'I' for Inactive)
ROOT
HETATM    1  C1  UNL     1     -35.354   6.311   4.082  1.00 20.00     0.001 A 
HETATM    2  C2  UNL     1     -34.520   7.030   3.226  1.00 20.00     0.007 A 
HETATM    3  C3  UNL     1     -35.015   5.011   4.458  1.00 20.00     0.007 A 
HETATM    4  C4  UNL     1     -33.008   5.148   3.122  1.00 20.00     0.013 A 
HETATM    5  C5  UNL     1     -33.346   6.448   2.746  1.00 20.00    -0.061 A 
HETATM    6  C6  UNL     1     -33.842   4.430   3.978  1.00 20.00    -0.061 A 
HETATM    7  C7  UNL     1     -32.453   7.217   1.832  1.00 20.00     0.048 C 
HETATM    8  C8  UNL     1     -33.480   3.040   4.379  1.00 20.00     0.048 C 
ENDROOT
TORSDOF 0
ENDMDL
MODEL 5
REMARK VINA RESULT:      -2.0      0.869      3.441
REMARK  0 active torsions:
REMARK  status: ('A' for Active; 'I' for Inactive)
ROOT
HETATM    1  C1  UNL     1     -32.494   5.299   1.654  1.00 20.00     0.001 A 
HETATM    2  C2  UNL     1     -33.498   5.273   2.622  1.00 20.00     0.007 A 
HETATM    3  C3  UNL     1     -31.963   6.519   1.233  1.00 20.00     0.007 A 
HETATM    4  C4  UNL     1     -33.441   7.685   2.746  1.00 20.00     0.013 A 
HETATM    5  C5  UNL     1     -33.972   6.466   3.168  1.00 20.00    -0.061 A 
HETATM    6  C6  UNL     1     -32.437   7.712   1.780  1.00 20.00    -0.061 A 
HETATM    7  C7  UNL     1     -35.045   6.437   4.203  1.00 20.00     0.048 C 
HETATM    8  C8  UNL     1     -31.870   9.015   1.329  1.00 20.00     0.048 C 
ENDROOT
TORSDOF 0
ENDMDL
MODEL 6
REMARK VINA RESULT:      -2.0      0.864      2.272
REMARK  0 active torsions:
REMARK  status: ('A' for Active; 'I' for Inactive)
ROOT
HETATM    1  C1  UNL     1     -32.522   5.298   1.657  1.00 20.00     0.001 A 
HETATM    2  C2  UNL     1     -31.982   6.513   1.234  1.00 20.00     0.007 A 
HETATM    3  C3  UNL     1     -33.523   5.280   2.629  1.00 20.00     0.007 A 
HETATM    4  C4  UNL     1     -33.444   7.690   2.755  1.00 20.00     0.013 A 
HETATM    5  C5  UNL     1     -32.444   7.710   1.784  1.00 20.00    -0.061 A 
HETATM    6  C6  UNL     1     -33.984   6.476   3.177  1.00 20.00    -0.061 A 
HETATM    7  C7  UNL     1     -31.867   9.008   1.331  1.00 20.00     0.048 C 
HETATM    8  C8  UNL     1     -35.054   6.456   4.216  1.00 20.00     0.048 C 
ENDROOT
TORSDOF 0
ENDMDL
MODEL 7
REMARK VINA RESULT:      -0.6      0.825      2.575
REMARK  0 active torsions:
REMARK  status: ('A' for Active; 'I' for Inactive)
ROOT
HETATM    1  C1  UNL     1     -33.825   6.622   3.391  1.00 20.00     0.001 A 
HETATM    2  C2  UNL     1     -33.403   5.513   2.658  1.00 20.00     0.007 A 
HETATM    3  C3  UNL     1     -33.394   7.901   3.033  1.00 20.00     0.007 A 
HETATM    4  C4  UNL     1     -32.121   6.960   1.208  1.00 20.00     0.013 A 
HETATM    5  C5  UNL     1     -32.551   5.683   1.566  1.00 20.00    -0.061 A 
HETATM    6  C6  UNL     1     -32.543   8.069   1.941  1.00 20.00    -0.061 A 
HETATM    7  C7  UNL     1     -32.102   4.496   0.781  1.00 20.00     0.048 C 
HETATM    8  C8  UNL     1     -32.082   9.435   1.558  1.00 20.00     0.048 C 
ENDROOT
TORSDOF 0
ENDMDL
MODEL 8
REMARK VINA RESULT:      -0.6      0.823      3.086
REMARK  0 active torsions:
REMARK  status: ('A' for Active; 'I' for Inactive)
ROOT
HETATM    1  C1  UNL     1     -33.825   6.623   3.394  1.00 20.00     0.001 A 
HETATM    2  C2  UNL     1     -33.400   7.902   3.033  1.00 20.00     0.007 A 
HETATM    3  C3  UNL     1     -33.398   5.514   2.662  1.00 20.00     0.007 A 
HETATM    4  C4  UNL     1     -32.122   6.963   1.211  1.00 20.00     0.013 A 
HETATM    5  C5  UNL     1     -32.548   8.072   1.941  1.00 20.00    -0.061 A 
HETATM    6  C6  UNL     1     -32.546   5.684   1.571  1.00 20.00    -0.061 A 
HETATM    7  C7  UNL     1     -32.094   9.439   1.557  1.00 20.00     0.048 C 
HETATM    8  C8  UNL     1     -32.091   4.499   0.789  1.00 20.00     0.048 C 
ENDROOT
TORSDOF 0
ENDMDL
MODEL 9
REMARK VINA RESULT:      -0.1      1.306      2.917
REMARK  0 active torsions:
REMARK  status: ('A' for Active; 'I' for Inactive)
ROOT
HETATM    1  C1  UNL     1     -32.708   6.132   1.617  1.00 20.00     0.001 A 
HETATM    2  C2  UNL     1     -33.149   7.288   2.260  1.00 20.00     0.007 A 
HETATM    3  C3  UNL     1     -32.912   4.884   2.208  1.00 20.00     0.007 A 
HETATM    4  C4  UNL     1     -33.995   5.950   4.085  1.00 20.00     0.013 A 
HETATM    5  C5  UNL     1     -33.792   7.197   3.495  1.00 20.00    -0.061 A 
HETATM    6  C6  UNL     1     -33.556   4.793   3.442  1.00 20.00    -0.061 A 
HETATM    7  C7  UNL     1     -34.264   8.434   4.182  1.00 20.00     0.048 C 
HETATM    8  C8  UNL     1     -33.772   3.460   4.074  1.00 20.00     0.048 C 
ENDROOT
TORSDOF 0
ENDMDL
