MODEL 1
REMARK VINA RESULT:      -3.1      0.000      0.000
REMARK  1 active torsions:
REMARK  status: ('A' for Active; 'I' for Inactive)
REMARK    1  A    between atoms: C6_6  and  N9_9 
ROOT
HETATM    1  N8  UNL     1     -32.560   9.927  -0.065  1.00 20.00     0.068 N 
HETATM    2  N9  UNL     1     -31.548   8.341   1.413  1.00 20.00    -0.073 NA
HETATM    3  N10 UNL     1     -32.080   9.168   0.642  1.00 20.00    -0.162 NA
ENDROOT
BRANCH   2   4
HETATM    4  C6  UNL     1     -32.483   7.607   2.151  1.00 20.00     0.093 A 
HETATM    5  C3  UNL     1     -32.783   6.295   1.787  1.00 20.00     0.035 A 
HETATM    6  C1  UNL     1     -33.714   5.563   2.524  1.00 20.00     0.009 A 
HETATM    7  C5  UNL     1     -34.346   6.144   3.624  1.00 20.00    -0.062 A 
HETATM    8  C2  UNL     1     -34.045   7.457   3.988  1.00 20.00     0.009 A 
HETATM    9  C7  UNL     1     -35.342   5.362   4.411  1.00 20.00     0.048 C 
HETATM   10  C4  UNL     1     -33.114   8.189   3.251  1.00 20.00     0.035 A 
ENDBRANCH   2   4
TORSDOF 1
ENDMDL
MODEL 2
REMARK VINA RESULT:      -3.1      0.033      1.529
REMARK  1 active torsions:
REMARK  status: ('A' for Active; 'I' for Inactive)
REMARK    1  A    between atoms: C6_6  and  N9_9 
ROOT
HETATM    1  N8  UNL     1     -32.590   9.949  -0.078  1.00 20.00     0.068 N 
HETATM    2  N9  UNL     1     -31.562   8.364   1.389  1.00 20.00    -0.073 NA
HETATM    3  N10 UNL     1     -32.102   9.191   0.623  1.00 20.00    -0.162 NA
ENDROOT
BRANCH   2   4
HETATM    4  C6  UNL     1     -32.489   7.621   2.127  1.00 20.00     0.093 A 
HETATM    5  C3  UNL     1     -33.133   8.199   3.221  1.00 20.00     0.035 A 
HETATM    6  C1  UNL     1     -34.059   7.460   3.956  1.00 20.00     0.009 A 
HETATM    7  C5  UNL     1     -34.342   6.141   3.596  1.00 20.00    -0.062 A 
HETATM    8  C2  UNL     1     -33.699   5.564   2.501  1.00 20.00     0.009 A 
HETATM    9  C7  UNL     1     -35.332   5.350   4.383  1.00 20.00     0.048 C 
HETATM   10  C4  UNL     1     -32.772   6.304   1.767  1.00 20.00     0.035 A 
ENDBRANCH   2   4
TORSDOF 1
ENDMDL
MODEL 3
REMARK VINA RESULT:      -3.0      3.541      4.586
REMARK  1 active torsions:
REMARK  status: ('A' for Active; 'I' for Inactive)
REMARK    1  A    between atoms: C6_6  and  N9_9 
ROOT
HETATM    1  N8  UNL     1     -33.213   2.818   4.809  1.00 20.00     0.068 N 
HETATM    2  N9  UNL     1     -34.665   4.582   4.098  1.00 20.00    -0.073 NA
HETATM    3  N10 UNL     1     -33.904   3.662   4.468  1.00 20.00    -0.162 NA
ENDROOT
BRANCH   2   4
HETATM    4  C6  UNL     1     -33.995   5.597   3.409  1.00 20.00     0.093 A 
HETATM    5  C3  UNL     1     -33.245   5.291   2.273  1.00 20.00     0.035 A 
HETATM    6  C1  UNL     1     -32.578   6.304   1.584  1.00 20.00     0.009 A 
HETATM    7  C5  UNL     1     -32.661   7.623   2.031  1.00 20.00    -0.062 A 
HETATM    8  C2  UNL     1     -33.412   7.929   3.166  1.00 20.00     0.009 A 
HETATM    9  C7  UNL     1     -31.947   8.706   1.295  1.00 20.00     0.048 C 
HETATM   10  C4  UNL     1     -34.079   6.916   3.855  1.00 20.00     0.035 A 
ENDBRANCH   2   4
TORSDOF 1
ENDMDL
MODEL 4
REMARK VINA RESULT:      -3.0      3.538      4.824
REMARK  1 active torsions:
REMARK  status: ('A' for Active; 'I' for Inactive)
REMARK    1  A    between atoms: C6_6  and  N9_9 
ROOT
HETATM    1  N8  UNL     1     -33.222   2.827   4.804  1.00 20.00     0.068 N 
HETATM    2  N9  UNL     1     -34.674   4.595   4.103  1.00 20.00    -0.073 NA
HETATM    3  N10 UNL     1     -33.913   3.672   4.468  1.00 20.00    -0.162 NA
ENDROOT
BRANCH   2   4
HETATM    4  C6  UNL     1     -34.005   5.609   3.410  1.00 20.00     0.093 A 
HETATM    5  C3  UNL     1     -34.087   6.928   3.856  1.00 20.00     0.035 A 
HETATM    6  C1  UNL     1     -33.418   7.939   3.166  1.00 20.00     0.009 A 
HETATM    7  C5  UNL     1     -32.667   7.631   2.031  1.00 20.00    -0.062 A 
HETATM    8  C2  UNL     1     -32.584   6.311   1.587  1.00 20.00     0.009 A 
HETATM    9  C7  UNL     1     -31.952   8.713   1.294  1.00 20.00     0.048 C 
HETATM   10  C4  UNL     1     -33.254   5.300   2.276  1.00 20.00     0.035 A 
ENDBRANCH   2   4
TORSDOF 1
ENDMDL
MODEL 5
REMARK VINA RESULT:      -0.5      3.336      4.357
REMARK  1 active torsions:
REMARK  status: ('A' for Active; 'I' for Inactive)
REMARK    1  A    between atoms: C6_6  and  N9_9 
ROOT
HETATM    1  N8  UNL     1     -35.746   4.947   4.905  1.00 20.00     0.068 N 
HETATM    2  N9  UNL     1     -33.802   4.526   3.576  1.00 20.00    -0.073 NA
HETATM    3  N10 UNL     1     -34.818   4.750   4.270  1.00 20.00    -0.162 NA
ENDROOT
BRANCH   2   4
HETATM    4  C6  UNL     1     -33.327   5.670   2.926  1.00 20.00     0.093 A 
HETATM    5  C3  UNL     1     -32.595   5.547   1.745  1.00 20.00     0.035 A 
HETATM    6  C1  UNL     1     -32.122   6.688   1.096  1.00 20.00     0.009 A 
HETATM    7  C5  UNL     1     -32.383   7.951   1.628  1.00 20.00    -0.062 A 
HETATM    8  C2  UNL     1     -33.116   8.074   2.808  1.00 20.00     0.009 A 
HETATM    9  C7  UNL     1     -31.877   9.171   0.934  1.00 20.00     0.048 C 
HETATM   10  C4  UNL     1     -33.588   6.933   3.458  1.00 20.00     0.035 A 
ENDBRANCH   2   4
TORSDOF 1
ENDMDL
