MODEL 1
REMARK VINA RESULT:      -2.8      0.000      0.000
REMARK  1 active torsions:
REMARK  status: ('A' for Active; 'I' for Inactive)
REMARK    1  A    between atoms: C6_6  and  C8_8 
ROOT
HETATM    1  C1  UNL     1     -34.372   6.062   3.663  1.00 20.00     0.000 A 
HETATM    2  C2  UNL     1     -34.132   7.395   3.993  1.00 20.00     0.001 A 
HETATM    3  C3  UNL     1     -33.727   5.488   2.568  1.00 20.00     0.001 A 
HETATM    4  C4  UNL     1     -33.247   8.155   3.228  1.00 20.00     0.007 A 
HETATM    5  C5  UNL     1     -32.843   6.247   1.802  1.00 20.00     0.007 A 
HETATM    6  C6  UNL     1     -32.602   7.581   2.132  1.00 20.00    -0.059 A 
ENDROOT
BRANCH   6   7
HETATM    7  C8  UNL     1     -31.657   8.392   1.313  1.00 20.00     0.034 C 
HETATM    8  C7  UNL     1     -32.365   9.496   0.531  1.00 20.00     0.010 C 
ENDBRANCH   6   7
TORSDOF 1
ENDMDL
MODEL 2
REMARK VINA RESULT:      -2.8      0.010      1.708
REMARK  1 active torsions:
REMARK  status: ('A' for Active; 'I' for Inactive)
REMARK    1  A    between atoms: C6_6  and  C8_8 
ROOT
HETATM    1  C1  UNL     1     -34.379   6.059   3.666  1.00 20.00     0.000 A 
HETATM    2  C2  UNL     1     -33.729   5.484   2.575  1.00 20.00     0.001 A 
HETATM    3  C3  UNL     1     -34.144   7.394   3.993  1.00 20.00     0.001 A 
HETATM    4  C4  UNL     1     -32.843   6.244   1.810  1.00 20.00     0.007 A 
HETATM    5  C5  UNL     1     -33.259   8.155   3.229  1.00 20.00     0.007 A 
HETATM    6  C6  UNL     1     -32.609   7.579   2.137  1.00 20.00    -0.059 A 
ENDROOT
BRANCH   6   7
HETATM    7  C8  UNL     1     -31.662   8.393   1.321  1.00 20.00     0.034 C 
HETATM    8  C7  UNL     1     -32.370   9.492   0.533  1.00 20.00     0.010 C 
ENDBRANCH   6   7
TORSDOF 1
ENDMDL
MODEL 3
REMARK VINA RESULT:      -2.7      1.096      3.823
REMARK  1 active torsions:
REMARK  status: ('A' for Active; 'I' for Inactive)
REMARK    1  A    between atoms: C6_6  and  C8_8 
ROOT
HETATM    1  C1  UNL     1     -31.732   7.198   1.442  1.00 20.00     0.000 A 
HETATM    2  C2  UNL     1     -32.346   5.947   1.418  1.00 20.00     0.001 A 
HETATM    3  C3  UNL     1     -32.195   8.185   2.312  1.00 20.00     0.001 A 
HETATM    4  C4  UNL     1     -33.424   5.682   2.262  1.00 20.00     0.007 A 
HETATM    5  C5  UNL     1     -33.273   7.921   3.156  1.00 20.00     0.007 A 
HETATM    6  C6  UNL     1     -33.887   6.669   3.132  1.00 20.00    -0.059 A 
ENDROOT
BRANCH   6   7
HETATM    7  C8  UNL     1     -35.041   6.387   4.035  1.00 20.00     0.034 C 
HETATM    8  C7  UNL     1     -35.094   4.925   4.469  1.00 20.00     0.010 C 
ENDBRANCH   6   7
TORSDOF 1
ENDMDL
MODEL 4
REMARK VINA RESULT:      -2.7      1.077      3.478
REMARK  1 active torsions:
REMARK  status: ('A' for Active; 'I' for Inactive)
REMARK    1  A    between atoms: C6_6  and  C8_8 
ROOT
HETATM    1  C1  UNL     1     -31.849   7.628   1.760  1.00 20.00     0.000 A 
HETATM    2  C2  UNL     1     -32.381   8.403   2.790  1.00 20.00     0.001 A 
HETATM    3  C3  UNL     1     -32.391   6.373   1.480  1.00 20.00     0.001 A 
HETATM    4  C4  UNL     1     -33.454   7.923   3.541  1.00 20.00     0.007 A 
HETATM    5  C5  UNL     1     -33.464   5.894   2.231  1.00 20.00     0.007 A 
HETATM    6  C6  UNL     1     -33.996   6.669   3.261  1.00 20.00    -0.059 A 
ENDROOT
BRANCH   6   7
HETATM    7  C8  UNL     1     -35.143   6.154   4.064  1.00 20.00     0.034 C 
HETATM    8  C7  UNL     1     -34.937   4.709   4.511  1.00 20.00     0.010 C 
ENDBRANCH   6   7
TORSDOF 1
ENDMDL
MODEL 5
REMARK VINA RESULT:      -2.4      1.134      1.750
REMARK  1 active torsions:
REMARK  status: ('A' for Active; 'I' for Inactive)
REMARK    1  A    between atoms: C6_6  and  C8_8 
ROOT
HETATM    1  C1  UNL     1     -35.131   5.160   4.512  1.00 20.00     0.000 A 
HETATM    2  C2  UNL     1     -35.163   6.495   4.108  1.00 20.00     0.001 A 
HETATM    3  C3  UNL     1     -34.183   4.291   3.973  1.00 20.00     0.001 A 
HETATM    4  C4  UNL     1     -34.247   6.960   3.164  1.00 20.00     0.007 A 
HETATM    5  C5  UNL     1     -33.267   4.756   3.029  1.00 20.00     0.007 A 
HETATM    6  C6  UNL     1     -33.299   6.090   2.625  1.00 20.00    -0.059 A 
ENDROOT
BRANCH   6   7
HETATM    7  C8  UNL     1     -32.320   6.586   1.615  1.00 20.00     0.034 C 
HETATM    8  C7  UNL     1     -31.993   8.065   1.801  1.00 20.00     0.010 C 
ENDBRANCH   6   7
TORSDOF 1
ENDMDL
MODEL 6
REMARK VINA RESULT:      -2.3      1.143      2.347
REMARK  1 active torsions:
REMARK  status: ('A' for Active; 'I' for Inactive)
REMARK    1  A    between atoms: C6_6  and  C8_8 
ROOT
HETATM    1  C1  UNL     1     -35.154   5.170   4.534  1.00 20.00     0.000 A 
HETATM    2  C2  UNL     1     -34.201   4.299   4.007  1.00 20.00     0.001 A 
HETATM    3  C3  UNL     1     -35.194   6.498   4.112  1.00 20.00     0.001 A 
HETATM    4  C4  UNL     1     -33.286   4.757   3.059  1.00 20.00     0.007 A 
HETATM    5  C5  UNL     1     -34.279   6.957   3.164  1.00 20.00     0.007 A 
HETATM    6  C6  UNL     1     -33.325   6.086   2.638  1.00 20.00    -0.059 A 
ENDROOT
BRANCH   6   7
HETATM    7  C8  UNL     1     -32.347   6.577   1.624  1.00 20.00     0.034 C 
HETATM    8  C7  UNL     1     -31.995   8.049   1.822  1.00 20.00     0.010 C 
ENDBRANCH   6   7
TORSDOF 1
ENDMDL
MODEL 7
REMARK VINA RESULT:      -2.1      1.091      3.970
REMARK  1 active torsions:
REMARK  status: ('A' for Active; 'I' for Inactive)
REMARK    1  A    between atoms: C6_6  and  C8_8 
ROOT
HETATM    1  C1  UNL     1     -32.578   8.032   2.100  1.00 20.00     0.000 A 
HETATM    2  C2  UNL     1     -32.389   6.711   1.697  1.00 20.00     0.001 A 
HETATM    3  C3  UNL     1     -33.473   8.326   3.129  1.00 20.00     0.001 A 
HETATM    4  C4  UNL     1     -33.095   5.683   2.322  1.00 20.00     0.007 A 
HETATM    5  C5  UNL     1     -34.179   7.298   3.753  1.00 20.00     0.007 A 
HETATM    6  C6  UNL     1     -33.990   5.977   3.350  1.00 20.00    -0.059 A 
ENDROOT
BRANCH   6   7
HETATM    7  C8  UNL     1     -34.746   4.878   4.018  1.00 20.00     0.034 C 
HETATM    8  C7  UNL     1     -33.880   3.648   4.273  1.00 20.00     0.010 C 
ENDBRANCH   6   7
TORSDOF 1
ENDMDL
MODEL 8
REMARK VINA RESULT:      -2.1      1.290      3.692
REMARK  1 active torsions:
REMARK  status: ('A' for Active; 'I' for Inactive)
REMARK    1  A    between atoms: C6_6  and  C8_8 
ROOT
HETATM    1  C1  UNL     1     -32.854   7.984   2.398  1.00 20.00     0.000 A 
HETATM    2  C2  UNL     1     -33.681   8.068   3.517  1.00 20.00     0.001 A 
HETATM    3  C3  UNL     1     -32.551   6.739   1.847  1.00 20.00     0.001 A 
HETATM    4  C4  UNL     1     -34.205   6.908   4.087  1.00 20.00     0.007 A 
HETATM    5  C5  UNL     1     -33.074   5.578   2.416  1.00 20.00     0.007 A 
HETATM    6  C6  UNL     1     -33.901   5.663   3.536  1.00 20.00    -0.059 A 
ENDROOT
BRANCH   6   7
HETATM    7  C8  UNL     1     -34.460   4.421   4.145  1.00 20.00     0.034 C 
HETATM    8  C7  UNL     1     -33.369   3.450   4.589  1.00 20.00     0.010 C 
ENDBRANCH   6   7
TORSDOF 1
ENDMDL
MODEL 9
REMARK VINA RESULT:      -1.5      1.099      3.054
REMARK  1 active torsions:
REMARK  status: ('A' for Active; 'I' for Inactive)
REMARK    1  A    between atoms: C6_6  and  C8_8 
ROOT
HETATM    1  C1  UNL     1     -31.836   6.357   0.946  1.00 20.00     0.000 A 
HETATM    2  C2  UNL     1     -31.777   7.637   1.498  1.00 20.00     0.001 A 
HETATM    3  C3  UNL     1     -32.734   5.420   1.454  1.00 20.00     0.001 A 
HETATM    4  C4  UNL     1     -32.616   7.979   2.558  1.00 20.00     0.007 A 
HETATM    5  C5  UNL     1     -33.574   5.762   2.515  1.00 20.00     0.007 A 
HETATM    6  C6  UNL     1     -33.515   7.041   3.066  1.00 20.00    -0.059 A 
ENDROOT
BRANCH   6   7
HETATM    7  C8  UNL     1     -34.412   7.405   4.201  1.00 20.00     0.034 C 
HETATM    8  C7  UNL     1     -33.706   8.262   5.248  1.00 20.00     0.010 C 
ENDBRANCH   6   7
TORSDOF 1
ENDMDL
