MODEL 1
REMARK VINA RESULT:      -2.2      0.000      0.000
REMARK  0 active torsions:
REMARK  status: ('A' for Active; 'I' for Inactive)
ROOT
HETATM    1  C1  UNL     1     -34.212   6.434   3.566  1.00 20.00     0.000 A 
HETATM    2  C2  UNL     1     -33.758   5.591   2.550  1.00 20.00     0.000 A 
HETATM    3  C3  UNL     1     -33.656   7.704   3.718  1.00 20.00     0.000 A 
HETATM    4  C4  UNL     1     -32.749   6.019   1.687  1.00 20.00     0.000 A 
HETATM    5  C5  UNL     1     -32.647   8.132   2.855  1.00 20.00     0.000 A 
HETATM    6  C6  UNL     1     -32.194   7.290   1.840  1.00 20.00     0.000 A 
ENDROOT
TORSDOF 0
ENDMDL
MODEL 2
REMARK VINA RESULT:      -2.2      0.038      1.367
REMARK  0 active torsions:
REMARK  status: ('A' for Active; 'I' for Inactive)
ROOT
HETATM    1  C1  UNL     1     -33.774   5.610   2.591  1.00 20.00     0.000 A 
HETATM    2  C2  UNL     1     -32.773   6.013   1.706  1.00 20.00     0.000 A 
HETATM    3  C3  UNL     1     -34.206   6.474   3.596  1.00 20.00     0.000 A 
HETATM    4  C4  UNL     1     -32.205   7.282   1.827  1.00 20.00     0.000 A 
HETATM    5  C5  UNL     1     -33.638   7.742   3.718  1.00 20.00     0.000 A 
HETATM    6  C6  UNL     1     -32.638   8.146   2.833  1.00 20.00     0.000 A 
ENDROOT
TORSDOF 0
ENDMDL
MODEL 3
REMARK VINA RESULT:      -2.2      0.042      1.973
REMARK  0 active torsions:
REMARK  status: ('A' for Active; 'I' for Inactive)
ROOT
HETATM    1  C1  UNL     1     -33.775   5.618   2.592  1.00 20.00     0.000 A 
HETATM    2  C2  UNL     1     -34.208   6.482   3.599  1.00 20.00     0.000 A 
HETATM    3  C3  UNL     1     -32.774   6.021   1.709  1.00 20.00     0.000 A 
HETATM    4  C4  UNL     1     -33.638   7.750   3.722  1.00 20.00     0.000 A 
HETATM    5  C5  UNL     1     -32.205   7.289   1.832  1.00 20.00     0.000 A 
HETATM    6  C6  UNL     1     -32.637   8.152   2.839  1.00 20.00     0.000 A 
ENDROOT
TORSDOF 0
ENDMDL
MODEL 4
REMARK VINA RESULT:      -2.2      0.036      1.973
REMARK  0 active torsions:
REMARK  status: ('A' for Active; 'I' for Inactive)
ROOT
HETATM    1  C1  UNL     1     -33.688   7.705   3.691  1.00 20.00     0.000 A 
HETATM    2  C2  UNL     1     -32.689   8.147   2.822  1.00 20.00     0.000 A 
HETATM    3  C3  UNL     1     -34.208   6.418   3.559  1.00 20.00     0.000 A 
HETATM    4  C4  UNL     1     -32.210   7.300   1.822  1.00 20.00     0.000 A 
HETATM    5  C5  UNL     1     -33.729   5.571   2.558  1.00 20.00     0.000 A 
HETATM    6  C6  UNL     1     -32.731   6.013   1.690  1.00 20.00     0.000 A 
ENDROOT
TORSDOF 0
ENDMDL
MODEL 5
REMARK VINA RESULT:      -2.2      0.003      1.973
REMARK  0 active torsions:
REMARK  status: ('A' for Active; 'I' for Inactive)
ROOT
HETATM    1  C1  UNL     1     -34.209   6.432   3.565  1.00 20.00     0.000 A 
HETATM    2  C2  UNL     1     -33.655   7.704   3.716  1.00 20.00     0.000 A 
HETATM    3  C3  UNL     1     -33.755   5.589   2.551  1.00 20.00     0.000 A 
HETATM    4  C4  UNL     1     -32.646   8.132   2.853  1.00 20.00     0.000 A 
HETATM    5  C5  UNL     1     -32.746   6.017   1.688  1.00 20.00     0.000 A 
HETATM    6  C6  UNL     1     -32.192   7.288   1.839  1.00 20.00     0.000 A 
ENDROOT
TORSDOF 0
ENDMDL
MODEL 6
REMARK VINA RESULT:      -2.2      0.040      1.378
REMARK  0 active torsions:
REMARK  status: ('A' for Active; 'I' for Inactive)
ROOT
HETATM    1  C1  UNL     1     -33.684   7.703   3.691  1.00 20.00     0.000 A 
HETATM    2  C2  UNL     1     -34.199   6.414   3.549  1.00 20.00     0.000 A 
HETATM    3  C3  UNL     1     -32.681   8.152   2.832  1.00 20.00     0.000 A 
HETATM    4  C4  UNL     1     -33.710   5.574   2.548  1.00 20.00     0.000 A 
HETATM    5  C5  UNL     1     -32.193   7.313   1.831  1.00 20.00     0.000 A 
HETATM    6  C6  UNL     1     -32.708   6.025   1.688  1.00 20.00     0.000 A 
ENDROOT
TORSDOF 0
ENDMDL
MODEL 7
REMARK VINA RESULT:      -2.2      0.061      2.408
REMARK  0 active torsions:
REMARK  status: ('A' for Active; 'I' for Inactive)
ROOT
HETATM    1  C1  UNL     1     -32.650   8.148   2.804  1.00 20.00     0.000 A 
HETATM    2  C2  UNL     1     -33.644   7.696   3.673  1.00 20.00     0.000 A 
HETATM    3  C3  UNL     1     -32.176   7.313   1.792  1.00 20.00     0.000 A 
HETATM    4  C4  UNL     1     -34.164   6.410   3.530  1.00 20.00     0.000 A 
HETATM    5  C5  UNL     1     -32.697   6.027   1.649  1.00 20.00     0.000 A 
HETATM    6  C6  UNL     1     -33.690   5.575   2.517  1.00 20.00     0.000 A 
ENDROOT
TORSDOF 0
ENDMDL
MODEL 8
REMARK VINA RESULT:      -2.2      0.057      2.399
REMARK  0 active torsions:
REMARK  status: ('A' for Active; 'I' for Inactive)
ROOT
HETATM    1  C1  UNL     1     -32.767   6.019   1.659  1.00 20.00     0.000 A 
HETATM    2  C2  UNL     1     -32.202   7.290   1.775  1.00 20.00     0.000 A 
HETATM    3  C3  UNL     1     -33.745   5.606   2.563  1.00 20.00     0.000 A 
HETATM    4  C4  UNL     1     -32.617   8.148   2.794  1.00 20.00     0.000 A 
HETATM    5  C5  UNL     1     -34.160   6.463   3.582  1.00 20.00     0.000 A 
HETATM    6  C6  UNL     1     -33.596   7.734   3.697  1.00 20.00     0.000 A 
ENDROOT
TORSDOF 0
ENDMDL
MODEL 9
REMARK VINA RESULT:      -2.2      0.108      1.973
REMARK  0 active torsions:
REMARK  status: ('A' for Active; 'I' for Inactive)
ROOT
HETATM    1  C1  UNL     1     -32.788   5.981   1.692  1.00 20.00     0.000 A 
HETATM    2  C2  UNL     1     -33.778   5.632   2.611  1.00 20.00     0.000 A 
HETATM    3  C3  UNL     1     -32.181   7.235   1.763  1.00 20.00     0.000 A 
HETATM    4  C4  UNL     1     -34.161   6.537   3.601  1.00 20.00     0.000 A 
HETATM    5  C5  UNL     1     -32.563   8.140   2.753  1.00 20.00     0.000 A 
HETATM    6  C6  UNL     1     -33.553   7.791   3.672  1.00 20.00     0.000 A 
ENDROOT
TORSDOF 0
ENDMDL
