MODEL 1
REMARK VINA RESULT:      -1.9      0.000      0.000
REMARK  1 active torsions:
REMARK  status: ('A' for Active; 'I' for Inactive)
REMARK    1  A    between atoms: C1_1  and  C8_8 
ROOT
HETATM    1  C1  UNL     1     -32.862   7.464   2.073  1.00 20.00    -0.067 C 
HETATM    2  C2  UNL     1     -32.266   8.249   1.387  1.00 20.00    -0.105 C 
HETATM    3  C9  UNL     1     -31.541   9.205   0.551  1.00 20.00     0.112 C 
ENDROOT
BRANCH   1   4
HETATM    4  C8  UNL     1     -33.574   6.531   2.889  1.00 20.00     0.017 A 
HETATM    5  C6  UNL     1     -33.166   5.199   2.945  1.00 20.00     0.020 A 
HETATM    6  C4  UNL     1     -33.862   4.288   3.741  1.00 20.00     0.001 A 
HETATM    7  C3  UNL     1     -34.966   4.711   4.480  1.00 20.00     0.000 A 
HETATM    8  C5  UNL     1     -35.374   6.044   4.425  1.00 20.00     0.001 A 
HETATM    9  C7  UNL     1     -34.678   6.954   3.629  1.00 20.00     0.020 A 
ENDBRANCH   1   4
TORSDOF 1
ENDMDL
MODEL 2
REMARK VINA RESULT:      -1.9      0.003      1.611
REMARK  1 active torsions:
REMARK  status: ('A' for Active; 'I' for Inactive)
REMARK    1  A    between atoms: C1_1  and  C8_8 
ROOT
HETATM    1  C1  UNL     1     -32.861   7.464   2.074  1.00 20.00    -0.067 C 
HETATM    2  C2  UNL     1     -32.264   8.247   1.387  1.00 20.00    -0.105 C 
HETATM    3  C9  UNL     1     -31.537   9.202   0.551  1.00 20.00     0.112 C 
ENDROOT
BRANCH   1   4
HETATM    4  C8  UNL     1     -33.575   6.533   2.889  1.00 20.00     0.017 A 
HETATM    5  C6  UNL     1     -34.680   6.955   3.628  1.00 20.00     0.020 A 
HETATM    6  C4  UNL     1     -35.376   6.045   4.425  1.00 20.00     0.001 A 
HETATM    7  C3  UNL     1     -34.967   4.713   4.481  1.00 20.00     0.000 A 
HETATM    8  C5  UNL     1     -33.863   4.290   3.741  1.00 20.00     0.001 A 
HETATM    9  C7  UNL     1     -33.167   5.200   2.945  1.00 20.00     0.020 A 
ENDBRANCH   1   4
TORSDOF 1
ENDMDL
MODEL 3
REMARK VINA RESULT:      -0.6      2.133      3.271
REMARK  1 active torsions:
REMARK  status: ('A' for Active; 'I' for Inactive)
REMARK    1  A    between atoms: C1_1  and  C8_8 
ROOT
HETATM    1  C1  UNL     1     -32.076   5.117   1.103  1.00 20.00    -0.067 C 
HETATM    2  C2  UNL     1     -31.522   4.374   0.339  1.00 20.00    -0.105 C 
HETATM    3  C9  UNL     1     -30.846   3.469  -0.590  1.00 20.00     0.112 C 
ENDROOT
BRANCH   1   4
HETATM    4  C8  UNL     1     -32.733   6.000   2.014  1.00 20.00     0.017 A 
HETATM    5  C6  UNL     1     -33.768   5.529   2.820  1.00 20.00     0.020 A 
HETATM    6  C4  UNL     1     -34.409   6.393   3.709  1.00 20.00     0.001 A 
HETATM    7  C3  UNL     1     -34.013   7.728   3.791  1.00 20.00     0.000 A 
HETATM    8  C5  UNL     1     -32.977   8.200   2.985  1.00 20.00     0.001 A 
HETATM    9  C7  UNL     1     -32.337   7.336   2.097  1.00 20.00     0.020 A 
ENDBRANCH   1   4
TORSDOF 1
ENDMDL
MODEL 4
REMARK VINA RESULT:      -0.6      2.132      3.305
REMARK  1 active torsions:
REMARK  status: ('A' for Active; 'I' for Inactive)
REMARK    1  A    between atoms: C1_1  and  C8_8 
ROOT
HETATM    1  C1  UNL     1     -32.077   5.118   1.104  1.00 20.00    -0.067 C 
HETATM    2  C2  UNL     1     -31.523   4.375   0.340  1.00 20.00    -0.105 C 
HETATM    3  C9  UNL     1     -30.849   3.469  -0.589  1.00 20.00     0.112 C 
ENDROOT
BRANCH   1   4
HETATM    4  C8  UNL     1     -32.733   6.002   2.015  1.00 20.00     0.017 A 
HETATM    5  C6  UNL     1     -32.339   7.337   2.099  1.00 20.00     0.020 A 
HETATM    6  C4  UNL     1     -32.981   8.199   2.989  1.00 20.00     0.001 A 
HETATM    7  C3  UNL     1     -34.016   7.725   3.795  1.00 20.00     0.000 A 
HETATM    8  C5  UNL     1     -34.410   6.390   3.711  1.00 20.00     0.001 A 
HETATM    9  C7  UNL     1     -33.769   5.528   2.821  1.00 20.00     0.020 A 
ENDBRANCH   1   4
TORSDOF 1
ENDMDL
MODEL 5
REMARK VINA RESULT:       0.2      1.333      4.581
REMARK  1 active torsions:
REMARK  status: ('A' for Active; 'I' for Inactive)
REMARK    1  A    between atoms: C1_1  and  C8_8 
ROOT
HETATM    1  C1  UNL     1     -33.394   4.194   3.781  1.00 20.00    -0.067 C 
HETATM    2  C2  UNL     1     -33.412   3.077   4.221  1.00 20.00    -0.105 C 
HETATM    3  C9  UNL     1     -33.433   1.716   4.757  1.00 20.00     0.112 C 
ENDROOT
BRANCH   1   4
HETATM    4  C8  UNL     1     -33.369   5.523   3.257  1.00 20.00     0.017 A 
HETATM    5  C6  UNL     1     -34.119   6.528   3.866  1.00 20.00     0.020 A 
HETATM    6  C4  UNL     1     -34.094   7.825   3.354  1.00 20.00     0.001 A 
HETATM    7  C3  UNL     1     -33.318   8.117   2.232  1.00 20.00     0.000 A 
HETATM    8  C5  UNL     1     -32.567   7.113   1.623  1.00 20.00     0.001 A 
HETATM    9  C7  UNL     1     -32.592   5.815   2.135  1.00 20.00     0.020 A 
ENDBRANCH   1   4
TORSDOF 1
ENDMDL
MODEL 6
REMARK VINA RESULT:       0.2      1.306      4.326
REMARK  1 active torsions:
REMARK  status: ('A' for Active; 'I' for Inactive)
REMARK    1  A    between atoms: C1_1  and  C8_8 
ROOT
HETATM    1  C1  UNL     1     -33.435   4.229   3.819  1.00 20.00    -0.067 C 
HETATM    2  C2  UNL     1     -33.435   3.106   4.244  1.00 20.00    -0.105 C 
HETATM    3  C9  UNL     1     -33.433   1.739   4.763  1.00 20.00     0.112 C 
ENDROOT
BRANCH   1   4
HETATM    4  C8  UNL     1     -33.432   5.565   3.313  1.00 20.00     0.017 A 
HETATM    5  C6  UNL     1     -32.672   5.885   2.188  1.00 20.00     0.020 A 
HETATM    6  C4  UNL     1     -32.670   7.191   1.696  1.00 20.00     0.001 A 
HETATM    7  C3  UNL     1     -33.428   8.176   2.329  1.00 20.00     0.000 A 
HETATM    8  C5  UNL     1     -34.188   7.856   3.453  1.00 20.00     0.001 A 
HETATM    9  C7  UNL     1     -34.191   6.551   3.946  1.00 20.00     0.020 A 
ENDBRANCH   1   4
TORSDOF 1
ENDMDL
MODEL 7
REMARK VINA RESULT:       0.7      1.087      4.923
REMARK  1 active torsions:
REMARK  status: ('A' for Active; 'I' for Inactive)
REMARK    1  A    between atoms: C1_1  and  C8_8 
ROOT
HETATM    1  C1  UNL     1     -33.839   6.924   2.979  1.00 20.00    -0.067 C 
HETATM    2  C2  UNL     1     -34.497   6.235   3.709  1.00 20.00    -0.105 C 
HETATM    3  C9  UNL     1     -35.300   5.395   4.598  1.00 20.00     0.112 C 
ENDROOT
BRANCH   1   4
HETATM    4  C8  UNL     1     -33.059   7.745   2.108  1.00 20.00     0.017 A 
HETATM    5  C6  UNL     1     -33.404   9.083   1.914  1.00 20.00     0.020 A 
HETATM    6  C4  UNL     1     -32.641   9.883   1.063  1.00 20.00     0.001 A 
HETATM    7  C3  UNL     1     -31.534   9.346   0.406  1.00 20.00     0.000 A 
HETATM    8  C5  UNL     1     -31.189   8.009   0.600  1.00 20.00     0.001 A 
HETATM    9  C7  UNL     1     -31.951   7.208   1.451  1.00 20.00     0.020 A 
ENDBRANCH   1   4
TORSDOF 1
ENDMDL
MODEL 8
REMARK VINA RESULT:       0.8      1.098      4.649
REMARK  1 active torsions:
REMARK  status: ('A' for Active; 'I' for Inactive)
REMARK    1  A    between atoms: C1_1  and  C8_8 
ROOT
HETATM    1  C1  UNL     1     -33.845   6.924   2.985  1.00 20.00    -0.067 C 
HETATM    2  C2  UNL     1     -34.511   6.246   3.718  1.00 20.00    -0.105 C 
HETATM    3  C9  UNL     1     -35.324   5.420   4.611  1.00 20.00     0.112 C 
ENDROOT
BRANCH   1   4
HETATM    4  C8  UNL     1     -33.054   7.731   2.110  1.00 20.00     0.017 A 
HETATM    5  C6  UNL     1     -31.947   7.181   1.463  1.00 20.00     0.020 A 
HETATM    6  C4  UNL     1     -31.176   7.970   0.609  1.00 20.00     0.001 A 
HETATM    7  C3  UNL     1     -31.511   9.308   0.403  1.00 20.00     0.000 A 
HETATM    8  C5  UNL     1     -32.618   9.858   1.049  1.00 20.00     0.001 A 
HETATM    9  C7  UNL     1     -33.389   9.069   1.903  1.00 20.00     0.020 A 
ENDBRANCH   1   4
TORSDOF 1
ENDMDL
MODEL 9
REMARK VINA RESULT:       0.8      2.019      3.517
REMARK  1 active torsions:
REMARK  status: ('A' for Active; 'I' for Inactive)
REMARK    1  A    between atoms: C1_1  and  C8_8 
ROOT
HETATM    1  C1  UNL     1     -33.340   5.563   1.223  1.00 20.00    -0.067 C 
HETATM    2  C2  UNL     1     -33.429   4.753   0.341  1.00 20.00    -0.105 C 
HETATM    3  C9  UNL     1     -33.539   3.767  -0.734  1.00 20.00     0.112 C 
ENDROOT
BRANCH   1   4
HETATM    4  C8  UNL     1     -33.237   6.527   2.273  1.00 20.00     0.017 A 
HETATM    5  C6  UNL     1     -34.133   6.495   3.341  1.00 20.00     0.020 A 
HETATM    6  C4  UNL     1     -34.032   7.437   4.365  1.00 20.00     0.001 A 
HETATM    7  C3  UNL     1     -33.034   8.411   4.320  1.00 20.00     0.000 A 
HETATM    8  C5  UNL     1     -32.137   8.442   3.253  1.00 20.00     0.001 A 
HETATM    9  C7  UNL     1     -32.238   7.500   2.229  1.00 20.00     0.020 A 
ENDBRANCH   1   4
TORSDOF 1
ENDMDL
