MODEL 1
REMARK VINA RESULT:      -2.2      0.000      0.000
REMARK  0 active torsions:
REMARK  status: ('A' for Active; 'I' for Inactive)
ROOT
HETATM    1  C1  UNL     1     -31.712   7.726   1.561  1.00 20.00     0.001 A 
HETATM    2  C2  UNL     1     -31.849   6.403   1.132  1.00 20.00     0.003 A 
HETATM    3  C3  UNL     1     -32.515   8.241   2.588  1.00 20.00     0.014 A 
HETATM    4  C4  UNL     1     -32.790   5.548   1.712  1.00 20.00     0.038 A 
HETATM    5  C5  UNL     1     -34.438   7.527   4.214  1.00 20.00     0.039 A 
HETATM    6  C6  UNL     1     -35.060   6.305   4.318  1.00 20.00     0.143 A 
HETATM    7  C7  UNL     1     -33.468   7.397   3.185  1.00 20.00    -0.001 A 
HETATM    8  C8  UNL     1     -33.574   6.086   2.730  1.00 20.00     0.085 A 
HETATM    9  O9  UNL     1     -34.544   5.424   3.422  1.00 20.00    -0.322 OA
ENDROOT
TORSDOF 0
ENDMDL
MODEL 2
REMARK VINA RESULT:      -2.0      0.899      1.949
REMARK  0 active torsions:
REMARK  status: ('A' for Active; 'I' for Inactive)
ROOT
HETATM    1  C1  UNL     1     -31.896   6.454   1.131  1.00 20.00     0.001 A 
HETATM    2  C2  UNL     1     -31.733   7.766   1.584  1.00 20.00     0.003 A 
HETATM    3  C3  UNL     1     -32.845   5.601   1.712  1.00 20.00     0.014 A 
HETATM    4  C4  UNL     1     -32.510   8.274   2.629  1.00 20.00     0.038 A 
HETATM    5  C5  UNL     1     -34.670   5.570   3.588  1.00 20.00     0.039 A 
HETATM    6  C6  UNL     1     -35.034   6.583   4.444  1.00 20.00     0.143 A 
HETATM    7  C7  UNL     1     -33.638   6.092   2.764  1.00 20.00    -0.001 A 
HETATM    8  C8  UNL     1     -33.445   7.404   3.186  1.00 20.00     0.085 A 
HETATM    9  O9  UNL     1     -34.297   7.700   4.208  1.00 20.00    -0.322 OA
ENDROOT
TORSDOF 0
ENDMDL
MODEL 3
REMARK VINA RESULT:      -1.9      1.368      3.638
REMARK  0 active torsions:
REMARK  status: ('A' for Active; 'I' for Inactive)
ROOT
HETATM    1  C1  UNL     1     -34.747   5.238   3.985  1.00 20.00     0.001 A 
HETATM    2  C2  UNL     1     -34.954   6.536   4.458  1.00 20.00     0.003 A 
HETATM    3  C3  UNL     1     -33.805   4.976   2.981  1.00 20.00     0.014 A 
HETATM    4  C4  UNL     1     -34.229   7.618   3.949  1.00 20.00     0.038 A 
HETATM    5  C5  UNL     1     -32.056   6.199   1.467  1.00 20.00     0.039 A 
HETATM    6  C6  UNL     1     -31.746   7.539   1.430  1.00 20.00     0.143 A 
HETATM    7  C7  UNL     1     -33.065   6.049   2.455  1.00 20.00    -0.001 A 
HETATM    8  C8  UNL     1     -33.299   7.326   2.953  1.00 20.00     0.085 A 
HETATM    9  O9  UNL     1     -32.495   8.231   2.327  1.00 20.00    -0.322 OA
ENDROOT
TORSDOF 0
ENDMDL
MODEL 4
REMARK VINA RESULT:      -1.8      1.237      3.092
REMARK  0 active torsions:
REMARK  status: ('A' for Active; 'I' for Inactive)
ROOT
HETATM    1  C1  UNL     1     -34.953   6.586   4.386  1.00 20.00     0.001 A 
HETATM    2  C2  UNL     1     -34.733   5.300   3.886  1.00 20.00     0.003 A 
HETATM    3  C3  UNL     1     -34.213   7.680   3.917  1.00 20.00     0.014 A 
HETATM    4  C4  UNL     1     -33.770   5.059   2.902  1.00 20.00     0.038 A 
HETATM    5  C5  UNL     1     -32.314   8.269   2.214  1.00 20.00     0.039 A 
HETATM    6  C6  UNL     1     -31.634   7.425   1.367  1.00 20.00     0.143 A 
HETATM    7  C7  UNL     1     -33.239   7.461   2.926  1.00 20.00    -0.001 A 
HETATM    8  C8  UNL     1     -33.051   6.166   2.454  1.00 20.00     0.085 A 
HETATM    9  O9  UNL     1     -32.073   6.147   1.505  1.00 20.00    -0.322 OA
ENDROOT
TORSDOF 0
ENDMDL
MODEL 5
REMARK VINA RESULT:      -1.0      0.753      1.102
REMARK  0 active torsions:
REMARK  status: ('A' for Active; 'I' for Inactive)
ROOT
HETATM    1  C1  UNL     1     -32.746   8.455   2.267  1.00 20.00     0.001 A 
HETATM    2  C2  UNL     1     -32.112   7.360   1.673  1.00 20.00     0.003 A 
HETATM    3  C3  UNL     1     -33.790   8.276   3.185  1.00 20.00     0.014 A 
HETATM    4  C4  UNL     1     -32.495   6.050   1.974  1.00 20.00     0.038 A 
HETATM    5  C5  UNL     1     -35.168   6.380   4.349  1.00 20.00     0.039 A 
HETATM    6  C6  UNL     1     -35.045   5.018   4.200  1.00 20.00     0.143 A 
HETATM    7  C7  UNL     1     -34.191   6.966   3.502  1.00 20.00    -0.001 A 
HETATM    8  C8  UNL     1     -33.535   5.903   2.890  1.00 20.00     0.085 A 
HETATM    9  O9  UNL     1     -34.057   4.718   3.317  1.00 20.00    -0.322 OA
ENDROOT
TORSDOF 0
ENDMDL
MODEL 6
REMARK VINA RESULT:       0.5      1.411      2.196
REMARK  0 active torsions:
REMARK  status: ('A' for Active; 'I' for Inactive)
ROOT
HETATM    1  C1  UNL     1     -34.139   8.167   2.933  1.00 20.00     0.001 A 
HETATM    2  C2  UNL     1     -33.102   7.711   2.115  1.00 20.00     0.003 A 
HETATM    3  C3  UNL     1     -34.801   7.300   3.813  1.00 20.00     0.014 A 
HETATM    4  C4  UNL     1     -32.688   6.376   2.146  1.00 20.00     0.038 A 
HETATM    5  C5  UNL     1     -34.798   4.799   4.587  1.00 20.00     0.039 A 
HETATM    6  C6  UNL     1     -33.990   3.772   4.158  1.00 20.00     0.143 A 
HETATM    7  C7  UNL     1     -34.400   5.953   3.861  1.00 20.00    -0.001 A 
HETATM    8  C8  UNL     1     -33.363   5.538   3.032  1.00 20.00     0.085 A 
HETATM    9  O9  UNL     1     -33.116   4.210   3.215  1.00 20.00    -0.322 OA
ENDROOT
TORSDOF 0
ENDMDL
MODEL 7
REMARK VINA RESULT:       0.6      1.653      2.901
REMARK  0 active torsions:
REMARK  status: ('A' for Active; 'I' for Inactive)
ROOT
HETATM    1  C1  UNL     1     -33.665   7.447   2.537  1.00 20.00     0.001 A 
HETATM    2  C2  UNL     1     -34.776   7.562   3.376  1.00 20.00     0.003 A 
HETATM    3  C3  UNL     1     -32.932   6.254   2.468  1.00 20.00     0.014 A 
HETATM    4  C4  UNL     1     -35.196   6.494   4.174  1.00 20.00     0.038 A 
HETATM    5  C5  UNL     1     -32.882   3.839   3.475  1.00 20.00     0.039 A 
HETATM    6  C6  UNL     1     -33.735   3.279   4.398  1.00 20.00     0.143 A 
HETATM    7  C7  UNL     1     -33.337   5.167   3.262  1.00 20.00    -0.001 A 
HETATM    8  C8  UNL     1     -34.449   5.322   4.084  1.00 20.00     0.085 A 
HETATM    9  O9  UNL     1     -34.689   4.171   4.774  1.00 20.00    -0.322 OA
ENDROOT
TORSDOF 0
ENDMDL
