MODEL 1
REMARK VINA RESULT:      -0.9      0.000      0.000
REMARK  1 active torsions:
REMARK  status: ('A' for Active; 'I' for Inactive)
REMARK    1  A    between atoms: C4_4  and  S6_6 
ROOT
HETATM    1  C1  UNL     1     -32.127   8.137   2.293  1.00 20.00     0.009 A 
HETATM    2  C2  UNL     1     -33.178   7.940   3.232  1.00 20.00     0.026 A 
HETATM    3  C3  UNL     1     -31.963   7.050   1.464  1.00 20.00     0.051 A 
HETATM    4  C4  UNL     1     -33.779   6.709   3.085  1.00 20.00     0.038 A 
HETATM    5  S5  UNL     1     -33.075   5.797   1.820  1.00 20.00    -0.095 SA
ENDROOT
BRANCH   4   6
HETATM    6  S6  UNL     1     -35.110   6.090   4.047  1.00 20.00    -0.136 SA
HETATM    7  H10 UNL     1     -34.621   6.373   5.268  1.00 20.00     0.107 HD
ENDBRANCH   4   6
TORSDOF 1
ENDMDL
MODEL 2
REMARK VINA RESULT:      -0.8      1.483      2.823
REMARK  1 active torsions:
REMARK  status: ('A' for Active; 'I' for Inactive)
REMARK    1  A    between atoms: C4_4  and  S6_6 
ROOT
HETATM    1  C1  UNL     1     -34.685   6.813   4.202  1.00 20.00     0.009 A 
HETATM    2  C2  UNL     1     -33.838   7.807   3.634  1.00 20.00     0.026 A 
HETATM    3  C3  UNL     1     -34.502   5.581   3.615  1.00 20.00     0.051 A 
HETATM    4  C4  UNL     1     -33.040   7.296   2.634  1.00 20.00     0.038 A 
HETATM    5  S5  UNL     1     -33.313   5.626   2.383  1.00 20.00    -0.095 SA
ENDROOT
BRANCH   4   6
HETATM    6  S6  UNL     1     -31.864   8.196   1.692  1.00 20.00    -0.136 SA
HETATM    7  H10 UNL     1     -32.248   9.440   2.033  1.00 20.00     0.107 HD
ENDBRANCH   4   6
TORSDOF 1
ENDMDL
MODEL 3
REMARK VINA RESULT:      -0.8      1.310      1.713
REMARK  1 active torsions:
REMARK  status: ('A' for Active; 'I' for Inactive)
REMARK    1  A    between atoms: C4_4  and  S6_6 
ROOT
HETATM    1  C1  UNL     1     -32.094   6.403   1.309  1.00 20.00     0.009 A 
HETATM    2  C2  UNL     1     -33.181   5.780   1.985  1.00 20.00     0.026 A 
HETATM    3  C3  UNL     1     -31.833   7.662   1.800  1.00 20.00     0.051 A 
HETATM    4  C4  UNL     1     -33.709   6.587   2.969  1.00 20.00     0.038 A 
HETATM    5  S5  UNL     1     -32.896   8.089   3.073  1.00 20.00    -0.095 SA
ENDROOT
BRANCH   4   6
HETATM    6  S6  UNL     1     -35.051   6.182   4.024  1.00 20.00    -0.136 SA
HETATM    7  H10 UNL     1     -35.250   7.398   4.566  1.00 20.00     0.107 HD
ENDBRANCH   4   6
TORSDOF 1
ENDMDL
MODEL 4
REMARK VINA RESULT:      -0.5      1.727      3.285
REMARK  1 active torsions:
REMARK  status: ('A' for Active; 'I' for Inactive)
REMARK    1  A    between atoms: C4_4  and  S6_6 
ROOT
HETATM    1  C1  UNL     1     -34.298   5.317   3.367  1.00 20.00     0.009 A 
HETATM    2  C2  UNL     1     -33.298   5.794   2.473  1.00 20.00     0.026 A 
HETATM    3  C3  UNL     1     -34.780   6.315   4.185  1.00 20.00     0.051 A 
HETATM    4  C4  UNL     1     -33.052   7.139   2.642  1.00 20.00     0.038 A 
HETATM    5  S5  UNL     1     -34.026   7.820   3.874  1.00 20.00    -0.095 SA
ENDROOT
BRANCH   4   6
HETATM    6  S6  UNL     1     -31.896   8.098   1.735  1.00 20.00    -0.136 SA
HETATM    7  H10 UNL     1     -30.785   7.396   2.027  1.00 20.00     0.107 HD
ENDBRANCH   4   6
TORSDOF 1
ENDMDL
MODEL 5
REMARK VINA RESULT:      -0.4      1.884      2.917
REMARK  1 active torsions:
REMARK  status: ('A' for Active; 'I' for Inactive)
REMARK    1  A    between atoms: C4_4  and  S6_6 
ROOT
HETATM    1  C1  UNL     1     -34.583   6.781   4.078  1.00 20.00     0.009 A 
HETATM    2  C2  UNL     1     -34.165   5.816   3.118  1.00 20.00     0.026 A 
HETATM    3  C3  UNL     1     -33.839   7.937   4.006  1.00 20.00     0.051 A 
HETATM    4  C4  UNL     1     -33.116   6.272   2.349  1.00 20.00     0.038 A 
HETATM    5  S5  UNL     1     -32.641   7.857   2.785  1.00 20.00    -0.095 SA
ENDROOT
BRANCH   4   6
HETATM    6  S6  UNL     1     -32.321   5.385   1.060  1.00 20.00    -0.136 SA
HETATM    7  H10 UNL     1     -31.069   5.398   1.555  1.00 20.00     0.107 HD
ENDBRANCH   4   6
TORSDOF 1
ENDMDL
MODEL 6
REMARK VINA RESULT:      -0.2      1.851      3.222
REMARK  1 active torsions:
REMARK  status: ('A' for Active; 'I' for Inactive)
REMARK    1  A    between atoms: C4_4  and  S6_6 
ROOT
HETATM    1  C1  UNL     1     -35.215   6.514   4.194  1.00 20.00     0.009 A 
HETATM    2  C2  UNL     1     -34.271   6.884   3.195  1.00 20.00     0.026 A 
HETATM    3  C3  UNL     1     -35.138   5.176   4.510  1.00 20.00     0.051 A 
HETATM    4  C4  UNL     1     -33.506   5.813   2.785  1.00 20.00     0.038 A 
HETATM    5  S5  UNL     1     -33.929   4.371   3.602  1.00 20.00    -0.095 SA
ENDROOT
BRANCH   4   6
HETATM    6  S6  UNL     1     -32.236   5.857   1.575  1.00 20.00    -0.136 SA
HETATM    7  H10 UNL     1     -32.070   4.531   1.414  1.00 20.00     0.107 HD
ENDBRANCH   4   6
TORSDOF 1
ENDMDL
MODEL 7
REMARK VINA RESULT:      -0.2      2.256      3.114
REMARK  1 active torsions:
REMARK  status: ('A' for Active; 'I' for Inactive)
REMARK    1  A    between atoms: C4_4  and  S6_6 
ROOT
HETATM    1  C1  UNL     1     -35.272   6.381   3.993  1.00 20.00     0.009 A 
HETATM    2  C2  UNL     1     -35.063   5.081   4.535  1.00 20.00     0.026 A 
HETATM    3  C3  UNL     1     -34.283   6.736   3.103  1.00 20.00     0.051 A 
HETATM    4  C4  UNL     1     -33.921   4.491   4.039  1.00 20.00     0.038 A 
HETATM    5  S5  UNL     1     -33.107   5.503   2.924  1.00 20.00    -0.095 SA
ENDROOT
BRANCH   4   6
HETATM    6  S6  UNL     1     -33.319   2.896   4.456  1.00 20.00    -0.136 SA
HETATM    7  H10 UNL     1     -32.518   2.702   3.392  1.00 20.00     0.107 HD
ENDBRANCH   4   6
TORSDOF 1
ENDMDL
MODEL 8
REMARK VINA RESULT:      -0.1      1.175      2.680
REMARK  1 active torsions:
REMARK  status: ('A' for Active; 'I' for Inactive)
REMARK    1  A    between atoms: C4_4  and  S6_6 
ROOT
HETATM    1  C1  UNL     1     -33.846   7.930   3.907  1.00 20.00     0.009 A 
HETATM    2  C2  UNL     1     -32.987   7.593   2.823  1.00 20.00     0.026 A 
HETATM    3  C3  UNL     1     -34.625   6.864   4.300  1.00 20.00     0.051 A 
HETATM    4  C4  UNL     1     -33.142   6.283   2.427  1.00 20.00     0.038 A 
HETATM    5  S5  UNL     1     -34.319   5.464   3.362  1.00 20.00    -0.095 SA
ENDROOT
BRANCH   4   6
HETATM    6  S6  UNL     1     -32.268   5.487   1.130  1.00 20.00    -0.136 SA
HETATM    7  H10 UNL     1     -33.210   5.576   0.173  1.00 20.00     0.107 HD
ENDBRANCH   4   6
TORSDOF 1
ENDMDL
MODEL 9
REMARK VINA RESULT:       0.0      1.239      1.480
REMARK  1 active torsions:
REMARK  status: ('A' for Active; 'I' for Inactive)
REMARK    1  A    between atoms: C4_4  and  S6_6 
ROOT
HETATM    1  C1  UNL     1     -31.956   7.098   1.284  1.00 20.00     0.009 A 
HETATM    2  C2  UNL     1     -32.306   7.947   2.373  1.00 20.00     0.026 A 
HETATM    3  C3  UNL     1     -32.579   5.873   1.362  1.00 20.00     0.051 A 
HETATM    4  C4  UNL     1     -33.185   7.338   3.241  1.00 20.00     0.038 A 
HETATM    5  S5  UNL     1     -33.583   5.750   2.744  1.00 20.00    -0.095 SA
ENDROOT
BRANCH   4   6
HETATM    6  S6  UNL     1     -33.854   8.050   4.699  1.00 20.00    -0.136 SA
HETATM    7  H10 UNL     1     -33.375   7.162   5.591  1.00 20.00     0.107 HD
ENDBRANCH   4   6
TORSDOF 1
ENDMDL
