MODEL 1
REMARK VINA RESULT:      -2.3      0.000      0.000
REMARK  3 active torsions:
REMARK  status: ('A' for Active; 'I' for Inactive)
REMARK    1  A    between atoms: C6_6  and  O9_9 
REMARK    2  A    between atoms: C7_7  and  C8_8 
REMARK    3  A    between atoms: C7_7  and  O9_9 
ROOT
HETATM    1  C1  UNL     1     -35.103   5.155   4.457  1.00 20.00     0.000 A 
HETATM    2  C2  UNL     1     -35.159   6.511   4.138  1.00 20.00     0.003 A 
HETATM    3  C3  UNL     1     -34.151   4.335   3.852  1.00 20.00     0.003 A 
HETATM    4  C4  UNL     1     -34.263   7.048   3.213  1.00 20.00     0.037 A 
HETATM    5  C5  UNL     1     -33.255   4.872   2.926  1.00 20.00     0.037 A 
HETATM    6  C6  UNL     1     -33.311   6.228   2.607  1.00 20.00     0.068 A 
ENDROOT
BRANCH   6   7
HETATM    7  O9  UNL     1     -32.439   6.751   1.704  1.00 20.00    -0.350 OA
BRANCH   7   8
HETATM    8  C7  UNL     1     -32.048   8.111   1.889  1.00 20.00     0.190 C 
BRANCH   8   9
HETATM    9  C8  UNL     1     -31.807   8.763   0.541  1.00 20.00     0.141 C 
HETATM   10 CL10 UNL     1     -32.662  10.323   0.430  1.00 20.00    -0.128 Cl
ENDBRANCH   8   9
ENDBRANCH   7   8
ENDBRANCH   6   7
TORSDOF 3
ENDMDL
MODEL 2
REMARK VINA RESULT:      -2.3      0.026      1.528
REMARK  3 active torsions:
REMARK  status: ('A' for Active; 'I' for Inactive)
REMARK    1  A    between atoms: C6_6  and  O9_9 
REMARK    2  A    between atoms: C7_7  and  C8_8 
REMARK    3  A    between atoms: C7_7  and  O9_9 
ROOT
HETATM    1  C1  UNL     1     -35.117   5.181   4.463  1.00 20.00     0.000 A 
HETATM    2  C2  UNL     1     -34.154   4.358   3.879  1.00 20.00     0.003 A 
HETATM    3  C3  UNL     1     -35.178   6.532   4.124  1.00 20.00     0.003 A 
HETATM    4  C4  UNL     1     -33.252   4.887   2.956  1.00 20.00     0.037 A 
HETATM    5  C5  UNL     1     -34.275   7.061   3.202  1.00 20.00     0.037 A 
HETATM    6  C6  UNL     1     -33.312   6.239   2.617  1.00 20.00     0.068 A 
ENDROOT
BRANCH   6   7
HETATM    7  O9  UNL     1     -32.431   6.756   1.719  1.00 20.00    -0.350 OA
BRANCH   7   8
HETATM    8  C7  UNL     1     -32.049   8.119   1.895  1.00 20.00     0.190 C 
BRANCH   8   9
HETATM    9  C8  UNL     1     -31.818   8.765   0.541  1.00 20.00     0.141 C 
HETATM   10 CL10 UNL     1     -32.638  10.344   0.444  1.00 20.00    -0.128 Cl
ENDBRANCH   8   9
ENDBRANCH   7   8
ENDBRANCH   6   7
TORSDOF 3
ENDMDL
MODEL 3
REMARK VINA RESULT:      -1.9      1.077      1.405
REMARK  3 active torsions:
REMARK  status: ('A' for Active; 'I' for Inactive)
REMARK    1  A    between atoms: C6_6  and  O9_9 
REMARK    2  A    between atoms: C7_7  and  C8_8 
REMARK    3  A    between atoms: C7_7  and  O9_9 
ROOT
HETATM    1  C1  UNL     1     -34.426   5.621   3.570  1.00 20.00     0.000 A 
HETATM    2  C2  UNL     1     -34.458   6.918   4.082  1.00 20.00     0.003 A 
HETATM    3  C3  UNL     1     -33.582   5.314   2.504  1.00 20.00     0.003 A 
HETATM    4  C4  UNL     1     -33.646   7.908   3.529  1.00 20.00     0.037 A 
HETATM    5  C5  UNL     1     -32.770   6.304   1.949  1.00 20.00     0.037 A 
HETATM    6  C6  UNL     1     -32.802   7.601   2.462  1.00 20.00     0.068 A 
ENDROOT
BRANCH   6   7
HETATM    7  O9  UNL     1     -32.011   8.566   1.919  1.00 20.00    -0.350 OA
BRANCH   7   8
HETATM    8  C7  UNL     1     -31.734   8.470   0.523  1.00 20.00     0.190 C 
BRANCH   8   9
HETATM    9  C8  UNL     1     -32.434   9.594  -0.218  1.00 20.00     0.141 C 
HETATM   10 CL10 UNL     1     -32.763  10.964   0.873  1.00 20.00    -0.128 Cl
ENDBRANCH   8   9
ENDBRANCH   7   8
ENDBRANCH   6   7
TORSDOF 3
ENDMDL
MODEL 4
REMARK VINA RESULT:      -1.6      3.145      4.603
REMARK  3 active torsions:
REMARK  status: ('A' for Active; 'I' for Inactive)
REMARK    1  A    between atoms: C6_6  and  O9_9 
REMARK    2  A    between atoms: C7_7  and  C8_8 
REMARK    3  A    between atoms: C7_7  and  O9_9 
ROOT
HETATM    1  C1  UNL     1     -31.806   7.870   1.980  1.00 20.00     0.000 A 
HETATM    2  C2  UNL     1     -32.398   8.352   3.147  1.00 20.00     0.003 A 
HETATM    3  C3  UNL     1     -32.291   6.707   1.383  1.00 20.00     0.003 A 
HETATM    4  C4  UNL     1     -33.473   7.672   3.717  1.00 20.00     0.037 A 
HETATM    5  C5  UNL     1     -33.366   6.025   1.953  1.00 20.00     0.037 A 
HETATM    6  C6  UNL     1     -33.958   6.508   3.120  1.00 20.00     0.068 A 
ENDROOT
BRANCH   6   7
HETATM    7  O9  UNL     1     -35.005   5.842   3.676  1.00 20.00    -0.350 OA
BRANCH   7   8
HETATM    8  C7  UNL     1     -34.696   4.813   4.616  1.00 20.00     0.190 C 
BRANCH   8   9
HETATM    9  C8  UNL     1     -33.869   3.735   3.942  1.00 20.00     0.141 C 
HETATM   10 CL10 UNL     1     -32.898   2.839   5.138  1.00 20.00    -0.128 Cl
ENDBRANCH   8   9
ENDBRANCH   7   8
ENDBRANCH   6   7
TORSDOF 3
ENDMDL
MODEL 5
REMARK VINA RESULT:      -1.6      3.130      4.775
REMARK  3 active torsions:
REMARK  status: ('A' for Active; 'I' for Inactive)
REMARK    1  A    between atoms: C6_6  and  O9_9 
REMARK    2  A    between atoms: C7_7  and  C8_8 
REMARK    3  A    between atoms: C7_7  and  O9_9 
ROOT
HETATM    1  C1  UNL     1     -31.837   7.920   1.988  1.00 20.00     0.000 A 
HETATM    2  C2  UNL     1     -32.306   6.750   1.393  1.00 20.00     0.003 A 
HETATM    3  C3  UNL     1     -32.435   8.399   3.153  1.00 20.00     0.003 A 
HETATM    4  C4  UNL     1     -33.375   6.058   1.962  1.00 20.00     0.037 A 
HETATM    5  C5  UNL     1     -33.505   7.707   3.722  1.00 20.00     0.037 A 
HETATM    6  C6  UNL     1     -33.975   6.537   3.127  1.00 20.00     0.068 A 
ENDROOT
BRANCH   6   7
HETATM    7  O9  UNL     1     -35.018   5.864   3.682  1.00 20.00    -0.350 OA
BRANCH   7   8
HETATM    8  C7  UNL     1     -34.704   4.837   4.622  1.00 20.00     0.190 C 
BRANCH   8   9
HETATM    9  C8  UNL     1     -33.885   3.755   3.944  1.00 20.00     0.141 C 
HETATM   10 CL10 UNL     1     -32.876   2.887   5.129  1.00 20.00    -0.128 Cl
ENDBRANCH   8   9
ENDBRANCH   7   8
ENDBRANCH   6   7
TORSDOF 3
ENDMDL
MODEL 6
REMARK VINA RESULT:      -1.1      3.236      4.900
REMARK  3 active torsions:
REMARK  status: ('A' for Active; 'I' for Inactive)
REMARK    1  A    between atoms: C6_6  and  O9_9 
REMARK    2  A    between atoms: C7_7  and  C8_8 
REMARK    3  A    between atoms: C7_7  and  O9_9 
ROOT
HETATM    1  C1  UNL     1     -32.282   8.192   2.235  1.00 20.00     0.000 A 
HETATM    2  C2  UNL     1     -31.984   7.067   1.468  1.00 20.00     0.003 A 
HETATM    3  C3  UNL     1     -33.204   8.101   3.277  1.00 20.00     0.003 A 
HETATM    4  C4  UNL     1     -32.609   5.851   1.740  1.00 20.00     0.037 A 
HETATM    5  C5  UNL     1     -33.831   6.885   3.550  1.00 20.00     0.037 A 
HETATM    6  C6  UNL     1     -33.533   5.759   2.782  1.00 20.00     0.068 A 
ENDROOT
BRANCH   6   7
HETATM    7  O9  UNL     1     -34.145   4.574   3.048  1.00 20.00    -0.350 OA
BRANCH   7   8
HETATM    8  C7  UNL     1     -34.193   4.158   4.412  1.00 20.00     0.190 C 
BRANCH   8   9
HETATM    9  C8  UNL     1     -33.234   3.003   4.630  1.00 20.00     0.141 C 
HETATM   10 CL10 UNL     1     -32.463   3.113   6.233  1.00 20.00    -0.128 Cl
ENDBRANCH   8   9
ENDBRANCH   7   8
ENDBRANCH   6   7
TORSDOF 3
ENDMDL
MODEL 7
REMARK VINA RESULT:      -1.1      2.750      4.706
REMARK  3 active torsions:
REMARK  status: ('A' for Active; 'I' for Inactive)
REMARK    1  A    between atoms: C6_6  and  O9_9 
REMARK    2  A    between atoms: C7_7  and  C8_8 
REMARK    3  A    between atoms: C7_7  and  O9_9 
ROOT
HETATM    1  C1  UNL     1     -31.555   7.346   0.953  1.00 20.00     0.000 A 
HETATM    2  C2  UNL     1     -32.258   6.155   1.128  1.00 20.00     0.003 A 
HETATM    3  C3  UNL     1     -31.766   8.415   1.824  1.00 20.00     0.003 A 
HETATM    4  C4  UNL     1     -33.173   6.031   2.173  1.00 20.00     0.037 A 
HETATM    5  C5  UNL     1     -32.682   8.292   2.869  1.00 20.00     0.037 A 
HETATM    6  C6  UNL     1     -33.385   7.100   3.044  1.00 20.00     0.068 A 
ENDROOT
BRANCH   6   7
HETATM    7  O9  UNL     1     -34.279   6.982   4.062  1.00 20.00    -0.350 OA
BRANCH   7   8
HETATM    8  C7  UNL     1     -35.397   6.121   3.849  1.00 20.00     0.190 C 
BRANCH   8   9
HETATM    9  C8  UNL     1     -35.305   4.922   4.774  1.00 20.00     0.141 C 
HETATM   10 CL10 UNL     1     -33.962   3.853   4.296  1.00 20.00    -0.128 Cl
ENDBRANCH   8   9
ENDBRANCH   7   8
ENDBRANCH   6   7
TORSDOF 3
ENDMDL
MODEL 8
REMARK VINA RESULT:      -0.3      1.346      1.368
REMARK  3 active torsions:
REMARK  status: ('A' for Active; 'I' for Inactive)
REMARK    1  A    between atoms: C6_6  and  O9_9 
REMARK    2  A    between atoms: C7_7  and  C8_8 
REMARK    3  A    between atoms: C7_7  and  O9_9 
ROOT
HETATM    1  C1  UNL     1     -35.203   5.049   4.632  1.00 20.00     0.000 A 
HETATM    2  C2  UNL     1     -35.307   6.338   4.110  1.00 20.00     0.003 A 
HETATM    3  C3  UNL     1     -34.216   4.184   4.162  1.00 20.00     0.003 A 
HETATM    4  C4  UNL     1     -34.424   6.762   3.117  1.00 20.00     0.037 A 
HETATM    5  C5  UNL     1     -33.334   4.607   3.167  1.00 20.00     0.037 A 
HETATM    6  C6  UNL     1     -33.438   5.896   2.645  1.00 20.00     0.068 A 
ENDROOT
BRANCH   6   7
HETATM    7  O9  UNL     1     -32.578   6.307   1.674  1.00 20.00    -0.350 OA
BRANCH   7   8
HETATM    8  C7  UNL     1     -32.508   7.709   1.420  1.00 20.00     0.190 C 
BRANCH   8   9
HETATM    9  C8  UNL     1     -31.298   8.299   2.120  1.00 20.00     0.141 C 
HETATM   10 CL10 UNL     1     -31.715   8.822   3.772  1.00 20.00    -0.128 Cl
ENDBRANCH   8   9
ENDBRANCH   7   8
ENDBRANCH   6   7
TORSDOF 3
ENDMDL
MODEL 9
REMARK VINA RESULT:      -0.1      2.583      4.826
REMARK  3 active torsions:
REMARK  status: ('A' for Active; 'I' for Inactive)
REMARK    1  A    between atoms: C6_6  and  O9_9 
REMARK    2  A    between atoms: C7_7  and  C8_8 
REMARK    3  A    between atoms: C7_7  and  O9_9 
ROOT
HETATM    1  C1  UNL     1     -32.008   9.565  -0.325  1.00 20.00     0.000 A 
HETATM    2  C2  UNL     1     -32.793  10.245   0.606  1.00 20.00     0.003 A 
HETATM    3  C3  UNL     1     -31.426   8.344   0.013  1.00 20.00     0.003 A 
HETATM    4  C4  UNL     1     -32.996   9.705   1.875  1.00 20.00     0.037 A 
HETATM    5  C5  UNL     1     -31.628   7.804   1.283  1.00 20.00     0.037 A 
HETATM    6  C6  UNL     1     -32.413   8.483   2.214  1.00 20.00     0.068 A 
ENDROOT
BRANCH   6   7
HETATM    7  O9  UNL     1     -32.608   7.957   3.453  1.00 20.00    -0.350 OA
BRANCH   7   8
HETATM    8  C7  UNL     1     -33.949   7.628   3.816  1.00 20.00     0.190 C 
BRANCH   8   9
HETATM    9  C8  UNL     1     -34.270   6.214   3.368  1.00 20.00     0.141 C 
HETATM   10 CL10 UNL     1     -35.462   5.460   4.456  1.00 20.00    -0.128 Cl
ENDBRANCH   8   9
ENDBRANCH   7   8
ENDBRANCH   6   7
TORSDOF 3
ENDMDL
