MODEL 1
REMARK VINA RESULT:      -2.8      0.000      0.000
REMARK  1 active torsions:
REMARK  status: ('A' for Active; 'I' for Inactive)
REMARK    1  A    between atoms: C6_6  and  C8_8 
ROOT
HETATM    1  C1  UNL     1     -31.806   7.406   1.562  1.00 20.00     0.000 A 
HETATM    2  C2  UNL     1     -32.266   8.287   2.541  1.00 20.00     0.001 A 
HETATM    3  C3  UNL     1     -32.413   6.159   1.407  1.00 20.00     0.001 A 
HETATM    4  C4  UNL     1     -33.332   7.922   3.364  1.00 20.00     0.011 A 
HETATM    5  C5  UNL     1     -33.478   5.793   2.229  1.00 20.00     0.011 A 
HETATM    6  C6  UNL     1     -33.938   6.674   3.208  1.00 20.00    -0.037 A 
ENDROOT
BRANCH   6   7
HETATM    7  C8  UNL     1     -35.050   6.294   4.065  1.00 20.00     0.001 C 
HETATM    8  C7  UNL     1     -35.248   5.059   4.507  1.00 20.00     0.012 C 
ENDBRANCH   6   7
TORSDOF 1
ENDMDL
MODEL 2
REMARK VINA RESULT:      -2.8      0.037      1.709
REMARK  1 active torsions:
REMARK  status: ('A' for Active; 'I' for Inactive)
REMARK    1  A    between atoms: C6_6  and  C8_8 
ROOT
HETATM    1  C1  UNL     1     -31.827   7.412   1.597  1.00 20.00     0.000 A 
HETATM    2  C2  UNL     1     -32.428   6.163   1.436  1.00 20.00     0.001 A 
HETATM    3  C3  UNL     1     -32.296   8.290   2.574  1.00 20.00     0.001 A 
HETATM    4  C4  UNL     1     -33.498   5.793   2.252  1.00 20.00     0.011 A 
HETATM    5  C5  UNL     1     -33.365   7.921   3.390  1.00 20.00     0.011 A 
HETATM    6  C6  UNL     1     -33.966   6.673   3.230  1.00 20.00    -0.037 A 
ENDROOT
BRANCH   6   7
HETATM    7  C8  UNL     1     -35.080   6.287   4.081  1.00 20.00     0.001 C 
HETATM    8  C7  UNL     1     -35.262   5.056   4.540  1.00 20.00     0.012 C 
ENDBRANCH   6   7
TORSDOF 1
ENDMDL
MODEL 3
REMARK VINA RESULT:      -2.8      1.090      3.801
REMARK  1 active torsions:
REMARK  status: ('A' for Active; 'I' for Inactive)
REMARK    1  A    between atoms: C6_6  and  C8_8 
ROOT
HETATM    1  C1  UNL     1     -34.389   5.952   3.691  1.00 20.00     0.000 A 
HETATM    2  C2  UNL     1     -33.710   5.415   2.597  1.00 20.00     0.001 A 
HETATM    3  C3  UNL     1     -34.220   7.296   4.024  1.00 20.00     0.001 A 
HETATM    4  C4  UNL     1     -32.863   6.222   1.836  1.00 20.00     0.011 A 
HETATM    5  C5  UNL     1     -33.373   8.103   3.265  1.00 20.00     0.011 A 
HETATM    6  C6  UNL     1     -32.695   7.566   2.171  1.00 20.00    -0.037 A 
ENDROOT
BRANCH   6   7
HETATM    7  C8  UNL     1     -31.812   8.408   1.378  1.00 20.00     0.001 C 
HETATM    8  C7  UNL     1     -32.241   9.375   0.579  1.00 20.00     0.012 C 
ENDBRANCH   6   7
TORSDOF 1
ENDMDL
MODEL 4
REMARK VINA RESULT:      -2.7      1.105      3.430
REMARK  1 active torsions:
REMARK  status: ('A' for Active; 'I' for Inactive)
REMARK    1  A    between atoms: C6_6  and  C8_8 
ROOT
HETATM    1  C1  UNL     1     -34.343   5.997   3.672  1.00 20.00     0.000 A 
HETATM    2  C2  UNL     1     -34.163   7.339   4.006  1.00 20.00     0.001 A 
HETATM    3  C3  UNL     1     -33.685   5.460   2.565  1.00 20.00     0.001 A 
HETATM    4  C4  UNL     1     -33.324   8.144   3.234  1.00 20.00     0.011 A 
HETATM    5  C5  UNL     1     -32.847   6.263   1.793  1.00 20.00     0.011 A 
HETATM    6  C6  UNL     1     -32.666   7.606   2.127  1.00 20.00    -0.037 A 
ENDROOT
BRANCH   6   7
HETATM    7  C8  UNL     1     -31.792   8.444   1.322  1.00 20.00     0.001 C 
HETATM    8  C7  UNL     1     -32.228   9.423   0.541  1.00 20.00     0.012 C 
ENDBRANCH   6   7
TORSDOF 1
ENDMDL
MODEL 5
REMARK VINA RESULT:      -2.4      0.814      3.471
REMARK  1 active torsions:
REMARK  status: ('A' for Active; 'I' for Inactive)
REMARK    1  A    between atoms: C6_6  and  C8_8 
ROOT
HETATM    1  C1  UNL     1     -35.149   5.139   4.492  1.00 20.00     0.000 A 
HETATM    2  C2  UNL     1     -35.219   6.491   4.156  1.00 20.00     0.001 A 
HETATM    3  C3  UNL     1     -34.169   4.329   3.920  1.00 20.00     0.001 A 
HETATM    4  C4  UNL     1     -34.308   7.033   3.248  1.00 20.00     0.011 A 
HETATM    5  C5  UNL     1     -33.258   4.869   3.013  1.00 20.00     0.011 A 
HETATM    6  C6  UNL     1     -33.327   6.222   2.677  1.00 20.00    -0.037 A 
ENDROOT
BRANCH   6   7
HETATM    7  C8  UNL     1     -32.377   6.786   1.731  1.00 20.00     0.001 C 
HETATM    8  C7  UNL     1     -31.968   8.047   1.765  1.00 20.00     0.012 C 
ENDBRANCH   6   7
TORSDOF 1
ENDMDL
MODEL 6
REMARK VINA RESULT:      -2.2      1.143      1.526
REMARK  1 active torsions:
REMARK  status: ('A' for Active; 'I' for Inactive)
REMARK    1  A    between atoms: C6_6  and  C8_8 
ROOT
HETATM    1  C1  UNL     1     -32.771   7.965   2.303  1.00 20.00     0.000 A 
HETATM    2  C2  UNL     1     -33.586   7.986   3.435  1.00 20.00     0.001 A 
HETATM    3  C3  UNL     1     -32.464   6.751   1.688  1.00 20.00     0.001 A 
HETATM    4  C4  UNL     1     -34.095   6.793   3.951  1.00 20.00     0.011 A 
HETATM    5  C5  UNL     1     -32.971   5.559   2.204  1.00 20.00     0.011 A 
HETATM    6  C6  UNL     1     -33.786   5.580   3.335  1.00 20.00    -0.037 A 
ENDROOT
BRANCH   6   7
HETATM    7  C8  UNL     1     -34.316   4.336   3.873  1.00 20.00     0.001 C 
HETATM    8  C7  UNL     1     -33.564   3.397   4.430  1.00 20.00     0.012 C 
ENDBRANCH   6   7
TORSDOF 1
ENDMDL
MODEL 7
REMARK VINA RESULT:      -2.0      1.684      3.033
REMARK  1 active torsions:
REMARK  status: ('A' for Active; 'I' for Inactive)
REMARK    1  A    between atoms: C6_6  and  C8_8 
ROOT
HETATM    1  C1  UNL     1     -34.570   7.214   3.258  1.00 20.00     0.000 A 
HETATM    2  C2  UNL     1     -33.452   6.636   2.655  1.00 20.00     0.001 A 
HETATM    3  C3  UNL     1     -35.355   6.464   4.132  1.00 20.00     0.001 A 
HETATM    4  C4  UNL     1     -33.119   5.308   2.928  1.00 20.00     0.011 A 
HETATM    5  C5  UNL     1     -35.024   5.136   4.406  1.00 20.00     0.011 A 
HETATM    6  C6  UNL     1     -33.907   4.559   3.803  1.00 20.00    -0.037 A 
ENDROOT
BRANCH   6   7
HETATM    7  C8  UNL     1     -33.560   3.175   4.088  1.00 20.00     0.001 C 
HETATM    8  C7  UNL     1     -32.840   2.799   5.136  1.00 20.00     0.012 C 
ENDBRANCH   6   7
TORSDOF 1
ENDMDL
MODEL 8
REMARK VINA RESULT:      -1.6      0.961      3.320
REMARK  1 active torsions:
REMARK  status: ('A' for Active; 'I' for Inactive)
REMARK    1  A    between atoms: C6_6  and  C8_8 
ROOT
HETATM    1  C1  UNL     1     -34.176   7.644   4.320  1.00 20.00     0.000 A 
HETATM    2  C2  UNL     1     -34.684   6.396   3.958  1.00 20.00     0.001 A 
HETATM    3  C3  UNL     1     -33.129   8.208   3.591  1.00 20.00     0.001 A 
HETATM    4  C4  UNL     1     -34.146   5.713   2.867  1.00 20.00     0.011 A 
HETATM    5  C5  UNL     1     -32.590   7.526   2.500  1.00 20.00     0.011 A 
HETATM    6  C6  UNL     1     -33.099   6.278   2.138  1.00 20.00    -0.037 A 
ENDROOT
BRANCH   6   7
HETATM    7  C8  UNL     1     -32.538   5.567   1.000  1.00 20.00     0.001 C 
HETATM    8  C7  UNL     1     -31.474   4.779   1.078  1.00 20.00     0.012 C 
ENDBRANCH   6   7
TORSDOF 1
ENDMDL
MODEL 9
REMARK VINA RESULT:      -1.6      0.959      3.032
REMARK  1 active torsions:
REMARK  status: ('A' for Active; 'I' for Inactive)
REMARK    1  A    between atoms: C6_6  and  C8_8 
ROOT
HETATM    1  C1  UNL     1     -34.157   7.662   4.286  1.00 20.00     0.000 A 
HETATM    2  C2  UNL     1     -33.119   8.227   3.545  1.00 20.00     0.001 A 
HETATM    3  C3  UNL     1     -34.652   6.403   3.944  1.00 20.00     0.001 A 
HETATM    4  C4  UNL     1     -32.576   7.534   2.462  1.00 20.00     0.011 A 
HETATM    5  C5  UNL     1     -34.110   5.710   2.862  1.00 20.00     0.011 A 
HETATM    6  C6  UNL     1     -33.072   6.275   2.121  1.00 20.00    -0.037 A 
ENDROOT
BRANCH   6   7
HETATM    7  C8  UNL     1     -32.506   5.552   0.993  1.00 20.00     0.001 C 
HETATM    8  C7  UNL     1     -31.430   4.783   1.078  1.00 20.00     0.012 C 
ENDBRANCH   6   7
TORSDOF 1
ENDMDL
