MODEL 1
REMARK VINA RESULT:      -2.8      0.000      0.000
REMARK  1 active torsions:
REMARK  status: ('A' for Active; 'I' for Inactive)
REMARK    1  A    between atoms: C2_2  and  C8_8 
ROOT
HETATM    1  C1  UNL     1     -33.080   6.153   2.250  1.00 20.00    -0.081 C 
HETATM    2  C2  UNL     1     -32.775   7.422   2.562  1.00 20.00    -0.078 C 
HETATM    3  C3  UNL     1     -34.110   5.592   3.186  1.00 20.00     0.034 C 
HETATM    4  C4  UNL     1     -33.555   7.895   3.752  1.00 20.00     0.034 C 
HETATM    5  C5  UNL     1     -34.637   6.831   3.902  1.00 20.00     0.009 C 
HETATM    6  C6  UNL     1     -32.526   5.289   1.173  1.00 20.00     0.043 C 
ENDROOT
BRANCH   2   7
HETATM    7  C8  UNL     1     -31.791   8.338   1.922  1.00 20.00     0.030 C 
HETATM    8  C7  UNL     1     -32.446   9.129   0.806  1.00 20.00     0.010 C 
ENDBRANCH   2   7
TORSDOF 1
ENDMDL
MODEL 2
REMARK VINA RESULT:      -2.3      1.111      3.873
REMARK  1 active torsions:
REMARK  status: ('A' for Active; 'I' for Inactive)
REMARK    1  A    between atoms: C2_2  and  C8_8 
ROOT
HETATM    1  C1  UNL     1     -33.335   7.360   3.516  1.00 20.00    -0.081 C 
HETATM    2  C2  UNL     1     -33.675   6.114   3.152  1.00 20.00    -0.078 C 
HETATM    3  C3  UNL     1     -32.348   7.959   2.559  1.00 20.00     0.034 C 
HETATM    4  C4  UNL     1     -32.964   5.697   1.899  1.00 20.00     0.034 C 
HETATM    5  C5  UNL     1     -32.406   7.012   1.365  1.00 20.00     0.009 C 
HETATM    6  C6  UNL     1     -33.775   8.147   4.700  1.00 20.00     0.043 C 
ENDROOT
BRANCH   2   7
HETATM    7  C8  UNL     1     -34.590   5.152   3.826  1.00 20.00     0.030 C 
HETATM    8  C7  UNL     1     -33.848   3.886   4.208  1.00 20.00     0.010 C 
ENDBRANCH   2   7
TORSDOF 1
ENDMDL
MODEL 3
REMARK VINA RESULT:      -2.1      1.275      3.421
REMARK  1 active torsions:
REMARK  status: ('A' for Active; 'I' for Inactive)
REMARK    1  A    between atoms: C2_2  and  C8_8 
ROOT
HETATM    1  C1  UNL     1     -33.197   6.035   2.555  1.00 20.00    -0.081 C 
HETATM    2  C2  UNL     1     -33.958   5.356   3.427  1.00 20.00    -0.078 C 
HETATM    3  C3  UNL     1     -33.407   7.515   2.683  1.00 20.00     0.034 C 
HETATM    4  C4  UNL     1     -34.788   6.281   4.266  1.00 20.00     0.034 C 
HETATM    5  C5  UNL     1     -34.155   7.644   4.006  1.00 20.00     0.009 C 
HETATM    6  C6  UNL     1     -32.257   5.518   1.524  1.00 20.00     0.043 C 
ENDROOT
BRANCH   2   7
HETATM    7  C8  UNL     1     -34.085   3.884   3.619  1.00 20.00     0.030 C 
HETATM    8  C7  UNL     1     -33.254   3.426   4.801  1.00 20.00     0.010 C 
ENDBRANCH   2   7
TORSDOF 1
ENDMDL
MODEL 4
REMARK VINA RESULT:      -2.1      0.943      3.159
REMARK  1 active torsions:
REMARK  status: ('A' for Active; 'I' for Inactive)
REMARK    1  A    between atoms: C2_2  and  C8_8 
ROOT
HETATM    1  C1  UNL     1     -33.057   6.385   2.242  1.00 20.00    -0.081 C 
HETATM    2  C2  UNL     1     -33.868   6.364   3.310  1.00 20.00    -0.078 C 
HETATM    3  C3  UNL     1     -32.368   7.710   2.103  1.00 20.00     0.034 C 
HETATM    4  C4  UNL     1     -33.841   7.671   4.044  1.00 20.00     0.034 C 
HETATM    5  C5  UNL     1     -32.622   8.373   3.454  1.00 20.00     0.009 C 
HETATM    6  C6  UNL     1     -32.807   5.323   1.229  1.00 20.00     0.043 C 
ENDROOT
BRANCH   2   7
HETATM    7  C8  UNL     1     -34.756   5.272   3.797  1.00 20.00     0.030 C 
HETATM    8  C7  UNL     1     -33.938   4.074   4.238  1.00 20.00     0.010 C 
ENDBRANCH   2   7
TORSDOF 1
ENDMDL
MODEL 5
REMARK VINA RESULT:      -2.0      0.617      2.223
REMARK  1 active torsions:
REMARK  status: ('A' for Active; 'I' for Inactive)
REMARK    1  A    between atoms: C2_2  and  C8_8 
ROOT
HETATM    1  C1  UNL     1     -33.523   7.265   3.496  1.00 20.00    -0.081 C 
HETATM    2  C2  UNL     1     -32.723   7.228   2.419  1.00 20.00    -0.078 C 
HETATM    3  C3  UNL     1     -34.374   6.033   3.588  1.00 20.00     0.034 C 
HETATM    4  C4  UNL     1     -32.922   5.967   1.633  1.00 20.00     0.034 C 
HETATM    5  C5  UNL     1     -33.717   5.085   2.590  1.00 20.00     0.009 C 
HETATM    6  C6  UNL     1     -33.673   8.333   4.522  1.00 20.00     0.043 C 
ENDROOT
BRANCH   2   7
HETATM    7  C8  UNL     1     -31.750   8.246   1.933  1.00 20.00     0.030 C 
HETATM    8  C7  UNL     1     -32.363   9.086   0.830  1.00 20.00     0.010 C 
ENDBRANCH   2   7
TORSDOF 1
ENDMDL
MODEL 6
REMARK VINA RESULT:      -1.9      1.364      2.241
REMARK  1 active torsions:
REMARK  status: ('A' for Active; 'I' for Inactive)
REMARK    1  A    between atoms: C2_2  and  C8_8 
ROOT
HETATM    1  C1  UNL     1     -33.981   4.677   3.758  1.00 20.00    -0.081 C 
HETATM    2  C2  UNL     1     -33.582   5.668   2.947  1.00 20.00    -0.078 C 
HETATM    3  C3  UNL     1     -35.101   5.119   4.653  1.00 20.00     0.034 C 
HETATM    4  C4  UNL     1     -34.376   6.919   3.180  1.00 20.00     0.034 C 
HETATM    5  C5  UNL     1     -35.554   6.429   4.017  1.00 20.00     0.009 C 
HETATM    6  C6  UNL     1     -33.451   3.292   3.883  1.00 20.00     0.043 C 
ENDROOT
BRANCH   2   7
HETATM    7  C8  UNL     1     -32.492   5.675   1.933  1.00 20.00     0.030 C 
HETATM    8  C7  UNL     1     -32.069   7.095   1.612  1.00 20.00     0.010 C 
ENDBRANCH   2   7
TORSDOF 1
ENDMDL
MODEL 7
REMARK VINA RESULT:      -1.8      0.829      3.300
REMARK  1 active torsions:
REMARK  status: ('A' for Active; 'I' for Inactive)
REMARK    1  A    between atoms: C2_2  and  C8_8 
ROOT
HETATM    1  C1  UNL     1     -32.478   7.358   1.910  1.00 20.00    -0.081 C 
HETATM    2  C2  UNL     1     -33.343   6.742   2.730  1.00 20.00    -0.078 C 
HETATM    3  C3  UNL     1     -31.757   6.375   1.036  1.00 20.00     0.034 C 
HETATM    4  C4  UNL     1     -33.328   5.257   2.526  1.00 20.00     0.034 C 
HETATM    5  C5  UNL     1     -32.572   5.097   1.211  1.00 20.00     0.009 C 
HETATM    6  C6  UNL     1     -32.153   8.806   1.800  1.00 20.00     0.043 C 
ENDROOT
BRANCH   2   7
HETATM    7  C8  UNL     1     -34.232   7.326   3.772  1.00 20.00     0.030 C 
HETATM    8  C7  UNL     1     -35.324   6.345   4.154  1.00 20.00     0.010 C 
ENDBRANCH   2   7
TORSDOF 1
ENDMDL
MODEL 8
REMARK VINA RESULT:      -1.6      1.053      2.833
REMARK  1 active torsions:
REMARK  status: ('A' for Active; 'I' for Inactive)
REMARK    1  A    between atoms: C2_2  and  C8_8 
ROOT
HETATM    1  C1  UNL     1     -33.459   5.660   2.842  1.00 20.00    -0.081 C 
HETATM    2  C2  UNL     1     -33.514   6.971   3.119  1.00 20.00    -0.078 C 
HETATM    3  C3  UNL     1     -32.666   5.397   1.596  1.00 20.00     0.034 C 
HETATM    4  C4  UNL     1     -32.767   7.778   2.099  1.00 20.00     0.034 C 
HETATM    5  C5  UNL     1     -31.955   6.724   1.352  1.00 20.00     0.009 C 
HETATM    6  C6  UNL     1     -34.081   4.518   3.565  1.00 20.00     0.043 C 
ENDROOT
BRANCH   2   7
HETATM    7  C8  UNL     1     -34.214   7.671   4.231  1.00 20.00     0.030 C 
HETATM    8  C7  UNL     1     -33.214   8.313   5.172  1.00 20.00     0.010 C 
ENDBRANCH   2   7
TORSDOF 1
ENDMDL
MODEL 9
REMARK VINA RESULT:      -1.5      1.055      2.920
REMARK  1 active torsions:
REMARK  status: ('A' for Active; 'I' for Inactive)
REMARK    1  A    between atoms: C2_2  and  C8_8 
ROOT
HETATM    1  C1  UNL     1     -33.888   6.772   3.315  1.00 20.00    -0.081 C 
HETATM    2  C2  UNL     1     -33.152   6.509   2.224  1.00 20.00    -0.078 C 
HETATM    3  C3  UNL     1     -33.398   8.001   4.023  1.00 20.00     0.034 C 
HETATM    4  C4  UNL     1     -32.061   7.522   2.044  1.00 20.00     0.034 C 
HETATM    5  C5  UNL     1     -32.466   8.640   2.999  1.00 20.00     0.009 C 
HETATM    6  C6  UNL     1     -35.038   6.015   3.879  1.00 20.00     0.043 C 
ENDROOT
BRANCH   2   7
HETATM    7  C8  UNL     1     -33.268   5.382   1.259  1.00 20.00     0.030 C 
HETATM    8  C7  UNL     1     -31.895   4.884   0.851  1.00 20.00     0.010 C 
ENDBRANCH   2   7
TORSDOF 1
ENDMDL
