MODEL 1
REMARK VINA RESULT:      -0.6      0.000      0.000
REMARK  3 active torsions:
REMARK  status: ('A' for Active; 'I' for Inactive)
REMARK    1  A    between atoms: C4_4  and  S10_10 
REMARK    2  A    between atoms: C5_5  and  C7_7 
REMARK    3  A    between atoms: C7_7  and  S10_10 
ROOT
HETATM    1  C1  UNL     1     -35.349   6.195   4.353  1.00 20.00     0.009 A 
HETATM    2  C2  UNL     1     -34.496   6.864   3.429  1.00 20.00     0.026 A 
HETATM    3  C3  UNL     1     -35.026   4.862   4.483  1.00 20.00     0.051 A 
HETATM    4  C4  UNL     1     -33.552   6.018   2.888  1.00 20.00     0.041 A 
HETATM    5  S9  UNL     1     -33.697   4.424   3.494  1.00 20.00    -0.095 SA
ENDROOT
BRANCH   4   6
HETATM    6  S10 UNL     1     -32.313   6.462   1.709  1.00 20.00    -0.115 SA
BRANCH   6   7
HETATM    7  C7  UNL     1     -32.249   8.249   1.973  1.00 20.00     0.157 C 
BRANCH   7   8
HETATM    8  C5  UNL     1     -31.901   8.987   0.702  1.00 20.00     0.132 C 
HETATM    9  C6  UNL     1     -32.681  10.241   0.473  1.00 20.00     0.091 C 
HETATM   10  O8  UNL     1     -31.058   8.645  -0.117  1.00 20.00    -0.298 OA
ENDBRANCH   7   8
ENDBRANCH   6   7
ENDBRANCH   4   6
TORSDOF 3
ENDMDL
MODEL 2
REMARK VINA RESULT:      -0.6      1.385      1.602
REMARK  3 active torsions:
REMARK  status: ('A' for Active; 'I' for Inactive)
REMARK    1  A    between atoms: C4_4  and  S10_10 
REMARK    2  A    between atoms: C5_5  and  C7_7 
REMARK    3  A    between atoms: C7_7  and  S10_10 
ROOT
HETATM    1  C1  UNL     1     -34.799   6.581   4.072  1.00 20.00     0.009 A 
HETATM    2  C2  UNL     1     -33.943   7.702   3.870  1.00 20.00     0.026 A 
HETATM    3  C3  UNL     1     -34.443   5.509   3.284  1.00 20.00     0.051 A 
HETATM    4  C4  UNL     1     -32.965   7.444   2.934  1.00 20.00     0.041 A 
HETATM    5  S9  UNL     1     -33.081   5.856   2.304  1.00 20.00    -0.095 SA
ENDROOT
BRANCH   4   6
HETATM    6  S10 UNL     1     -31.711   8.571   2.405  1.00 20.00    -0.115 SA
BRANCH   6   7
HETATM    7  C7  UNL     1     -31.931   8.471   0.613  1.00 20.00     0.157 C 
BRANCH   7   8
HETATM    8  C5  UNL     1     -32.559   9.728   0.058  1.00 20.00     0.132 C 
HETATM    9  C6  UNL     1     -32.651  10.861   1.028  1.00 20.00     0.091 C 
HETATM   10  O8  UNL     1     -32.976   9.877  -1.083  1.00 20.00    -0.298 OA
ENDBRANCH   7   8
ENDBRANCH   6   7
ENDBRANCH   4   6
TORSDOF 3
ENDMDL
MODEL 3
REMARK VINA RESULT:      -0.3      1.020      1.314
REMARK  3 active torsions:
REMARK  status: ('A' for Active; 'I' for Inactive)
REMARK    1  A    between atoms: C4_4  and  S10_10 
REMARK    2  A    between atoms: C5_5  and  C7_7 
REMARK    3  A    between atoms: C7_7  and  S10_10 
ROOT
HETATM    1  C1  UNL     1     -34.660   4.616   4.300  1.00 20.00     0.009 A 
HETATM    2  C2  UNL     1     -33.618   4.694   3.331  1.00 20.00     0.026 A 
HETATM    3  C3  UNL     1     -35.265   5.835   4.508  1.00 20.00     0.051 A 
HETATM    4  C4  UNL     1     -33.467   5.970   2.835  1.00 20.00     0.041 A 
HETATM    5  S9  UNL     1     -34.577   7.068   3.538  1.00 20.00    -0.095 SA
ENDROOT
BRANCH   4   6
HETATM    6  S10 UNL     1     -32.290   6.480   1.621  1.00 20.00    -0.115 SA
BRANCH   6   7
HETATM    7  C7  UNL     1     -32.277   8.263   1.919  1.00 20.00     0.157 C 
BRANCH   7   8
HETATM    8  C5  UNL     1     -31.897   9.033   0.676  1.00 20.00     0.132 C 
HETATM    9  C6  UNL     1     -32.690  10.278   0.445  1.00 20.00     0.091 C 
HETATM   10  O8  UNL     1     -31.020   8.722  -0.119  1.00 20.00    -0.298 OA
ENDBRANCH   7   8
ENDBRANCH   6   7
ENDBRANCH   4   6
TORSDOF 3
ENDMDL
MODEL 4
REMARK VINA RESULT:      -0.2      1.748      1.982
REMARK  3 active torsions:
REMARK  status: ('A' for Active; 'I' for Inactive)
REMARK    1  A    between atoms: C4_4  and  S10_10 
REMARK    2  A    between atoms: C5_5  and  C7_7 
REMARK    3  A    between atoms: C7_7  and  S10_10 
ROOT
HETATM    1  C1  UNL     1     -34.278   5.552   3.115  1.00 20.00     0.009 A 
HETATM    2  C2  UNL     1     -33.157   6.125   2.446  1.00 20.00     0.026 A 
HETATM    3  C3  UNL     1     -34.826   6.414   4.037  1.00 20.00     0.051 A 
HETATM    4  C4  UNL     1     -32.893   7.404   2.883  1.00 20.00     0.041 A 
HETATM    5  S9  UNL     1     -33.992   7.910   4.094  1.00 20.00    -0.095 SA
ENDROOT
BRANCH   4   6
HETATM    6  S10 UNL     1     -31.593   8.452   2.304  1.00 20.00    -0.115 SA
BRANCH   6   7
HETATM    7  C7  UNL     1     -31.922   8.414   0.527  1.00 20.00     0.157 C 
BRANCH   7   8
HETATM    8  C5  UNL     1     -32.554   9.700   0.050  1.00 20.00     0.132 C 
HETATM    9  C6  UNL     1     -32.660  10.768   1.090  1.00 20.00     0.091 C 
HETATM   10  O8  UNL     1     -32.966   9.919  -1.082  1.00 20.00    -0.298 OA
ENDBRANCH   7   8
ENDBRANCH   6   7
ENDBRANCH   4   6
TORSDOF 3
ENDMDL
MODEL 5
REMARK VINA RESULT:      -0.2      0.884      1.058
REMARK  3 active torsions:
REMARK  status: ('A' for Active; 'I' for Inactive)
REMARK    1  A    between atoms: C4_4  and  S10_10 
REMARK    2  A    between atoms: C5_5  and  C7_7 
REMARK    3  A    between atoms: C7_7  and  S10_10 
ROOT
HETATM    1  C1  UNL     1     -35.347   6.163   4.340  1.00 20.00     0.009 A 
HETATM    2  C2  UNL     1     -34.522   6.869   3.417  1.00 20.00     0.026 A 
HETATM    3  C3  UNL     1     -34.987   4.839   4.449  1.00 20.00     0.051 A 
HETATM    4  C4  UNL     1     -33.561   6.056   2.856  1.00 20.00     0.041 A 
HETATM    5  S9  UNL     1     -33.657   4.450   3.441  1.00 20.00    -0.095 SA
ENDROOT
BRANCH   4   6
HETATM    6  S10 UNL     1     -32.346   6.548   1.671  1.00 20.00    -0.115 SA
BRANCH   6   7
HETATM    7  C7  UNL     1     -32.178   8.297   2.097  1.00 20.00     0.157 C 
BRANCH   7   8
HETATM    8  C5  UNL     1     -32.148   9.170   0.865  1.00 20.00     0.132 C 
HETATM    9  C6  UNL     1     -31.273   8.666  -0.237  1.00 20.00     0.091 C 
HETATM   10  O8  UNL     1     -32.766  10.216   0.712  1.00 20.00    -0.298 OA
ENDBRANCH   7   8
ENDBRANCH   6   7
ENDBRANCH   4   6
TORSDOF 3
ENDMDL
MODEL 6
REMARK VINA RESULT:       0.7      1.413      1.686
REMARK  3 active torsions:
REMARK  status: ('A' for Active; 'I' for Inactive)
REMARK    1  A    between atoms: C4_4  and  S10_10 
REMARK    2  A    between atoms: C5_5  and  C7_7 
REMARK    3  A    between atoms: C7_7  and  S10_10 
ROOT
HETATM    1  C1  UNL     1     -35.000   4.706   4.537  1.00 20.00     0.009 A 
HETATM    2  C2  UNL     1     -33.926   4.439   3.639  1.00 20.00     0.026 A 
HETATM    3  C3  UNL     1     -35.375   6.031   4.515  1.00 20.00     0.051 A 
HETATM    4  C4  UNL     1     -33.522   5.571   2.964  1.00 20.00     0.041 A 
HETATM    5  S9  UNL     1     -34.436   6.947   3.415  1.00 20.00    -0.095 SA
ENDROOT
BRANCH   4   6
HETATM    6  S10 UNL     1     -32.226   5.659   1.766  1.00 20.00    -0.115 SA
BRANCH   6   7
HETATM    7  C7  UNL     1     -32.737   7.134   0.855  1.00 20.00     0.157 C 
BRANCH   7   8
HETATM    8  C5  UNL     1     -32.036   8.373   1.362  1.00 20.00     0.132 C 
HETATM    9  C6  UNL     1     -32.230   9.590   0.518  1.00 20.00     0.091 C 
HETATM   10  O8  UNL     1     -31.353   8.445   2.375  1.00 20.00    -0.298 OA
ENDBRANCH   7   8
ENDBRANCH   6   7
ENDBRANCH   4   6
TORSDOF 3
ENDMDL
MODEL 7
REMARK VINA RESULT:       0.7      2.718      5.318
REMARK  3 active torsions:
REMARK  status: ('A' for Active; 'I' for Inactive)
REMARK    1  A    between atoms: C4_4  and  S10_10 
REMARK    2  A    between atoms: C5_5  and  C7_7 
REMARK    3  A    between atoms: C7_7  and  S10_10 
ROOT
HETATM    1  C1  UNL     1     -32.331   9.641   0.671  1.00 20.00     0.009 A 
HETATM    2  C2  UNL     1     -33.197   9.302   1.751  1.00 20.00     0.026 A 
HETATM    3  C3  UNL     1     -31.440   8.631   0.386  1.00 20.00     0.051 A 
HETATM    4  C4  UNL     1     -32.936   8.044   2.249  1.00 20.00     0.041 A 
HETATM    5  S9  UNL     1     -31.650   7.279   1.416  1.00 20.00    -0.095 SA
ENDROOT
BRANCH   4   6
HETATM    6  S10 UNL     1     -33.787   7.256   3.582  1.00 20.00    -0.115 SA
BRANCH   6   7
HETATM    7  C7  UNL     1     -33.572   5.523   3.116  1.00 20.00     0.157 C 
BRANCH   7   8
HETATM    8  C5  UNL     1     -34.292   4.597   4.067  1.00 20.00     0.132 C 
HETATM    9  C6  UNL     1     -33.565   3.329   4.376  1.00 20.00     0.091 C 
HETATM   10  O8  UNL     1     -35.383   4.806   4.583  1.00 20.00    -0.298 OA
ENDBRANCH   7   8
ENDBRANCH   6   7
ENDBRANCH   4   6
TORSDOF 3
ENDMDL
MODEL 8
REMARK VINA RESULT:       0.8      2.138      5.054
REMARK  3 active torsions:
REMARK  status: ('A' for Active; 'I' for Inactive)
REMARK    1  A    between atoms: C4_4  and  S10_10 
REMARK    2  A    between atoms: C5_5  and  C7_7 
REMARK    3  A    between atoms: C7_7  and  S10_10 
ROOT
HETATM    1  C1  UNL     1     -32.902  10.799   0.667  1.00 20.00     0.009 A 
HETATM    2  C2  UNL     1     -32.771   9.783   1.657  1.00 20.00     0.026 A 
HETATM    3  C3  UNL     1     -32.411  10.397  -0.555  1.00 20.00     0.051 A 
HETATM    4  C4  UNL     1     -32.185   8.642   1.153  1.00 20.00     0.041 A 
HETATM    5  S9  UNL     1     -31.794   8.800  -0.506  1.00 20.00    -0.095 SA
ENDROOT
BRANCH   4   6
HETATM    6  S10 UNL     1     -31.849   7.161   2.057  1.00 20.00    -0.115 SA
BRANCH   6   7
HETATM    7  C7  UNL     1     -33.529   6.526   2.261  1.00 20.00     0.157 C 
BRANCH   7   8
HETATM    8  C5  UNL     1     -34.118   6.929   3.593  1.00 20.00     0.132 C 
HETATM    9  C6  UNL     1     -35.321   6.146   4.007  1.00 20.00     0.091 C 
HETATM   10  O8  UNL     1     -33.694   7.813   4.326  1.00 20.00    -0.298 OA
ENDBRANCH   7   8
ENDBRANCH   6   7
ENDBRANCH   4   6
TORSDOF 3
ENDMDL
MODEL 9
REMARK VINA RESULT:       0.8      3.364      5.573
REMARK  3 active torsions:
REMARK  status: ('A' for Active; 'I' for Inactive)
REMARK    1  A    between atoms: C4_4  and  S10_10 
REMARK    2  A    between atoms: C5_5  and  C7_7 
REMARK    3  A    between atoms: C7_7  and  S10_10 
ROOT
HETATM    1  C1  UNL     1     -32.168   7.196   1.501  1.00 20.00     0.009 A 
HETATM    2  C2  UNL     1     -32.844   6.031   1.967  1.00 20.00     0.026 A 
HETATM    3  C3  UNL     1     -32.355   8.272   2.340  1.00 20.00     0.051 A 
HETATM    4  C4  UNL     1     -33.521   6.261   3.144  1.00 20.00     0.041 A 
HETATM    5  S9  UNL     1     -33.342   7.876   3.683  1.00 20.00    -0.095 SA
ENDROOT
BRANCH   4   6
HETATM    6  S10 UNL     1     -34.477   5.076   4.041  1.00 20.00    -0.115 SA
BRANCH   6   7
HETATM    7  C7  UNL     1     -33.691   3.547   3.484  1.00 20.00     0.157 C 
BRANCH   7   8
HETATM    8  C5  UNL     1     -33.254   2.689   4.648  1.00 20.00     0.132 C 
HETATM    9  C6  UNL     1     -32.648   3.443   5.787  1.00 20.00     0.091 C 
HETATM   10  O8  UNL     1     -33.360   1.472   4.721  1.00 20.00    -0.298 OA
ENDBRANCH   7   8
ENDBRANCH   6   7
ENDBRANCH   4   6
TORSDOF 3
ENDMDL
