MODEL 1
REMARK VINA RESULT:      -2.0      0.000      0.000
REMARK  0 active torsions:
REMARK  status: ('A' for Active; 'I' for Inactive)
ROOT
HETATM    1  C1  UNL     1     -31.902   6.583   1.174  1.00 20.00     0.001 A 
HETATM    2  C2  UNL     1     -31.749   7.876   1.685  1.00 20.00     0.003 A 
HETATM    3  C3  UNL     1     -32.856   5.702   1.702  1.00 20.00     0.016 A 
HETATM    4  C4  UNL     1     -32.542   8.338   2.740  1.00 20.00     0.040 A 
HETATM    5  C5  UNL     1     -34.694   5.642   3.567  1.00 20.00     0.161 A 
HETATM    6  C6  UNL     1     -33.658   6.153   2.761  1.00 20.00     0.019 A 
HETATM    7  C7  UNL     1     -33.479   7.439   3.240  1.00 20.00     0.113 A 
HETATM    8  N8  UNL     1     -35.123   6.530   4.468  1.00 20.00    -0.140 NA
HETATM    9  O9  UNL     1     -34.352   7.666   4.259  1.00 20.00    -0.213 OA
ENDROOT
TORSDOF 0
ENDMDL
MODEL 2
REMARK VINA RESULT:      -2.0      0.913      1.930
REMARK  0 active torsions:
REMARK  status: ('A' for Active; 'I' for Inactive)
ROOT
HETATM    1  C1  UNL     1     -31.716   7.685   1.563  1.00 20.00     0.001 A 
HETATM    2  C2  UNL     1     -31.899   6.362   1.150  1.00 20.00     0.003 A 
HETATM    3  C3  UNL     1     -32.489   8.238   2.593  1.00 20.00     0.016 A 
HETATM    4  C4  UNL     1     -32.862   5.541   1.748  1.00 20.00     0.040 A 
HETATM    5  C5  UNL     1     -34.420   7.549   4.223  1.00 20.00     0.161 A 
HETATM    6  C6  UNL     1     -33.458   7.426   3.201  1.00 20.00     0.019 A 
HETATM    7  C7  UNL     1     -33.612   6.121   2.766  1.00 20.00     0.113 A 
HETATM    8  N8  UNL     1     -35.111   6.420   4.409  1.00 20.00    -0.140 NA
HETATM    9  O9  UNL     1     -34.598   5.519   3.485  1.00 20.00    -0.213 OA
ENDROOT
TORSDOF 0
ENDMDL
MODEL 3
REMARK VINA RESULT:      -1.8      2.232      3.651
REMARK  0 active torsions:
REMARK  status: ('A' for Active; 'I' for Inactive)
ROOT
HETATM    1  C1  UNL     1     -34.907   6.714   4.353  1.00 20.00     0.001 A 
HETATM    2  C2  UNL     1     -34.747   5.406   3.886  1.00 20.00     0.003 A 
HETATM    3  C3  UNL     1     -34.122   7.764   3.857  1.00 20.00     0.016 A 
HETATM    4  C4  UNL     1     -33.797   5.096   2.906  1.00 20.00     0.040 A 
HETATM    5  C5  UNL     1     -32.200   8.165   2.124  1.00 20.00     0.161 A 
HETATM    6  C6  UNL     1     -33.166   7.467   2.874  1.00 20.00     0.019 A 
HETATM    7  C7  UNL     1     -33.035   6.161   2.436  1.00 20.00     0.113 A 
HETATM    8  N8  UNL     1     -31.527   7.366   1.291  1.00 20.00    -0.140 NA
HETATM    9  O9  UNL     1     -32.058   6.098   1.491  1.00 20.00    -0.213 OA
ENDROOT
TORSDOF 0
ENDMDL
MODEL 4
REMARK VINA RESULT:      -1.7      2.015      3.108
REMARK  0 active torsions:
REMARK  status: ('A' for Active; 'I' for Inactive)
ROOT
HETATM    1  C1  UNL     1     -34.785   5.367   3.925  1.00 20.00     0.001 A 
HETATM    2  C2  UNL     1     -34.927   6.664   4.429  1.00 20.00     0.003 A 
HETATM    3  C3  UNL     1     -33.851   5.077   2.921  1.00 20.00     0.016 A 
HETATM    4  C4  UNL     1     -34.142   7.719   3.950  1.00 20.00     0.040 A 
HETATM    5  C5  UNL     1     -32.040   6.295   1.473  1.00 20.00     0.161 A 
HETATM    6  C6  UNL     1     -33.058   6.125   2.432  1.00 20.00     0.019 A 
HETATM    7  C7  UNL     1     -33.225   7.396   2.955  1.00 20.00     0.113 A 
HETATM    8  N8  UNL     1     -31.611   7.558   1.404  1.00 20.00    -0.140 NA
HETATM    9  O9  UNL     1     -32.364   8.253   2.342  1.00 20.00    -0.213 OA
ENDROOT
TORSDOF 0
ENDMDL
MODEL 5
REMARK VINA RESULT:      -1.4      0.947      1.013
REMARK  0 active torsions:
REMARK  status: ('A' for Active; 'I' for Inactive)
ROOT
HETATM    1  C1  UNL     1     -32.025   6.811   1.528  1.00 20.00     0.001 A 
HETATM    2  C2  UNL     1     -32.518   7.987   2.102  1.00 20.00     0.003 A 
HETATM    3  C3  UNL     1     -32.516   5.555   1.911  1.00 20.00     0.016 A 
HETATM    4  C4  UNL     1     -33.519   7.954   3.079  1.00 20.00     0.040 A 
HETATM    5  C5  UNL     1     -34.274   4.521   3.553  1.00 20.00     0.161 A 
HETATM    6  C6  UNL     1     -33.520   5.508   2.889  1.00 20.00     0.019 A 
HETATM    7  C7  UNL     1     -33.984   6.692   3.435  1.00 20.00     0.113 A 
HETATM    8  N8  UNL     1     -35.133   5.043   4.434  1.00 20.00    -0.140 NA
HETATM    9  O9  UNL     1     -34.946   6.417   4.357  1.00 20.00    -0.213 OA
ENDROOT
TORSDOF 0
ENDMDL
MODEL 6
REMARK VINA RESULT:      -1.2      1.502      2.214
REMARK  0 active torsions:
REMARK  status: ('A' for Active; 'I' for Inactive)
ROOT
HETATM    1  C1  UNL     1     -32.888   8.164   2.574  1.00 20.00     0.001 A 
HETATM    2  C2  UNL     1     -32.191   7.121   1.956  1.00 20.00     0.003 A 
HETATM    3  C3  UNL     1     -33.926   7.907   3.481  1.00 20.00     0.016 A 
HETATM    4  C4  UNL     1     -32.503   5.782   2.220  1.00 20.00     0.040 A 
HETATM    5  C5  UNL     1     -35.172   5.869   4.554  1.00 20.00     0.161 A 
HETATM    6  C6  UNL     1     -34.249   6.569   3.753  1.00 20.00     0.019 A 
HETATM    7  C7  UNL     1     -33.537   5.563   3.124  1.00 20.00     0.113 A 
HETATM    8  N8  UNL     1     -35.047   4.544   4.435  1.00 20.00    -0.140 NA
HETATM    9  O9  UNL     1     -34.012   4.353   3.528  1.00 20.00    -0.213 OA
ENDROOT
TORSDOF 0
ENDMDL
MODEL 7
REMARK VINA RESULT:      -0.4      2.300      3.504
REMARK  0 active torsions:
REMARK  status: ('A' for Active; 'I' for Inactive)
ROOT
HETATM    1  C1  UNL     1     -34.508   5.757   3.788  1.00 20.00     0.001 A 
HETATM    2  C2  UNL     1     -33.927   4.832   2.914  1.00 20.00     0.003 A 
HETATM    3  C3  UNL     1     -34.135   7.108   3.768  1.00 20.00     0.016 A 
HETATM    4  C4  UNL     1     -32.953   5.221   1.987  1.00 20.00     0.040 A 
HETATM    5  C5  UNL     1     -32.505   8.705   2.482  1.00 20.00     0.161 A 
HETATM    6  C6  UNL     1     -33.160   7.511   2.844  1.00 20.00     0.019 A 
HETATM    7  C7  UNL     1     -32.607   6.568   1.994  1.00 20.00     0.113 A 
HETATM    8  N8  UNL     1     -31.623   8.523   1.495  1.00 20.00    -0.140 NA
HETATM    9  O9  UNL     1     -31.690   7.170   1.189  1.00 20.00    -0.213 OA
ENDROOT
TORSDOF 0
ENDMDL
MODEL 8
REMARK VINA RESULT:      -0.2      1.871      2.461
REMARK  0 active torsions:
REMARK  status: ('A' for Active; 'I' for Inactive)
ROOT
HETATM    1  C1  UNL     1     -33.224   7.466   2.384  1.00 20.00     0.001 A 
HETATM    2  C2  UNL     1     -34.249   7.855   3.251  1.00 20.00     0.003 A 
HETATM    3  C3  UNL     1     -32.793   6.134   2.319  1.00 20.00     0.016 A 
HETATM    4  C4  UNL     1     -34.884   6.929   4.086  1.00 20.00     0.040 A 
HETATM    5  C5  UNL     1     -33.324   3.814   3.414  1.00 20.00     0.161 A 
HETATM    6  C6  UNL     1     -33.421   5.195   3.151  1.00 20.00     0.019 A 
HETATM    7  C7  UNL     1     -34.433   5.616   3.997  1.00 20.00     0.113 A 
HETATM    8  N8  UNL     1     -34.197   3.410   4.341  1.00 20.00    -0.140 NA
HETATM    9  O9  UNL     1     -34.897   4.553   4.708  1.00 20.00    -0.213 OA
ENDROOT
TORSDOF 0
ENDMDL
