MODEL 1
REMARK VINA RESULT:      -2.7      0.000      0.000
REMARK  0 active torsions:
REMARK  status: ('A' for Active; 'I' for Inactive)
ROOT
HETATM    1  C1  UNL     1     -34.014   5.510   2.522  1.00 20.00     0.091 A 
HETATM    2  C2  UNL     1     -32.928   5.874   1.725  1.00 20.00     0.161 A 
HETATM    3  C3  UNL     1     -34.388   6.315   3.599  1.00 20.00     0.161 A 
HETATM    4  C4  UNL     1     -32.217   7.040   2.004  1.00 20.00     0.196 A 
HETATM    5  C5  UNL     1     -33.677   7.482   3.879  1.00 20.00     0.196 A 
HETATM    6  C6  UNL     1     -32.591   7.844   3.081  1.00 20.00     0.199 A 
HETATM    7  F7  UNL     1     -32.569   5.101   0.691  1.00 20.00    -0.203 F 
HETATM    8  F8  UNL     1     -35.431   5.965   4.364  1.00 20.00    -0.203 F 
HETATM    9  F9  UNL     1     -31.174   7.389   1.239  1.00 20.00    -0.199 F 
HETATM   10  F10 UNL     1     -34.036   8.253   4.912  1.00 20.00    -0.199 F 
HETATM   11  F11 UNL     1     -31.908   8.965   3.350  1.00 20.00    -0.199 F 
ENDROOT
TORSDOF 0
ENDMDL
MODEL 2
REMARK VINA RESULT:      -2.7      0.001      3.206
REMARK  0 active torsions:
REMARK  status: ('A' for Active; 'I' for Inactive)
ROOT
HETATM    1  C1  UNL     1     -34.015   5.512   2.522  1.00 20.00     0.091 A 
HETATM    2  C2  UNL     1     -34.388   6.316   3.599  1.00 20.00     0.161 A 
HETATM    3  C3  UNL     1     -32.929   5.874   1.725  1.00 20.00     0.161 A 
HETATM    4  C4  UNL     1     -33.676   7.482   3.879  1.00 20.00     0.196 A 
HETATM    5  C5  UNL     1     -32.216   7.041   2.004  1.00 20.00     0.196 A 
HETATM    6  C6  UNL     1     -32.590   7.845   3.081  1.00 20.00     0.199 A 
HETATM    7  F7  UNL     1     -35.431   5.968   4.364  1.00 20.00    -0.203 F 
HETATM    8  F8  UNL     1     -32.570   5.102   0.691  1.00 20.00    -0.203 F 
HETATM    9  F9  UNL     1     -34.035   8.255   4.913  1.00 20.00    -0.199 F 
HETATM   10  F10 UNL     1     -31.174   7.389   1.239  1.00 20.00    -0.199 F 
HETATM   11  F11 UNL     1     -31.907   8.965   3.350  1.00 20.00    -0.199 F 
ENDROOT
TORSDOF 0
ENDMDL
MODEL 3
REMARK VINA RESULT:      -2.4      0.879      4.183
REMARK  0 active torsions:
REMARK  status: ('A' for Active; 'I' for Inactive)
ROOT
HETATM    1  C1  UNL     1     -32.900   8.115   2.897  1.00 20.00     0.091 A 
HETATM    2  C2  UNL     1     -33.859   7.540   3.732  1.00 20.00     0.161 A 
HETATM    3  C3  UNL     1     -32.246   7.334   1.944  1.00 20.00     0.161 A 
HETATM    4  C4  UNL     1     -34.163   6.185   3.613  1.00 20.00     0.196 A 
HETATM    5  C5  UNL     1     -32.551   5.978   1.825  1.00 20.00     0.196 A 
HETATM    6  C6  UNL     1     -33.510   5.403   2.659  1.00 20.00     0.199 A 
HETATM    7  F7  UNL     1     -34.486   8.290   4.647  1.00 20.00    -0.203 F 
HETATM    8  F8  UNL     1     -31.325   7.886   1.143  1.00 20.00    -0.203 F 
HETATM    9  F9  UNL     1     -35.084   5.632   4.414  1.00 20.00    -0.199 F 
HETATM   10  F10 UNL     1     -31.924   5.228   0.910  1.00 20.00    -0.199 F 
HETATM   11  F11 UNL     1     -33.803   4.101   2.546  1.00 20.00    -0.199 F 
ENDROOT
TORSDOF 0
ENDMDL
MODEL 4
REMARK VINA RESULT:      -2.3      0.875      2.700
REMARK  0 active torsions:
REMARK  status: ('A' for Active; 'I' for Inactive)
ROOT
HETATM    1  C1  UNL     1     -32.900   8.115   2.911  1.00 20.00     0.091 A 
HETATM    2  C2  UNL     1     -32.249   7.336   1.954  1.00 20.00     0.161 A 
HETATM    3  C3  UNL     1     -33.858   7.537   3.745  1.00 20.00     0.161 A 
HETATM    4  C4  UNL     1     -32.556   5.982   1.831  1.00 20.00     0.196 A 
HETATM    5  C5  UNL     1     -34.165   6.182   3.622  1.00 20.00     0.196 A 
HETATM    6  C6  UNL     1     -33.514   5.404   2.665  1.00 20.00     0.199 A 
HETATM    7  F7  UNL     1     -31.329   7.890   1.154  1.00 20.00    -0.203 F 
HETATM    8  F8  UNL     1     -34.484   8.285   4.664  1.00 20.00    -0.203 F 
HETATM    9  F9  UNL     1     -31.931   5.234   0.911  1.00 20.00    -0.199 F 
HETATM   10  F10 UNL     1     -35.085   5.629   4.422  1.00 20.00    -0.199 F 
HETATM   11  F11 UNL     1     -33.809   4.103   2.545  1.00 20.00    -0.199 F 
ENDROOT
TORSDOF 0
ENDMDL
MODEL 5
REMARK VINA RESULT:      -1.8      1.172      1.481
REMARK  0 active torsions:
REMARK  status: ('A' for Active; 'I' for Inactive)
ROOT
HETATM    1  C1  UNL     1     -33.111   4.703   2.669  1.00 20.00     0.091 A 
HETATM    2  C2  UNL     1     -32.502   5.720   1.934  1.00 20.00     0.161 A 
HETATM    3  C3  UNL     1     -34.073   5.017   3.630  1.00 20.00     0.161 A 
HETATM    4  C4  UNL     1     -32.854   7.050   2.159  1.00 20.00     0.196 A 
HETATM    5  C5  UNL     1     -34.426   6.348   3.855  1.00 20.00     0.196 A 
HETATM    6  C6  UNL     1     -33.816   7.364   3.120  1.00 20.00     0.199 A 
HETATM    7  F7  UNL     1     -31.578   5.418   1.013  1.00 20.00    -0.203 F 
HETATM    8  F8  UNL     1     -34.658   4.040   4.336  1.00 20.00    -0.203 F 
HETATM    9  F9  UNL     1     -32.268   8.027   1.453  1.00 20.00    -0.199 F 
HETATM   10  F10 UNL     1     -35.349   6.649   4.776  1.00 20.00    -0.199 F 
HETATM   11  F11 UNL     1     -34.154   8.643   3.335  1.00 20.00    -0.199 F 
ENDROOT
TORSDOF 0
ENDMDL
MODEL 6
REMARK VINA RESULT:      -1.8      1.163      3.354
REMARK  0 active torsions:
REMARK  status: ('A' for Active; 'I' for Inactive)
ROOT
HETATM    1  C1  UNL     1     -33.130   4.726   2.654  1.00 20.00     0.091 A 
HETATM    2  C2  UNL     1     -34.090   5.029   3.621  1.00 20.00     0.161 A 
HETATM    3  C3  UNL     1     -32.524   5.753   1.929  1.00 20.00     0.161 A 
HETATM    4  C4  UNL     1     -34.443   6.355   3.862  1.00 20.00     0.196 A 
HETATM    5  C5  UNL     1     -32.878   7.081   2.170  1.00 20.00     0.196 A 
HETATM    6  C6  UNL     1     -33.837   7.382   3.137  1.00 20.00     0.199 A 
HETATM    7  F7  UNL     1     -34.671   4.043   4.317  1.00 20.00    -0.203 F 
HETATM    8  F8  UNL     1     -31.603   5.463   1.000  1.00 20.00    -0.203 F 
HETATM    9  F9  UNL     1     -35.365   6.646   4.791  1.00 20.00    -0.199 F 
HETATM   10  F10 UNL     1     -32.296   8.065   1.474  1.00 20.00    -0.199 F 
HETATM   11  F11 UNL     1     -34.177   8.657   3.369  1.00 20.00    -0.199 F 
ENDROOT
TORSDOF 0
ENDMDL
MODEL 7
REMARK VINA RESULT:      -1.5      1.046      2.772
REMARK  0 active torsions:
REMARK  status: ('A' for Active; 'I' for Inactive)
ROOT
HETATM    1  C1  UNL     1     -33.726   7.977   3.291  1.00 20.00     0.091 A 
HETATM    2  C2  UNL     1     -32.728   8.226   2.349  1.00 20.00     0.161 A 
HETATM    3  C3  UNL     1     -34.126   6.666   3.552  1.00 20.00     0.161 A 
HETATM    4  C4  UNL     1     -32.131   7.166   1.668  1.00 20.00     0.196 A 
HETATM    5  C5  UNL     1     -33.528   5.605   2.871  1.00 20.00     0.196 A 
HETATM    6  C6  UNL     1     -32.531   5.855   1.929  1.00 20.00     0.199 A 
HETATM    7  F7  UNL     1     -32.344   9.485   2.098  1.00 20.00    -0.203 F 
HETATM    8  F8  UNL     1     -35.084   6.426   4.457  1.00 20.00    -0.203 F 
HETATM    9  F9  UNL     1     -31.172   7.406   0.763  1.00 20.00    -0.199 F 
HETATM   10  F10 UNL     1     -33.912   4.347   3.122  1.00 20.00    -0.199 F 
HETATM   11  F11 UNL     1     -31.956   4.837   1.275  1.00 20.00    -0.199 F 
ENDROOT
TORSDOF 0
ENDMDL
MODEL 8
REMARK VINA RESULT:      -1.5      1.048      3.744
REMARK  0 active torsions:
REMARK  status: ('A' for Active; 'I' for Inactive)
ROOT
HETATM    1  C1  UNL     1     -33.728   7.977   3.291  1.00 20.00     0.091 A 
HETATM    2  C2  UNL     1     -34.125   6.664   3.548  1.00 20.00     0.161 A 
HETATM    3  C3  UNL     1     -32.730   8.231   2.350  1.00 20.00     0.161 A 
HETATM    4  C4  UNL     1     -33.525   5.608   2.864  1.00 20.00     0.196 A 
HETATM    5  C5  UNL     1     -32.130   7.174   1.666  1.00 20.00     0.196 A 
HETATM    6  C6  UNL     1     -32.527   5.862   1.923  1.00 20.00     0.199 A 
HETATM    7  F7  UNL     1     -35.083   6.420   4.452  1.00 20.00    -0.203 F 
HETATM    8  F8  UNL     1     -32.348   9.491   2.103  1.00 20.00    -0.203 F 
HETATM    9  F9  UNL     1     -33.907   4.347   3.112  1.00 20.00    -0.199 F 
HETATM   10  F10 UNL     1     -31.172   7.419   0.762  1.00 20.00    -0.199 F 
HETATM   11  F11 UNL     1     -31.952   4.846   1.267  1.00 20.00    -0.199 F 
ENDROOT
TORSDOF 0
ENDMDL
MODEL 9
REMARK VINA RESULT:      -1.4      1.150      2.882
REMARK  0 active torsions:
REMARK  status: ('A' for Active; 'I' for Inactive)
ROOT
HETATM    1  C1  UNL     1     -32.050   6.997   1.481  1.00 20.00     0.091 A 
HETATM    2  C2  UNL     1     -32.351   5.653   1.703  1.00 20.00     0.161 A 
HETATM    3  C3  UNL     1     -32.709   7.988   2.209  1.00 20.00     0.161 A 
HETATM    4  C4  UNL     1     -33.310   5.300   2.651  1.00 20.00     0.196 A 
HETATM    5  C5  UNL     1     -33.668   7.635   3.159  1.00 20.00     0.196 A 
HETATM    6  C6  UNL     1     -33.968   6.292   3.380  1.00 20.00     0.199 A 
HETATM    7  F7  UNL     1     -31.719   4.701   1.003  1.00 20.00    -0.203 F 
HETATM    8  F8  UNL     1     -32.420   9.279   1.996  1.00 20.00    -0.203 F 
HETATM    9  F9  UNL     1     -33.600   4.009   2.864  1.00 20.00    -0.199 F 
HETATM   10  F10 UNL     1     -34.299   8.587   3.858  1.00 20.00    -0.199 F 
HETATM   11  F11 UNL     1     -34.890   5.952   4.291  1.00 20.00    -0.199 F 
ENDROOT
TORSDOF 0
ENDMDL
