MODEL 1
REMARK VINA RESULT:      -2.7      0.000      0.000
REMARK  0 active torsions:
REMARK  status: ('A' for Active; 'I' for Inactive)
ROOT
HETATM    1  C1  UNL     1     -32.154   7.278   1.878  1.00 20.00     0.000 A 
HETATM    2  C2  UNL     1     -32.717   6.016   1.688  1.00 20.00     0.003 A 
HETATM    3  C3  UNL     1     -32.646   8.117   2.878  1.00 20.00     0.003 A 
HETATM    4  C4  UNL     1     -33.770   5.592   2.498  1.00 20.00     0.042 A 
HETATM    5  C5  UNL     1     -33.699   7.694   3.688  1.00 20.00     0.042 A 
HETATM    6  C6  UNL     1     -34.263   6.432   3.498  1.00 20.00     0.116 A 
HETATM    7  F7  UNL     1     -35.275   6.026   4.275  1.00 20.00    -0.206 F 
ENDROOT
TORSDOF 0
ENDMDL
MODEL 2
REMARK VINA RESULT:      -2.7      0.018      1.826
REMARK  0 active torsions:
REMARK  status: ('A' for Active; 'I' for Inactive)
ROOT
HETATM    1  C1  UNL     1     -32.157   7.291   1.885  1.00 20.00     0.000 A 
HETATM    2  C2  UNL     1     -32.658   8.121   2.887  1.00 20.00     0.003 A 
HETATM    3  C3  UNL     1     -32.707   6.025   1.687  1.00 20.00     0.003 A 
HETATM    4  C4  UNL     1     -33.711   7.684   3.693  1.00 20.00     0.042 A 
HETATM    5  C5  UNL     1     -33.759   5.588   2.491  1.00 20.00     0.042 A 
HETATM    6  C6  UNL     1     -34.260   6.417   3.495  1.00 20.00     0.116 A 
HETATM    7  F7  UNL     1     -35.270   5.998   4.268  1.00 20.00    -0.206 F 
ENDROOT
TORSDOF 0
ENDMDL
MODEL 3
REMARK VINA RESULT:      -2.6      0.945      2.040
REMARK  0 active torsions:
REMARK  status: ('A' for Active; 'I' for Inactive)
ROOT
HETATM    1  C1  UNL     1     -32.401   6.252   1.411  1.00 20.00     0.000 A 
HETATM    2  C2  UNL     1     -32.046   7.548   1.784  1.00 20.00     0.003 A 
HETATM    3  C3  UNL     1     -33.358   5.552   2.145  1.00 20.00     0.003 A 
HETATM    4  C4  UNL     1     -32.650   8.146   2.891  1.00 20.00     0.042 A 
HETATM    5  C5  UNL     1     -33.961   6.148   3.252  1.00 20.00     0.042 A 
HETATM    6  C6  UNL     1     -33.606   7.445   3.626  1.00 20.00     0.116 A 
HETATM    7  F7  UNL     1     -34.185   8.017   4.690  1.00 20.00    -0.206 F 
ENDROOT
TORSDOF 0
ENDMDL
MODEL 4
REMARK VINA RESULT:      -2.6      0.944      1.414
REMARK  0 active torsions:
REMARK  status: ('A' for Active; 'I' for Inactive)
ROOT
HETATM    1  C1  UNL     1     -32.433   6.228   1.414  1.00 20.00     0.000 A 
HETATM    2  C2  UNL     1     -33.401   5.547   2.152  1.00 20.00     0.003 A 
HETATM    3  C3  UNL     1     -32.050   7.516   1.787  1.00 20.00     0.003 A 
HETATM    4  C4  UNL     1     -33.985   6.154   3.264  1.00 20.00     0.042 A 
HETATM    5  C5  UNL     1     -32.634   8.123   2.898  1.00 20.00     0.042 A 
HETATM    6  C6  UNL     1     -33.602   7.443   3.636  1.00 20.00     0.116 A 
HETATM    7  F7  UNL     1     -34.164   8.027   4.703  1.00 20.00    -0.206 F 
ENDROOT
TORSDOF 0
ENDMDL
MODEL 5
REMARK VINA RESULT:      -2.6      2.005      2.709
REMARK  0 active torsions:
REMARK  status: ('A' for Active; 'I' for Inactive)
ROOT
HETATM    1  C1  UNL     1     -34.354   6.352   3.674  1.00 20.00     0.000 A 
HETATM    2  C2  UNL     1     -33.814   5.590   2.638  1.00 20.00     0.003 A 
HETATM    3  C3  UNL     1     -33.896   7.650   3.896  1.00 20.00     0.003 A 
HETATM    4  C4  UNL     1     -32.817   6.126   1.823  1.00 20.00     0.042 A 
HETATM    5  C5  UNL     1     -32.899   8.187   3.082  1.00 20.00     0.042 A 
HETATM    6  C6  UNL     1     -32.359   7.425   2.046  1.00 20.00     0.116 A 
HETATM    7  F7  UNL     1     -31.401   7.941   1.264  1.00 20.00    -0.206 F 
ENDROOT
TORSDOF 0
ENDMDL
MODEL 6
REMARK VINA RESULT:      -2.6      2.006      3.267
REMARK  0 active torsions:
REMARK  status: ('A' for Active; 'I' for Inactive)
ROOT
HETATM    1  C1  UNL     1     -34.351   6.349   3.669  1.00 20.00     0.000 A 
HETATM    2  C2  UNL     1     -33.895   7.649   3.888  1.00 20.00     0.003 A 
HETATM    3  C3  UNL     1     -33.810   5.586   2.635  1.00 20.00     0.003 A 
HETATM    4  C4  UNL     1     -32.898   8.186   3.074  1.00 20.00     0.042 A 
HETATM    5  C5  UNL     1     -32.813   6.122   1.820  1.00 20.00     0.042 A 
HETATM    6  C6  UNL     1     -32.357   7.423   2.038  1.00 20.00     0.116 A 
HETATM    7  F7  UNL     1     -31.401   7.938   1.256  1.00 20.00    -0.206 F 
ENDROOT
TORSDOF 0
ENDMDL
MODEL 7
REMARK VINA RESULT:      -2.6      1.734      2.518
REMARK  0 active torsions:
REMARK  status: ('A' for Active; 'I' for Inactive)
ROOT
HETATM    1  C1  UNL     1     -33.693   7.787   3.724  1.00 20.00     0.000 A 
HETATM    2  C2  UNL     1     -34.248   6.510   3.648  1.00 20.00     0.003 A 
HETATM    3  C3  UNL     1     -32.683   8.163   2.840  1.00 20.00     0.003 A 
HETATM    4  C4  UNL     1     -33.794   5.608   2.685  1.00 20.00     0.042 A 
HETATM    5  C5  UNL     1     -32.228   7.261   1.877  1.00 20.00     0.042 A 
HETATM    6  C6  UNL     1     -32.782   5.984   1.800  1.00 20.00     0.116 A 
HETATM    7  F7  UNL     1     -32.345   5.118   0.877  1.00 20.00    -0.206 F 
ENDROOT
TORSDOF 0
ENDMDL
MODEL 8
REMARK VINA RESULT:      -1.9      1.710      2.501
REMARK  0 active torsions:
REMARK  status: ('A' for Active; 'I' for Inactive)
ROOT
HETATM    1  C1  UNL     1     -34.378   7.160   3.293  1.00 20.00     0.000 A 
HETATM    2  C2  UNL     1     -33.335   6.454   2.694  1.00 20.00     0.003 A 
HETATM    3  C3  UNL     1     -35.254   6.508   4.161  1.00 20.00     0.003 A 
HETATM    4  C4  UNL     1     -33.167   5.095   2.962  1.00 20.00     0.042 A 
HETATM    5  C5  UNL     1     -35.087   5.150   4.429  1.00 20.00     0.042 A 
HETATM    6  C6  UNL     1     -34.045   4.443   3.829  1.00 20.00     0.116 A 
HETATM    7  F7  UNL     1     -33.885   3.138   4.086  1.00 20.00    -0.206 F 
ENDROOT
TORSDOF 0
ENDMDL
MODEL 9
REMARK VINA RESULT:      -1.9      2.022      3.100
REMARK  0 active torsions:
REMARK  status: ('A' for Active; 'I' for Inactive)
ROOT
HETATM    1  C1  UNL     1     -33.599   5.401   2.758  1.00 20.00     0.000 A 
HETATM    2  C2  UNL     1     -33.969   6.545   3.465  1.00 20.00     0.003 A 
HETATM    3  C3  UNL     1     -32.700   5.498   1.696  1.00 20.00     0.003 A 
HETATM    4  C4  UNL     1     -33.441   7.786   3.110  1.00 20.00     0.042 A 
HETATM    5  C5  UNL     1     -32.172   6.739   1.340  1.00 20.00     0.042 A 
HETATM    6  C6  UNL     1     -32.542   7.884   2.047  1.00 20.00     0.116 A 
HETATM    7  F7  UNL     1     -32.036   9.075   1.705  1.00 20.00    -0.206 F 
ENDROOT
TORSDOF 0
ENDMDL
