MODEL 1
REMARK VINA RESULT:      -2.6      0.000      0.000
REMARK  0 active torsions:
REMARK  status: ('A' for Active; 'I' for Inactive)
ROOT
HETATM    1  C1  UNL     1     -31.875   6.382   1.080  1.00 20.00     0.001 A 
HETATM    2  C2  UNL     1     -31.689   7.705   1.514  1.00 20.00     0.001 A 
HETATM    3  C3  UNL     1     -32.830   5.558   1.683  1.00 20.00     0.012 A 
HETATM    4  C4  UNL     1     -32.452   8.230   2.560  1.00 20.00     0.008 A 
HETATM    5  C5  UNL     1     -33.583   6.086   2.718  1.00 20.00    -0.030 A 
HETATM    6  C6  UNL     1     -33.394   7.406   3.151  1.00 20.00    -0.044 A 
HETATM    7  C7  UNL     1     -34.628   5.471   3.518  1.00 20.00     0.008 A 
HETATM    8  C8  UNL     1     -35.059   6.385   4.402  1.00 20.00    -0.021 A 
HETATM    9  C9  UNL     1     -34.337   7.705   4.275  1.00 20.00     0.066 A 
ENDROOT
TORSDOF 0
ENDMDL
MODEL 2
REMARK VINA RESULT:      -2.5      0.234      1.983
REMARK  0 active torsions:
REMARK  status: ('A' for Active; 'I' for Inactive)
ROOT
HETATM    1  C1  UNL     1     -31.808   7.932   1.617  1.00 20.00     0.001 A 
HETATM    2  C2  UNL     1     -31.779   6.606   1.151  1.00 20.00     0.001 A 
HETATM    3  C3  UNL     1     -32.684   8.314   2.637  1.00 20.00     0.012 A 
HETATM    4  C4  UNL     1     -32.627   5.638   1.697  1.00 20.00     0.008 A 
HETATM    5  C5  UNL     1     -33.520   7.349   3.172  1.00 20.00    -0.030 A 
HETATM    6  C6  UNL     1     -33.491   6.027   2.705  1.00 20.00    -0.044 A 
HETATM    7  C7  UNL     1     -34.517   7.458   4.223  1.00 20.00     0.008 A 
HETATM    8  C8  UNL     1     -35.071   6.247   4.388  1.00 20.00    -0.021 A 
HETATM    9  C9  UNL     1     -34.493   5.208   3.457  1.00 20.00     0.066 A 
ENDROOT
TORSDOF 0
ENDMDL
MODEL 3
REMARK VINA RESULT:      -2.4      0.539      3.706
REMARK  0 active torsions:
REMARK  status: ('A' for Active; 'I' for Inactive)
ROOT
HETATM    1  C1  UNL     1     -34.973   6.631   4.438  1.00 20.00     0.001 A 
HETATM    2  C2  UNL     1     -34.831   5.302   4.002  1.00 20.00     0.001 A 
HETATM    3  C3  UNL     1     -34.189   7.652   3.892  1.00 20.00     0.012 A 
HETATM    4  C4  UNL     1     -33.903   4.970   3.012  1.00 20.00     0.008 A 
HETATM    5  C5  UNL     1     -33.272   7.313   2.911  1.00 20.00    -0.030 A 
HETATM    6  C6  UNL     1     -33.132   5.987   2.478  1.00 20.00    -0.044 A 
HETATM    7  C7  UNL     1     -32.339   8.151   2.179  1.00 20.00     0.008 A 
HETATM    8  C8  UNL     1     -31.659   7.363   1.332  1.00 20.00    -0.021 A 
HETATM    9  C9  UNL     1     -32.076   5.915   1.420  1.00 20.00     0.066 A 
ENDROOT
TORSDOF 0
ENDMDL
MODEL 4
REMARK VINA RESULT:      -2.2      0.563      3.153
REMARK  0 active torsions:
REMARK  status: ('A' for Active; 'I' for Inactive)
ROOT
HETATM    1  C1  UNL     1     -34.807   5.272   4.015  1.00 20.00     0.001 A 
HETATM    2  C2  UNL     1     -34.969   6.599   4.448  1.00 20.00     0.001 A 
HETATM    3  C3  UNL     1     -33.876   4.951   3.022  1.00 20.00     0.012 A 
HETATM    4  C4  UNL     1     -34.204   7.630   3.896  1.00 20.00     0.008 A 
HETATM    5  C5  UNL     1     -33.123   5.979   2.482  1.00 20.00    -0.030 A 
HETATM    6  C6  UNL     1     -33.286   7.302   2.914  1.00 20.00    -0.044 A 
HETATM    7  C7  UNL     1     -32.098   5.941   1.452  1.00 20.00     0.008 A 
HETATM    8  C8  UNL     1     -31.657   7.195   1.268  1.00 20.00    -0.021 A 
HETATM    9  C9  UNL     1     -32.349   8.195   2.163  1.00 20.00     0.066 A 
ENDROOT
TORSDOF 0
ENDMDL
MODEL 5
REMARK VINA RESULT:      -0.8      0.549      3.153
REMARK  0 active torsions:
REMARK  status: ('A' for Active; 'I' for Inactive)
ROOT
HETATM    1  C1  UNL     1     -35.140   6.605   4.667  1.00 20.00     0.001 A 
HETATM    2  C2  UNL     1     -34.435   7.785   4.958  1.00 20.00     0.001 A 
HETATM    3  C3  UNL     1     -34.775   5.801   3.582  1.00 20.00     0.012 A 
HETATM    4  C4  UNL     1     -33.351   8.183   4.171  1.00 20.00     0.008 A 
HETATM    5  C5  UNL     1     -33.700   6.203   2.809  1.00 20.00    -0.030 A 
HETATM    6  C6  UNL     1     -32.997   7.381   3.101  1.00 20.00    -0.044 A 
HETATM    7  C7  UNL     1     -33.107   5.577   1.640  1.00 20.00     0.008 A 
HETATM    8  C8  UNL     1     -32.082   6.346   1.238  1.00 20.00    -0.021 A 
HETATM    9  C9  UNL     1     -31.893   7.566   2.107  1.00 20.00     0.066 A 
ENDROOT
TORSDOF 0
ENDMDL
MODEL 6
REMARK VINA RESULT:      -0.3      0.716      3.539
REMARK  0 active torsions:
REMARK  status: ('A' for Active; 'I' for Inactive)
ROOT
HETATM    1  C1  UNL     1     -34.048   8.492   3.938  1.00 20.00     0.001 A 
HETATM    2  C2  UNL     1     -34.753   7.304   4.196  1.00 20.00     0.001 A 
HETATM    3  C3  UNL     1     -33.012   8.521   2.998  1.00 20.00     0.012 A 
HETATM    4  C4  UNL     1     -34.436   6.123   3.519  1.00 20.00     0.008 A 
HETATM    5  C5  UNL     1     -32.706   7.347   2.333  1.00 20.00    -0.030 A 
HETATM    6  C6  UNL     1     -33.410   6.162   2.592  1.00 20.00    -0.044 A 
HETATM    7  C7  UNL     1     -31.695   7.085   1.323  1.00 20.00     0.008 A 
HETATM    8  C8  UNL     1     -31.784   5.790   0.981  1.00 20.00    -0.021 A 
HETATM    9  C9  UNL     1     -32.870   5.060   1.736  1.00 20.00     0.066 A 
ENDROOT
TORSDOF 0
ENDMDL
