MODEL 1
REMARK VINA RESULT:      -1.9      0.000      0.000
REMARK  2 active torsions:
REMARK  status: ('A' for Active; 'I' for Inactive)
REMARK    1  A    between atoms: C5_5  and  N8_8 
REMARK    2  A    between atoms: C6_6  and  S11_11 
ROOT
HETATM    1  C1  UNL     1     -33.748   7.200   3.674  1.00 20.00     0.037 A 
HETATM    2  C2  UNL     1     -33.107   5.460   2.127  1.00 20.00     0.037 A 
HETATM    3  C3  UNL     1     -33.022   8.129   2.930  1.00 20.00     0.021 A 
HETATM    4  C4  UNL     1     -32.381   6.389   1.382  1.00 20.00     0.021 A 
HETATM    5  C5  UNL     1     -33.790   5.865   3.272  1.00 20.00     0.102 A 
HETATM    6  C6  UNL     1     -32.338   7.724   1.784  1.00 20.00    -0.000 A 
ENDROOT
BRANCH   5   7
HETATM    7  N8  UNL     1     -34.531   4.919   4.030  1.00 20.00    -0.116 N 
HETATM    8  O9  UNL     1     -34.057   3.769   4.197  1.00 20.00    -0.532 OA
HETATM    9  O10 UNL     1     -35.638   5.258   4.511  1.00 20.00    -0.532 OA
ENDBRANCH   5   7
BRANCH   6  10
HETATM   10  S11 UNL     1     -31.410   8.911   0.834  1.00 20.00    -0.134 SA
HETATM   11  C7  UNL     1     -32.749  10.025   0.351  1.00 20.00     0.095 C 
ENDBRANCH   6  10
TORSDOF 2
ENDMDL
MODEL 2
REMARK VINA RESULT:      -1.9      0.011      1.457
REMARK  2 active torsions:
REMARK  status: ('A' for Active; 'I' for Inactive)
REMARK    1  A    between atoms: C5_5  and  N8_8 
REMARK    2  A    between atoms: C6_6  and  S11_11 
ROOT
HETATM    1  C1  UNL     1     -33.115   5.455   2.130  1.00 20.00     0.037 A 
HETATM    2  C2  UNL     1     -33.759   7.200   3.671  1.00 20.00     0.037 A 
HETATM    3  C3  UNL     1     -32.385   6.381   1.386  1.00 20.00     0.021 A 
HETATM    4  C4  UNL     1     -33.028   8.127   2.927  1.00 20.00     0.021 A 
HETATM    5  C5  UNL     1     -33.801   5.865   3.273  1.00 20.00     0.102 A 
HETATM    6  C6  UNL     1     -32.342   7.717   1.784  1.00 20.00    -0.000 A 
ENDROOT
BRANCH   5   7
HETATM    7  N8  UNL     1     -34.544   4.921   4.032  1.00 20.00    -0.116 N 
HETATM    8  O9  UNL     1     -34.075   3.768   4.195  1.00 20.00    -0.532 OA
HETATM    9  O10 UNL     1     -35.648   5.265   4.517  1.00 20.00    -0.532 OA
ENDBRANCH   5   7
BRANCH   6  10
HETATM   10  S11 UNL     1     -31.411   8.901   0.832  1.00 20.00    -0.134 SA
HETATM   11  C7  UNL     1     -32.746  10.022   0.356  1.00 20.00     0.095 C 
ENDBRANCH   6  10
TORSDOF 2
ENDMDL
MODEL 3
REMARK VINA RESULT:      -0.7      3.944      4.744
REMARK  2 active torsions:
REMARK  status: ('A' for Active; 'I' for Inactive)
REMARK    1  A    between atoms: C5_5  and  N8_8 
REMARK    2  A    between atoms: C6_6  and  S11_11 
ROOT
HETATM    1  C1  UNL     1     -33.325   8.242   2.980  1.00 20.00     0.037 A 
HETATM    2  C2  UNL     1     -32.656   6.501   1.446  1.00 20.00     0.037 A 
HETATM    3  C3  UNL     1     -33.960   7.294   3.781  1.00 20.00     0.021 A 
HETATM    4  C4  UNL     1     -33.291   5.551   2.247  1.00 20.00     0.021 A 
HETATM    5  C5  UNL     1     -32.673   7.846   1.812  1.00 20.00     0.102 A 
HETATM    6  C6  UNL     1     -33.943   5.948   3.414  1.00 20.00    -0.000 A 
ENDROOT
BRANCH   5   7
HETATM    7  N8  UNL     1     -32.026   8.812   0.997  1.00 20.00    -0.116 N 
HETATM    8  O9  UNL     1     -30.936   8.515   0.451  1.00 20.00    -0.532 OA
HETATM    9  O10 UNL     1     -32.561   9.937   0.847  1.00 20.00    -0.532 OA
ENDBRANCH   5   7
BRANCH   6  10
HETATM   10  S11 UNL     1     -34.755   4.736   4.437  1.00 20.00    -0.134 SA
HETATM   11  C7  UNL     1     -33.532   3.408   4.359  1.00 20.00     0.095 C 
ENDBRANCH   6  10
TORSDOF 2
ENDMDL
MODEL 4
REMARK VINA RESULT:      -0.7      3.943      5.049
REMARK  2 active torsions:
REMARK  status: ('A' for Active; 'I' for Inactive)
REMARK    1  A    between atoms: C5_5  and  N8_8 
REMARK    2  A    between atoms: C6_6  and  S11_11 
ROOT
HETATM    1  C1  UNL     1     -32.646   6.500   1.465  1.00 20.00     0.037 A 
HETATM    2  C2  UNL     1     -33.345   8.245   2.981  1.00 20.00     0.037 A 
HETATM    3  C3  UNL     1     -33.280   5.550   2.265  1.00 20.00     0.021 A 
HETATM    4  C4  UNL     1     -33.981   7.296   3.782  1.00 20.00     0.021 A 
HETATM    5  C5  UNL     1     -32.679   7.847   1.823  1.00 20.00     0.102 A 
HETATM    6  C6  UNL     1     -33.948   5.948   3.424  1.00 20.00    -0.000 A 
ENDROOT
BRANCH   5   7
HETATM    7  N8  UNL     1     -32.033   8.815   1.007  1.00 20.00    -0.116 N 
HETATM    8  O9  UNL     1     -32.577   9.934   0.846  1.00 20.00    -0.532 OA
HETATM    9  O10 UNL     1     -30.938   8.523   0.470  1.00 20.00    -0.532 OA
ENDBRANCH   5   7
BRANCH   6  10
HETATM   10  S11 UNL     1     -34.757   4.734   4.447  1.00 20.00    -0.134 SA
HETATM   11  C7  UNL     1     -33.540   3.402   4.354  1.00 20.00     0.095 C 
ENDBRANCH   6  10
TORSDOF 2
ENDMDL
MODEL 5
REMARK VINA RESULT:       0.2      0.587      1.097
REMARK  2 active torsions:
REMARK  status: ('A' for Active; 'I' for Inactive)
REMARK    1  A    between atoms: C5_5  and  N8_8 
REMARK    2  A    between atoms: C6_6  and  S11_11 
ROOT
HETATM    1  C1  UNL     1     -33.288   6.928   4.069  1.00 20.00     0.037 A 
HETATM    2  C2  UNL     1     -33.375   5.593   2.059  1.00 20.00     0.037 A 
HETATM    3  C3  UNL     1     -32.674   7.959   3.359  1.00 20.00     0.021 A 
HETATM    4  C4  UNL     1     -32.760   6.624   1.347  1.00 20.00     0.021 A 
HETATM    5  C5  UNL     1     -33.639   5.745   3.419  1.00 20.00     0.102 A 
HETATM    6  C6  UNL     1     -32.409   7.807   1.998  1.00 20.00    -0.000 A 
ENDROOT
BRANCH   5   7
HETATM    7  N8  UNL     1     -34.266   4.696   4.143  1.00 20.00    -0.116 N 
HETATM    8  O9  UNL     1     -35.458   4.839   4.510  1.00 20.00    -0.532 OA
HETATM    9  O10 UNL     1     -33.612   3.656   4.395  1.00 20.00    -0.532 OA
ENDBRANCH   5   7
BRANCH   6  10
HETATM   10  S11 UNL     1     -31.622   9.123   1.091  1.00 20.00    -0.134 SA
HETATM   11  C7  UNL     1     -32.501   8.972  -0.481  1.00 20.00     0.095 C 
ENDBRANCH   6  10
TORSDOF 2
ENDMDL
MODEL 6
REMARK VINA RESULT:       0.3      4.030      4.814
REMARK  2 active torsions:
REMARK  status: ('A' for Active; 'I' for Inactive)
REMARK    1  A    between atoms: C5_5  and  N8_8 
REMARK    2  A    between atoms: C6_6  and  S11_11 
ROOT
HETATM    1  C1  UNL     1     -32.949   8.239   2.825  1.00 20.00     0.037 A 
HETATM    2  C2  UNL     1     -32.507   6.790   0.944  1.00 20.00     0.037 A 
HETATM    3  C3  UNL     1     -33.369   7.140   3.573  1.00 20.00     0.021 A 
HETATM    4  C4  UNL     1     -32.927   5.690   1.692  1.00 20.00     0.021 A 
HETATM    5  C5  UNL     1     -32.517   8.063   1.510  1.00 20.00     0.102 A 
HETATM    6  C6  UNL     1     -33.359   5.865   3.007  1.00 20.00    -0.000 A 
ENDROOT
BRANCH   5   7
HETATM    7  N8  UNL     1     -32.088   9.183   0.749  1.00 20.00    -0.116 N 
HETATM    8  O9  UNL     1     -32.765  10.239   0.786  1.00 20.00    -0.532 OA
HETATM    9  O10 UNL     1     -31.044   9.086   0.060  1.00 20.00    -0.532 OA
ENDBRANCH   5   7
BRANCH   6  10
HETATM   10  S11 UNL     1     -33.897   4.461   3.962  1.00 20.00    -0.134 SA
HETATM   11  C7  UNL     1     -35.457   5.112   4.602  1.00 20.00     0.095 C 
ENDBRANCH   6  10
TORSDOF 2
ENDMDL
