MODEL 1
REMARK VINA RESULT:      -1.7      0.000      0.000
REMARK  0 active torsions:
REMARK  status: ('A' for Active; 'I' for Inactive)
ROOT
HETATM    1  C1  UNL     1     -31.946   7.699   1.827  1.00 20.00     0.019 A 
HETATM    2  C2  UNL     1     -32.125   6.384   1.329  1.00 20.00     0.019 A 
HETATM    3  C3  UNL     1     -32.883   7.893   2.818  1.00 20.00     0.090 A 
HETATM    4  C4  UNL     1     -33.165   5.815   2.030  1.00 20.00     0.090 A 
HETATM    5  C5  UNL     1     -34.707   6.538   3.862  1.00 20.00     0.154 C 
HETATM    6  N6  UNL     1     -33.618   6.742   2.932  1.00 20.00    -0.371 N 
ENDROOT
TORSDOF 0
ENDMDL
MODEL 2
REMARK VINA RESULT:      -1.7      0.021      1.531
REMARK  0 active torsions:
REMARK  status: ('A' for Active; 'I' for Inactive)
ROOT
HETATM    1  C1  UNL     1     -32.123   6.357   1.328  1.00 20.00     0.019 A 
HETATM    2  C2  UNL     1     -31.946   7.675   1.817  1.00 20.00     0.019 A 
HETATM    3  C3  UNL     1     -33.165   5.795   2.032  1.00 20.00     0.090 A 
HETATM    4  C4  UNL     1     -32.885   7.879   2.803  1.00 20.00     0.090 A 
HETATM    5  C5  UNL     1     -34.709   6.530   3.856  1.00 20.00     0.154 C 
HETATM    6  N6  UNL     1     -33.620   6.729   2.925  1.00 20.00    -0.371 N 
ENDROOT
TORSDOF 0
ENDMDL
MODEL 3
REMARK VINA RESULT:      -1.6      0.921      2.921
REMARK  0 active torsions:
REMARK  status: ('A' for Active; 'I' for Inactive)
ROOT
HETATM    1  C1  UNL     1     -34.823   6.522   4.163  1.00 20.00     0.019 A 
HETATM    2  C2  UNL     1     -34.079   7.726   4.084  1.00 20.00     0.019 A 
HETATM    3  C3  UNL     1     -34.327   5.669   3.202  1.00 20.00     0.090 A 
HETATM    4  C4  UNL     1     -33.152   7.572   3.077  1.00 20.00     0.090 A 
HETATM    5  C5  UNL     1     -32.531   5.764   1.465  1.00 20.00     0.154 C 
HETATM    6  N6  UNL     1     -33.312   6.318   2.548  1.00 20.00    -0.371 N 
ENDROOT
TORSDOF 0
ENDMDL
MODEL 4
REMARK VINA RESULT:      -1.6      0.915      2.558
REMARK  0 active torsions:
REMARK  status: ('A' for Active; 'I' for Inactive)
ROOT
HETATM    1  C1  UNL     1     -34.068   7.747   4.065  1.00 20.00     0.019 A 
HETATM    2  C2  UNL     1     -34.814   6.545   4.158  1.00 20.00     0.019 A 
HETATM    3  C3  UNL     1     -33.143   7.579   3.059  1.00 20.00     0.090 A 
HETATM    4  C4  UNL     1     -34.322   5.681   3.206  1.00 20.00     0.090 A 
HETATM    5  C5  UNL     1     -32.526   5.751   1.468  1.00 20.00     0.154 C 
HETATM    6  N6  UNL     1     -33.307   6.320   2.544  1.00 20.00    -0.371 N 
ENDROOT
TORSDOF 0
ENDMDL
MODEL 5
REMARK VINA RESULT:      -1.6      0.962      2.926
REMARK  0 active torsions:
REMARK  status: ('A' for Active; 'I' for Inactive)
ROOT
HETATM    1  C1  UNL     1     -34.326   5.712   3.349  1.00 20.00     0.019 A 
HETATM    2  C2  UNL     1     -34.553   6.885   4.112  1.00 20.00     0.019 A 
HETATM    3  C3  UNL     1     -33.345   6.006   2.427  1.00 20.00     0.090 A 
HETATM    4  C4  UNL     1     -33.705   7.859   3.634  1.00 20.00     0.090 A 
HETATM    5  C5  UNL     1     -31.971   8.010   1.838  1.00 20.00     0.154 C 
HETATM    6  N6  UNL     1     -32.975   7.313   2.610  1.00 20.00    -0.371 N 
ENDROOT
TORSDOF 0
ENDMDL
MODEL 6
REMARK VINA RESULT:      -1.6      0.975      2.531
REMARK  0 active torsions:
REMARK  status: ('A' for Active; 'I' for Inactive)
ROOT
HETATM    1  C1  UNL     1     -34.551   6.899   4.148  1.00 20.00     0.019 A 
HETATM    2  C2  UNL     1     -34.336   5.724   3.386  1.00 20.00     0.019 A 
HETATM    3  C3  UNL     1     -33.703   7.867   3.658  1.00 20.00     0.090 A 
HETATM    4  C4  UNL     1     -33.364   6.009   2.453  1.00 20.00     0.090 A 
HETATM    5  C5  UNL     1     -31.983   8.005   1.848  1.00 20.00     0.154 C 
HETATM    6  N6  UNL     1     -32.986   7.315   2.629  1.00 20.00    -0.371 N 
ENDROOT
TORSDOF 0
ENDMDL
MODEL 7
REMARK VINA RESULT:      -1.1      2.053      3.174
REMARK  0 active torsions:
REMARK  status: ('A' for Active; 'I' for Inactive)
ROOT
HETATM    1  C1  UNL     1     -34.170   6.640   3.191  1.00 20.00     0.019 A 
HETATM    2  C2  UNL     1     -35.312   6.407   3.997  1.00 20.00     0.019 A 
HETATM    3  C3  UNL     1     -33.404   5.496   3.222  1.00 20.00     0.090 A 
HETATM    4  C4  UNL     1     -35.210   5.128   4.496  1.00 20.00     0.090 A 
HETATM    5  C5  UNL     1     -33.568   3.250   4.311  1.00 20.00     0.154 C 
HETATM    6  N6  UNL     1     -34.046   4.583   4.018  1.00 20.00    -0.371 N 
ENDROOT
TORSDOF 0
ENDMDL
MODEL 8
REMARK VINA RESULT:      -1.1      2.079      3.223
REMARK  0 active torsions:
REMARK  status: ('A' for Active; 'I' for Inactive)
ROOT
HETATM    1  C1  UNL     1     -35.323   6.348   3.996  1.00 20.00     0.019 A 
HETATM    2  C2  UNL     1     -34.175   6.600   3.204  1.00 20.00     0.019 A 
HETATM    3  C3  UNL     1     -35.207   5.068   4.492  1.00 20.00     0.090 A 
HETATM    4  C4  UNL     1     -33.392   5.468   3.241  1.00 20.00     0.090 A 
HETATM    5  C5  UNL     1     -33.537   3.215   4.318  1.00 20.00     0.154 C 
HETATM    6  N6  UNL     1     -34.030   4.543   4.027  1.00 20.00    -0.371 N 
ENDROOT
TORSDOF 0
ENDMDL
MODEL 9
REMARK VINA RESULT:       0.2      2.768      3.523
REMARK  0 active torsions:
REMARK  status: ('A' for Active; 'I' for Inactive)
ROOT
HETATM    1  C1  UNL     1     -32.890  10.805   0.447  1.00 20.00     0.019 A 
HETATM    2  C2  UNL     1     -32.519  10.065  -0.704  1.00 20.00     0.019 A 
HETATM    3  C3  UNL     1     -32.689   9.992   1.541  1.00 20.00     0.090 A 
HETATM    4  C4  UNL     1     -32.104   8.823  -0.278  1.00 20.00     0.090 A 
HETATM    5  C5  UNL     1     -31.874   7.660   1.924  1.00 20.00     0.154 C 
HETATM    6  N6  UNL     1     -32.211   8.790   1.088  1.00 20.00    -0.371 N 
ENDROOT
TORSDOF 0
ENDMDL
