MODEL 1
REMARK VINA RESULT:      -2.0      0.000      0.000
REMARK  0 active torsions:
REMARK  status: ('A' for Active; 'I' for Inactive)
ROOT
HETATM    1  C1  UNL     1     -31.717   7.839   1.598  1.00 20.00     0.001 A 
HETATM    2  C2  UNL     1     -31.798   6.528   1.133  1.00 20.00     0.002 A 
HETATM    3  C3  UNL     1     -32.552   8.286   2.629  1.00 20.00     0.014 A 
HETATM    4  C4  UNL     1     -32.712   5.623   1.682  1.00 20.00     0.030 A 
HETATM    5  C5  UNL     1     -34.456   7.499   4.229  1.00 20.00     0.030 A 
HETATM    6  C6  UNL     1     -35.076   6.276   4.346  1.00 20.00     0.089 A 
HETATM    7  C7  UNL     1     -33.481   7.392   3.197  1.00 20.00    -0.008 A 
HETATM    8  C8  UNL     1     -33.539   6.085   2.712  1.00 20.00     0.042 A 
HETATM    9  N9  UNL     1     -34.516   5.430   3.427  1.00 20.00    -0.365 N 
HETATM   10  H16 UNL     1     -34.781   4.464   3.293  1.00 20.00     0.165 HD
ENDROOT
TORSDOF 0
ENDMDL
MODEL 2
REMARK VINA RESULT:      -1.9      0.885      1.935
REMARK  0 active torsions:
REMARK  status: ('A' for Active; 'I' for Inactive)
ROOT
HETATM    1  C1  UNL     1     -31.871   6.414   1.109  1.00 20.00     0.001 A 
HETATM    2  C2  UNL     1     -31.701   7.729   1.538  1.00 20.00     0.002 A 
HETATM    3  C3  UNL     1     -32.823   5.582   1.709  1.00 20.00     0.014 A 
HETATM    4  C4  UNL     1     -32.477   8.253   2.577  1.00 20.00     0.030 A 
HETATM    5  C5  UNL     1     -34.648   5.544   3.572  1.00 20.00     0.030 A 
HETATM    6  C6  UNL     1     -35.055   6.527   4.444  1.00 20.00     0.089 A 
HETATM    7  C7  UNL     1     -33.615   6.088   2.758  1.00 20.00    -0.008 A 
HETATM    8  C8  UNL     1     -33.424   7.409   3.167  1.00 20.00     0.042 A 
HETATM    9  N9  UNL     1     -34.312   7.649   4.191  1.00 20.00    -0.365 N 
HETATM   10  H16 UNL     1     -34.401   8.526   4.685  1.00 20.00     0.165 HD
ENDROOT
TORSDOF 0
ENDMDL
MODEL 3
REMARK VINA RESULT:      -1.8      1.381      3.670
REMARK  0 active torsions:
REMARK  status: ('A' for Active; 'I' for Inactive)
ROOT
HETATM    1  C1  UNL     1     -34.784   5.301   3.939  1.00 20.00     0.001 A 
HETATM    2  C2  UNL     1     -34.958   6.591   4.437  1.00 20.00     0.002 A 
HETATM    3  C3  UNL     1     -33.842   5.041   2.936  1.00 20.00     0.014 A 
HETATM    4  C4  UNL     1     -34.199   7.659   3.950  1.00 20.00     0.030 A 
HETATM    5  C5  UNL     1     -32.047   6.201   1.441  1.00 20.00     0.030 A 
HETATM    6  C6  UNL     1     -31.653   7.518   1.379  1.00 20.00     0.089 A 
HETATM    7  C7  UNL     1     -33.066   6.102   2.430  1.00 20.00    -0.008 A 
HETATM    8  C8  UNL     1     -33.262   7.383   2.948  1.00 20.00     0.042 A 
HETATM    9  N9  UNL     1     -32.391   8.223   2.292  1.00 20.00    -0.365 N 
HETATM   10  H16 UNL     1     -32.308   9.216   2.459  1.00 20.00     0.165 HD
ENDROOT
TORSDOF 0
ENDMDL
MODEL 4
REMARK VINA RESULT:      -1.7      1.233      3.130
REMARK  0 active torsions:
REMARK  status: ('A' for Active; 'I' for Inactive)
ROOT
HETATM    1  C1  UNL     1     -34.974   6.540   4.432  1.00 20.00     0.001 A 
HETATM    2  C2  UNL     1     -34.760   5.253   3.943  1.00 20.00     0.002 A 
HETATM    3  C3  UNL     1     -34.236   7.625   3.943  1.00 20.00     0.014 A 
HETATM    4  C4  UNL     1     -33.804   5.009   2.952  1.00 20.00     0.030 A 
HETATM    5  C5  UNL     1     -32.362   8.243   2.238  1.00 20.00     0.030 A 
HETATM    6  C6  UNL     1     -31.650   7.451   1.367  1.00 20.00     0.089 A 
HETATM    7  C7  UNL     1     -33.268   7.403   2.945  1.00 20.00    -0.008 A 
HETATM    8  C8  UNL     1     -33.075   6.104   2.473  1.00 20.00     0.042 A 
HETATM    9  N9  UNL     1     -32.087   6.162   1.516  1.00 20.00    -0.365 N 
HETATM   10  H16 UNL     1     -31.736   5.369   0.999  1.00 20.00     0.165 HD
ENDROOT
TORSDOF 0
ENDMDL
MODEL 5
REMARK VINA RESULT:      -0.8      1.098      3.082
REMARK  0 active torsions:
REMARK  status: ('A' for Active; 'I' for Inactive)
ROOT
HETATM    1  C1  UNL     1     -34.206   7.999   4.484  1.00 20.00     0.001 A 
HETATM    2  C2  UNL     1     -34.806   6.745   4.398  1.00 20.00     0.002 A 
HETATM    3  C3  UNL     1     -33.189   8.370   3.595  1.00 20.00     0.014 A 
HETATM    4  C4  UNL     1     -34.412   5.823   3.422  1.00 20.00     0.030 A 
HETATM    5  C5  UNL     1     -31.804   7.496   1.567  1.00 20.00     0.030 A 
HETATM    6  C6  UNL     1     -31.851   6.290   0.905  1.00 20.00     0.089 A 
HETATM    7  C7  UNL     1     -32.776   7.458   2.605  1.00 20.00    -0.008 A 
HETATM    8  C8  UNL     1     -33.396   6.209   2.542  1.00 20.00     0.042 A 
HETATM    9  N9  UNL     1     -32.815   5.520   1.501  1.00 20.00    -0.365 N 
HETATM   10  H16 UNL     1     -33.064   4.583   1.217  1.00 20.00     0.165 HD
ENDROOT
TORSDOF 0
ENDMDL
MODEL 6
REMARK VINA RESULT:      -0.4      1.523      3.480
REMARK  0 active torsions:
REMARK  status: ('A' for Active; 'I' for Inactive)
ROOT
HETATM    1  C1  UNL     1     -34.503   7.360   4.533  1.00 20.00     0.001 A 
HETATM    2  C2  UNL     1     -33.510   8.333   4.619  1.00 20.00     0.002 A 
HETATM    3  C3  UNL     1     -34.482   6.405   3.508  1.00 20.00     0.014 A 
HETATM    4  C4  UNL     1     -32.467   8.385   3.689  1.00 20.00     0.030 A 
HETATM    5  C5  UNL     1     -33.114   5.649   1.420  1.00 20.00     0.030 A 
HETATM    6  C6  UNL     1     -31.962   6.164   0.873  1.00 20.00     0.089 A 
HETATM    7  C7  UNL     1     -33.442   6.438   2.559  1.00 20.00    -0.008 A 
HETATM    8  C8  UNL     1     -32.461   7.424   2.671  1.00 20.00     0.042 A 
HETATM    9  N9  UNL     1     -31.575   7.235   1.635  1.00 20.00    -0.365 N 
HETATM   10  H16 UNL     1     -30.758   7.803   1.462  1.00 20.00     0.165 HD
ENDROOT
TORSDOF 0
ENDMDL
MODEL 7
REMARK VINA RESULT:      -0.0      0.758      1.125
REMARK  0 active torsions:
REMARK  status: ('A' for Active; 'I' for Inactive)
ROOT
HETATM    1  C1  UNL     1     -31.812   6.437   0.783  1.00 20.00     0.001 A 
HETATM    2  C2  UNL     1     -32.487   5.221   0.856  1.00 20.00     0.002 A 
HETATM    3  C3  UNL     1     -32.072   7.458   1.707  1.00 20.00     0.014 A 
HETATM    4  C4  UNL     1     -33.440   4.984   1.852  1.00 20.00     0.030 A 
HETATM    5  C5  UNL     1     -33.531   8.030   3.791  1.00 20.00     0.030 A 
HETATM    6  C6  UNL     1     -34.470   7.278   4.458  1.00 20.00     0.089 A 
HETATM    7  C7  UNL     1     -33.029   7.242   2.717  1.00 20.00    -0.008 A 
HETATM    8  C8  UNL     1     -33.689   6.014   2.767  1.00 20.00     0.042 A 
HETATM    9  N9  UNL     1     -34.558   6.063   3.833  1.00 20.00    -0.365 N 
HETATM   10  H16 UNL     1     -35.172   5.311   4.114  1.00 20.00     0.165 HD
ENDROOT
TORSDOF 0
ENDMDL
MODEL 8
REMARK VINA RESULT:       0.8      1.406      2.520
REMARK  0 active torsions:
REMARK  status: ('A' for Active; 'I' for Inactive)
ROOT
HETATM    1  C1  UNL     1     -32.934   7.693   2.135  1.00 20.00     0.001 A 
HETATM    2  C2  UNL     1     -33.918   8.159   3.004  1.00 20.00     0.002 A 
HETATM    3  C3  UNL     1     -32.596   6.335   2.098  1.00 20.00     0.014 A 
HETATM    4  C4  UNL     1     -34.596   7.286   3.860  1.00 20.00     0.030 A 
HETATM    5  C5  UNL     1     -33.183   4.033   3.174  1.00 20.00     0.030 A 
HETATM    6  C6  UNL     1     -34.101   3.710   4.148  1.00 20.00     0.089 A 
HETATM    7  C7  UNL     1     -33.265   5.437   2.951  1.00 20.00    -0.008 A 
HETATM    8  C8  UNL     1     -34.248   5.931   3.811  1.00 20.00     0.042 A 
HETATM    9  N9  UNL     1     -34.738   4.862   4.525  1.00 20.00    -0.365 N 
HETATM   10  H16 UNL     1     -35.463   4.918   5.226  1.00 20.00     0.165 HD
ENDROOT
TORSDOF 0
ENDMDL
MODEL 9
REMARK VINA RESULT:       0.9      1.919      3.772
REMARK  0 active torsions:
REMARK  status: ('A' for Active; 'I' for Inactive)
ROOT
HETATM    1  C1  UNL     1     -32.988   5.576   2.404  1.00 20.00     0.001 A 
HETATM    2  C2  UNL     1     -33.660   6.433   3.274  1.00 20.00     0.002 A 
HETATM    3  C3  UNL     1     -32.207   6.085   1.359  1.00 20.00     0.014 A 
HETATM    4  C4  UNL     1     -33.573   7.821   3.128  1.00 20.00     0.030 A 
HETATM    5  C5  UNL     1     -31.421   8.321   0.271  1.00 20.00     0.030 A 
HETATM    6  C6  UNL     1     -31.699   9.625   0.609  1.00 20.00     0.089 A 
HETATM    7  C7  UNL     1     -32.105   7.480   1.194  1.00 20.00    -0.008 A 
HETATM    8  C8  UNL     1     -32.789   8.314   2.080  1.00 20.00     0.042 A 
HETATM    9  N9  UNL     1     -32.524   9.610   1.702  1.00 20.00    -0.365 N 
HETATM   10  H16 UNL     1     -32.887  10.433   2.164  1.00 20.00     0.165 HD
ENDROOT
TORSDOF 0
ENDMDL
