MODEL 1
REMARK VINA RESULT:      -1.0      0.000      0.000
REMARK  0 active torsions:
REMARK  status: ('A' for Active; 'I' for Inactive)
ROOT
HETATM    1  C1  UNL     1     -32.057   7.140   1.726  1.00 20.00     0.199 A 
HETATM    2  C2  UNL     1     -32.729   8.019   2.576  1.00 20.00     0.198 A 
HETATM    3  C3  UNL     1     -32.391   5.786   1.717  1.00 20.00     0.198 A 
HETATM    4  C4  UNL     1     -33.734   7.542   3.418  1.00 20.00     0.182 A 
HETATM    5  C5  UNL     1     -33.395   5.309   2.559  1.00 20.00     0.182 A 
HETATM    6  C6  UNL     1     -34.067   6.188   3.409  1.00 20.00     0.117 A 
HETATM    7  F7  UNL     1     -31.092   7.597   0.917  1.00 20.00    -0.199 F 
HETATM    8  F8  UNL     1     -32.409   9.319   2.583  1.00 20.00    -0.199 F 
HETATM    9  F9  UNL     1     -31.746   4.942   0.901  1.00 20.00    -0.199 F 
HETATM   10  F10 UNL     1     -34.369   8.399   4.229  1.00 20.00    -0.201 F 
HETATM   11  F11 UNL     1     -33.704   4.005   2.541  1.00 20.00    -0.201 F 
HETATM   12 CL12 UNL     1     -35.308   5.601   4.449  1.00 20.00    -0.077 Cl
ENDROOT
TORSDOF 0
ENDMDL
MODEL 2
REMARK VINA RESULT:      -1.0      0.009      3.074
REMARK  0 active torsions:
REMARK  status: ('A' for Active; 'I' for Inactive)
ROOT
HETATM    1  C1  UNL     1     -32.066   7.141   1.719  1.00 20.00     0.199 A 
HETATM    2  C2  UNL     1     -32.396   5.785   1.714  1.00 20.00     0.198 A 
HETATM    3  C3  UNL     1     -32.738   8.018   2.570  1.00 20.00     0.198 A 
HETATM    4  C4  UNL     1     -33.398   5.308   2.559  1.00 20.00     0.182 A 
HETATM    5  C5  UNL     1     -33.740   7.542   3.414  1.00 20.00     0.182 A 
HETATM    6  C6  UNL     1     -34.070   6.187   3.409  1.00 20.00     0.117 A 
HETATM    7  F7  UNL     1     -31.104   7.599   0.907  1.00 20.00    -0.199 F 
HETATM    8  F8  UNL     1     -31.751   4.942   0.897  1.00 20.00    -0.199 F 
HETATM    9  F9  UNL     1     -32.421   9.320   2.575  1.00 20.00    -0.199 F 
HETATM   10  F10 UNL     1     -33.703   4.003   2.541  1.00 20.00    -0.201 F 
HETATM   11  F11 UNL     1     -34.377   8.398   4.226  1.00 20.00    -0.201 F 
HETATM   12 CL12 UNL     1     -35.306   5.597   4.452  1.00 20.00    -0.077 Cl
ENDROOT
TORSDOF 0
ENDMDL
MODEL 3
REMARK VINA RESULT:      -0.5      1.706      3.802
REMARK  0 active torsions:
REMARK  status: ('A' for Active; 'I' for Inactive)
ROOT
HETATM    1  C1  UNL     1     -33.734   7.523   3.619  1.00 20.00     0.199 A 
HETATM    2  C2  UNL     1     -34.142   6.190   3.592  1.00 20.00     0.198 A 
HETATM    3  C3  UNL     1     -32.754   7.971   2.733  1.00 20.00     0.198 A 
HETATM    4  C4  UNL     1     -33.570   5.304   2.679  1.00 20.00     0.182 A 
HETATM    5  C5  UNL     1     -32.182   7.086   1.820  1.00 20.00     0.182 A 
HETATM    6  C6  UNL     1     -32.590   5.752   1.793  1.00 20.00     0.117 A 
HETATM    7  F7  UNL     1     -34.283   8.374   4.496  1.00 20.00    -0.199 F 
HETATM    8  F8  UNL     1     -35.084   5.760   4.442  1.00 20.00    -0.199 F 
HETATM    9  F9  UNL     1     -32.362   9.252   2.759  1.00 20.00    -0.199 F 
HETATM   10  F10 UNL     1     -33.972   4.026   2.665  1.00 20.00    -0.201 F 
HETATM   11  F11 UNL     1     -31.241   7.531   0.976  1.00 20.00    -0.201 F 
HETATM   12 CL12 UNL     1     -31.884   4.658   0.666  1.00 20.00    -0.077 Cl
ENDROOT
TORSDOF 0
ENDMDL
MODEL 4
REMARK VINA RESULT:      -0.5      1.705      3.157
REMARK  0 active torsions:
REMARK  status: ('A' for Active; 'I' for Inactive)
ROOT
HETATM    1  C1  UNL     1     -33.731   7.526   3.618  1.00 20.00     0.199 A 
HETATM    2  C2  UNL     1     -32.749   7.972   2.734  1.00 20.00     0.198 A 
HETATM    3  C3  UNL     1     -34.139   6.192   3.592  1.00 20.00     0.198 A 
HETATM    4  C4  UNL     1     -32.176   7.085   1.823  1.00 20.00     0.182 A 
HETATM    5  C5  UNL     1     -33.567   5.305   2.681  1.00 20.00     0.182 A 
HETATM    6  C6  UNL     1     -32.585   5.752   1.796  1.00 20.00     0.117 A 
HETATM    7  F7  UNL     1     -34.282   8.378   4.493  1.00 20.00    -0.199 F 
HETATM    8  F8  UNL     1     -32.357   9.253   2.759  1.00 20.00    -0.199 F 
HETATM    9  F9  UNL     1     -35.082   5.764   4.441  1.00 20.00    -0.199 F 
HETATM   10  F10 UNL     1     -31.234   7.530   0.979  1.00 20.00    -0.201 F 
HETATM   11  F11 UNL     1     -33.970   4.027   2.667  1.00 20.00    -0.201 F 
HETATM   12 CL12 UNL     1     -31.877   4.657   0.672  1.00 20.00    -0.077 Cl
ENDROOT
TORSDOF 0
ENDMDL
MODEL 5
REMARK VINA RESULT:      -0.4      1.099      1.928
REMARK  0 active torsions:
REMARK  status: ('A' for Active; 'I' for Inactive)
ROOT
HETATM    1  C1  UNL     1     -32.935   7.991   2.357  1.00 20.00     0.199 A 
HETATM    2  C2  UNL     1     -33.924   7.725   3.305  1.00 20.00     0.198 A 
HETATM    3  C3  UNL     1     -32.232   6.940   1.769  1.00 20.00     0.198 A 
HETATM    4  C4  UNL     1     -34.208   6.408   3.664  1.00 20.00     0.182 A 
HETATM    5  C5  UNL     1     -32.516   5.623   2.129  1.00 20.00     0.182 A 
HETATM    6  C6  UNL     1     -33.504   5.357   3.076  1.00 20.00     0.117 A 
HETATM    7  F7  UNL     1     -32.661   9.256   2.012  1.00 20.00    -0.199 F 
HETATM    8  F8  UNL     1     -34.600   8.735   3.869  1.00 20.00    -0.199 F 
HETATM    9  F9  UNL     1     -31.282   7.195   0.859  1.00 20.00    -0.199 F 
HETATM   10  F10 UNL     1     -35.161   6.169   4.576  1.00 20.00    -0.201 F 
HETATM   11  F11 UNL     1     -31.831   4.623   1.556  1.00 20.00    -0.201 F 
HETATM   12 CL12 UNL     1     -33.856   3.731   3.521  1.00 20.00    -0.077 Cl
ENDROOT
TORSDOF 0
ENDMDL
MODEL 6
REMARK VINA RESULT:      -0.3      1.098      3.101
REMARK  0 active torsions:
REMARK  status: ('A' for Active; 'I' for Inactive)
ROOT
HETATM    1  C1  UNL     1     -32.938   7.988   2.354  1.00 20.00     0.199 A 
HETATM    2  C2  UNL     1     -32.237   6.932   1.771  1.00 20.00     0.198 A 
HETATM    3  C3  UNL     1     -33.926   7.729   3.304  1.00 20.00     0.198 A 
HETATM    4  C4  UNL     1     -32.525   5.617   2.138  1.00 20.00     0.182 A 
HETATM    5  C5  UNL     1     -34.214   6.415   3.670  1.00 20.00     0.182 A 
HETATM    6  C6  UNL     1     -33.514   5.359   3.087  1.00 20.00     0.117 A 
HETATM    7  F7  UNL     1     -32.662   9.251   2.002  1.00 20.00    -0.199 F 
HETATM    8  F8  UNL     1     -31.288   7.180   0.859  1.00 20.00    -0.199 F 
HETATM    9  F9  UNL     1     -34.599   8.743   3.864  1.00 20.00    -0.199 F 
HETATM   10  F10 UNL     1     -31.843   4.614   1.568  1.00 20.00    -0.201 F 
HETATM   11  F11 UNL     1     -35.167   6.182   4.584  1.00 20.00    -0.201 F 
HETATM   12 CL12 UNL     1     -33.868   3.736   3.539  1.00 20.00    -0.077 Cl
ENDROOT
TORSDOF 0
ENDMDL
MODEL 7
REMARK VINA RESULT:      -0.1      1.923      3.190
REMARK  0 active torsions:
REMARK  status: ('A' for Active; 'I' for Inactive)
ROOT
HETATM    1  C1  UNL     1     -34.183   6.033   3.642  1.00 20.00     0.199 A 
HETATM    2  C2  UNL     1     -33.886   7.396   3.677  1.00 20.00     0.198 A 
HETATM    3  C3  UNL     1     -33.567   5.209   2.700  1.00 20.00     0.198 A 
HETATM    4  C4  UNL     1     -32.973   7.934   2.769  1.00 20.00     0.182 A 
HETATM    5  C5  UNL     1     -32.655   5.747   1.792  1.00 20.00     0.182 A 
HETATM    6  C6  UNL     1     -32.358   7.109   1.827  1.00 20.00     0.117 A 
HETATM    7  F7  UNL     1     -35.060   5.516   4.512  1.00 20.00    -0.199 F 
HETATM    8  F8  UNL     1     -34.476   8.187   4.581  1.00 20.00    -0.199 F 
HETATM    9  F9  UNL     1     -33.853   3.901   2.666  1.00 20.00    -0.199 F 
HETATM   10  F10 UNL     1     -32.698   9.245   2.816  1.00 20.00    -0.201 F 
HETATM   11  F11 UNL     1     -32.072   4.943   0.892  1.00 20.00    -0.201 F 
HETATM   12 CL12 UNL     1     -31.231   7.774   0.708  1.00 20.00    -0.077 Cl
ENDROOT
TORSDOF 0
ENDMDL
MODEL 8
REMARK VINA RESULT:      -0.1      1.786      3.161
REMARK  0 active torsions:
REMARK  status: ('A' for Active; 'I' for Inactive)
ROOT
HETATM    1  C1  UNL     1     -33.387   5.319   2.850  1.00 20.00     0.199 A 
HETATM    2  C2  UNL     1     -34.106   6.318   3.506  1.00 20.00     0.198 A 
HETATM    3  C3  UNL     1     -32.410   5.663   1.915  1.00 20.00     0.198 A 
HETATM    4  C4  UNL     1     -33.849   7.660   3.228  1.00 20.00     0.182 A 
HETATM    5  C5  UNL     1     -32.153   7.005   1.636  1.00 20.00     0.182 A 
HETATM    6  C6  UNL     1     -32.872   8.003   2.293  1.00 20.00     0.117 A 
HETATM    7  F7  UNL     1     -33.634   4.030   3.117  1.00 20.00    -0.199 F 
HETATM    8  F8  UNL     1     -35.044   5.988   4.404  1.00 20.00    -0.199 F 
HETATM    9  F9  UNL     1     -31.720   4.704   1.285  1.00 20.00    -0.199 F 
HETATM   10  F10 UNL     1     -34.548   8.608   3.867  1.00 20.00    -0.201 F 
HETATM   11  F11 UNL     1     -31.212   7.319   0.735  1.00 20.00    -0.201 F 
HETATM   12 CL12 UNL     1     -32.555   9.661   1.950  1.00 20.00    -0.077 Cl
ENDROOT
TORSDOF 0
ENDMDL
MODEL 9
REMARK VINA RESULT:      -0.1      1.788      3.961
REMARK  0 active torsions:
REMARK  status: ('A' for Active; 'I' for Inactive)
ROOT
HETATM    1  C1  UNL     1     -33.470   5.310   2.907  1.00 20.00     0.199 A 
HETATM    2  C2  UNL     1     -32.493   5.624   1.962  1.00 20.00     0.198 A 
HETATM    3  C3  UNL     1     -34.164   6.331   3.557  1.00 20.00     0.198 A 
HETATM    4  C4  UNL     1     -32.209   6.958   1.669  1.00 20.00     0.182 A 
HETATM    5  C5  UNL     1     -33.881   7.664   3.264  1.00 20.00     0.182 A 
HETATM    6  C6  UNL     1     -32.903   7.978   2.320  1.00 20.00     0.117 A 
HETATM    7  F7  UNL     1     -33.742   4.029   3.189  1.00 20.00    -0.199 F 
HETATM    8  F8  UNL     1     -31.826   4.645   1.337  1.00 20.00    -0.199 F 
HETATM    9  F9  UNL     1     -35.103   6.029   4.464  1.00 20.00    -0.199 F 
HETATM   10  F10 UNL     1     -31.267   7.243   0.759  1.00 20.00    -0.201 F 
HETATM   11  F11 UNL     1     -34.555   8.633   3.898  1.00 20.00    -0.201 F 
HETATM   12 CL12 UNL     1     -32.553   9.624   1.957  1.00 20.00    -0.077 Cl
ENDROOT
TORSDOF 0
ENDMDL
