MODEL 1
REMARK VINA RESULT:      -2.1      0.000      0.000
REMARK  3 active torsions:
REMARK  status: ('A' for Active; 'I' for Inactive)
REMARK    1  A    between atoms: C5_5  and  O9_9 
REMARK    2  A    between atoms: C6_6  and  O10_10 
REMARK    3  A    between atoms: C8_8  and  O10_10 
ROOT
HETATM    1  C1  UNL     1     -34.460   6.020   3.914  1.00 20.00     0.003 A 
HETATM    2  C2  UNL     1     -34.275   7.391   4.093  1.00 20.00     0.003 A 
HETATM    3  C3  UNL     1     -33.789   5.353   2.888  1.00 20.00     0.039 A 
HETATM    4  C4  UNL     1     -33.419   8.095   3.246  1.00 20.00     0.039 A 
HETATM    5  C5  UNL     1     -32.933   6.059   2.042  1.00 20.00     0.099 A 
HETATM    6  C6  UNL     1     -32.748   7.429   2.221  1.00 20.00     0.101 A 
ENDROOT
BRANCH   6   7
HETATM    7  O10 UNL     1     -31.916   8.128   1.400  1.00 20.00    -0.349 OA
BRANCH   7   8
HETATM    8  C8  UNL     1     -32.242   9.495   1.159  1.00 20.00     0.171 C 
HETATM    9  C7  UNL     1     -32.498   9.687  -0.321  1.00 20.00     0.034 C 
ENDBRANCH   7   8
ENDBRANCH   6   7
BRANCH   5  10
HETATM   10  O9  UNL     1     -32.284   5.396   1.044  1.00 20.00    -0.358 OA
HETATM   11  H20 UNL     1     -32.848   5.342   0.255  1.00 20.00     0.217 HD
ENDBRANCH   5  10
TORSDOF 3
ENDMDL
MODEL 2
REMARK VINA RESULT:      -1.8      2.099      4.558
REMARK  3 active torsions:
REMARK  status: ('A' for Active; 'I' for Inactive)
REMARK    1  A    between atoms: C5_5  and  O9_9 
REMARK    2  A    between atoms: C6_6  and  O10_10 
REMARK    3  A    between atoms: C8_8  and  O10_10 
ROOT
HETATM    1  C1  UNL     1     -32.036   7.788   1.576  1.00 20.00     0.003 A 
HETATM    2  C2  UNL     1     -32.114   6.444   1.211  1.00 20.00     0.003 A 
HETATM    3  C3  UNL     1     -32.704   8.241   2.714  1.00 20.00     0.039 A 
HETATM    4  C4  UNL     1     -32.858   5.553   1.984  1.00 20.00     0.039 A 
HETATM    5  C5  UNL     1     -33.448   7.349   3.487  1.00 20.00     0.099 A 
HETATM    6  C6  UNL     1     -33.524   6.005   3.122  1.00 20.00     0.101 A 
ENDROOT
BRANCH   6   7
HETATM    7  O10 UNL     1     -34.249   5.126   3.868  1.00 20.00    -0.349 OA
BRANCH   7   8
HETATM    8  C8  UNL     1     -33.925   3.743   3.735  1.00 20.00     0.171 C 
HETATM    9  C7  UNL     1     -33.161   3.295   4.962  1.00 20.00     0.034 C 
ENDBRANCH   7   8
ENDBRANCH   6   7
BRANCH   5  10
HETATM   10  O9  UNL     1     -34.096   7.804   4.596  1.00 20.00    -0.358 OA
HETATM   11  H20 UNL     1     -33.692   8.632   4.904  1.00 20.00     0.217 HD
ENDBRANCH   5  10
TORSDOF 3
ENDMDL
MODEL 3
REMARK VINA RESULT:      -1.6      1.581      4.045
REMARK  3 active torsions:
REMARK  status: ('A' for Active; 'I' for Inactive)
REMARK    1  A    between atoms: C5_5  and  O9_9 
REMARK    2  A    between atoms: C6_6  and  O10_10 
REMARK    3  A    between atoms: C8_8  and  O10_10 
ROOT
HETATM    1  C1  UNL     1     -32.733   8.398   2.574  1.00 20.00     0.003 A 
HETATM    2  C2  UNL     1     -33.641   8.070   3.580  1.00 20.00     0.003 A 
HETATM    3  C3  UNL     1     -32.217   7.400   1.747  1.00 20.00     0.039 A 
HETATM    4  C4  UNL     1     -34.033   6.743   3.759  1.00 20.00     0.039 A 
HETATM    5  C5  UNL     1     -32.609   6.073   1.927  1.00 20.00     0.099 A 
HETATM    6  C6  UNL     1     -33.517   5.746   2.933  1.00 20.00     0.101 A 
ENDROOT
BRANCH   6   7
HETATM    7  O10 UNL     1     -33.907   4.454   3.119  1.00 20.00    -0.349 OA
BRANCH   7   8
HETATM    8  C8  UNL     1     -34.083   4.018   4.465  1.00 20.00     0.171 C 
HETATM    9  C7  UNL     1     -33.153   2.852   4.732  1.00 20.00     0.034 C 
ENDBRANCH   7   8
ENDBRANCH   6   7
BRANCH   5  10
HETATM   10  O9  UNL     1     -32.097   5.108   1.113  1.00 20.00    -0.358 OA
HETATM   11  H20 UNL     1     -31.986   4.279   1.605  1.00 20.00     0.217 HD
ENDBRANCH   5  10
TORSDOF 3
ENDMDL
MODEL 4
REMARK VINA RESULT:      -1.3      1.339      2.258
REMARK  3 active torsions:
REMARK  status: ('A' for Active; 'I' for Inactive)
REMARK    1  A    between atoms: C5_5  and  O9_9 
REMARK    2  A    between atoms: C6_6  and  O10_10 
REMARK    3  A    between atoms: C8_8  and  O10_10 
ROOT
HETATM    1  C1  UNL     1     -33.641   4.932   2.756  1.00 20.00     0.003 A 
HETATM    2  C2  UNL     1     -32.781   5.190   1.689  1.00 20.00     0.003 A 
HETATM    3  C3  UNL     1     -34.065   5.975   3.580  1.00 20.00     0.039 A 
HETATM    4  C4  UNL     1     -32.345   6.493   1.446  1.00 20.00     0.039 A 
HETATM    5  C5  UNL     1     -33.628   7.278   3.336  1.00 20.00     0.099 A 
HETATM    6  C6  UNL     1     -32.768   7.535   2.268  1.00 20.00     0.101 A 
ENDROOT
BRANCH   6   7
HETATM    7  O10 UNL     1     -32.334   8.803   2.021  1.00 20.00    -0.349 OA
BRANCH   7   8
HETATM    8  C8  UNL     1     -31.928   9.099   0.686  1.00 20.00     0.171 C 
HETATM    9  C7  UNL     1     -32.629  10.360   0.226  1.00 20.00     0.034 C 
ENDBRANCH   7   8
ENDBRANCH   6   7
BRANCH   5  10
HETATM   10  O9  UNL     1     -34.048   8.287   4.148  1.00 20.00    -0.358 OA
HETATM   11  H20 UNL     1     -34.847   8.700   3.783  1.00 20.00     0.217 HD
ENDBRANCH   5  10
TORSDOF 3
ENDMDL
MODEL 5
REMARK VINA RESULT:      -0.4      1.496      2.530
REMARK  3 active torsions:
REMARK  status: ('A' for Active; 'I' for Inactive)
REMARK    1  A    between atoms: C5_5  and  O9_9 
REMARK    2  A    between atoms: C6_6  and  O10_10 
REMARK    3  A    between atoms: C8_8  and  O10_10 
ROOT
HETATM    1  C1  UNL     1     -34.866   4.684   4.625  1.00 20.00     0.003 A 
HETATM    2  C2  UNL     1     -33.922   4.014   3.847  1.00 20.00     0.003 A 
HETATM    3  C3  UNL     1     -35.100   6.044   4.421  1.00 20.00     0.039 A 
HETATM    4  C4  UNL     1     -33.212   4.704   2.864  1.00 20.00     0.039 A 
HETATM    5  C5  UNL     1     -34.389   6.734   3.438  1.00 20.00     0.099 A 
HETATM    6  C6  UNL     1     -33.445   6.063   2.660  1.00 20.00     0.101 A 
ENDROOT
BRANCH   6   7
HETATM    7  O10 UNL     1     -32.745   6.726   1.698  1.00 20.00    -0.349 OA
BRANCH   7   8
HETATM    8  C8  UNL     1     -31.964   7.842   2.119  1.00 20.00     0.171 C 
HETATM    9  C7  UNL     1     -32.010   8.910   1.046  1.00 20.00     0.034 C 
ENDBRANCH   7   8
ENDBRANCH   6   7
BRANCH   5  10
HETATM   10  O9  UNL     1     -34.625   8.062   3.249  1.00 20.00    -0.358 OA
HETATM   11  H20 UNL     1     -33.802   8.519   3.013  1.00 20.00     0.217 HD
ENDBRANCH   5  10
TORSDOF 3
ENDMDL
MODEL 6
REMARK VINA RESULT:      -0.1      1.415      3.084
REMARK  3 active torsions:
REMARK  status: ('A' for Active; 'I' for Inactive)
REMARK    1  A    between atoms: C5_5  and  O9_9 
REMARK    2  A    between atoms: C6_6  and  O10_10 
REMARK    3  A    between atoms: C8_8  and  O10_10 
ROOT
HETATM    1  C1  UNL     1     -34.245   7.632   4.413  1.00 20.00     0.003 A 
HETATM    2  C2  UNL     1     -34.710   6.354   4.106  1.00 20.00     0.003 A 
HETATM    3  C3  UNL     1     -33.268   8.228   3.615  1.00 20.00     0.039 A 
HETATM    4  C4  UNL     1     -34.199   5.672   3.002  1.00 20.00     0.039 A 
HETATM    5  C5  UNL     1     -32.756   7.546   2.511  1.00 20.00     0.099 A 
HETATM    6  C6  UNL     1     -33.223   6.267   2.205  1.00 20.00     0.101 A 
ENDROOT
BRANCH   6   7
HETATM    7  O10 UNL     1     -32.731   5.591   1.130  1.00 20.00    -0.349 OA
BRANCH   7   8
HETATM    8  C8  UNL     1     -31.551   4.817   1.337  1.00 20.00     0.171 C 
HETATM    9  C7  UNL     1     -31.235   4.051   0.069  1.00 20.00     0.034 C 
ENDBRANCH   7   8
ENDBRANCH   6   7
BRANCH   5  10
HETATM   10  O9  UNL     1     -31.802   8.139   1.741  1.00 20.00    -0.358 OA
HETATM   11  H20 UNL     1     -30.934   7.744   1.920  1.00 20.00     0.217 HD
ENDBRANCH   5  10
TORSDOF 3
ENDMDL
MODEL 7
REMARK VINA RESULT:       0.2      2.208      4.268
REMARK  3 active torsions:
REMARK  status: ('A' for Active; 'I' for Inactive)
REMARK    1  A    between atoms: C5_5  and  O9_9 
REMARK    2  A    between atoms: C6_6  and  O10_10 
REMARK    3  A    between atoms: C8_8  and  O10_10 
ROOT
HETATM    1  C1  UNL     1     -31.583   7.508   1.339  1.00 20.00     0.003 A 
HETATM    2  C2  UNL     1     -32.638   6.617   1.144  1.00 20.00     0.003 A 
HETATM    3  C3  UNL     1     -31.487   8.227   2.531  1.00 20.00     0.039 A 
HETATM    4  C4  UNL     1     -33.597   6.444   2.143  1.00 20.00     0.039 A 
HETATM    5  C5  UNL     1     -32.447   8.053   3.529  1.00 20.00     0.099 A 
HETATM    6  C6  UNL     1     -33.501   7.161   3.334  1.00 20.00     0.101 A 
ENDROOT
BRANCH   6   7
HETATM    7  O10 UNL     1     -34.445   6.983   4.301  1.00 20.00    -0.349 OA
BRANCH   7   8
HETATM    8  C8  UNL     1     -35.427   5.976   4.069  1.00 20.00     0.171 C 
HETATM    9  C7  UNL     1     -34.912   4.654   4.599  1.00 20.00     0.034 C 
ENDBRANCH   7   8
ENDBRANCH   6   7
BRANCH   5  10
HETATM   10  O9  UNL     1     -32.342   8.761   4.688  1.00 20.00    -0.358 OA
HETATM   11  H20 UNL     1     -31.580   9.360   4.648  1.00 20.00     0.217 HD
ENDBRANCH   5  10
TORSDOF 3
ENDMDL
MODEL 8
REMARK VINA RESULT:       0.3      1.243      3.718
REMARK  3 active torsions:
REMARK  status: ('A' for Active; 'I' for Inactive)
REMARK    1  A    between atoms: C5_5  and  O9_9 
REMARK    2  A    between atoms: C6_6  and  O10_10 
REMARK    3  A    between atoms: C8_8  and  O10_10 
ROOT
HETATM    1  C1  UNL     1     -32.085   9.508  -0.078  1.00 20.00     0.003 A 
HETATM    2  C2  UNL     1     -32.723  10.210   0.945  1.00 20.00     0.003 A 
HETATM    3  C3  UNL     1     -31.710   8.179   0.117  1.00 20.00     0.039 A 
HETATM    4  C4  UNL     1     -32.986   9.582   2.162  1.00 20.00     0.039 A 
HETATM    5  C5  UNL     1     -31.973   7.551   1.335  1.00 20.00     0.099 A 
HETATM    6  C6  UNL     1     -32.612   8.253   2.357  1.00 20.00     0.101 A 
ENDROOT
BRANCH   6   7
HETATM    7  O10 UNL     1     -32.874   7.651   3.551  1.00 20.00    -0.349 OA
BRANCH   7   8
HETATM    8  C8  UNL     1     -34.214   7.724   4.032  1.00 20.00     0.171 C 
HETATM    9  C7  UNL     1     -34.886   6.383   3.824  1.00 20.00     0.034 C 
ENDBRANCH   7   8
ENDBRANCH   6   7
BRANCH   5  10
HETATM   10  O9  UNL     1     -31.601   6.253   1.513  1.00 20.00    -0.358 OA
HETATM   11  H20 UNL     1     -30.797   6.062   1.003  1.00 20.00     0.217 HD
ENDBRANCH   5  10
TORSDOF 3
ENDMDL
MODEL 9
REMARK VINA RESULT:       0.6      1.729      2.430
REMARK  3 active torsions:
REMARK  status: ('A' for Active; 'I' for Inactive)
REMARK    1  A    between atoms: C5_5  and  O9_9 
REMARK    2  A    between atoms: C6_6  and  O10_10 
REMARK    3  A    between atoms: C8_8  and  O10_10 
ROOT
HETATM    1  C1  UNL     1     -35.603   5.904   4.633  1.00 20.00     0.003 A 
HETATM    2  C2  UNL     1     -35.167   6.965   3.840  1.00 20.00     0.003 A 
HETATM    3  C3  UNL     1     -34.949   4.672   4.572  1.00 20.00     0.039 A 
HETATM    4  C4  UNL     1     -34.076   6.795   2.986  1.00 20.00     0.039 A 
HETATM    5  C5  UNL     1     -33.859   4.503   3.718  1.00 20.00     0.099 A 
HETATM    6  C6  UNL     1     -33.423   5.565   2.925  1.00 20.00     0.101 A 
ENDROOT
BRANCH   6   7
HETATM    7  O10 UNL     1     -32.361   5.411   2.087  1.00 20.00    -0.349 OA
BRANCH   7   8
HETATM    8  C8  UNL     1     -32.197   6.390   1.063  1.00 20.00     0.171 C 
HETATM    9  C7  UNL     1     -31.604   7.645   1.670  1.00 20.00     0.034 C 
ENDBRANCH   7   8
ENDBRANCH   6   7
BRANCH   5  10
HETATM   10  O9  UNL     1     -33.230   3.296   3.667  1.00 20.00    -0.358 OA
HETATM   11  H20 UNL     1     -33.872   2.591   3.484  1.00 20.00     0.217 HD
ENDBRANCH   5  10
TORSDOF 3
ENDMDL
