MODEL 1
REMARK VINA RESULT:      -1.3      0.000      0.000
REMARK  3 active torsions:
REMARK  status: ('A' for Active; 'I' for Inactive)
REMARK    1  A    between atoms: C2_2  and  C4_4 
REMARK    2  A    between atoms: C4_4  and  S8_8 
REMARK    3  A    between atoms: C5_5  and  S8_8 
ROOT
HETATM    1  O6  UNL     1     -34.027   7.408   4.627  1.00 20.00    -0.228 OA
HETATM    2  O7  UNL     1     -35.926   6.784   3.087  1.00 20.00    -0.228 OA
HETATM    3  S8  UNL     1     -34.661   6.459   3.726  1.00 20.00     0.147 S 
ENDROOT
BRANCH   3   4
HETATM    4  C4  UNL     1     -34.847   4.927   4.575  1.00 20.00     0.166 C 
BRANCH   4   5
HETATM    5  C2  UNL     1     -33.845   3.980   4.008  1.00 20.00    -0.022 C 
HETATM    6  C1  UNL     1     -33.257   3.009   4.716  1.00 20.00     0.008 C 
ENDBRANCH   4   5
ENDBRANCH   3   4
BRANCH   3   7
HETATM    7  C5  UNL     1     -33.493   6.081   2.439  1.00 20.00     0.136 C 
HETATM    8  C3  UNL     1     -32.619   7.272   2.115  1.00 20.00     0.021 C 
ENDBRANCH   3   7
TORSDOF 3
ENDMDL
MODEL 2
REMARK VINA RESULT:      -1.3      2.724      4.625
REMARK  3 active torsions:
REMARK  status: ('A' for Active; 'I' for Inactive)
REMARK    1  A    between atoms: C2_2  and  C4_4 
REMARK    2  A    between atoms: C4_4  and  S8_8 
REMARK    3  A    between atoms: C5_5  and  S8_8 
ROOT
HETATM    1  O6  UNL     1     -31.662   5.470   1.633  1.00 20.00    -0.228 OA
HETATM    2  O7  UNL     1     -33.728   6.468   0.581  1.00 20.00    -0.228 OA
HETATM    3  S8  UNL     1     -32.776   6.404   1.679  1.00 20.00     0.147 S 
ENDROOT
BRANCH   3   4
HETATM    4  C4  UNL     1     -32.134   8.021   1.951  1.00 20.00     0.166 C 
BRANCH   4   5
HETATM    5  C2  UNL     1     -32.060   8.700   0.626  1.00 20.00    -0.022 C 
HETATM    6  C1  UNL     1     -32.503   9.942   0.401  1.00 20.00     0.008 C 
ENDBRANCH   4   5
ENDBRANCH   3   4
BRANCH   3   7
HETATM    7  C5  UNL     1     -33.695   6.068   3.164  1.00 20.00     0.136 C 
HETATM    8  C3  UNL     1     -34.152   7.345   3.834  1.00 20.00     0.021 C 
ENDBRANCH   3   7
TORSDOF 3
ENDMDL
MODEL 3
REMARK VINA RESULT:      -1.0      0.526      3.466
REMARK  3 active torsions:
REMARK  status: ('A' for Active; 'I' for Inactive)
REMARK    1  A    between atoms: C2_2  and  C4_4 
REMARK    2  A    between atoms: C4_4  and  S8_8 
REMARK    3  A    between atoms: C5_5  and  S8_8 
ROOT
HETATM    1  O6  UNL     1     -36.040   6.801   3.120  1.00 20.00    -0.228 OA
HETATM    2  O7  UNL     1     -34.258   7.471   4.777  1.00 20.00    -0.228 OA
HETATM    3  S8  UNL     1     -34.775   6.539   3.788  1.00 20.00     0.147 S 
ENDROOT
BRANCH   3   4
HETATM    4  C4  UNL     1     -33.538   6.294   2.558  1.00 20.00     0.166 C 
BRANCH   4   5
HETATM    5  C2  UNL     1     -32.644   7.485   2.581  1.00 20.00    -0.022 C 
HETATM    6  C1  UNL     1     -31.947   7.912   1.522  1.00 20.00     0.008 C 
ENDBRANCH   4   5
ENDBRANCH   3   4
BRANCH   3   7
HETATM    7  C5  UNL     1     -34.903   4.946   4.569  1.00 20.00     0.136 C 
HETATM    8  C3  UNL     1     -33.860   3.985   4.044  1.00 20.00     0.021 C 
ENDBRANCH   3   7
TORSDOF 3
ENDMDL
MODEL 4
REMARK VINA RESULT:      -1.0      2.912      3.637
REMARK  3 active torsions:
REMARK  status: ('A' for Active; 'I' for Inactive)
REMARK    1  A    between atoms: C2_2  and  C4_4 
REMARK    2  A    between atoms: C4_4  and  S8_8 
REMARK    3  A    between atoms: C5_5  and  S8_8 
ROOT
HETATM    1  O6  UNL     1     -32.370   6.699   1.410  1.00 20.00    -0.228 OA
HETATM    2  O7  UNL     1     -30.984   8.358   2.712  1.00 20.00    -0.228 OA
HETATM    3  S8  UNL     1     -32.271   7.917   2.197  1.00 20.00     0.147 S 
ENDROOT
BRANCH   3   4
HETATM    4  C4  UNL     1     -33.397   7.800   3.547  1.00 20.00     0.166 C 
BRANCH   4   5
HETATM    5  C2  UNL     1     -34.153   6.527   3.387  1.00 20.00    -0.022 C 
HETATM    6  C1  UNL     1     -35.283   6.245   4.045  1.00 20.00     0.008 C 
ENDBRANCH   4   5
ENDBRANCH   3   4
BRANCH   3   7
HETATM    7  C5  UNL     1     -32.937   9.243   1.216  1.00 20.00     0.136 C 
HETATM    8  C3  UNL     1     -32.090   9.508  -0.008  1.00 20.00     0.021 C 
ENDBRANCH   3   7
TORSDOF 3
ENDMDL
MODEL 5
REMARK VINA RESULT:      -0.9      2.631      3.352
REMARK  3 active torsions:
REMARK  status: ('A' for Active; 'I' for Inactive)
REMARK    1  A    between atoms: C2_2  and  C4_4 
REMARK    2  A    between atoms: C4_4  and  S8_8 
REMARK    3  A    between atoms: C5_5  and  S8_8 
ROOT
HETATM    1  O6  UNL     1     -33.638   6.288   0.562  1.00 20.00    -0.228 OA
HETATM    2  O7  UNL     1     -31.453   5.244   1.272  1.00 20.00    -0.228 OA
HETATM    3  S8  UNL     1     -32.605   6.083   1.563  1.00 20.00     0.147 S 
ENDROOT
BRANCH   3   4
HETATM    4  C4  UNL     1     -33.368   5.487   3.034  1.00 20.00     0.166 C 
BRANCH   4   5
HETATM    5  C2  UNL     1     -34.237   6.578   3.559  1.00 20.00    -0.022 C 
HETATM    6  C1  UNL     1     -35.472   6.381   4.033  1.00 20.00     0.008 C 
ENDBRANCH   4   5
ENDBRANCH   3   4
BRANCH   3   7
HETATM    7  C5  UNL     1     -31.992   7.686   2.035  1.00 20.00     0.136 C 
HETATM    8  C3  UNL     1     -32.270   8.722   0.969  1.00 20.00     0.021 C 
ENDBRANCH   3   7
TORSDOF 3
ENDMDL
MODEL 6
REMARK VINA RESULT:      -0.7      2.976      3.278
REMARK  3 active torsions:
REMARK  status: ('A' for Active; 'I' for Inactive)
REMARK    1  A    between atoms: C2_2  and  C4_4 
REMARK    2  A    between atoms: C4_4  and  S8_8 
REMARK    3  A    between atoms: C5_5  and  S8_8 
ROOT
HETATM    1  O6  UNL     1     -30.947   7.623   2.307  1.00 20.00    -0.228 OA
HETATM    2  O7  UNL     1     -32.786   8.805   1.046  1.00 20.00    -0.228 OA
HETATM    3  S8  UNL     1     -32.345   7.735   1.927  1.00 20.00     0.147 S 
ENDROOT
BRANCH   3   4
HETATM    4  C4  UNL     1     -33.316   7.791   3.396  1.00 20.00     0.166 C 
BRANCH   4   5
HETATM    5  C2  UNL     1     -34.083   6.516   3.472  1.00 20.00    -0.022 C 
HETATM    6  C1  UNL     1     -35.272   6.398   4.074  1.00 20.00     0.008 C 
ENDBRANCH   4   5
ENDBRANCH   3   4
BRANCH   3   7
HETATM    7  C5  UNL     1     -32.820   6.194   1.176  1.00 20.00     0.136 C 
HETATM    8  C3  UNL     1     -31.701   5.179   1.237  1.00 20.00     0.021 C 
ENDBRANCH   3   7
TORSDOF 3
ENDMDL
MODEL 7
REMARK VINA RESULT:      -0.6      1.542      1.775
REMARK  3 active torsions:
REMARK  status: ('A' for Active; 'I' for Inactive)
REMARK    1  A    between atoms: C2_2  and  C4_4 
REMARK    2  A    between atoms: C4_4  and  S8_8 
REMARK    3  A    between atoms: C5_5  and  S8_8 
ROOT
HETATM    1  O6  UNL     1     -36.058   6.594   3.244  1.00 20.00    -0.228 OA
HETATM    2  O7  UNL     1     -33.693   6.038   2.562  1.00 20.00    -0.228 OA
HETATM    3  S8  UNL     1     -34.696   6.226   3.597  1.00 20.00     0.147 S 
ENDROOT
BRANCH   3   4
HETATM    4  C4  UNL     1     -34.753   4.769   4.585  1.00 20.00     0.166 C 
BRANCH   4   5
HETATM    5  C2  UNL     1     -33.714   3.837   4.065  1.00 20.00    -0.022 C 
HETATM    6  C1  UNL     1     -33.151   2.868   4.796  1.00 20.00     0.008 C 
ENDBRANCH   4   5
ENDBRANCH   3   4
BRANCH   3   7
HETATM    7  C5  UNL     1     -34.082   7.462   4.719  1.00 20.00     0.136 C 
HETATM    8  C3  UNL     1     -32.845   8.141   4.173  1.00 20.00     0.021 C 
ENDBRANCH   3   7
TORSDOF 3
ENDMDL
MODEL 8
REMARK VINA RESULT:      -0.5      2.909      5.055
REMARK  3 active torsions:
REMARK  status: ('A' for Active; 'I' for Inactive)
REMARK    1  A    between atoms: C2_2  and  C4_4 
REMARK    2  A    between atoms: C4_4  and  S8_8 
REMARK    3  A    between atoms: C5_5  and  S8_8 
ROOT
HETATM    1  O6  UNL     1     -31.139   8.035   2.495  1.00 20.00    -0.228 OA
HETATM    2  O7  UNL     1     -32.398   6.003   1.683  1.00 20.00    -0.228 OA
HETATM    3  S8  UNL     1     -32.375   7.410   2.051  1.00 20.00     0.147 S 
ENDROOT
BRANCH   3   4
HETATM    4  C4  UNL     1     -33.018   8.346   0.705  1.00 20.00     0.166 C 
BRANCH   4   5
HETATM    5  C2  UNL     1     -32.172   9.564   0.564  1.00 20.00    -0.022 C 
HETATM    6  C1  UNL     1     -32.579  10.686  -0.040  1.00 20.00     0.008 C 
ENDBRANCH   4   5
ENDBRANCH   3   4
BRANCH   3   7
HETATM    7  C5  UNL     1     -33.584   7.647   3.335  1.00 20.00     0.136 C 
HETATM    8  C3  UNL     1     -34.372   6.382   3.594  1.00 20.00     0.021 C 
ENDBRANCH   3   7
TORSDOF 3
ENDMDL
MODEL 9
REMARK VINA RESULT:      -0.3      0.804      1.085
REMARK  3 active torsions:
REMARK  status: ('A' for Active; 'I' for Inactive)
REMARK    1  A    between atoms: C2_2  and  C4_4 
REMARK    2  A    between atoms: C4_4  and  S8_8 
REMARK    3  A    between atoms: C5_5  and  S8_8 
ROOT
HETATM    1  O6  UNL     1     -33.360   7.436   4.713  1.00 20.00    -0.228 OA
HETATM    2  O7  UNL     1     -35.442   6.665   3.512  1.00 20.00    -0.228 OA
HETATM    3  S8  UNL     1     -33.997   6.819   3.561  1.00 20.00     0.147 S 
ENDROOT
BRANCH   3   4
HETATM    4  C4  UNL     1     -33.263   5.239   3.301  1.00 20.00     0.166 C 
BRANCH   4   5
HETATM    5  C2  UNL     1     -34.015   4.256   4.131  1.00 20.00    -0.022 C 
HETATM    6  C1  UNL     1     -33.476   3.138   4.630  1.00 20.00     0.008 C 
ENDBRANCH   4   5
ENDBRANCH   3   4
BRANCH   3   7
HETATM    7  C5  UNL     1     -33.509   7.743   2.121  1.00 20.00     0.136 C 
HETATM    8  C3  UNL     1     -32.004   7.786   1.973  1.00 20.00     0.021 C 
ENDBRANCH   3   7
TORSDOF 3
ENDMDL
