MODEL 1
REMARK VINA RESULT:      -1.3      0.000      0.000
REMARK  0 active torsions:
REMARK  status: ('A' for Active; 'I' for Inactive)
ROOT
HETATM    1  C1  UNL     1     -35.081   4.964   4.379  1.00 20.00     0.000 A 
HETATM    2  C2  UNL     1     -34.020   4.398   3.674  1.00 20.00     0.001 A 
HETATM    3  C3  UNL     1     -35.293   6.342   4.335  1.00 20.00     0.001 A 
HETATM    4  C4  UNL     1     -33.169   5.210   2.922  1.00 20.00     0.018 A 
HETATM    5  C5  UNL     1     -34.442   7.154   3.584  1.00 20.00     0.018 A 
HETATM    6  C6  UNL     1     -33.381   6.588   2.878  1.00 20.00     0.006 A 
HETATM    7  I7  UNL     1     -32.115   7.797   1.759  1.00 20.00    -0.045 I 
ENDROOT
TORSDOF 0
ENDMDL
MODEL 2
REMARK VINA RESULT:      -1.3      0.001      1.827
REMARK  0 active torsions:
REMARK  status: ('A' for Active; 'I' for Inactive)
ROOT
HETATM    1  C1  UNL     1     -35.081   4.964   4.380  1.00 20.00     0.000 A 
HETATM    2  C2  UNL     1     -35.293   6.341   4.334  1.00 20.00     0.001 A 
HETATM    3  C3  UNL     1     -34.020   4.397   3.674  1.00 20.00     0.001 A 
HETATM    4  C4  UNL     1     -34.443   7.154   3.584  1.00 20.00     0.018 A 
HETATM    5  C5  UNL     1     -33.169   5.209   2.923  1.00 20.00     0.018 A 
HETATM    6  C6  UNL     1     -33.381   6.587   2.878  1.00 20.00     0.006 A 
HETATM    7  I7  UNL     1     -32.115   7.797   1.760  1.00 20.00    -0.045 I 
ENDROOT
TORSDOF 0
ENDMDL
MODEL 3
REMARK VINA RESULT:      -0.9      2.328      3.792
REMARK  0 active torsions:
REMARK  status: ('A' for Active; 'I' for Inactive)
ROOT
HETATM    1  C1  UNL     1     -31.667   7.603   1.433  1.00 20.00     0.000 A 
HETATM    2  C2  UNL     1     -32.227   8.344   2.473  1.00 20.00     0.001 A 
HETATM    3  C3  UNL     1     -32.104   6.301   1.189  1.00 20.00     0.001 A 
HETATM    4  C4  UNL     1     -33.225   7.784   3.270  1.00 20.00     0.018 A 
HETATM    5  C5  UNL     1     -33.102   5.740   1.986  1.00 20.00     0.018 A 
HETATM    6  C6  UNL     1     -33.663   6.482   3.026  1.00 20.00     0.006 A 
HETATM    7  I7  UNL     1     -35.150   5.647   4.213  1.00 20.00    -0.045 I 
ENDROOT
TORSDOF 0
ENDMDL
MODEL 4
REMARK VINA RESULT:      -0.9      2.328      3.397
REMARK  0 active torsions:
REMARK  status: ('A' for Active; 'I' for Inactive)
ROOT
HETATM    1  C1  UNL     1     -31.665   7.596   1.425  1.00 20.00     0.000 A 
HETATM    2  C2  UNL     1     -32.100   6.293   1.190  1.00 20.00     0.001 A 
HETATM    3  C3  UNL     1     -32.228   8.346   2.457  1.00 20.00     0.001 A 
HETATM    4  C4  UNL     1     -33.100   5.737   1.989  1.00 20.00     0.018 A 
HETATM    5  C5  UNL     1     -33.228   7.791   3.257  1.00 20.00     0.018 A 
HETATM    6  C6  UNL     1     -33.664   6.486   3.023  1.00 20.00     0.006 A 
HETATM    7  I7  UNL     1     -35.152   5.658   4.212  1.00 20.00    -0.045 I 
ENDROOT
TORSDOF 0
ENDMDL
MODEL 5
REMARK VINA RESULT:      -0.9      1.120      1.343
REMARK  0 active torsions:
REMARK  status: ('A' for Active; 'I' for Inactive)
ROOT
HETATM    1  C1  UNL     1     -34.363   5.833   3.784  1.00 20.00     0.000 A 
HETATM    2  C2  UNL     1     -33.674   5.323   2.684  1.00 20.00     0.001 A 
HETATM    3  C3  UNL     1     -34.297   7.195   4.080  1.00 20.00     0.001 A 
HETATM    4  C4  UNL     1     -32.920   6.175   1.877  1.00 20.00     0.018 A 
HETATM    5  C5  UNL     1     -33.542   8.048   3.273  1.00 20.00     0.018 A 
HETATM    6  C6  UNL     1     -32.855   7.538   2.171  1.00 20.00     0.006 A 
HETATM    7  I7  UNL     1     -31.731   8.806   0.970  1.00 20.00    -0.045 I 
ENDROOT
TORSDOF 0
ENDMDL
MODEL 6
REMARK VINA RESULT:      -0.3      1.507      2.272
REMARK  0 active torsions:
REMARK  status: ('A' for Active; 'I' for Inactive)
ROOT
HETATM    1  C1  UNL     1     -34.306   7.713   4.283  1.00 20.00     0.000 A 
HETATM    2  C2  UNL     1     -34.770   6.427   4.010  1.00 20.00     0.001 A 
HETATM    3  C3  UNL     1     -33.228   8.232   3.566  1.00 20.00     0.001 A 
HETATM    4  C4  UNL     1     -34.158   5.659   3.019  1.00 20.00     0.018 A 
HETATM    5  C5  UNL     1     -32.615   7.465   2.575  1.00 20.00     0.018 A 
HETATM    6  C6  UNL     1     -33.080   6.179   2.301  1.00 20.00     0.006 A 
HETATM    7  I7  UNL     1     -32.168   5.036   0.825  1.00 20.00    -0.045 I 
ENDROOT
TORSDOF 0
ENDMDL
MODEL 7
REMARK VINA RESULT:      -0.3      1.506      2.424
REMARK  0 active torsions:
REMARK  status: ('A' for Active; 'I' for Inactive)
ROOT
HETATM    1  C1  UNL     1     -34.306   7.713   4.284  1.00 20.00     0.000 A 
HETATM    2  C2  UNL     1     -33.229   8.233   3.567  1.00 20.00     0.001 A 
HETATM    3  C3  UNL     1     -34.771   6.427   4.011  1.00 20.00     0.001 A 
HETATM    4  C4  UNL     1     -32.615   7.466   2.576  1.00 20.00     0.018 A 
HETATM    5  C5  UNL     1     -34.157   5.659   3.020  1.00 20.00     0.018 A 
HETATM    6  C6  UNL     1     -33.079   6.179   2.304  1.00 20.00     0.006 A 
HETATM    7  I7  UNL     1     -32.165   5.037   0.828  1.00 20.00    -0.045 I 
ENDROOT
TORSDOF 0
ENDMDL
MODEL 8
REMARK VINA RESULT:       0.1      2.239      3.152
REMARK  0 active torsions:
REMARK  status: ('A' for Active; 'I' for Inactive)
ROOT
HETATM    1  C1  UNL     1     -34.662   7.134   3.141  1.00 20.00     0.000 A 
HETATM    2  C2  UNL     1     -35.417   6.386   4.043  1.00 20.00     0.001 A 
HETATM    3  C3  UNL     1     -33.475   6.615   2.624  1.00 20.00     0.001 A 
HETATM    4  C4  UNL     1     -34.986   5.116   4.428  1.00 20.00     0.018 A 
HETATM    5  C5  UNL     1     -33.043   5.345   3.009  1.00 20.00     0.018 A 
HETATM    6  C6  UNL     1     -33.799   4.596   3.911  1.00 20.00     0.006 A 
HETATM    7  I7  UNL     1     -33.157   2.705   4.485  1.00 20.00    -0.045 I 
ENDROOT
TORSDOF 0
ENDMDL
MODEL 9
REMARK VINA RESULT:       0.1      2.238      2.870
REMARK  0 active torsions:
REMARK  status: ('A' for Active; 'I' for Inactive)
ROOT
HETATM    1  C1  UNL     1     -34.654   7.140   3.136  1.00 20.00     0.000 A 
HETATM    2  C2  UNL     1     -33.470   6.617   2.619  1.00 20.00     0.001 A 
HETATM    3  C3  UNL     1     -35.412   6.394   4.038  1.00 20.00     0.001 A 
HETATM    4  C4  UNL     1     -33.041   5.347   3.006  1.00 20.00     0.018 A 
HETATM    5  C5  UNL     1     -34.984   5.124   4.425  1.00 20.00     0.018 A 
HETATM    6  C6  UNL     1     -33.798   4.601   3.909  1.00 20.00     0.006 A 
HETATM    7  I7  UNL     1     -33.160   2.709   4.485  1.00 20.00    -0.045 I 
ENDROOT
TORSDOF 0
ENDMDL
