MODEL 1
REMARK VINA RESULT:      -1.1      0.000      0.000
REMARK  0 active torsions:
REMARK  status: ('A' for Active; 'I' for Inactive)
ROOT
HETATM    1  C1  UNL     1     -35.072   6.595   4.537  1.00 20.00     0.001 A 
HETATM    2  C2  UNL     1     -34.928   5.282   4.115  1.00 20.00     0.001 A 
HETATM    3  C3  UNL     1     -34.290   7.608   3.976  1.00 20.00     0.013 A 
HETATM    4  C4  UNL     1     -33.999   4.951   3.126  1.00 20.00     0.019 A 
HETATM    5  C5  UNL     1     -32.434   8.157   2.255  1.00 20.00     0.020 A 
HETATM    6  C6  UNL     1     -31.661   7.474   1.347  1.00 20.00     0.051 A 
HETATM    7  C7  UNL     1     -33.339   7.304   2.971  1.00 20.00    -0.019 A 
HETATM    8  C8  UNL     1     -33.210   5.974   2.562  1.00 20.00     0.015 A 
HETATM    9  S9  UNL     1     -32.009   5.806   1.338  1.00 20.00    -0.101 SA
ENDROOT
TORSDOF 0
ENDMDL
MODEL 2
REMARK VINA RESULT:      -1.0      1.020      2.023
REMARK  0 active torsions:
REMARK  status: ('A' for Active; 'I' for Inactive)
ROOT
HETATM    1  C1  UNL     1     -34.917   5.161   4.121  1.00 20.00     0.001 A 
HETATM    2  C2  UNL     1     -35.107   6.483   4.494  1.00 20.00     0.001 A 
HETATM    3  C3  UNL     1     -33.967   4.830   3.152  1.00 20.00     0.013 A 
HETATM    4  C4  UNL     1     -34.353   7.503   3.908  1.00 20.00     0.019 A 
HETATM    5  C5  UNL     1     -32.165   5.750   1.535  1.00 20.00     0.020 A 
HETATM    6  C6  UNL     1     -31.638   6.974   1.198  1.00 20.00     0.051 A 
HETATM    7  C7  UNL     1     -33.187   5.840   2.539  1.00 20.00    -0.019 A 
HETATM    8  C8  UNL     1     -33.395   7.166   2.931  1.00 20.00     0.015 A 
HETATM    9  S9  UNL     1     -32.357   8.244   2.076  1.00 20.00    -0.101 SA
ENDROOT
TORSDOF 0
ENDMDL
MODEL 3
REMARK VINA RESULT:      -0.9      1.298      3.268
REMARK  0 active torsions:
REMARK  status: ('A' for Active; 'I' for Inactive)
ROOT
HETATM    1  C1  UNL     1     -31.861   7.964   1.578  1.00 20.00     0.001 A 
HETATM    2  C2  UNL     1     -31.683   6.654   1.159  1.00 20.00     0.001 A 
HETATM    3  C3  UNL     1     -32.802   8.269   2.565  1.00 20.00     0.013 A 
HETATM    4  C4  UNL     1     -32.440   5.620   1.716  1.00 20.00     0.019 A 
HETATM    5  C5  UNL     1     -34.597   7.306   4.164  1.00 20.00     0.020 A 
HETATM    6  C6  UNL     1     -35.131   6.074   4.463  1.00 20.00     0.051 A 
HETATM    7  C7  UNL     1     -33.584   7.243   3.149  1.00 20.00    -0.019 A 
HETATM    8  C8  UNL     1     -33.388   5.930   2.711  1.00 20.00     0.015 A 
HETATM    9  S9  UNL     1     -34.427   4.830   3.536  1.00 20.00    -0.101 SA
ENDROOT
TORSDOF 0
ENDMDL
MODEL 4
REMARK VINA RESULT:      -0.6      1.568      3.842
REMARK  0 active torsions:
REMARK  status: ('A' for Active; 'I' for Inactive)
ROOT
HETATM    1  C1  UNL     1     -31.708   6.465   0.983  1.00 20.00     0.001 A 
HETATM    2  C2  UNL     1     -31.558   7.763   1.448  1.00 20.00     0.001 A 
HETATM    3  C3  UNL     1     -32.650   5.612   1.564  1.00 20.00     0.013 A 
HETATM    4  C4  UNL     1     -32.344   8.238   2.500  1.00 20.00     0.019 A 
HETATM    5  C5  UNL     1     -34.483   5.385   3.379  1.00 20.00     0.020 A 
HETATM    6  C6  UNL     1     -35.048   6.175   4.352  1.00 20.00     0.051 A 
HETATM    7  C7  UNL     1     -33.462   6.063   2.632  1.00 20.00    -0.019 A 
HETATM    8  C8  UNL     1     -33.293   7.375   3.084  1.00 20.00     0.015 A 
HETATM    9  S9  UNL     1     -34.366   7.736   4.384  1.00 20.00    -0.101 SA
ENDROOT
TORSDOF 0
ENDMDL
MODEL 5
REMARK VINA RESULT:       0.2      1.658      3.791
REMARK  0 active torsions:
REMARK  status: ('A' for Active; 'I' for Inactive)
ROOT
HETATM    1  C1  UNL     1     -31.638   7.076   1.411  1.00 20.00     0.001 A 
HETATM    2  C2  UNL     1     -32.208   8.208   1.973  1.00 20.00     0.001 A 
HETATM    3  C3  UNL     1     -32.128   5.806   1.727  1.00 20.00     0.013 A 
HETATM    4  C4  UNL     1     -33.279   8.098   2.863  1.00 20.00     0.019 A 
HETATM    5  C5  UNL     1     -33.882   4.483   3.099  1.00 20.00     0.020 A 
HETATM    6  C6  UNL     1     -34.903   4.764   3.977  1.00 20.00     0.051 A 
HETATM    7  C7  UNL     1     -33.213   5.662   2.626  1.00 20.00    -0.019 A 
HETATM    8  C8  UNL     1     -33.771   6.817   3.181  1.00 20.00     0.015 A 
HETATM    9  S9  UNL     1     -35.073   6.438   4.245  1.00 20.00    -0.101 SA
ENDROOT
TORSDOF 0
ENDMDL
MODEL 6
REMARK VINA RESULT:       0.2      0.851      1.088
REMARK  0 active torsions:
REMARK  status: ('A' for Active; 'I' for Inactive)
ROOT
HETATM    1  C1  UNL     1     -34.133   7.810   4.851  1.00 20.00     0.001 A 
HETATM    2  C2  UNL     1     -34.848   6.675   4.497  1.00 20.00     0.001 A 
HETATM    3  C3  UNL     1     -33.072   8.253   4.056  1.00 20.00     0.013 A 
HETATM    4  C4  UNL     1     -34.520   5.958   3.343  1.00 20.00     0.019 A 
HETATM    5  C5  UNL     1     -31.682   7.804   1.918  1.00 20.00     0.020 A 
HETATM    6  C6  UNL     1     -31.657   6.877   0.903  1.00 20.00     0.051 A 
HETATM    7  C7  UNL     1     -32.716   7.549   2.881  1.00 20.00    -0.019 A 
HETATM    8  C8  UNL     1     -33.450   6.408   2.544  1.00 20.00     0.015 A 
HETATM    9  S9  UNL     1     -32.867   5.692   1.088  1.00 20.00    -0.101 SA
ENDROOT
TORSDOF 0
ENDMDL
MODEL 7
REMARK VINA RESULT:       1.6      1.058      1.654
REMARK  0 active torsions:
REMARK  status: ('A' for Active; 'I' for Inactive)
ROOT
HETATM    1  C1  UNL     1     -35.008   4.405   4.366  1.00 20.00     0.001 A 
HETATM    2  C2  UNL     1     -33.991   3.744   3.694  1.00 20.00     0.001 A 
HETATM    3  C3  UNL     1     -35.126   5.794   4.277  1.00 20.00     0.013 A 
HETATM    4  C4  UNL     1     -33.070   4.453   2.920  1.00 20.00     0.019 A 
HETATM    5  C5  UNL     1     -34.125   7.955   3.258  1.00 20.00     0.020 A 
HETATM    6  C6  UNL     1     -33.077   8.296   2.436  1.00 20.00     0.051 A 
HETATM    7  C7  UNL     1     -34.209   6.542   3.500  1.00 20.00    -0.019 A 
HETATM    8  C8  UNL     1     -33.192   5.855   2.832  1.00 20.00     0.015 A 
HETATM    9  S9  UNL     1     -32.181   6.933   1.945  1.00 20.00    -0.101 SA
ENDROOT
TORSDOF 0
ENDMDL
