MODEL 1
REMARK VINA RESULT:      -2.1      0.000      0.000
REMARK  0 active torsions:
REMARK  status: ('A' for Active; 'I' for Inactive)
ROOT
HETATM    1  C1  UNL     1     -34.463   7.336   4.184  1.00 20.00     0.002 A 
HETATM    2  C2  UNL     1     -34.641   5.968   3.978  1.00 20.00     0.002 A 
HETATM    3  C3  UNL     1     -33.554   8.048   3.401  1.00 20.00     0.025 A 
HETATM    4  C4  UNL     1     -33.909   5.312   2.989  1.00 20.00     0.025 A 
HETATM    5  C5  UNL     1     -32.823   7.391   2.412  1.00 20.00     0.055 A 
HETATM    6  C6  UNL     1     -32.999   6.023   2.206  1.00 20.00     0.055 A 
HETATM    7 CL7  UNL     1     -31.711   8.326   1.474  1.00 20.00    -0.083 Cl
HETATM    8 CL8  UNL     1     -32.123   5.153   0.997  1.00 20.00    -0.083 Cl
ENDROOT
TORSDOF 0
ENDMDL
MODEL 2
REMARK VINA RESULT:      -2.0      0.014      2.353
REMARK  0 active torsions:
REMARK  status: ('A' for Active; 'I' for Inactive)
ROOT
HETATM    1  C1  UNL     1     -34.653   5.963   3.978  1.00 20.00     0.002 A 
HETATM    2  C2  UNL     1     -34.471   7.329   4.189  1.00 20.00     0.002 A 
HETATM    3  C3  UNL     1     -33.921   5.306   2.989  1.00 20.00     0.025 A 
HETATM    4  C4  UNL     1     -33.556   8.038   3.412  1.00 20.00     0.025 A 
HETATM    5  C5  UNL     1     -33.006   6.015   2.212  1.00 20.00     0.055 A 
HETATM    6  C6  UNL     1     -32.823   7.382   2.422  1.00 20.00     0.055 A 
HETATM    7 CL7  UNL     1     -32.128   5.146   1.002  1.00 20.00    -0.083 Cl
HETATM    8 CL8  UNL     1     -31.705   8.316   1.493  1.00 20.00    -0.083 Cl
ENDROOT
TORSDOF 0
ENDMDL
MODEL 3
REMARK VINA RESULT:      -2.0      2.297      2.909
REMARK  0 active torsions:
REMARK  status: ('A' for Active; 'I' for Inactive)
ROOT
HETATM    1  C1  UNL     1     -31.985   7.334   1.638  1.00 20.00     0.002 A 
HETATM    2  C2  UNL     1     -32.547   6.099   1.317  1.00 20.00     0.002 A 
HETATM    3  C3  UNL     1     -32.405   8.018   2.778  1.00 20.00     0.025 A 
HETATM    4  C4  UNL     1     -33.531   5.548   2.139  1.00 20.00     0.025 A 
HETATM    5  C5  UNL     1     -33.389   7.467   3.598  1.00 20.00     0.055 A 
HETATM    6  C6  UNL     1     -33.953   6.232   3.279  1.00 20.00     0.055 A 
HETATM    7 CL7  UNL     1     -33.869   8.362   4.997  1.00 20.00    -0.083 Cl
HETATM    8 CL8  UNL     1     -35.175   5.497   4.255  1.00 20.00    -0.083 Cl
ENDROOT
TORSDOF 0
ENDMDL
MODEL 4
REMARK VINA RESULT:      -2.0      2.276      3.711
REMARK  0 active torsions:
REMARK  status: ('A' for Active; 'I' for Inactive)
ROOT
HETATM    1  C1  UNL     1     -32.442   6.225   1.283  1.00 20.00     0.002 A 
HETATM    2  C2  UNL     1     -31.934   7.472   1.646  1.00 20.00     0.002 A 
HETATM    3  C3  UNL     1     -33.408   5.607   2.078  1.00 20.00     0.025 A 
HETATM    4  C4  UNL     1     -32.392   8.102   2.803  1.00 20.00     0.025 A 
HETATM    5  C5  UNL     1     -33.866   6.237   3.235  1.00 20.00     0.055 A 
HETATM    6  C6  UNL     1     -33.358   7.484   3.598  1.00 20.00     0.055 A 
HETATM    7 CL7  UNL     1     -35.063   5.422   4.179  1.00 20.00    -0.083 Cl
HETATM    8 CL8  UNL     1     -33.884   8.316   5.018  1.00 20.00    -0.083 Cl
ENDROOT
TORSDOF 0
ENDMDL
MODEL 5
REMARK VINA RESULT:      -1.0      1.422      2.488
REMARK  0 active torsions:
REMARK  status: ('A' for Active; 'I' for Inactive)
ROOT
HETATM    1  C1  UNL     1     -32.749   8.446   2.562  1.00 20.00     0.002 A 
HETATM    2  C2  UNL     1     -33.579   8.238   3.663  1.00 20.00     0.002 A 
HETATM    3  C3  UNL     1     -32.353   7.366   1.773  1.00 20.00     0.025 A 
HETATM    4  C4  UNL     1     -34.013   6.950   3.976  1.00 20.00     0.025 A 
HETATM    5  C5  UNL     1     -32.785   6.079   2.086  1.00 20.00     0.055 A 
HETATM    6  C6  UNL     1     -33.615   5.869   3.188  1.00 20.00     0.055 A 
HETATM    7 CL7  UNL     1     -32.260   4.781   1.072  1.00 20.00    -0.083 Cl
HETATM    8 CL8  UNL     1     -34.185   4.298   3.627  1.00 20.00    -0.083 Cl
ENDROOT
TORSDOF 0
ENDMDL
MODEL 6
REMARK VINA RESULT:      -1.0      1.424      2.604
REMARK  0 active torsions:
REMARK  status: ('A' for Active; 'I' for Inactive)
ROOT
HETATM    1  C1  UNL     1     -33.579   8.238   3.652  1.00 20.00     0.002 A 
HETATM    2  C2  UNL     1     -32.743   8.443   2.554  1.00 20.00     0.002 A 
HETATM    3  C3  UNL     1     -34.014   6.950   3.967  1.00 20.00     0.025 A 
HETATM    4  C4  UNL     1     -32.342   7.360   1.772  1.00 20.00     0.025 A 
HETATM    5  C5  UNL     1     -33.613   5.868   3.184  1.00 20.00     0.055 A 
HETATM    6  C6  UNL     1     -32.778   6.072   2.086  1.00 20.00     0.055 A 
HETATM    7 CL7  UNL     1     -34.185   4.297   3.624  1.00 20.00    -0.083 Cl
HETATM    8 CL8  UNL     1     -32.246   4.773   1.078  1.00 20.00    -0.083 Cl
ENDROOT
TORSDOF 0
ENDMDL
MODEL 7
REMARK VINA RESULT:      -0.5      2.226      2.857
REMARK  0 active torsions:
REMARK  status: ('A' for Active; 'I' for Inactive)
ROOT
HETATM    1  C1  UNL     1     -32.808   8.180   2.308  1.00 20.00     0.002 A 
HETATM    2  C2  UNL     1     -32.064   7.165   1.707  1.00 20.00     0.002 A 
HETATM    3  C3  UNL     1     -33.848   7.860   3.180  1.00 20.00     0.025 A 
HETATM    4  C4  UNL     1     -32.360   5.830   1.980  1.00 20.00     0.025 A 
HETATM    5  C5  UNL     1     -34.144   6.525   3.452  1.00 20.00     0.055 A 
HETATM    6  C6  UNL     1     -33.400   5.509   2.852  1.00 20.00     0.055 A 
HETATM    7 CL7  UNL     1     -35.445   6.191   4.542  1.00 20.00    -0.083 Cl
HETATM    8 CL8  UNL     1     -33.718   3.836   3.149  1.00 20.00    -0.083 Cl
ENDROOT
TORSDOF 0
ENDMDL
MODEL 8
REMARK VINA RESULT:      -0.2      1.561      2.218
REMARK  0 active torsions:
REMARK  status: ('A' for Active; 'I' for Inactive)
ROOT
HETATM    1  C1  UNL     1     -34.986   4.828   4.430  1.00 20.00     0.002 A 
HETATM    2  C2  UNL     1     -33.998   4.204   3.668  1.00 20.00     0.002 A 
HETATM    3  C3  UNL     1     -35.133   6.214   4.381  1.00 20.00     0.025 A 
HETATM    4  C4  UNL     1     -33.158   4.967   2.857  1.00 20.00     0.025 A 
HETATM    5  C5  UNL     1     -34.293   6.976   3.571  1.00 20.00     0.055 A 
HETATM    6  C6  UNL     1     -33.305   6.353   2.808  1.00 20.00     0.055 A 
HETATM    7 CL7  UNL     1     -34.524   8.690   3.552  1.00 20.00    -0.083 Cl
HETATM    8 CL8  UNL     1     -32.233   7.242   1.784  1.00 20.00    -0.083 Cl
ENDROOT
TORSDOF 0
ENDMDL
MODEL 9
REMARK VINA RESULT:      -0.2      1.557      2.699
REMARK  0 active torsions:
REMARK  status: ('A' for Active; 'I' for Inactive)
ROOT
HETATM    1  C1  UNL     1     -34.001   4.210   3.657  1.00 20.00     0.002 A 
HETATM    2  C2  UNL     1     -34.988   4.833   4.421  1.00 20.00     0.002 A 
HETATM    3  C3  UNL     1     -33.158   4.973   2.850  1.00 20.00     0.025 A 
HETATM    4  C4  UNL     1     -35.131   6.220   4.377  1.00 20.00     0.025 A 
HETATM    5  C5  UNL     1     -33.302   6.359   2.806  1.00 20.00     0.055 A 
HETATM    6  C6  UNL     1     -34.289   6.984   3.569  1.00 20.00     0.055 A 
HETATM    7 CL7  UNL     1     -32.228   7.251   1.785  1.00 20.00    -0.083 Cl
HETATM    8 CL8  UNL     1     -34.517   8.696   3.558  1.00 20.00    -0.083 Cl
ENDROOT
TORSDOF 0
ENDMDL
