REMARK  1 active torsions:
REMARK  status: ('A' for Active; 'I' for Inactive)
REMARK    1  A    between atoms: C3_3  and  C8_8 
ROOT
HETATM    1  C1  UNL     1     -31.963  10.035   0.567  1.00 20.00    -0.026 C 
HETATM    2  C2  UNL     1     -32.274  10.505   1.784  1.00 20.00    -0.024 C 
HETATM    3  C4  UNL     1     -34.036   9.181   1.109  1.00 20.00     0.018 C 
HETATM    4  C5  UNL     1     -32.195   7.674   1.283  1.00 20.00     0.029 C 
HETATM    5  C6  UNL     1     -32.768   8.774   0.354  1.00 20.00     0.010 C 
HETATM    6  C7  UNL     1     -33.271   9.544   2.393  1.00 20.00     0.027 C 
HETATM    7  C8  UNL     1     -32.557   8.206   2.699  1.00 20.00     0.052 C 
HETATM    8  C9  UNL     1     -31.372   8.290   3.652  1.00 20.00     0.027 C 
ENDROOT
BRANCH   7   9
HETATM    9  C3  UNL     1     -33.513   7.245   3.399  1.00 20.00     0.182 C 
HETATM   10  O10 UNL     1     -33.869   7.589   4.560  1.00 20.00    -0.647 OA
HETATM   11  O11 UNL     1     -33.827   6.225   2.724  1.00 20.00    -0.647 OA
ENDBRANCH   7   9
TORSDOF 1
