REMARK  0 active torsions:
REMARK  status: ('A' for Active; 'I' for Inactive)
ROOT
HETATM    1  C1  UNL     1     -32.975   8.342   2.531  1.00 20.00     0.075 C 
HETATM    2  C2  UNL     1     -34.673   5.061   5.203  1.00 20.00     0.084 C 
HETATM    3  C3  UNL     1     -33.937   4.601   3.954  1.00 20.00     0.085 C 
HETATM    4  C4  UNL     1     -33.852   7.663   4.721  1.00 20.00     0.104 C 
HETATM    5  C5  UNL     1     -33.107   7.210   3.464  1.00 20.00     0.163 C 
HETATM    6  N6  UNL     1     -32.871   9.233   1.795  1.00 20.00    -0.196 NA
HETATM    7  S7  UNL     1     -33.824   6.424   6.054  1.00 20.00    -0.166 SA
HETATM    8  S8  UNL     1     -33.974   5.836   2.622  1.00 20.00    -0.148 SA
ENDROOT
TORSDOF 0
