REMARK  0 active torsions:
REMARK  status: ('A' for Active; 'I' for Inactive)
ROOT
HETATM    1  C1  UNL     1     -34.656   4.326   5.293  1.00 20.00     0.136 A 
HETATM    2  C2  UNL     1     -34.496   3.961   3.978  1.00 20.00     0.136 A 
HETATM    3  C3  UNL     1     -33.489   6.268   4.903  1.00 20.00     0.059 A 
HETATM    4  C4  UNL     1     -33.337   5.904   3.570  1.00 20.00     0.059 A 
HETATM    5  C5  UNL     1     -32.978   7.581   5.429  1.00 20.00     0.061 C 
HETATM    6  C6  UNL     1     -32.557   6.748   2.601  1.00 20.00     0.061 C 
HETATM    7  C7  UNL     1     -31.920   8.217   4.530  1.00 20.00     0.006 C 
HETATM    8  C8  UNL     1     -32.372   8.189   3.074  1.00 20.00     0.006 C 
HETATM    9  N9  UNL     1     -34.160   5.481   5.775  1.00 20.00    -0.262 NA
HETATM   10  N10 UNL     1     -33.835   4.737   3.099  1.00 20.00    -0.262 NA
ENDROOT
TORSDOF 0
