REMARK  2 active torsions:
REMARK  status: ('A' for Active; 'I' for Inactive)
REMARK    1  A    between atoms: C3_3  and  C5_5 
REMARK    2  A    between atoms: C5_5  and  C6_6 
ROOT
HETATM    1  C1  UNL     1     -33.884   4.561   4.292  1.00 20.00     0.179 C 
HETATM    2  C2  UNL     1     -34.802   5.538   5.005  1.00 20.00     0.103 C 
HETATM    3  C3  UNL     1     -32.974   6.505   3.424  1.00 20.00     0.182 C 
HETATM    4  O7  UNL     1     -33.426   5.187   3.087  1.00 20.00    -0.375 OA
HETATM    5  S8  UNL     1     -33.918   7.099   4.853  1.00 20.00    -0.135 SA
ENDROOT
BRANCH   3   6
HETATM    6  C5  UNL     1     -33.164   7.411   2.221  1.00 20.00     0.042 C 
BRANCH   6   7
HETATM    7  C6  UNL     1     -32.264   8.644   2.297  1.00 20.00    -0.001 C 
HETATM    8  C4  UNL     1     -32.433   9.536   1.078  1.00 20.00     0.005 C 
ENDBRANCH   6   7
ENDBRANCH   3   6
TORSDOF 2
