REMARK  1 active torsions:
REMARK  status: ('A' for Active; 'I' for Inactive)
REMARK    1  A    between atoms: C8_8  and  N9_9 
ROOT
HETATM    1  C1  UNL     1     -32.579   8.833   1.827  1.00 20.00     0.158 C 
HETATM    2  N9  UNL     1     -32.447   8.120   2.751  1.00 20.00    -0.270 NA
HETATM    3  S10 UNL     1     -32.728   9.801   0.571  1.00 20.00    -0.055 SA
ENDROOT
BRANCH   2   4
HETATM    4  C8  UNL     1     -33.697   7.691   3.381  1.00 20.00     0.118 C 
HETATM    5  C5  UNL     1     -33.451   7.364   4.881  1.00 20.00     0.036 C 
HETATM    6  C6  UNL     1     -33.822   5.866   4.968  1.00 20.00     0.010 C 
HETATM    7  C2  UNL     1     -35.302   5.733   4.692  1.00 20.00    -0.026 C 
HETATM    8  C4  UNL     1     -33.286   5.351   3.630  1.00 20.00     0.019 C 
HETATM    9  C3  UNL     1     -35.490   6.004   3.392  1.00 20.00    -0.024 C 
HETATM   10  C7  UNL     1     -34.135   6.325   2.803  1.00 20.00     0.033 C 
ENDBRANCH   2   4
TORSDOF 1
