REMARK  0 active torsions:
REMARK  status: ('A' for Active; 'I' for Inactive)
ROOT
HETATM    1  C1  UNL     1     -33.402   6.999   4.617  1.00 20.00     0.056 A 
HETATM    2  C2  UNL     1     -33.916   5.852   4.049  1.00 20.00     0.077 A 
HETATM    3  C3  UNL     1     -33.201   7.558   2.506  1.00 20.00     0.072 A 
HETATM    4  C4  UNL     1     -33.252   7.274   6.062  1.00 20.00     0.072 C 
HETATM    5  C5  UNL     1     -32.884   8.337   1.289  1.00 20.00     0.079 C 
HETATM    6  N6  UNL     1     -32.991   7.978   3.734  1.00 20.00    -0.249 NA
HETATM    7  S7  UNL     1     -33.890   5.995   2.340  1.00 20.00    -0.066 SA
HETATM    8 BR8  UNL     1     -34.563   4.330   4.974  1.00 20.00    -0.041 Br
ENDROOT
TORSDOF 0
