REMARK  2 active torsions:
REMARK  status: ('A' for Active; 'I' for Inactive)
REMARK    1  A    between atoms: C3_3  and  O11_11 
REMARK    2  A    between atoms: C8_8  and  O11_11 
ROOT
HETATM    1  C1  UNL     1     -32.539  10.708   1.202  1.00 20.00    -0.025 C 
HETATM    2  C2  UNL     1     -33.728  10.193   1.548  1.00 20.00    -0.023 C 
HETATM    3  C4  UNL     1     -33.048   9.076  -0.356  1.00 20.00     0.019 C 
HETATM    4  C5  UNL     1     -31.429   8.509   1.308  1.00 20.00     0.042 C 
HETATM    5  C6  UNL     1     -31.830   9.669   0.367  1.00 20.00     0.011 C 
HETATM    6  C7  UNL     1     -33.810   8.808   0.946  1.00 20.00     0.038 C 
HETATM    7  C8  UNL     1     -32.804   7.873   1.658  1.00 20.00     0.140 C 
ENDROOT
BRANCH   7   8
HETATM    8  O11 UNL     1     -33.015   7.813   3.055  1.00 20.00    -0.316 OA
BRANCH   8   9
HETATM    9  C3  UNL     1     -33.818   6.794   3.500  1.00 20.00     0.255 C 
HETATM   10  C9  UNL     1     -33.950   6.855   4.991  1.00 20.00     0.126 C 
HETATM   11  O10 UNL     1     -34.356   5.949   2.797  1.00 20.00    -0.266 OA
ENDBRANCH   8   9
ENDBRANCH   7   8
TORSDOF 2
