REMARK  0 active torsions:
REMARK  status: ('A' for Active; 'I' for Inactive)
ROOT
HETATM    1  C1  UNL     1     -34.089   6.559   6.157  1.00 20.00    -0.030 C 
HETATM    2  C2  UNL     1     -34.289   5.255   5.850  1.00 20.00    -0.029 C 
HETATM    3  C3  UNL     1     -33.289   7.232   2.434  1.00 20.00     0.224 C 
HETATM    4  C4  UNL     1     -33.728   7.626   5.123  1.00 20.00     0.043 C 
HETATM    5  C5  UNL     1     -34.243   4.707   4.425  1.00 20.00     0.053 C 
HETATM    6  C6  UNL     1     -33.230   6.871   3.915  1.00 20.00     0.104 C 
HETATM    7  C7  UNL     1     -34.385   5.914   3.533  1.00 20.00     0.101 C 
HETATM    8  N8  UNL     1     -33.845   5.992   2.186  1.00 20.00    -0.355 N 
HETATM    9  O9  UNL     1     -32.949   8.144   1.720  1.00 20.00    -0.273 OA
HETATM   10  H18 UNL     1     -34.201   5.655   1.300  1.00 20.00     0.162 HD
ENDROOT
TORSDOF 0
