REMARK  2 active torsions:
REMARK  status: ('A' for Active; 'I' for Inactive)
REMARK    1  A    between atoms: C3_3  and  C5_5 
REMARK    2  A    between atoms: C5_5  and  C6_6 
ROOT
HETATM    1  C1  UNL     1     -34.271   5.966   5.245  1.00 20.00     0.179 C 
HETATM    2  C2  UNL     1     -34.523   4.983   4.116  1.00 20.00     0.103 C 
HETATM    3  C3  UNL     1     -32.986   7.029   3.639  1.00 20.00     0.182 C 
HETATM    4  O7  UNL     1     -33.968   7.239   4.662  1.00 20.00    -0.375 OA
HETATM    5  S8  UNL     1     -33.204   5.366   2.952  1.00 20.00    -0.135 SA
ENDROOT
BRANCH   3   6
HETATM    6  C5  UNL     1     -33.155   8.094   2.571  1.00 20.00     0.042 C 
BRANCH   6   7
HETATM    7  C6  UNL     1     -31.881   8.273   1.747  1.00 20.00    -0.001 C 
HETATM    8  C4  UNL     1     -32.060   9.319   0.659  1.00 20.00     0.005 C 
ENDBRANCH   6   7
ENDBRANCH   3   6
TORSDOF 2
