REMARK  0 active torsions:
REMARK  status: ('A' for Active; 'I' for Inactive)
ROOT
HETATM    1  C1  UNL     1     -34.892   5.606   5.857  1.00 20.00     0.029 C 
HETATM    2  C2  UNL     1     -34.427   4.905   4.581  1.00 20.00     0.048 C 
HETATM    3  C3  UNL     1     -33.909   6.697   6.260  1.00 20.00     0.170 C 
HETATM    4  C4  UNL     1     -33.128   6.988   4.038  1.00 20.00     0.255 C 
HETATM    5  C5  UNL     1     -34.071   5.908   3.472  1.00 20.00     0.152 C 
HETATM    6  O6  UNL     1     -33.701   7.616   5.188  1.00 20.00    -0.367 OA
HETATM    7 CL7  UNL     1     -32.721   8.269   2.857  1.00 20.00    -0.092 Cl
HETATM    8 CL8  UNL     1     -33.285   5.020   2.123  1.00 20.00    -0.098 Cl
HETATM    9 CL9  UNL     1     -35.591   6.642   2.836  1.00 20.00    -0.098 Cl
ENDROOT
TORSDOF 0
