REMARK  0 active torsions:
REMARK  status: ('A' for Active; 'I' for Inactive)
ROOT
HETATM    1  C1  UNL     1     -32.637  10.335   0.260  1.00 20.00     0.006 C 
HETATM    2  C2  UNL     1     -31.876   9.147  -0.333  1.00 20.00     0.006 C 
HETATM    3  C3  UNL     1     -32.512  10.204   1.776  1.00 20.00     0.068 C 
HETATM    4  C4  UNL     1     -31.341   8.350   0.854  1.00 20.00     0.068 C 
HETATM    5  C5  UNL     1     -33.755   7.520   3.217  1.00 20.00     0.197 C 
HETATM    6  C6  UNL     1     -32.377   7.358   3.799  1.00 20.00     0.197 C 
HETATM    7  C7  UNL     1     -32.272   8.718   2.003  1.00 20.00     0.164 C 
HETATM    8  O8  UNL     1     -33.500   7.985   1.892  1.00 20.00    -0.353 OA
HETATM    9  O9  UNL     1     -31.666   8.478   3.272  1.00 20.00    -0.353 OA
ENDROOT
TORSDOF 0
