REMARK  0 active torsions:
REMARK  status: ('A' for Active; 'I' for Inactive)
ROOT
HETATM    1  C1  UNL     1     -33.362   6.860   5.790  1.00 20.00     0.197 C 
HETATM    2  C2  UNL     1     -34.455   5.975   6.324  1.00 20.00     0.197 C 
HETATM    3  C3  UNL     1     -34.393   5.812   4.063  1.00 20.00     0.156 C 
HETATM    4  C4  UNL     1     -33.484   4.970   3.177  1.00 20.00     0.078 C 
HETATM    5  C5  UNL     1     -35.689   6.168   3.347  1.00 20.00     0.078 C 
HETATM    6  O6  UNL     1     -33.716   7.029   4.418  1.00 20.00    -0.354 OA
HETATM    7  O7  UNL     1     -34.696   5.064   5.252  1.00 20.00    -0.354 OA
ENDROOT
TORSDOF 0
