REMARK  3 active torsions:
REMARK  status: ('A' for Active; 'I' for Inactive)
REMARK    1  A    between atoms: C2_2  and  C5_5 
REMARK    2  A    between atoms: C2_2  and  O10_10 
REMARK    3  A    between atoms: C7_7  and  O10_10 
ROOT
HETATM    1  C1  UNL     1     -32.287   9.809   1.247  1.00 20.00     0.065 C 
HETATM    2  C3  UNL     1     -31.326   8.210   2.955  1.00 20.00     0.036 A 
HETATM    3  C4  UNL     1     -32.091   8.458   1.684  1.00 20.00     0.107 A 
HETATM    4  C5  UNL     1     -32.813   7.985   2.924  1.00 20.00     0.104 A 
HETATM    5  N8  UNL     1     -32.445  10.902   0.893  1.00 20.00    -0.197 NA
ENDROOT
BRANCH   4   6
HETATM    6  C2  UNL     1     -33.332   6.612   2.969  1.00 20.00     0.264 C 
HETATM    7  O9  UNL     1     -32.793   5.657   2.427  1.00 20.00    -0.265 OA
BRANCH   6   8
HETATM    8  O10 UNL     1     -34.484   6.585   3.698  1.00 20.00    -0.322 OA
BRANCH   8   9
HETATM    9  C7  UNL     1     -34.460   5.743   4.855  1.00 20.00     0.174 C 
HETATM   10  C6  UNL     1     -33.979   6.549   6.042  1.00 20.00     0.034 C 
ENDBRANCH   8   9
ENDBRANCH   6   8
ENDBRANCH   4   6
TORSDOF 3
