REMARK  0 active torsions:
REMARK  status: ('A' for Active; 'I' for Inactive)
ROOT
HETATM    1  C1  UNL     1     -33.842   4.530   4.373  1.00 20.00    -0.028 C 
HETATM    2  C2  UNL     1     -33.354   4.839   3.168  1.00 20.00    -0.023 C 
HETATM    3  C3  UNL     1     -32.200   7.755   3.669  1.00 20.00     0.259 C 
HETATM    4  C4  UNL     1     -34.627   5.657   4.962  1.00 20.00     0.060 C 
HETATM    5  C5  UNL     1     -32.593   7.121   2.369  1.00 20.00     0.122 C 
HETATM    6  C6  UNL     1     -33.748   6.224   2.746  1.00 20.00     0.047 C 
HETATM    7  C7  UNL     1     -34.276   6.825   4.040  1.00 20.00     0.143 C 
HETATM    8  O8  UNL     1     -31.168   8.379   3.866  1.00 20.00    -0.265 OA
HETATM    9  O9  UNL     1     -33.181   7.571   4.600  1.00 20.00    -0.315 OA
ENDROOT
TORSDOF 0
