REMARK  1 active torsions:
REMARK  status: ('A' for Active; 'I' for Inactive)
REMARK    1  A    between atoms: C9_9  and  C10_10 
ROOT
HETATM    1  C1  UNL     1     -33.588   5.835   3.018  1.00 20.00     0.015 C 
HETATM    2  C2  UNL     1     -33.731   7.498   4.941  1.00 20.00     0.015 C 
HETATM    3  C5  UNL     1     -34.391   4.765   3.748  1.00 20.00     0.074 C 
HETATM    4  C6  UNL     1     -34.545   6.561   5.826  1.00 20.00     0.074 C 
HETATM    5  C9  UNL     1     -33.958   7.264   3.441  1.00 20.00    -0.009 C 
HETATM    6  S11 UNL     1     -34.118   4.821   5.541  1.00 20.00    -0.169 SA
ENDROOT
BRANCH   5   7
HETATM    7  C10 UNL     1     -33.156   8.278   2.623  1.00 20.00    -0.009 C 
HETATM    8  C3  UNL     1     -31.701   7.810   2.482  1.00 20.00     0.015 C 
HETATM    9  C7  UNL     1     -30.821   8.800   1.728  1.00 20.00     0.074 C 
HETATM   10  S12 UNL     1     -31.405   9.068   0.032  1.00 20.00    -0.169 SA
HETATM   11  C8  UNL     1     -33.114   9.547   0.406  1.00 20.00     0.074 C 
HETATM   12  C4  UNL     1     -33.824   8.502   1.258  1.00 20.00     0.015 C 
ENDBRANCH   5   7
TORSDOF 1
