REMARK  0 active torsions:
REMARK  status: ('A' for Active; 'I' for Inactive)
ROOT
HETATM    1  C1  UNL     1     -34.317   5.347   5.911  1.00 20.00     0.000 C 
HETATM    2  C2  UNL     1     -34.369   6.796   5.899  1.00 20.00     0.017 C 
HETATM    3  C3  UNL     1     -34.188   4.655   4.764  1.00 20.00     0.010 C 
HETATM    4  C4  UNL     1     -34.068   7.450   4.766  1.00 20.00     0.092 C 
HETATM    5  C5  UNL     1     -32.467   6.270   1.750  1.00 20.00     0.072 C 
HETATM    6  C6  UNL     1     -32.957   7.241   2.543  1.00 20.00     0.015 C 
HETATM    7  C7  UNL     1     -34.153   5.362   3.438  1.00 20.00     0.178 C 
HETATM    8  C8  UNL     1     -32.635   8.690   2.367  1.00 20.00     0.069 C 
HETATM    9  N9  UNL     1     -33.767   6.786   3.589  1.00 20.00    -0.343 N 
HETATM   10  S10 UNL     1     -32.941   4.666   2.253  1.00 20.00    -0.110 SA
ENDROOT
TORSDOF 0
