REMARK  4 active torsions:
REMARK  status: ('A' for Active; 'I' for Inactive)
REMARK    1  A    between atoms: C1_1  and  C5_5 
REMARK    2  A    between atoms: C1_1  and  O9_9 
REMARK    3  A    between atoms: C5_5  and  C6_6 
REMARK    4  A    between atoms: C7_7  and  O9_9 
ROOT
HETATM    1  C1  UNL     1     -32.761   7.209   3.239  1.00 20.00     0.259 C 
HETATM    2  O8  UNL     1     -32.319   7.752   4.242  1.00 20.00    -0.265 OA
ENDROOT
BRANCH   1   3
HETATM    3  C5  UNL     1     -32.793   7.822   1.857  1.00 20.00     0.111 C 
BRANCH   3   4
HETATM    4  C6  UNL     1     -32.222   9.238   1.848  1.00 20.00     0.005 C 
HETATM    5  C2  UNL     1     -32.228   9.832   0.449  1.00 20.00     0.005 C 
ENDBRANCH   3   4
ENDBRANCH   1   3
BRANCH   1   6
HETATM    6  O9  UNL     1     -33.306   5.958   3.179  1.00 20.00    -0.317 OA
BRANCH   6   7
HETATM    7  C7  UNL     1     -34.461   5.748   3.998  1.00 20.00     0.123 C 
HETATM    8  C3  UNL     1     -35.707   6.126   3.213  1.00 20.00     0.040 C 
HETATM    9  C4  UNL     1     -34.496   4.298   4.454  1.00 20.00     0.040 C 
ENDBRANCH   6   7
ENDBRANCH   1   6
TORSDOF 4
