REMARK  2 active torsions:
REMARK  status: ('A' for Active; 'I' for Inactive)
REMARK    1  A    between atoms: C5_5  and  C6_6 
REMARK    2  A    between atoms: C6_6  and  N8_8 
ROOT
HETATM    1  C1  UNL     1     -34.647   5.741   4.386  1.00 20.00     0.135 A 
HETATM    2  C2  UNL     1     -34.177   5.965   3.113  1.00 20.00     0.111 A 
HETATM    3  C3  UNL     1     -33.233   7.321   4.571  1.00 20.00     0.209 A 
HETATM    4  N7  UNL     1     -34.055   6.589   5.289  1.00 20.00    -0.255 NA
HETATM    5  N8  UNL     1     -33.272   6.980   3.248  1.00 20.00    -0.350 N 
ENDROOT
BRANCH   5   6
HETATM    6  C6  UNL     1     -32.491   7.589   2.176  1.00 20.00     0.129 C 
BRANCH   6   7
HETATM    7  C5  UNL     1     -33.056   8.942   1.750  1.00 20.00     0.016 C 
HETATM    8  C4  UNL     1     -32.236   9.555   0.627  1.00 20.00     0.006 C 
ENDBRANCH   6   7
ENDBRANCH   5   6
TORSDOF 2
