REMARK  0 active torsions:
REMARK  status: ('A' for Active; 'I' for Inactive)
ROOT
HETATM    1  C1  UNL     1     -33.826   6.600   4.911  1.00 20.00     0.226 C 
HETATM    2  C2  UNL     1     -33.147   6.046   2.675  1.00 20.00     0.043 C 
HETATM    3  C3  UNL     1     -32.572   7.406   3.064  1.00 20.00     0.081 C 
HETATM    4  C4  UNL     1     -34.228   5.728   3.730  1.00 20.00     0.035 C 
HETATM    5  C5  UNL     1     -33.113   8.561   2.235  1.00 20.00     0.032 C 
HETATM    6  C6  UNL     1     -34.209   4.250   4.118  1.00 20.00     0.025 C 
HETATM    7  C7  UNL     1     -35.629   6.129   3.260  1.00 20.00     0.025 C 
HETATM    8  N8  UNL     1     -32.914   7.542   4.456  1.00 20.00    -0.356 N 
HETATM    9  O9  UNL     1     -34.260   6.501   6.049  1.00 20.00    -0.273 OA
HETATM   10  H22 UNL     1     -32.518   8.270   5.056  1.00 20.00     0.162 HD
ENDROOT
TORSDOF 0
