REMARK  0 active torsions:
REMARK  status: ('A' for Active; 'I' for Inactive)
ROOT
HETATM    1  C1  UNL     1     -32.982   7.756   4.342  1.00 20.00    -0.007 C 
HETATM    2  C2  UNL     1     -33.083   7.555   3.023  1.00 20.00     0.008 C 
HETATM    3  C3  UNL     1     -33.638   6.872   5.357  1.00 20.00     0.035 C 
HETATM    4  C4  UNL     1     -33.863   6.436   2.404  1.00 20.00     0.058 C 
HETATM    5  C5  UNL     1     -34.788   4.635   5.573  1.00 20.00     0.172 C 
HETATM    6  C6  UNL     1     -33.367   4.293   3.751  1.00 20.00     0.172 C 
HETATM    7  C7  UNL     1     -34.714   5.931   4.778  1.00 20.00     0.019 C 
HETATM    8  C8  UNL     1     -34.361   5.391   3.401  1.00 20.00     0.021 C 
HETATM    9  O9  UNL     1     -33.786   3.762   5.021  1.00 20.00    -0.390 OA
HETATM   10 CL10 UNL     1     -32.288   8.616   1.913  1.00 20.00    -0.089 Cl
ENDROOT
TORSDOF 0
