REMARK  0 active torsions:
REMARK  status: ('A' for Active; 'I' for Inactive)
ROOT
HETATM    1  C1  UNL     1     -33.764   6.358   2.350  1.00 20.00     0.089 A 
HETATM    2  C2  UNL     1     -32.602   7.917   3.887  1.00 20.00     0.089 A 
HETATM    3  C3  UNL     1     -34.009   6.083   3.673  1.00 20.00     0.109 A 
HETATM    4  C4  UNL     1     -33.368   6.990   4.549  1.00 20.00     0.109 A 
HETATM    5  C5  UNL     1     -34.612   4.810   5.484  1.00 20.00     0.202 C 
HETATM    6  C6  UNL     1     -34.576   6.112   6.290  1.00 20.00     0.202 C 
HETATM    7  O7  UNL     1     -34.797   5.060   4.080  1.00 20.00    -0.346 OA
HETATM    8  O8  UNL     1     -33.475   6.950   5.898  1.00 20.00    -0.346 OA
HETATM    9  S9  UNL     1     -32.706   7.703   2.184  1.00 20.00    -0.108 SA
ENDROOT
TORSDOF 0
