REMARK  1 active torsions:
REMARK  status: ('A' for Active; 'I' for Inactive)
REMARK    1  A    between atoms: C3_3  and  O11_11 
ROOT
HETATM    1  C1  UNL     1     -33.641   7.210   5.079  1.00 20.00    -0.019 A 
HETATM    2  C2  UNL     1     -32.891   7.720   4.025  1.00 20.00    -0.029 A 
HETATM    3  C3  UNL     1     -34.252   5.967   4.952  1.00 20.00     0.096 A 
HETATM    4  C4  UNL     1     -32.782   6.954   2.876  1.00 20.00     0.037 A 
HETATM    5  C5  UNL     1     -34.083   5.280   3.761  1.00 20.00     0.064 A 
HETATM    6  C6  UNL     1     -33.795   7.990   6.345  1.00 20.00     0.052 C 
HETATM    7  C7  UNL     1     -32.223   9.050   4.131  1.00 20.00     0.051 C 
HETATM    8  C8  UNL     1     -31.989   7.449   1.711  1.00 20.00     0.071 C 
HETATM    9  C9  UNL     1     -34.718   3.941   3.572  1.00 20.00     0.073 C 
HETATM   10  N10 UNL     1     -33.361   5.743   2.716  1.00 20.00    -0.255 NA
ENDROOT
BRANCH   3  11
HETATM   11  O11 UNL     1     -34.992   5.444   5.965  1.00 20.00    -0.358 OA
HETATM   12  H24 UNL     1     -35.345   4.575   5.713  1.00 20.00     0.217 HD
ENDBRANCH   3  11
TORSDOF 1
