REMARK  0 active torsions:
REMARK  status: ('A' for Active; 'I' for Inactive)
ROOT
HETATM    1  C1  UNL     1     -32.870   7.374   3.704  1.00 20.00    -0.017 C 
HETATM    2  C2  UNL     1     -33.272   7.666   2.289  1.00 20.00     0.155 C 
HETATM    3  C3  UNL     1     -31.810   7.957   4.271  1.00 20.00     0.023 C 
HETATM    4  C4  UNL     1     -34.463   6.857   1.783  1.00 20.00     0.089 C 
HETATM    5  C5  UNL     1     -35.234   6.698   4.196  1.00 20.00     0.016 C 
HETATM    6  C6  UNL     1     -33.716   6.387   4.450  1.00 20.00     0.030 C 
HETATM    7  C7  UNL     1     -35.039   5.915   2.859  1.00 20.00     0.002 C 
HETATM    8  C8  UNL     1     -33.974   5.038   3.647  1.00 20.00    -0.036 C 
HETATM    9  C9  UNL     1     -34.577   3.898   4.491  1.00 20.00     0.016 C 
HETATM   10  C10 UNL     1     -32.813   4.452   2.835  1.00 20.00     0.016 C 
HETATM   11  O11 UNL     1     -32.689   8.484   1.586  1.00 20.00    -0.293 OA
ENDROOT
TORSDOF 0
