REMARK  1 active torsions:
REMARK  status: ('A' for Active; 'I' for Inactive)
REMARK    1  A    between atoms: C3_3  and  N6_6 
ROOT
HETATM    1  C1  UNL     1     -33.826   6.470   2.806  1.00 20.00     0.123 C 
HETATM    2  C2  UNL     1     -32.733   7.720   4.831  1.00 20.00     0.123 C 
HETATM    3  C3  UNL     1     -33.231   7.777   3.371  1.00 20.00     0.242 C 
HETATM    4  S7  UNL     1     -35.390   5.978   3.604  1.00 20.00    -0.084 SA
HETATM    5  S8  UNL     1     -34.071   7.485   6.048  1.00 20.00    -0.084 SA
HETATM    6  S9  UNL     1     -34.717   5.624   5.501  1.00 20.00    -0.025 SA
ENDROOT
BRANCH   3   7
HETATM    7  N6  UNL     1     -32.094   8.142   2.511  1.00 20.00     0.086 N 
HETATM    8  C4  UNL     1     -31.206   9.061   3.216  1.00 20.00     0.310 C 
HETATM    9  C5  UNL     1     -32.575   8.738   1.268  1.00 20.00     0.310 C 
ENDBRANCH   3   7
TORSDOF 1
