REMARK  0 active torsions:
REMARK  status: ('A' for Active; 'I' for Inactive)
ROOT
HETATM    1  C1  UNL     1     -33.405   4.996   3.826  1.00 20.00    -0.024 C 
HETATM    2  C2  UNL     1     -33.938   6.061   4.458  1.00 20.00    -0.083 C 
HETATM    3  C3  UNL     1     -33.042   5.069   2.357  1.00 20.00     0.033 C 
HETATM    4  C4  UNL     1     -34.844   6.860   2.244  1.00 20.00     0.015 C 
HETATM    5  C5  UNL     1     -34.170   7.280   3.602  1.00 20.00     0.022 C 
HETATM    6  C6  UNL     1     -33.390   6.472   1.814  1.00 20.00    -0.002 C 
HETATM    7  C7  UNL     1     -32.911   7.694   2.715  1.00 20.00    -0.036 C 
HETATM    8  C8  UNL     1     -34.311   6.103   5.900  1.00 20.00     0.043 C 
HETATM    9  C9  UNL     1     -31.517   7.599   3.350  1.00 20.00     0.016 C 
HETATM   10  C10 UNL     1     -33.018   9.080   2.048  1.00 20.00     0.016 C 
ENDROOT
TORSDOF 0
