REMARK  1 active torsions:
REMARK  status: ('A' for Active; 'I' for Inactive)
REMARK    1  A    between atoms: C1_1  and  C10_10 
ROOT
HETATM    1  C2  UNL     1     -34.077   4.344   4.416  1.00 20.00     0.009 C 
HETATM    2  C3  UNL     1     -34.191   4.861   1.949  1.00 20.00     0.010 C 
HETATM    3  C4  UNL     1     -35.665   6.083   3.512  1.00 20.00     0.010 C 
HETATM    4  C5  UNL     1     -32.323   5.616   3.120  1.00 20.00     0.022 C 
HETATM    5  C6  UNL     1     -33.798   6.839   4.686  1.00 20.00     0.022 C 
HETATM    6  C7  UNL     1     -33.270   4.414   3.085  1.00 20.00    -0.013 C 
HETATM    7  C8  UNL     1     -34.807   5.687   4.715  1.00 20.00    -0.013 C 
HETATM    8  C9  UNL     1     -34.586   6.265   2.432  1.00 20.00     0.002 C 
HETATM    9  C10 UNL     1     -33.331   6.769   3.228  1.00 20.00     0.024 C 
ENDROOT
BRANCH   9  10
HETATM   10  C1  UNL     1     -32.779   8.060   2.719  1.00 20.00     0.132 C 
HETATM   11  C11 UNL     1     -31.547   8.587   3.405  1.00 20.00     0.091 C 
HETATM   12  O12 UNL     1     -33.304   8.662   1.784  1.00 20.00    -0.298 OA
ENDBRANCH   9  10
TORSDOF 1
