REMARK  1 active torsions:
REMARK  status: ('A' for Active; 'I' for Inactive)
REMARK    1  A    between atoms: C11_11  and  C12_12 
ROOT
HETATM    1  C1  UNL     1     -32.436   9.148   0.596  1.00 20.00     0.059 C 
HETATM    2  C12 UNL     1     -32.961   9.465   1.917  1.00 20.00     0.133 C 
HETATM    3  N13 UNL     1     -32.012   8.929  -0.461  1.00 20.00    -0.197 NA
ENDROOT
BRANCH   2   4
HETATM    4  C11 UNL     1     -33.322   8.101   2.511  1.00 20.00    -0.027 C 
HETATM    5  C5  UNL     1     -32.065   7.202   2.594  1.00 20.00     0.015 C 
HETATM    6  C8  UNL     1     -32.424   5.830   3.191  1.00 20.00    -0.013 C 
HETATM    7  C2  UNL     1     -33.004   6.027   4.601  1.00 20.00     0.009 C 
HETATM    8  C3  UNL     1     -33.478   5.151   2.300  1.00 20.00     0.009 C 
HETATM    9  C9  UNL     1     -34.266   6.903   4.535  1.00 20.00    -0.013 C 
HETATM   10  C4  UNL     1     -35.311   6.218   3.638  1.00 20.00     0.009 C 
HETATM   11  C6  UNL     1     -33.902   8.272   3.935  1.00 20.00     0.015 C 
HETATM   12  C10 UNL     1     -34.743   6.022   2.222  1.00 20.00    -0.013 C 
HETATM   13  C7  UNL     1     -34.378   7.393   1.628  1.00 20.00     0.015 C 
ENDBRANCH   2   4
TORSDOF 1
