REMARK  2 active torsions:
REMARK  status: ('A' for Active; 'I' for Inactive)
REMARK    1  A    between atoms: C3_3  and  C10_10 
REMARK    2  A    between atoms: C5_5  and  C10_10 
ROOT
HETATM    1  C1  UNL     1     -33.733   5.938   5.998  1.00 20.00    -0.023 C 
HETATM    2  C2  UNL     1     -33.985   5.223   4.893  1.00 20.00    -0.079 C 
HETATM    3  C4  UNL     1     -33.768   7.407   5.734  1.00 20.00     0.033 C 
HETATM    4  C5  UNL     1     -33.652   7.481   4.198  1.00 20.00     0.007 C 
HETATM    5  C6  UNL     1     -34.239   6.120   3.694  1.00 20.00    -0.021 C 
HETATM    6  C7  UNL     1     -34.073   3.738   4.826  1.00 20.00     0.044 C 
HETATM    7  C8  UNL     1     -35.757   6.255   3.463  1.00 20.00     0.020 C 
HETATM    8  C9  UNL     1     -33.588   5.602   2.405  1.00 20.00     0.020 C 
ENDROOT
BRANCH   4   9
HETATM    9  C10 UNL     1     -32.192   7.744   3.802  1.00 20.00     0.075 C 
BRANCH   9  10
HETATM   10  C3  UNL     1     -32.067   8.333   2.422  1.00 20.00     0.231 C 
HETATM   11  O11 UNL     1     -33.010   8.604   1.685  1.00 20.00    -0.307 OA
ENDBRANCH   9  10
ENDBRANCH   4   9
TORSDOF 2
