REMARK  2 active torsions:
REMARK  status: ('A' for Active; 'I' for Inactive)
REMARK    1  A    between atoms: C2_2  and  C4_4 
REMARK    2  A    between atoms: C4_4  and  O5_5 
ROOT
HETATM    1  C1  UNL     1     -33.074   5.447   3.089  1.00 20.00     0.052 A 
HETATM    2  C2  UNL     1     -34.200   6.404   2.806  1.00 20.00     0.051 A 
HETATM    3  C3  UNL     1     -33.105   6.790   3.775  1.00 20.00     0.119 A 
HETATM    4 CL6  UNL     1     -33.415   6.827   5.505  1.00 20.00    -0.101 Cl
HETATM    5 CL7  UNL     1     -31.941   8.007   3.251  1.00 20.00    -0.101 Cl
ENDROOT
BRANCH   2   6
HETATM    6  C4  UNL     1     -35.586   6.072   3.244  1.00 20.00     0.172 C 
BRANCH   6   7
HETATM    7  O5  UNL     1     -35.554   5.460   4.534  1.00 20.00    -0.400 OA
HETATM    8  H13 UNL     1     -36.474   5.267   4.768  1.00 20.00     0.209 HD
ENDBRANCH   6   7
ENDBRANCH   2   6
TORSDOF 2
