REMARK  0 active torsions:
REMARK  status: ('A' for Active; 'I' for Inactive)
ROOT
HETATM    1  C1  UNL     1     -33.032   6.482   3.092  1.00 20.00    -0.080 C 
HETATM    2  C2  UNL     1     -32.045   7.252   2.622  1.00 20.00     0.015 C 
HETATM    3  C3  UNL     1     -33.629   5.304   2.351  1.00 20.00     0.039 C 
HETATM    4  C4  UNL     1     -35.814   5.892   3.389  1.00 20.00     0.007 C 
HETATM    5  C5  UNL     1     -35.163   7.085   4.118  1.00 20.00     0.015 C 
HETATM    6  C6  UNL     1     -34.684   4.834   3.379  1.00 20.00    -0.002 C 
HETATM    7  C7  UNL     1     -33.740   6.561   4.449  1.00 20.00    -0.014 C 
HETATM    8  C8  UNL     1     -33.982   5.050   4.749  1.00 20.00    -0.033 C 
HETATM    9  C9  UNL     1     -33.049   7.360   5.542  1.00 20.00     0.021 C 
HETATM   10  C10 UNL     1     -34.886   4.752   5.963  1.00 20.00     0.016 C 
HETATM   11  C11 UNL     1     -32.702   4.209   4.947  1.00 20.00     0.016 C 
ENDROOT
TORSDOF 0
