REMARK  1 active torsions:
REMARK  status: ('A' for Active; 'I' for Inactive)
REMARK    1  A    between atoms: C5_5  and  C6_6 
ROOT
HETATM    1  C1  UNL     1     -33.129   8.532   2.493  1.00 20.00     0.014 C 
HETATM    2  C2  UNL     1     -33.559   7.546   3.026  1.00 20.00    -0.091 C 
HETATM    3  C4  UNL     1     -35.581   6.184   3.341  1.00 20.00     0.046 C 
HETATM    4  C6  UNL     1     -34.094   6.338   3.681  1.00 20.00     0.095 C 
HETATM    5 CL7  UNL     1     -33.220   4.929   2.990  1.00 20.00    -0.105 Cl
ENDROOT
BRANCH   4   6
HETATM    6  C5  UNL     1     -33.911   6.393   5.212  1.00 20.00     0.034 C 
HETATM    7  C3  UNL     1     -34.434   5.186   5.987  1.00 20.00     0.008 C 
ENDBRANCH   4   6
TORSDOF 1
