REMARK  2 active torsions:
REMARK  status: ('A' for Active; 'I' for Inactive)
REMARK    1  A    between atoms: C1_1  and  C7_7 
REMARK    2  A    between atoms: C7_7  and  S10_10 
ROOT
HETATM    1  C1  UNL     1     -33.948   6.564   3.985  1.00 20.00     0.009 A 
HETATM    2  C2  UNL     1     -34.043   5.238   3.529  1.00 20.00     0.068 A 
HETATM    3  C3  UNL     1     -34.147   6.458   5.336  1.00 20.00     0.084 A 
HETATM    4  C4  UNL     1     -33.911   4.742   2.149  1.00 20.00     0.073 C 
HETATM    5  C5  UNL     1     -34.185   7.426   6.440  1.00 20.00     0.079 C 
HETATM    6  N8  UNL     1     -34.283   4.376   4.521  1.00 20.00    -0.133 NA
HETATM    7  O9  UNL     1     -34.349   5.157   5.668  1.00 20.00    -0.217 OA
ENDROOT
BRANCH   1   8
HETATM    8  C7  UNL     1     -33.688   7.810   3.184  1.00 20.00     0.116 C 
BRANCH   8   9
HETATM    9  S10 UNL     1     -31.949   7.970   2.716  1.00 20.00    -0.169 SA
HETATM   10  C6  UNL     1     -32.057   9.529   1.806  1.00 20.00     0.090 C 
ENDBRANCH   8   9
ENDBRANCH   1   8
TORSDOF 2
