REMARK  1 active torsions:
REMARK  status: ('A' for Active; 'I' for Inactive)
REMARK    1  A    between atoms: C5_5  and  C7_7 
ROOT
HETATM    1  C1  UNL     1     -33.949   4.059   4.563  1.00 20.00     0.010 C 
HETATM    2  C2  UNL     1     -33.750   4.685   3.149  1.00 20.00    -0.004 A 
HETATM    3  C3  UNL     1     -34.351   5.326   5.376  1.00 20.00    -0.004 A 
HETATM    4  C4  UNL     1     -34.706   5.856   3.023  1.00 20.00    -0.000 A 
HETATM    5  C5  UNL     1     -33.266   6.110   3.339  1.00 20.00    -0.000 A 
HETATM    6  C6  UNL     1     -35.087   6.264   4.438  1.00 20.00    -0.000 A 
HETATM    7  C7  UNL     1     -33.647   6.518   4.753  1.00 20.00    -0.000 A 
ENDROOT
TORSDOF 1
