REMARK  2 active torsions:
REMARK  status: ('A' for Active; 'I' for Inactive)
REMARK    1  A    between atoms: C1_1  and  C6_6 
REMARK    2  A    between atoms: C7_7  and  C9_9 
ROOT
HETATM    1  C2  UNL     1     -34.196   7.090   4.924  1.00 20.00     0.015 C 
HETATM    2  C3  UNL     1     -34.155   5.870   2.682  1.00 20.00     0.015 C 
HETATM    3  C4  UNL     1     -32.672   7.210   4.869  1.00 20.00     0.005 C 
HETATM    4  C5  UNL     1     -32.632   6.000   2.658  1.00 20.00     0.005 C 
HETATM    5  C6  UNL     1     -34.752   5.946   4.084  1.00 20.00     0.087 C 
HETATM    6  C7  UNL     1     -32.116   7.214   3.441  1.00 20.00    -0.015 C 
ENDROOT
BRANCH   5   7
HETATM    7  C1  UNL     1     -34.502   4.626   4.796  1.00 20.00     0.177 C 
HETATM    8  O10 UNL     1     -34.435   4.696   6.054  1.00 20.00    -0.648 OA
HETATM    9  O11 UNL     1     -34.394   3.625   4.033  1.00 20.00    -0.648 OA
ENDBRANCH   5   7
BRANCH   6  10
HETATM   10  C9  UNL     1     -32.421   8.528   2.716  1.00 20.00     0.000 C 
HETATM   11  C8  UNL     1     -31.831   8.551   1.344  1.00 20.00     0.005 C 
ENDBRANCH   6  10
TORSDOF 2
