REMARK  2 active torsions:
REMARK  status: ('A' for Active; 'I' for Inactive)
REMARK    1  A    between atoms: C3_3  and  C9_9 
REMARK    2  A    between atoms: C4_4  and  C10_10 
ROOT
HETATM    1  C1  UNL     1     -31.940   8.618   3.501  1.00 20.00     0.009 A 
HETATM    2  C2  UNL     1     -32.443   7.620   4.223  1.00 20.00     0.009 A 
HETATM    3  C3  UNL     1     -32.381   8.497   2.081  1.00 20.00     0.076 A 
HETATM    4  C4  UNL     1     -33.270   6.728   3.360  1.00 20.00     0.076 A 
HETATM    5  C5  UNL     1     -31.201   8.292   1.135  1.00 20.00     0.050 C 
HETATM    6  C6  UNL     1     -32.697   5.315   3.288  1.00 20.00     0.050 C 
HETATM    7  O11 UNL     1     -33.207   7.309   2.035  1.00 20.00    -0.362 OA
ENDROOT
BRANCH   3   8
HETATM    8  C9  UNL     1     -33.234   9.686   1.648  1.00 20.00     0.037 C 
HETATM    9  C7  UNL     1     -32.487  10.974   1.766  1.00 20.00     0.008 C 
ENDBRANCH   3   8
BRANCH   4  10
HETATM   10  C10 UNL     1     -34.731   6.708   3.801  1.00 20.00     0.037 C 
HETATM   11  C8  UNL     1     -34.878   6.218   5.205  1.00 20.00     0.008 C 
ENDBRANCH   4  10
TORSDOF 2
