REMARK  1 active torsions:
REMARK  status: ('A' for Active; 'I' for Inactive)
REMARK    1  A    between atoms: C4_4  and  C7_7 
ROOT
HETATM    1  C1  UNL     1     -33.076   6.373   1.928  1.00 20.00     0.015 A 
HETATM    2  C2  UNL     1     -33.409   5.126   2.460  1.00 20.00     0.008 A 
HETATM    3  C3  UNL     1     -33.778   7.485   3.975  1.00 20.00     0.022 A 
HETATM    4  C4  UNL     1     -33.259   7.544   2.680  1.00 20.00     0.002 A 
HETATM    5  C5  UNL     1     -33.911   5.075   3.749  1.00 20.00    -0.052 A 
HETATM    6  C6  UNL     1     -34.094   6.243   4.499  1.00 20.00    -0.051 A 
HETATM    7  C8  UNL     1     -34.369   3.874   4.514  1.00 20.00     0.039 C 
HETATM    8  C9  UNL     1     -34.693   5.931   5.834  1.00 20.00     0.039 C 
HETATM    9  C10 UNL     1     -34.401   4.427   5.946  1.00 20.00     0.009 C 
ENDROOT
BRANCH   4  10
HETATM   10  C7  UNL     1     -32.912   8.833   2.101  1.00 20.00     0.269 C 
HETATM   11  O11 UNL     1     -32.455   8.958   0.962  1.00 20.00    -0.301 OA
ENDBRANCH   4  10
TORSDOF 1
