REMARK  2 active torsions:
REMARK  status: ('A' for Active; 'I' for Inactive)
REMARK    1  A    between atoms: C2_2  and  C4_4 
REMARK    2  A    between atoms: C3_3  and  C4_4 
ROOT
HETATM    1  C4  UNL     1     -33.464   6.703   3.751  1.00 20.00     0.127 C 
HETATM    2 CL7  UNL     1     -33.207   8.088   2.647  1.00 20.00    -0.121 Cl
ENDROOT
BRANCH   1   3
HETATM    3  C2  UNL     1     -34.165   7.178   5.018  1.00 20.00     0.164 A 
HETATM    4  C1  UNL     1     -33.392   7.462   6.275  1.00 20.00     0.201 A 
HETATM    5  O5  UNL     1     -34.132   6.244   6.102  1.00 20.00    -0.380 OA
ENDBRANCH   1   3
BRANCH   1   6
HETATM    6  C3  UNL     1     -34.193   5.568   3.030  1.00 20.00     0.137 C 
HETATM    7 CL6  UNL     1     -34.389   4.100   4.020  1.00 20.00    -0.129 Cl
ENDBRANCH   1   6
TORSDOF 2
