REMARK  0 active torsions:
REMARK  status: ('A' for Active; 'I' for Inactive)
ROOT
HETATM    1  C1  UNL     1     -31.124   8.109   3.043  1.00 20.00     0.128 C 
HETATM    2  C2  UNL     1     -31.764   9.398   2.579  1.00 20.00     0.087 C 
HETATM    3  C3  UNL     1     -31.809   6.806   2.699  1.00 20.00     0.087 C 
HETATM    4  C4  UNL     1     -33.674   8.081   1.489  1.00 20.00     0.018 C 
HETATM    5  C5  UNL     1     -32.625   9.215   1.320  1.00 20.00    -0.041 C 
HETATM    6  C6  UNL     1     -33.325   6.963   2.509  1.00 20.00    -0.041 C 
HETATM    7  C7  UNL     1     -33.364  10.539   1.036  1.00 20.00     0.015 C 
HETATM    8  C8  UNL     1     -31.723   8.928   0.100  1.00 20.00     0.015 C 
HETATM    9  C9  UNL     1     -34.001   7.252   3.868  1.00 20.00     0.015 C 
HETATM   10  C10 UNL     1     -33.895   5.624   1.995  1.00 20.00     0.015 C 
HETATM   11  O11 UNL     1     -30.071   8.120   3.682  1.00 20.00    -0.298 OA
ENDROOT
TORSDOF 0
