REMARK  1 active torsions:
REMARK  status: ('A' for Active; 'I' for Inactive)
REMARK    1  A    between atoms: C1_1  and  C6_6 
ROOT
HETATM    1  C3  UNL     1     -35.670   5.931   4.168  1.00 20.00     0.022 C 
HETATM    2  C4  UNL     1     -34.000   4.605   5.503  1.00 20.00     0.022 C 
HETATM    3  C5  UNL     1     -33.608   5.029   3.076  1.00 20.00     0.022 C 
HETATM    4  C6  UNL     1     -34.181   5.627   4.373  1.00 20.00     0.009 C 
ENDROOT
BRANCH   4   5
HETATM    5  C1  UNL     1     -33.445   6.940   4.701  1.00 20.00     0.130 C 
HETATM    6  C2  UNL     1     -33.863   7.713   5.929  1.00 20.00     0.091 C 
HETATM    7  O7  UNL     1     -32.545   7.380   3.981  1.00 20.00    -0.298 OA
ENDBRANCH   4   5
TORSDOF 1
