REMARK  2 active torsions:
REMARK  status: ('A' for Active; 'I' for Inactive)
REMARK    1  A    between atoms: C2_2  and  C4_4 
REMARK    2  A    between atoms: C5_5  and  C9_9 
ROOT
HETATM    1  C1  UNL     1     -33.568   5.264   2.258  1.00 20.00    -0.016 C 
HETATM    2  C2  UNL     1     -33.807   5.539   3.549  1.00 20.00    -0.024 C 
HETATM    3  C6  UNL     1     -33.069   6.297   1.288  1.00 20.00     0.036 C 
HETATM    4  C7  UNL     1     -33.637   6.897   4.157  1.00 20.00     0.042 C 
HETATM    5  C8  UNL     1     -33.507   8.003   3.105  1.00 20.00     0.014 C 
HETATM    6  C9  UNL     1     -32.562   7.580   1.971  1.00 20.00     0.017 C 
ENDROOT
BRANCH   6   7
HETATM    7  C5  UNL     1     -32.393   8.678   0.967  1.00 20.00    -0.089 C 
HETATM    8  C3  UNL     1     -32.116   8.425  -0.321  1.00 20.00     0.014 C 
HETATM    9  C10 UNL     1     -32.551  10.078   1.484  1.00 20.00     0.043 C 
ENDBRANCH   6   7
BRANCH   2  10
HETATM   10  C4  UNL     1     -34.283   4.446   4.401  1.00 20.00     0.265 C 
HETATM   11  O11 UNL     1     -34.527   4.598   5.591  1.00 20.00    -0.302 OA
ENDBRANCH   2  10
TORSDOF 2
