REMARK  1 active torsions:
REMARK  status: ('A' for Active; 'I' for Inactive)
REMARK    1  A    between atoms: C6_6  and  C10_10 
ROOT
HETATM    1  C1  UNL     1     -31.798   8.766   3.106  1.00 20.00     0.053 A 
HETATM    2  C2  UNL     1     -32.304   8.153   2.022  1.00 20.00    -0.075 A 
HETATM    3  C3  UNL     1     -32.309   8.027   4.283  1.00 20.00     0.159 A 
HETATM    4  C4  UNL     1     -32.659   5.792   3.010  1.00 20.00     0.029 A 
HETATM    5  C5  UNL     1     -33.186   7.004   2.294  1.00 20.00     0.032 A 
HETATM    6  C6  UNL     1     -33.229   6.934   3.821  1.00 20.00     0.035 A 
HETATM    7  C7  UNL     1     -32.029   8.556   0.613  1.00 20.00     0.044 C 
HETATM    8  O11 UNL     1     -32.037   8.257   5.448  1.00 20.00    -0.292 OA
ENDROOT
BRANCH   6   9
HETATM    9  C10 UNL     1     -34.550   6.738   4.503  1.00 20.00    -0.006 C 
HETATM   10  C8  UNL     1     -35.352   5.596   3.861  1.00 20.00     0.011 C 
HETATM   11  C9  UNL     1     -34.373   6.461   6.005  1.00 20.00     0.011 C 
ENDBRANCH   6   9
TORSDOF 1
