REMARK  4 active torsions:
REMARK  status: ('A' for Active; 'I' for Inactive)
REMARK    1  A    between atoms: C1_1  and  C7_7 
REMARK    2  A    between atoms: C1_1  and  C8_8 
REMARK    3  A    between atoms: C7_7  and  C9_9 
REMARK    4  A    between atoms: C8_8  and  C10_10 
ROOT
HETATM    1  C1  UNL     1     -33.048   7.397   3.362  1.00 20.00     0.131 C 
HETATM    2  O11 UNL     1     -32.884   7.705   4.543  1.00 20.00    -0.298 OA
ENDROOT
BRANCH   1   3
HETATM    3  C7  UNL     1     -34.294   6.658   2.891  1.00 20.00     0.082 C 
BRANCH   3   4
HETATM    4  C9  UNL     1     -34.521   5.322   3.613  1.00 20.00    -0.016 C 
HETATM    5  C3  UNL     1     -33.344   4.367   3.399  1.00 20.00     0.010 C 
HETATM    6  C4  UNL     1     -34.727   5.564   5.110  1.00 20.00     0.010 C 
ENDBRANCH   3   4
ENDBRANCH   1   3
BRANCH   1   7
HETATM    7  C8  UNL     1     -31.996   7.707   2.294  1.00 20.00     0.054 C 
HETATM    8  C2  UNL     1     -30.756   8.334   2.934  1.00 20.00     0.018 C 
BRANCH   7   9
HETATM    9  C10 UNL     1     -32.624   8.540   1.150  1.00 20.00    -0.012 C 
HETATM   10  C5  UNL     1     -31.611   8.804   0.032  1.00 20.00     0.010 C 
HETATM   11  C6  UNL     1     -33.234   9.864   1.617  1.00 20.00     0.010 C 
ENDBRANCH   7   9
ENDBRANCH   1   7
TORSDOF 4
