REMARK  2 active torsions:
REMARK  status: ('A' for Active; 'I' for Inactive)
REMARK    1  A    between atoms: C1_1  and  C2_2 
REMARK    2  A    between atoms: C2_2  and  C3_3 
ROOT
HETATM    1  C1  UNL     1     -33.269   7.195   3.690  1.00 20.00     0.173 C 
HETATM    2  O4  UNL     1     -32.554   7.664   2.759  1.00 20.00    -0.648 OA
HETATM    3  O5  UNL     1     -33.454   7.636   4.857  1.00 20.00    -0.648 OA
ENDROOT
BRANCH   1   4
HETATM    4  C2  UNL     1     -34.021   5.911   3.318  1.00 20.00     0.128 C 
BRANCH   4   5
HETATM    5  C3  UNL     1     -34.985   5.358   4.354  1.00 20.00     0.125 C 
HETATM    6 CL6  UNL     1     -34.134   4.929   5.859  1.00 20.00    -0.130 Cl
ENDBRANCH   4   5
ENDBRANCH   1   4
TORSDOF 2
