REMARK  1 active torsions:
REMARK  status: ('A' for Active; 'I' for Inactive)
REMARK    1  A    between atoms: C1_1  and  C5_5 
ROOT
HETATM    1  C2  UNL     1     -35.908   5.979   3.619  1.00 20.00     0.022 C 
HETATM    2  C3  UNL     1     -33.565   5.080   3.617  1.00 20.00     0.022 C 
HETATM    3  C4  UNL     1     -34.685   5.655   5.788  1.00 20.00     0.022 C 
HETATM    4  C5  UNL     1     -34.542   6.034   4.311  1.00 20.00     0.002 C 
ENDROOT
BRANCH   4   5
HETATM    5  C1  UNL     1     -34.038   7.470   4.241  1.00 20.00     0.239 C 
HETATM    6  O6  UNL     1     -32.997   7.818   3.694  1.00 20.00    -0.306 OA
ENDBRANCH   4   5
TORSDOF 1
