REMARK  3 active torsions:
REMARK  status: ('A' for Active; 'I' for Inactive)
REMARK    1  A    between atoms: C3_3  and  C4_4 
REMARK    2  A    between atoms: C3_3  and  S7_7 
REMARK    3  A    between atoms: C4_4  and  S8_8 
ROOT
HETATM    1  C1  UNL     1     -32.932  11.336   1.628  1.00 20.00     0.133 C 
HETATM    2  N5  UNL     1     -33.439  11.953   2.470  1.00 20.00    -0.184 NA
HETATM    3  S7  UNL     1     -32.189  10.448   0.397  1.00 20.00    -0.050 SA
ENDROOT
BRANCH   3   4
HETATM    4  C3  UNL     1     -32.750   8.792   0.892  1.00 20.00     0.101 C 
BRANCH   4   5
HETATM    5  C4  UNL     1     -32.660   8.637   2.404  1.00 20.00     0.101 C 
BRANCH   5   6
HETATM    6  S8  UNL     1     -33.213   6.978   2.899  1.00 20.00    -0.050 SA
HETATM    7  C2  UNL     1     -33.594   7.317   4.510  1.00 20.00     0.133 C 
HETATM    8  N6  UNL     1     -33.857   7.541   5.617  1.00 20.00    -0.184 NA
ENDBRANCH   5   6
ENDBRANCH   4   5
ENDBRANCH   3   4
TORSDOF 3
