REMARK  0 active torsions:
REMARK  status: ('A' for Active; 'I' for Inactive)
ROOT
HETATM    1  C1  UNL     1     -33.991   6.839   5.137  1.00 20.00    -0.017 C 
HETATM    2  C2  UNL     1     -33.250   6.650   3.852  1.00 20.00     0.159 C 
HETATM    3  C3  UNL     1     -33.728   7.762   6.060  1.00 20.00     0.023 C 
HETATM    4  C4  UNL     1     -34.419   4.398   5.198  1.00 20.00     0.010 C 
HETATM    5  C5  UNL     1     -33.639   4.236   3.868  1.00 20.00     0.013 C 
HETATM    6  C6  UNL     1     -35.398   5.821   3.570  1.00 20.00     0.022 C 
HETATM    7  C7  UNL     1     -35.074   5.788   5.069  1.00 20.00     0.022 C 
HETATM    8  C8  UNL     1     -33.961   5.535   3.115  1.00 20.00     0.061 C 
HETATM    9  O9  UNL     1     -32.248   7.243   3.500  1.00 20.00    -0.292 OA
ENDROOT
TORSDOF 0
