REMARK  1 active torsions:
REMARK  status: ('A' for Active; 'I' for Inactive)
REMARK    1  A    between atoms: C3_3  and  C8_8 
ROOT
HETATM    1  C1  UNL     1     -34.014   5.629   5.505  1.00 20.00    -0.026 C 
HETATM    2  C2  UNL     1     -34.195   6.869   5.027  1.00 20.00    -0.025 C 
HETATM    3  C4  UNL     1     -35.523   5.467   3.761  1.00 20.00     0.017 C 
HETATM    4  C5  UNL     1     -33.294   4.761   3.308  1.00 20.00     0.021 C 
HETATM    5  C6  UNL     1     -34.383   4.668   4.401  1.00 20.00     0.009 C 
HETATM    6  C7  UNL     1     -34.673   6.733   3.597  1.00 20.00     0.019 C 
HETATM    7  C8  UNL     1     -33.522   6.184   2.720  1.00 20.00     0.055 C 
ENDROOT
BRANCH   7   8
HETATM    8  C3  UNL     1     -32.291   7.036   2.751  1.00 20.00     0.236 C 
HETATM    9  O9  UNL     1     -32.316   8.255   2.878  1.00 20.00    -0.306 OA
ENDBRANCH   7   8
TORSDOF 1
