REMARK  1 active torsions:
REMARK  status: ('A' for Active; 'I' for Inactive)
REMARK    1  A    between atoms: C3_3  and  C6_6 
ROOT
HETATM    1  C1  UNL     1     -34.465   4.384   5.931  1.00 20.00    -0.030 C 
HETATM    2  C2  UNL     1     -34.654   5.643   6.346  1.00 20.00    -0.026 C 
HETATM    3  C4  UNL     1     -33.887   4.041   4.595  1.00 20.00     0.031 C 
HETATM    4  C5  UNL     1     -34.276   6.856   5.536  1.00 20.00     0.014 C 
HETATM    5  C6  UNL     1     -33.425   6.513   4.286  1.00 20.00     0.058 C 
HETATM    6  C7  UNL     1     -33.910   5.217   3.602  1.00 20.00    -0.004 C 
HETATM    7  C8  UNL     1     -33.537   7.861   6.430  1.00 20.00     0.015 C 
HETATM    8  C9  UNL     1     -33.069   4.859   2.372  1.00 20.00     0.011 C 
ENDROOT
BRANCH   5   9
HETATM    9  C3  UNL     1     -33.510   7.665   3.325  1.00 20.00     0.236 C 
HETATM   10  O10 UNL     1     -34.561   8.049   2.821  1.00 20.00    -0.306 OA
ENDBRANCH   5   9
TORSDOF 1
