REMARK  0 active torsions:
REMARK  status: ('A' for Active; 'I' for Inactive)
ROOT
HETATM    1  C1  UNL     1     -34.298   4.268   4.594  1.00 20.00    -0.029 C 
HETATM    2  C2  UNL     1     -34.173   4.911   5.759  1.00 20.00    -0.023 C 
HETATM    3  C3  UNL     1     -33.588   7.289   3.807  1.00 20.00     0.264 C 
HETATM    4  C4  UNL     1     -34.895   5.142   3.539  1.00 20.00     0.042 C 
HETATM    5  C5  UNL     1     -33.701   7.376   6.100  1.00 20.00     0.188 C 
HETATM    6  C6  UNL     1     -34.689   6.316   5.675  1.00 20.00     0.046 C 
HETATM    7  C7  UNL     1     -34.842   6.531   4.176  1.00 20.00     0.098 C 
HETATM    8  O8  UNL     1     -33.197   7.504   2.669  1.00 20.00    -0.265 OA
HETATM    9  O9  UNL     1     -32.944   7.713   4.933  1.00 20.00    -0.320 OA
ENDROOT
TORSDOF 0
