REMARK  0 active torsions:
REMARK  status: ('A' for Active; 'I' for Inactive)
ROOT
HETATM    1  C1  UNL     1     -33.485   6.100   3.168  1.00 20.00    -0.018 C 
HETATM    2  C2  UNL     1     -33.602   4.782   3.404  1.00 20.00    -0.025 C 
HETATM    3  C3  UNL     1     -34.109   6.592   5.410  1.00 20.00     0.135 C 
HETATM    4  C4  UNL     1     -34.283   5.117   5.773  1.00 20.00     0.087 C 
HETATM    5  C5  UNL     1     -35.651   5.738   3.915  1.00 20.00     0.025 C 
HETATM    6  C6  UNL     1     -34.549   6.800   3.967  1.00 20.00     0.078 C 
HETATM    7  C7  UNL     1     -34.740   4.596   4.389  1.00 20.00     0.016 C 
HETATM    8  O8  UNL     1     -33.649   7.451   6.144  1.00 20.00    -0.297 OA
ENDROOT
TORSDOF 0
