REMARK  2 active torsions:
REMARK  status: ('A' for Active; 'I' for Inactive)
REMARK    1  A    between atoms: C2_2  and  C3_3 
REMARK    2  A    between atoms: N9_9  and  N10_10 
ROOT
HETATM    1  C1  UNL     1     -33.993   6.524   5.518  1.00 20.00    -0.018 C 
HETATM    2  C2  UNL     1     -33.476   6.461   4.286  1.00 20.00    -0.043 C 
HETATM    3  C5  UNL     1     -34.555   5.211   5.949  1.00 20.00     0.028 C 
HETATM    4  C6  UNL     1     -33.611   5.093   3.697  1.00 20.00     0.040 C 
HETATM    5  C7  UNL     1     -34.606   4.419   4.643  1.00 20.00     0.008 C 
ENDROOT
BRANCH   2   6
HETATM    6  C3  UNL     1     -32.844   7.529   3.579  1.00 20.00     0.147 C 
HETATM    7  N9  UNL     1     -32.361   7.399   2.379  1.00 20.00    -0.163 NA
BRANCH   7   8
HETATM    8  N10 UNL     1     -31.802   8.592   1.932  1.00 20.00    -0.168 NA
HETATM    9  C4  UNL     1     -32.688   9.305   1.322  1.00 20.00     0.109 C 
HETATM   10  C8  UNL     1     -32.331  10.638   0.745  1.00 20.00     0.059 C 
ENDBRANCH   7   8
ENDBRANCH   2   6
TORSDOF 2
