REMARK  2 active torsions:
REMARK  status: ('A' for Active; 'I' for Inactive)
REMARK    1  A    between atoms: C2_2  and  C4_4 
REMARK    2  A    between atoms: C3_3  and  C4_4 
ROOT
HETATM    1  C4  UNL     1     -33.963   6.977   4.213  1.00 20.00     0.127 C 
HETATM    2 CL7  UNL     1     -33.939   6.622   5.967  1.00 20.00    -0.121 Cl
ENDROOT
BRANCH   1   3
HETATM    3  C2  UNL     1     -34.304   5.710   3.438  1.00 20.00     0.164 A 
HETATM    4  C1  UNL     1     -33.710   4.383   3.817  1.00 20.00     0.201 A 
HETATM    5  O5  UNL     1     -35.052   4.742   4.181  1.00 20.00    -0.380 OA
ENDBRANCH   1   3
BRANCH   1   6
HETATM    6  C3  UNL     1     -32.656   7.636   3.770  1.00 20.00     0.137 C 
HETATM    7 CL6  UNL     1     -32.646   8.127   2.057  1.00 20.00    -0.129 Cl
ENDBRANCH   1   6
TORSDOF 2
