REMARK  2 active torsions:
REMARK  status: ('A' for Active; 'I' for Inactive)
REMARK    1  A    between atoms: C1_1  and  C2_2 
REMARK    2  A    between atoms: C1_1  and  C3_3 
ROOT
HETATM    1  C1  UNL     1     -32.014   7.970   2.778  1.00 20.00     0.168 C 
HETATM    2  O4  UNL     1     -31.333   8.308   3.746  1.00 20.00    -0.294 OA
ENDROOT
BRANCH   1   3
HETATM    3  C2  UNL     1     -33.278   7.171   2.969  1.00 20.00     0.301 C 
HETATM    4  F5  UNL     1     -33.497   6.903   4.284  1.00 20.00    -0.248 F 
ENDBRANCH   1   3
BRANCH   1   5
HETATM    5  C3  UNL     1     -31.664   8.312   1.348  1.00 20.00     0.195 C 
HETATM    6 CL6  UNL     1     -32.401   9.850   0.874  1.00 20.00    -0.122 Cl
ENDBRANCH   1   5
TORSDOF 2
