REMARK  1 active torsions:
REMARK  status: ('A' for Active; 'I' for Inactive)
REMARK    1  A    between atoms: C6_6  and  C9_9 
ROOT
HETATM    1  C1  UNL     1     -34.169   5.397   5.109  1.00 20.00     0.127 C 
HETATM    2  C2  UNL     1     -33.944   4.856   3.716  1.00 20.00     0.079 C 
HETATM    3  C3  UNL     1     -34.425   6.883   5.222  1.00 20.00     0.079 C 
HETATM    4  C4  UNL     1     -32.898   5.684   2.980  1.00 20.00     0.012 C 
HETATM    5  C5  UNL     1     -33.370   7.670   4.456  1.00 20.00     0.012 C 
HETATM    6  C6  UNL     1     -33.235   7.182   3.006  1.00 20.00    -0.010 C 
HETATM    7  O10 UNL     1     -34.243   4.654   6.086  1.00 20.00    -0.298 OA
ENDROOT
BRANCH   6   8
HETATM    8  C9  UNL     1     -32.168   7.986   2.265  1.00 20.00    -0.019 C 
HETATM    9  C7  UNL     1     -32.723   9.339   1.826  1.00 20.00     0.010 C 
HETATM   10  C8  UNL     1     -30.932   8.171   3.142  1.00 20.00     0.010 C 
ENDBRANCH   6   8
TORSDOF 1
