REMARK  1 active torsions:
REMARK  status: ('A' for Active; 'I' for Inactive)
REMARK    1  A    between atoms: C4_4  and  C12_12 
ROOT
HETATM    1  C1  UNL     1     -34.055   5.533   2.992  1.00 20.00     0.005 C 
HETATM    2  C2  UNL     1     -33.483   5.761   1.801  1.00 20.00     0.001 C 
HETATM    3  C3  UNL     1     -32.793   7.283   4.096  1.00 20.00    -0.012 C 
HETATM    4  C4  UNL     1     -33.778   6.370   4.143  1.00 20.00    -0.058 C 
HETATM    5  C5  UNL     1     -32.776   9.082   1.409  1.00 20.00     0.004 C 
HETATM    6  C6  UNL     1     -31.773   8.961   2.511  1.00 20.00     0.065 C 
HETATM    7  C7  UNL     1     -31.931   7.494   2.874  1.00 20.00     0.042 C 
HETATM    8  C8  UNL     1     -32.507   6.881   1.580  1.00 20.00     0.138 C 
HETATM    9  C9  UNL     1     -33.225  10.425   0.936  1.00 20.00     0.065 C 
HETATM   10  N13 UNL     1     -33.200   7.982   0.870  1.00 20.00    -0.289 NA
ENDROOT
BRANCH   4  11
HETATM   11  C12 UNL     1     -34.615   6.140   5.364  1.00 20.00     0.010 C 
HETATM   12  C10 UNL     1     -34.474   4.698   5.840  1.00 20.00     0.015 C 
HETATM   13  C11 UNL     1     -34.237   7.119   6.473  1.00 20.00     0.015 C 
ENDBRANCH   4  11
TORSDOF 1
