REMARK  0 active torsions:
REMARK  status: ('A' for Active; 'I' for Inactive)
ROOT
HETATM    1  C1  UNL     1     -33.302   5.957   3.443  1.00 20.00     0.282 C 
HETATM    2  C2  UNL     1     -33.567   4.467   3.372  1.00 20.00     0.278 C 
HETATM    3  C3  UNL     1     -34.403   5.911   5.606  1.00 20.00     0.205 C 
HETATM    4  C4  UNL     1     -34.123   4.430   5.631  1.00 20.00     0.195 C 
HETATM    5  O5  UNL     1     -32.777   6.559   2.510  1.00 20.00    -0.263 OA
HETATM    6  O6  UNL     1     -33.606   6.577   4.609  1.00 20.00    -0.318 OA
HETATM    7  O7  UNL     1     -34.438   3.928   4.341  1.00 20.00    -0.379 OA
ENDROOT
TORSDOF 0
