REMARK  2 active torsions:
REMARK  status: ('A' for Active; 'I' for Inactive)
REMARK    1  A    between atoms: C3_3  and  C4_4 
REMARK    2  A    between atoms: C4_4  and  S6_6 
ROOT
HETATM    1  C1  UNL     1     -32.508   8.743   2.414  1.00 20.00     0.133 C 
HETATM    2  N5  UNL     1     -32.638   9.536   1.577  1.00 20.00    -0.184 NA
HETATM    3  S6  UNL     1     -32.307   7.590   3.633  1.00 20.00    -0.046 SA
ENDROOT
BRANCH   3   4
HETATM    4  C4  UNL     1     -34.029   7.029   3.754  1.00 20.00     0.135 C 
BRANCH   4   5
HETATM    5  C3  UNL     1     -34.182   5.989   4.824  1.00 20.00    -0.011 C 
HETATM    6  C2  UNL     1     -34.473   6.290   6.098  1.00 20.00     0.027 C 
HETATM    7 BR7  UNL     1     -33.850   4.221   4.298  1.00 20.00    -0.056 Br
ENDBRANCH   4   5
ENDBRANCH   3   4
TORSDOF 2
