REMARK  2 active torsions:
REMARK  status: ('A' for Active; 'I' for Inactive)
REMARK    1  A    between atoms: C1_1  and  C3_3 
REMARK    2  A    between atoms: C1_1  and  O5_5 
ROOT
HETATM    1  C1  UNL     1     -33.684   6.783   3.848  1.00 20.00     0.291 C 
HETATM    2  O4  UNL     1     -33.384   7.630   4.679  1.00 20.00    -0.262 OA
ENDROOT
BRANCH   1   3
HETATM    3  C3  UNL     1     -34.498   5.545   4.120  1.00 20.00     0.277 C 
HETATM    4 CL6  UNL     1     -33.555   4.106   3.699  1.00 20.00    -0.097 Cl
HETATM    5 CL7  UNL     1     -34.926   5.539   5.835  1.00 20.00    -0.097 Cl
ENDBRANCH   1   3
BRANCH   1   6
HETATM    6  O5  UNL     1     -33.358   6.824   2.521  1.00 20.00    -0.324 OA
HETATM    7  C2  UNL     1     -32.602   7.966   2.105  1.00 20.00     0.213 C 
ENDBRANCH   1   6
TORSDOF 2
