REMARK  2 active torsions:
REMARK  status: ('A' for Active; 'I' for Inactive)
REMARK    1  A    between atoms: C3_3  and  C4_4 
REMARK    2  A    between atoms: C4_4  and  O5_5 
ROOT
HETATM    1  C1  UNL     1     -34.273   6.286   6.112  1.00 20.00     0.046 C 
HETATM    2  C2  UNL     1     -34.114   4.061   4.979  1.00 20.00     0.046 C 
HETATM    3  C4  UNL     1     -34.352   5.558   4.766  1.00 20.00     0.063 C 
ENDROOT
BRANCH   3   4
HETATM    4  C3  UNL     1     -33.353   6.188   3.783  1.00 20.00     0.151 C 
HETATM    5 CL6  UNL     1     -33.646   7.927   3.509  1.00 20.00    -0.127 Cl
ENDBRANCH   3   4
BRANCH   3   6
HETATM    6  O5  UNL     1     -35.680   5.722   4.263  1.00 20.00    -0.390 OA
HETATM    7  H15 UNL     1     -36.271   5.327   4.922  1.00 20.00     0.210 HD
ENDBRANCH   3   6
TORSDOF 2
