REMARK  1 active torsions:
REMARK  status: ('A' for Active; 'I' for Inactive)
REMARK    1  A    between atoms: C5_5  and  S6_6 
ROOT
HETATM    1  C1  UNL     1     -35.403   5.999   3.384  1.00 20.00     0.026 C 
HETATM    2  C2  UNL     1     -34.084   4.262   4.634  1.00 20.00     0.026 C 
HETATM    3  C3  UNL     1     -33.928   6.680   5.303  1.00 20.00     0.026 C 
HETATM    4  C5  UNL     1     -34.098   5.709   4.131  1.00 20.00    -0.003 C 
ENDROOT
BRANCH   4   5
HETATM    5  S6  UNL     1     -32.694   5.932   2.972  1.00 20.00    -0.165 SA
HETATM    6  C4  UNL     1     -32.982   7.669   2.573  1.00 20.00     0.090 C 
ENDBRANCH   4   5
TORSDOF 1
