REMARK  1 active torsions:
REMARK  status: ('A' for Active; 'I' for Inactive)
REMARK    1  A    between atoms: C1_1  and  C3_3 
ROOT
HETATM    1  C2  UNL     1     -32.369   9.916   0.357  1.00 20.00     0.208 A 
HETATM    2  C3  UNL     1     -32.190   9.233   1.688  1.00 20.00     0.206 A 
HETATM    3  O5  UNL     1     -33.232  10.196   1.465  1.00 20.00    -0.374 OA
ENDROOT
BRANCH   2   4
HETATM    4  C1  UNL     1     -32.688   7.874   1.893  1.00 20.00     0.265 C 
HETATM    5  O4  UNL     1     -33.129   7.469   2.963  1.00 20.00    -0.304 OA
ENDBRANCH   2   4
TORSDOF 1
