REMARK  2 active torsions:
REMARK  status: ('A' for Active; 'I' for Inactive)
REMARK    1  A    between atoms: C6_6  and  C11_11 
REMARK    2  A    between atoms: C11_11  and  O12_12 
ROOT
HETATM    1  C1  UNL     1     -33.646   5.220   3.269  1.00 20.00    -0.024 C 
HETATM    2  C2  UNL     1     -33.883   5.730   4.490  1.00 20.00    -0.087 C 
HETATM    3  C3  UNL     1     -33.226   6.048   2.090  1.00 20.00     0.035 C 
HETATM    4  C4  UNL     1     -33.712   7.198   4.789  1.00 20.00     0.034 C 
HETATM    5  C5  UNL     1     -32.959   7.966   3.698  1.00 20.00     0.012 C 
HETATM    6  C6  UNL     1     -33.437   7.556   2.301  1.00 20.00     0.023 C 
HETATM    7  C7  UNL     1     -34.335   4.871   5.634  1.00 20.00     0.043 C 
ENDROOT
BRANCH   6   8
HETATM    8  C11 UNL     1     -32.725   8.360   1.216  1.00 20.00     0.057 C 
HETATM    9  C8  UNL     1     -33.237   7.967  -0.168  1.00 20.00     0.046 C 
HETATM   10  C9  UNL     1     -31.211   8.172   1.302  1.00 20.00     0.046 C 
BRANCH   8  11
HETATM   11  O12 UNL     1     -33.022   9.744   1.407  1.00 20.00    -0.385 OA
HETATM   12  C10 UNL     1     -32.386  10.547   0.425  1.00 20.00     0.202 C 
ENDBRANCH   8  11
ENDBRANCH   6   8
TORSDOF 2
