REMARK  3 active torsions:
REMARK  status: ('A' for Active; 'I' for Inactive)
REMARK    1  A    between atoms: C2_2  and  C6_6 
REMARK    2  A    between atoms: C2_2  and  C7_7 
REMARK    3  A    between atoms: C6_6  and  C8_8 
ROOT
HETATM    1  C6  UNL     1     -32.717   6.124   3.218  1.00 20.00     0.042 C 
ENDROOT
BRANCH   1   2
HETATM    2  C2  UNL     1     -32.486   7.623   3.195  1.00 20.00    -0.075 C 
HETATM    3  C1  UNL     1     -31.889   8.249   4.223  1.00 20.00     0.015 C 
BRANCH   2   4
HETATM    4  C7  UNL     1     -32.993   8.403   2.014  1.00 20.00     0.147 C 
HETATM    5 CL9  UNL     1     -31.733   8.532   0.765  1.00 20.00    -0.126 Cl
ENDBRANCH   2   4
ENDBRANCH   1   2
BRANCH   1   6
HETATM    6  C8  UNL     1     -34.025   5.607   3.888  1.00 20.00    -0.048 C 
HETATM    7  C3  UNL     1     -34.081   4.069   3.896  1.00 20.00     0.015 C 
HETATM    8  C4  UNL     1     -34.036   6.100   5.350  1.00 20.00     0.015 C 
HETATM    9  C5  UNL     1     -35.281   6.148   3.187  1.00 20.00     0.015 C 
ENDBRANCH   1   6
TORSDOF 3
