REMARK  1 active torsions:
REMARK  status: ('A' for Active; 'I' for Inactive)
REMARK    1  A    between atoms: C7_7  and  O12_12 
ROOT
HETATM    1  C1  UNL     1     -36.914   6.192   3.808  1.00 20.00     0.015 C 
HETATM    2  C2  UNL     1     -35.729   6.002   3.786  1.00 20.00    -0.079 C 
HETATM    3  C3  UNL     1     -33.629   6.225   5.071  1.00 20.00     0.055 C 
HETATM    4  C4  UNL     1     -33.750   8.560   4.002  1.00 20.00     0.013 C 
HETATM    5  C5  UNL     1     -33.621   6.453   2.540  1.00 20.00     0.060 C 
HETATM    6  C6  UNL     1     -33.742   7.739   5.305  1.00 20.00    -0.014 C 
HETATM    7  C7  UNL     1     -34.271   5.768   3.760  1.00 20.00     0.121 C 
HETATM    8  C8  UNL     1     -33.074   7.888   2.787  1.00 20.00    -0.044 C 
HETATM    9  C9  UNL     1     -32.671   8.219   6.287  1.00 20.00     0.010 C 
HETATM   10  C10 UNL     1     -33.345   8.751   1.536  1.00 20.00     0.015 C 
HETATM   11  C11 UNL     1     -31.543   7.839   2.978  1.00 20.00     0.015 C 
ENDROOT
BRANCH   7  12
HETATM   12  O12 UNL     1     -34.055   4.358   3.649  1.00 20.00    -0.378 OA
HETATM   13  H30 UNL     1     -33.095   4.233   3.634  1.00 20.00     0.211 HD
ENDBRANCH   7  12
TORSDOF 1
