REMARK  1 active torsions:
REMARK  status: ('A' for Active; 'I' for Inactive)
REMARK    1  A    between atoms: C3_3  and  C4_4 
ROOT
HETATM    1  C1  UNL     1     -33.587   4.384   3.401  1.00 20.00     0.033 C 
HETATM    2  C2  UNL     1     -34.170   5.312   5.664  1.00 20.00     0.033 C 
HETATM    3  C4  UNL     1     -34.034   5.631   4.171  1.00 20.00     0.042 C 
HETATM    4 CL6  UNL     1     -35.674   6.088   3.561  1.00 20.00    -0.119 Cl
ENDROOT
BRANCH   3   5
HETATM    5  C3  UNL     1     -33.107   6.832   3.917  1.00 20.00     0.139 C 
HETATM    6 CL5  UNL     1     -33.021   7.319   2.203  1.00 20.00    -0.129 Cl
ENDBRANCH   3   5
TORSDOF 1
