REMARK  1 active torsions:
REMARK  status: ('A' for Active; 'I' for Inactive)
REMARK    1  A    between atoms: C4_4  and  C9_9 
ROOT
HETATM    1  C1  UNL     1     -34.731   4.375   5.286  1.00 20.00    -0.025 C 
HETATM    2  C2  UNL     1     -34.298   4.060   4.055  1.00 20.00    -0.025 C 
HETATM    3  C5  UNL     1     -35.606   5.951   3.843  1.00 20.00     0.017 C 
HETATM    4  C6  UNL     1     -33.764   6.652   5.167  1.00 20.00     0.017 C 
HETATM    5  C7  UNL     1     -35.079   5.846   5.275  1.00 20.00     0.009 C 
HETATM    6  C8  UNL     1     -34.344   5.327   3.230  1.00 20.00     0.016 C 
HETATM    7  C9  UNL     1     -33.231   6.253   3.766  1.00 20.00     0.015 C 
ENDROOT
BRANCH   7   8
HETATM    8  C4  UNL     1     -32.996   7.441   2.886  1.00 20.00    -0.031 C 
HETATM    9  C3  UNL     1     -31.815   7.746   2.339  1.00 20.00     0.007 C 
ENDBRANCH   7   8
TORSDOF 1
