REMARK  3 active torsions:
REMARK  status: ('A' for Active; 'I' for Inactive)
REMARK    1  A    between atoms: C2_2  and  C8_8 
REMARK    2  A    between atoms: C4_4  and  C7_7 
REMARK    3  A    between atoms: C7_7  and  C8_8 
ROOT
HETATM    1  C7  UNL     1     -32.906   7.463   3.393  1.00 20.00     0.034 C 
ENDROOT
BRANCH   1   2
HETATM    2  C4  UNL     1     -32.848   8.082   2.024  1.00 20.00    -0.030 C 
HETATM    3  C3  UNL     1     -32.537   9.367   1.798  1.00 20.00    -0.035 C 
HETATM    4  C5  UNL     1     -32.478   9.981   0.439  1.00 20.00     0.035 C 
ENDBRANCH   1   2
BRANCH   1   5
HETATM    5  C8  UNL     1     -33.937   6.321   3.487  1.00 20.00     0.007 C 
HETATM    6  C6  UNL     1     -33.368   5.048   2.854  1.00 20.00     0.014 C 
BRANCH   5   7
HETATM    7  C2  UNL     1     -34.320   6.038   4.920  1.00 20.00    -0.032 C 
HETATM    8  C1  UNL     1     -34.683   4.833   5.373  1.00 20.00     0.007 C 
ENDBRANCH   5   7
ENDBRANCH   1   5
TORSDOF 3
