REMARK  0 active torsions:
REMARK  status: ('A' for Active; 'I' for Inactive)
ROOT
HETATM    1  C1  UNL     1     -32.819   7.662   2.291  1.00 20.00     0.064 C 
HETATM    2  C2  UNL     1     -34.840   4.417   4.294  1.00 20.00     0.005 C 
HETATM    3  C3  UNL     1     -32.892   5.585   5.341  1.00 20.00     0.005 C 
HETATM    4  C4  UNL     1     -35.561   5.766   4.157  1.00 20.00     0.006 C 
HETATM    5  C5  UNL     1     -33.608   6.932   5.171  1.00 20.00     0.006 C 
HETATM    6  C6  UNL     1     -32.952   5.242   2.868  1.00 20.00     0.024 C 
HETATM    7  C7  UNL     1     -33.725   6.561   2.663  1.00 20.00     0.097 C 
HETATM    8  C8  UNL     1     -33.315   4.615   4.227  1.00 20.00    -0.013 C 
HETATM    9  C9  UNL     1     -34.535   6.895   3.939  1.00 20.00     0.003 C 
HETATM   10  N10 UNL     1     -32.106   8.529   1.997  1.00 20.00    -0.197 NA
ENDROOT
TORSDOF 0
