REMARK  3 active torsions:
REMARK  status: ('A' for Active; 'I' for Inactive)
REMARK    1  A    between atoms: C3_3  and  C8_8 
REMARK    2  A    between atoms: C6_6  and  C7_7 
REMARK    3  A    between atoms: C7_7  and  C8_8 
ROOT
HETATM    1  C5  UNL     1     -33.255   4.788   2.364  1.00 20.00     0.010 C 
HETATM    2  C8  UNL     1     -33.867   5.963   3.128  1.00 20.00    -0.014 C 
ENDROOT
BRANCH   2   3
HETATM    3  C3  UNL     1     -34.786   5.437   4.234  1.00 20.00    -0.011 A 
HETATM    4  C1  UNL     1     -34.226   4.597   5.349  1.00 20.00     0.005 A 
HETATM    5  C2  UNL     1     -34.695   5.999   5.625  1.00 20.00     0.005 A 
ENDBRANCH   2   3
BRANCH   2   6
HETATM    6  C7  UNL     1     -32.799   6.891   3.736  1.00 20.00     0.004 C 
BRANCH   6   7
HETATM    7  C6  UNL     1     -31.872   7.519   2.692  1.00 20.00    -0.004 C 
HETATM    8  C4  UNL     1     -32.659   8.300   1.650  1.00 20.00     0.005 C 
ENDBRANCH   6   7
ENDBRANCH   2   6
TORSDOF 3
