REMARK  0 active torsions:
REMARK  status: ('A' for Active; 'I' for Inactive)
ROOT
HETATM    1  C1  UNL     1     -33.442   4.194   2.791  1.00 20.00     0.002 A 
HETATM    2  C2  UNL     1     -34.033   4.163   4.054  1.00 20.00     0.016 A 
HETATM    3  C3  UNL     1     -32.922   5.393   2.274  1.00 20.00     0.019 A 
HETATM    4  C4  UNL     1     -34.080   5.351   4.761  1.00 20.00     0.017 A 
HETATM    5  C5  UNL     1     -33.572   6.547   4.269  1.00 20.00    -0.026 A 
HETATM    6  C6  UNL     1     -32.985   6.578   3.014  1.00 20.00     0.018 A 
HETATM    7  C7  UNL     1     -34.632   5.602   6.083  1.00 20.00     0.160 A 
HETATM    8  C8  UNL     1     -33.744   7.686   5.221  1.00 20.00     0.048 A 
HETATM    9  C9  UNL     1     -34.451   7.059   6.435  1.00 20.00     0.088 A 
HETATM   10  O10 UNL     1     -35.156   4.752   6.780  1.00 20.00    -0.292 OA
HETATM   11 BR11 UNL     1     -32.273   8.168   2.282  1.00 20.00    -0.051 Br
ENDROOT
TORSDOF 0
