REMARK  4 active torsions:
REMARK  status: ('A' for Active; 'I' for Inactive)
REMARK    1  A    between atoms: C2_2  and  C5_5 
REMARK    2  A    between atoms: C4_4  and  C6_6 
REMARK    3  A    between atoms: C5_5  and  O8_8 
REMARK    4  A    between atoms: C6_6  and  O8_8 
ROOT
HETATM    1  O8  UNL     1     -32.498   6.881   3.347  1.00 20.00    -0.383 OA
ENDROOT
BRANCH   1   2
HETATM    2  C5  UNL     1     -33.884   6.831   3.659  1.00 20.00     0.218 C 
BRANCH   2   3
HETATM    3  C2  UNL     1     -34.155   5.661   4.550  1.00 20.00     0.026 C 
HETATM    4  C1  UNL     1     -34.462   4.436   4.109  1.00 20.00     0.034 C 
HETATM    5 CL9  UNL     1     -34.097   5.978   6.252  1.00 20.00    -0.088 Cl
ENDBRANCH   2   3
ENDBRANCH   1   2
BRANCH   1   6
HETATM    6  C6  UNL     1     -32.109   8.175   2.906  1.00 20.00     0.202 C 
BRANCH   6   7
HETATM    7  C4  UNL     1     -32.495   8.337   1.451  1.00 20.00     0.169 A 
HETATM    8  C3  UNL     1     -32.639   9.699   0.831  1.00 20.00     0.202 A 
HETATM    9  O7  UNL     1     -31.469   8.893   0.623  1.00 20.00    -0.379 OA
ENDBRANCH   6   7
ENDBRANCH   1   6
TORSDOF 4
