REMARK  1 active torsions:
REMARK  status: ('A' for Active; 'I' for Inactive)
REMARK    1  A    between atoms: C1_1  and  N7_7 
ROOT
HETATM    1  C2  UNL     1     -34.515   5.661   6.050  1.00 20.00     0.003 C 
HETATM    2  C3  UNL     1     -34.240   4.636   4.949  1.00 20.00     0.020 C 
HETATM    3  C4  UNL     1     -33.587   6.869   5.918  1.00 20.00     0.020 C 
HETATM    4  C5  UNL     1     -34.312   5.278   3.566  1.00 20.00     0.123 C 
HETATM    5  C6  UNL     1     -33.667   7.478   4.521  1.00 20.00     0.123 C 
HETATM    6  N7  UNL     1     -33.463   6.461   3.496  1.00 20.00    -0.381 N 
ENDROOT
BRANCH   6   7
HETATM    7  C1  UNL     1     -32.575   6.639   2.487  1.00 20.00     0.168 C 
HETATM    8  S8  UNL     1     -31.584   7.972   2.367  1.00 20.00    -0.074 SA
ENDBRANCH   6   7
TORSDOF 1
