REMARK  2 active torsions:
REMARK  status: ('A' for Active; 'I' for Inactive)
REMARK    1  A    between atoms: C3_3  and  C5_5 
REMARK    2  A    between atoms: C5_5  and  N6_6 
ROOT
HETATM    1  C1  UNL     1     -32.763   7.881   2.824  1.00 20.00     0.157 C 
HETATM    2  N6  UNL     1     -32.914   7.230   3.790  1.00 20.00    -0.271 NA
HETATM    3  S7  UNL     1     -32.533   8.771   1.523  1.00 20.00    -0.055 SA
ENDROOT
BRANCH   2   4
HETATM    4  C5  UNL     1     -34.196   6.528   3.867  1.00 20.00     0.183 C 
BRANCH   4   5
HETATM    5  C3  UNL     1     -33.967   5.048   4.004  1.00 20.00    -0.073 C 
HETATM    6  C2  UNL     1     -34.405   4.365   5.073  1.00 20.00     0.015 C 
HETATM    7  C4  UNL     1     -33.199   4.376   2.903  1.00 20.00     0.044 C 
ENDBRANCH   4   5
ENDBRANCH   2   4
TORSDOF 2
