REMARK  3 active torsions:
REMARK  status: ('A' for Active; 'I' for Inactive)
REMARK    1  A    between atoms: C5_5  and  C7_7 
REMARK    2  A    between atoms: C6_6  and  C8_8 
REMARK    3  A    between atoms: C7_7  and  C8_8 
ROOT
HETATM    1  C1  UNL     1     -33.871   3.508   4.766  1.00 20.00     0.012 C 
HETATM    2  C3  UNL     1     -33.918   4.657   4.421  1.00 20.00    -0.117 C 
HETATM    3  C5  UNL     1     -33.981   6.065   4.003  1.00 20.00     0.093 C 
ENDROOT
BRANCH   3   4
HETATM    4  C7  UNL     1     -32.896   6.416   2.982  1.00 20.00     0.013 C 
BRANCH   4   5
HETATM    5  C8  UNL     1     -33.001   7.862   2.477  1.00 20.00     0.013 C 
BRANCH   5   6
HETATM    6  C6  UNL     1     -31.962   8.192   1.403  1.00 20.00     0.093 C 
HETATM    7  C4  UNL     1     -32.120   9.553   0.874  1.00 20.00    -0.117 C 
HETATM    8  C2  UNL     1     -32.247  10.665   0.438  1.00 20.00     0.012 C 
ENDBRANCH   5   6
ENDBRANCH   4   5
ENDBRANCH   3   4
TORSDOF 3
