REMARK  2 active torsions:
REMARK  status: ('A' for Active; 'I' for Inactive)
REMARK    1  A    between atoms: C1_1  and  C6_6 
REMARK    2  A    between atoms: C1_1  and  C7_7 
ROOT
HETATM    1  C1  UNL     1     -33.204   6.274   3.200  1.00 20.00     0.135 C 
HETATM    2  O8  UNL     1     -33.107   5.056   3.066  1.00 20.00    -0.297 OA
ENDROOT
BRANCH   1   3
HETATM    3  C6  UNL     1     -32.429   7.204   2.372  1.00 20.00     0.056 A 
HETATM    4  C2  UNL     1     -33.041   8.516   1.961  1.00 20.00     0.013 A 
HETATM    5  C3  UNL     1     -31.936   8.492   2.974  1.00 20.00     0.013 A 
ENDBRANCH   1   3
BRANCH   1   6
HETATM    6  C7  UNL     1     -34.127   6.885   4.220  1.00 20.00     0.056 A 
HETATM    7  C4  UNL     1     -34.480   6.079   5.417  1.00 20.00     0.013 A 
HETATM    8  C5  UNL     1     -33.559   7.255   5.543  1.00 20.00     0.013 A 
ENDBRANCH   1   6
TORSDOF 2
