REMARK  2 active torsions:
REMARK  status: ('A' for Active; 'I' for Inactive)
REMARK    1  A    between atoms: C6_6  and  C7_7 
REMARK    2  A    between atoms: C7_7  and  C8_8 
ROOT
HETATM    1  C1  UNL     1     -33.354   7.233   4.355  1.00 20.00     0.069 C 
HETATM    2  C2  UNL     1     -33.608   4.256   3.652  1.00 20.00     0.002 C 
HETATM    3  C3  UNL     1     -35.049   4.725   3.852  1.00 20.00     0.002 C 
HETATM    4  C4  UNL     1     -32.921   5.336   2.817  1.00 20.00     0.024 C 
HETATM    5  C5  UNL     1     -35.166   6.066   3.128  1.00 20.00     0.024 C 
HETATM    6  C6  UNL     1     -33.734   6.612   3.068  1.00 20.00     0.050 C 
HETATM    7  N9  UNL     1     -33.055   7.720   5.365  1.00 20.00    -0.196 NA
ENDROOT
BRANCH   6   8
HETATM    8  C7  UNL     1     -33.557   7.632   1.944  1.00 20.00     0.039 C 
BRANCH   8   9
HETATM    9  C8  UNL     1     -32.148   8.200   1.864  1.00 20.00     0.116 C 
HETATM   10 CL10 UNL     1     -31.983   9.404   0.566  1.00 20.00    -0.130 Cl
ENDBRANCH   8   9
ENDBRANCH   6   8
TORSDOF 2
