REMARK  2 active torsions:
REMARK  status: ('A' for Active; 'I' for Inactive)
REMARK    1  A    between atoms: C1_1  and  C3_3 
REMARK    2  A    between atoms: C2_2  and  C3_3 
ROOT
HETATM    1  C3  UNL     1     -32.797   8.053   2.621  1.00 20.00     0.109 C 
HETATM    2 CL6  UNL     1     -31.505   8.280   3.849  1.00 20.00    -0.123 Cl
ENDROOT
BRANCH   1   3
HETATM    3  C1  UNL     1     -33.264   6.593   2.619  1.00 20.00     0.135 C 
HETATM    4 CL4  UNL     1     -33.850   6.030   4.204  1.00 20.00    -0.129 Cl
ENDBRANCH   1   3
BRANCH   1   5
HETATM    5  C2  UNL     1     -32.298   8.594   1.281  1.00 20.00     0.135 C 
HETATM    6 CL5  UNL     1     -32.289  10.374   1.244  1.00 20.00    -0.129 Cl
ENDBRANCH   1   5
TORSDOF 2
