REMARK  2 active torsions:
REMARK  status: ('A' for Active; 'I' for Inactive)
REMARK    1  A    between atoms: C4_4  and  C5_5 
REMARK    2  A    between atoms: C4_4  and  C6_6 
ROOT
HETATM    1  C1  UNL     1     -33.812   6.464   5.546  1.00 20.00     0.068 C 
HETATM    2  C2  UNL     1     -34.581   4.166   5.172  1.00 20.00     0.031 C 
HETATM    3  C3  UNL     1     -35.626   6.067   3.930  1.00 20.00     0.031 C 
HETATM    4  C6  UNL     1     -34.308   5.530   4.509  1.00 20.00     0.043 C 
HETATM    5  N7  UNL     1     -33.423   7.196   6.359  1.00 20.00    -0.196 NA
ENDROOT
BRANCH   4   6
HETATM    6  C4  UNL     1     -33.236   5.335   3.405  1.00 20.00     0.039 C 
BRANCH   6   7
HETATM    7  C5  UNL     1     -33.133   6.478   2.395  1.00 20.00     0.116 C 
HETATM    8 CL8  UNL     1     -32.746   8.004   3.230  1.00 20.00    -0.130 Cl
ENDBRANCH   6   7
ENDBRANCH   4   6
TORSDOF 2
