REMARK  0 active torsions:
REMARK  status: ('A' for Active; 'I' for Inactive)
ROOT
HETATM    1  C1  UNL     1     -32.262   7.431   3.203  1.00 20.00     0.064 C 
HETATM    2  C2  UNL     1     -33.706   4.801   5.243  1.00 20.00     0.005 C 
HETATM    3  C3  UNL     1     -33.813   6.308   5.513  1.00 20.00     0.006 C 
HETATM    4  C4  UNL     1     -33.418   5.239   2.796  1.00 20.00     0.024 C 
HETATM    5  C5  UNL     1     -35.470   5.707   3.927  1.00 20.00     0.010 C 
HETATM    6  C6  UNL     1     -33.550   6.758   3.013  1.00 20.00     0.097 C 
HETATM    7  C7  UNL     1     -34.365   4.652   3.862  1.00 20.00    -0.013 C 
HETATM    8  C8  UNL     1     -34.492   6.845   4.236  1.00 20.00     0.003 C 
HETATM    9  N9  UNL     1     -31.242   7.964   3.352  1.00 20.00    -0.197 NA
ENDROOT
TORSDOF 0
