REMARK  1 active torsions:
REMARK  status: ('A' for Active; 'I' for Inactive)
REMARK    1  A    between atoms: C1_1  and  C2_2 
ROOT
HETATM    1  C1  UNL     1     -33.226   7.330   2.323  1.00 20.00    -0.005 C 
HETATM    2  C3  UNL     1     -33.243   6.707   3.510  1.00 20.00    -0.031 C 
HETATM    3  C5  UNL     1     -33.700   5.298   3.699  1.00 20.00     0.036 C 
ENDROOT
BRANCH   1   4
HETATM    4  C2  UNL     1     -32.782   8.695   2.152  1.00 20.00    -0.005 C 
HETATM    5  C4  UNL     1     -32.765   9.318   0.965  1.00 20.00    -0.031 C 
HETATM    6  C6  UNL     1     -32.308  10.727   0.775  1.00 20.00     0.036 C 
ENDBRANCH   1   4
TORSDOF 1
