REMARK  1 active torsions:
REMARK  status: ('A' for Active; 'I' for Inactive)
REMARK    1  A    between atoms: C8_8  and  O10_10 
ROOT
HETATM    1  C1  UNL     1     -34.321   4.940   4.612  1.00 20.00     0.005 C 
HETATM    2  C2  UNL     1     -33.241   5.049   2.354  1.00 20.00     0.005 C 
HETATM    3  C3  UNL     1     -34.916   6.334   4.371  1.00 20.00     0.008 C 
HETATM    4  C4  UNL     1     -33.832   6.451   2.147  1.00 20.00     0.008 C 
HETATM    5  C5  UNL     1     -31.990   5.832   4.379  1.00 20.00     0.042 C 
HETATM    6  C6  UNL     1     -32.994   4.786   3.851  1.00 20.00    -0.012 C 
HETATM    7  C7  UNL     1     -33.954   7.174   3.502  1.00 20.00     0.019 C 
HETATM    8  C8  UNL     1     -32.563   7.258   4.192  1.00 20.00     0.058 C 
HETATM    9  C9  UNL     1     -31.576   8.153   3.436  1.00 20.00     0.046 C 
ENDROOT
BRANCH   8  10
HETATM   10  O10 UNL     1     -32.727   7.838   5.492  1.00 20.00    -0.390 OA
HETATM   11  H26 UNL     1     -31.847   7.852   5.893  1.00 20.00     0.210 HD
ENDBRANCH   8  10
TORSDOF 1
