REMARK  0 active torsions:
REMARK  status: ('A' for Active; 'I' for Inactive)
ROOT
HETATM    1  C1  UNL     1     -34.584   8.301   2.994  1.00 20.00     0.047 C 
HETATM    2  C2  UNL     1     -34.847   7.578   4.090  1.00 20.00    -0.013 C 
HETATM    3  C3  UNL     1     -33.768   4.273   3.509  1.00 20.00    -0.030 C 
HETATM    4  C4  UNL     1     -34.433   4.363   4.665  1.00 20.00    -0.030 C 
HETATM    5  C5  UNL     1     -33.190   8.452   2.506  1.00 20.00     0.149 C 
HETATM    6  C6  UNL     1     -32.890   5.361   2.982  1.00 20.00     0.033 C 
HETATM    7  C7  UNL     1     -34.370   5.562   5.557  1.00 20.00     0.040 C 
HETATM    8  C8  UNL     1     -32.073   7.729   3.234  1.00 20.00     0.088 C 
HETATM    9  C9  UNL     1     -32.582   6.496   3.995  1.00 20.00     0.008 C 
HETATM   10  C10 UNL     1     -33.793   6.850   4.905  1.00 20.00    -0.019 C 
HETATM   11  C11 UNL     1     -33.375   7.797   6.052  1.00 20.00     0.020 C 
HETATM   12  O12 UNL     1     -32.960   9.189   1.548  1.00 20.00    -0.293 OA
ENDROOT
TORSDOF 0
