REMARK  1 active torsions:
REMARK  status: ('A' for Active; 'I' for Inactive)
REMARK    1  A    between atoms: C7_7  and  C8_8 
ROOT
HETATM    1  C1  UNL     1     -34.458   6.526   5.604  1.00 20.00     0.064 C 
HETATM    2  C2  UNL     1     -33.528   3.924   4.059  1.00 20.00     0.002 C 
HETATM    3  C3  UNL     1     -34.920   4.338   4.530  1.00 20.00     0.019 C 
HETATM    4  C4  UNL     1     -33.220   4.477   2.671  1.00 20.00     0.005 C 
HETATM    5  C5  UNL     1     -34.747   6.452   3.130  1.00 20.00     0.024 C 
HETATM    6  C6  UNL     1     -35.145   5.853   4.487  1.00 20.00     0.093 C 
HETATM    7  C7  UNL     1     -33.379   6.000   2.584  1.00 20.00    -0.003 C 
HETATM    8  N9  UNL     1     -33.918   7.056   6.484  1.00 20.00    -0.197 NA
ENDROOT
BRANCH   7   9
HETATM    9  C8  UNL     1     -32.207   6.730   3.245  1.00 20.00     0.089 C 
HETATM   10 BR10 UNL     1     -32.092   8.533   2.543  1.00 20.00    -0.096 Br
ENDBRANCH   7   9
TORSDOF 1
