REMARK  3 active torsions:
REMARK  status: ('A' for Active; 'I' for Inactive)
REMARK    1  A    between atoms: C1_1  and  S7_7 
REMARK    2  A    between atoms: C1_1  and  S8_8 
REMARK    3  A    between atoms: C5_5  and  S8_8 
ROOT
HETATM    1  S8  UNL     1     -33.742   8.479   3.567  1.00 20.00    -0.103 SA
ENDROOT
BRANCH   1   2
HETATM    2  C1  UNL     1     -34.174   7.155   4.634  1.00 20.00     0.102 C 
HETATM    3  S6  UNL     1     -33.463   6.923   6.131  1.00 20.00    -0.065 SA
BRANCH   2   4
HETATM    4  S7  UNL     1     -35.471   6.131   4.036  1.00 20.00    -0.124 SA
HETATM    5  H18 UNL     1     -35.545   5.324   5.105  1.00 20.00     0.108 HD
ENDBRANCH   2   4
ENDBRANCH   1   2
BRANCH   1   6
HETATM    6  C5  UNL     1     -32.397   7.652   2.633  1.00 20.00     0.003 C 
HETATM    7  C2  UNL     1     -32.693   6.150   2.571  1.00 20.00     0.026 C 
HETATM    8  C3  UNL     1     -32.355   8.243   1.221  1.00 20.00     0.026 C 
HETATM    9  C4  UNL     1     -31.070   7.904   3.354  1.00 20.00     0.026 C 
ENDBRANCH   1   6
TORSDOF 3
