REMARK  2 active torsions:
REMARK  status: ('A' for Active; 'I' for Inactive)
REMARK    1  A    between atoms: C1_1  and  C3_3 
REMARK    2  A    between atoms: C2_2  and  C4_4 
ROOT
HETATM    1  C1  UNL     1     -32.439   8.061   1.806  1.00 20.00    -0.015 C 
HETATM    2  C2  UNL     1     -32.368   9.399   1.884  1.00 20.00    -0.015 C 
ENDROOT
BRANCH   1   3
HETATM    3  C3  UNL     1     -32.401   7.160   2.995  1.00 20.00     0.141 C 
HETATM    4 CL5  UNL     1     -33.893   6.199   3.074  1.00 20.00    -0.126 Cl
ENDBRANCH   1   3
BRANCH   2   5
HETATM    5  C4  UNL     1     -32.388  10.299   0.694  1.00 20.00     0.141 C 
HETATM    6 CL6  UNL     1     -33.358   9.568  -0.602  1.00 20.00    -0.126 Cl
ENDBRANCH   2   5
TORSDOF 2
