REMARK  3 active torsions:
REMARK  status: ('A' for Active; 'I' for Inactive)
REMARK    1  A    between atoms: C1_1  and  C7_7 
REMARK    2  A    between atoms: C1_1  and  C9_9 
REMARK    3  A    between atoms: C7_7  and  C8_8 
ROOT
HETATM    1  C1  UNL     1     -33.306   6.438   3.215  1.00 20.00     0.134 C 
HETATM    2  O10 UNL     1     -32.482   5.787   2.568  1.00 20.00    -0.297 OA
ENDROOT
BRANCH   1   3
HETATM    3  C7  UNL     1     -33.318   7.964   3.154  1.00 20.00     0.083 C 
BRANCH   3   4
HETATM    4  C8  UNL     1     -32.783   8.528   1.828  1.00 20.00    -0.016 C 
HETATM    5  C2  UNL     1     -31.336   8.080   1.614  1.00 20.00     0.010 C 
HETATM    6  C3  UNL     1     -32.861  10.057   1.801  1.00 20.00     0.010 C 
ENDBRANCH   3   4
ENDBRANCH   1   3
BRANCH   1   7
HETATM    7  C9  UNL     1     -34.346   5.742   4.117  1.00 20.00     0.009 C 
HETATM    8  C4  UNL     1     -35.764   6.112   3.647  1.00 20.00     0.022 C 
HETATM    9  C5  UNL     1     -34.193   4.217   4.044  1.00 20.00     0.022 C 
HETATM   10  C6  UNL     1     -34.160   6.229   5.560  1.00 20.00     0.022 C 
ENDBRANCH   1   7
TORSDOF 3
