REMARK  3 active torsions:
REMARK  status: ('A' for Active; 'I' for Inactive)
REMARK    1  A    between atoms: C6_6  and  C7_7 
REMARK    2  A    between atoms: C6_6  and  C8_8 
REMARK    3  A    between atoms: C7_7  and  C9_9 
ROOT
HETATM    1  C7  UNL     1     -33.435   7.038   2.348  1.00 20.00     0.008 C 
ENDROOT
BRANCH   1   2
HETATM    2  C6  UNL     1     -32.740   8.315   2.842  1.00 20.00     0.004 C 
BRANCH   2   3
HETATM    3  C8  UNL     1     -32.193   9.192   1.698  1.00 20.00    -0.023 C 
HETATM    4  C1  UNL     1     -33.290   9.659   0.740  1.00 20.00     0.009 C 
HETATM    5  C2  UNL     1     -31.123   8.421   0.919  1.00 20.00     0.009 C 
ENDBRANCH   2   3
ENDBRANCH   1   2
BRANCH   1   6
HETATM    6  C9  UNL     1     -34.050   6.135   3.452  1.00 20.00    -0.051 C 
HETATM    7  C3  UNL     1     -33.463   4.715   3.401  1.00 20.00     0.014 C 
HETATM    8  C4  UNL     1     -35.570   6.046   3.206  1.00 20.00     0.014 C 
HETATM    9  C5  UNL     1     -33.821   6.729   4.852  1.00 20.00     0.014 C 
ENDBRANCH   1   6
TORSDOF 3
