REMARK  0 active torsions:
REMARK  status: ('A' for Active; 'I' for Inactive)
ROOT
HETATM    1  C1  UNL     1     -33.559   5.294   3.298  1.00 20.00    -0.077 C 
HETATM    2  C2  UNL     1     -32.865   4.604   2.387  1.00 20.00     0.015 C 
HETATM    3  C3  UNL     1     -33.963   4.758   5.674  1.00 20.00     0.009 C 
HETATM    4  C4  UNL     1     -34.025   6.259   6.012  1.00 20.00     0.006 C 
HETATM    5  C5  UNL     1     -35.600   5.824   4.314  1.00 20.00     0.014 C 
HETATM    6  C6  UNL     1     -34.568   4.699   4.261  1.00 20.00     0.015 C 
HETATM    7  C7  UNL     1     -34.564   6.889   4.707  1.00 20.00    -0.002 C 
HETATM    8  C8  UNL     1     -33.528   6.801   3.536  1.00 20.00    -0.021 C 
HETATM    9  C9  UNL     1     -34.020   7.588   2.307  1.00 20.00     0.020 C 
HETATM   10  C10 UNL     1     -32.132   7.312   3.918  1.00 20.00     0.020 C 
ENDROOT
TORSDOF 0
