REMARK  4 active torsions:
REMARK  status: ('A' for Active; 'I' for Inactive)
REMARK    1  A    between atoms: C1_1  and  C9_9 
REMARK    2  A    between atoms: C2_2  and  C7_7 
REMARK    3  A    between atoms: C2_2  and  C9_9 
REMARK    4  A    between atoms: C7_7  and  C8_8 
ROOT
HETATM    1  C5  UNL     1     -32.946   5.094   2.520  1.00 20.00     0.031 C 
HETATM    2  C6  UNL     1     -34.919   6.600   2.213  1.00 20.00     0.031 C 
HETATM    3  C9  UNL     1     -33.617   6.387   3.004  1.00 20.00     0.073 C 
ENDROOT
BRANCH   3   4
HETATM    4  C1  UNL     1     -33.995   6.317   4.494  1.00 20.00     0.138 C 
HETATM    5  C3  UNL     1     -34.968   5.254   4.946  1.00 20.00     0.092 C 
HETATM    6  O10 UNL     1     -33.550   7.130   5.308  1.00 20.00    -0.297 OA
ENDBRANCH   3   4
BRANCH   3   7
HETATM    7  C2  UNL     1     -32.655   7.567   2.732  1.00 20.00     0.142 C 
HETATM    8  O11 UNL     1     -31.554   7.644   3.282  1.00 20.00    -0.297 OA
BRANCH   7   9
HETATM    9  C7  UNL     1     -33.130   8.649   1.766  1.00 20.00     0.079 C 
BRANCH   9  10
HETATM   10  C8  UNL     1     -32.107   9.764   1.554  1.00 20.00     0.003 C 
HETATM   11  C4  UNL     1     -32.627  10.865   0.640  1.00 20.00     0.005 C 
ENDBRANCH   9  10
ENDBRANCH   7   9
ENDBRANCH   3   7
TORSDOF 4
