REMARK  0 active torsions:
REMARK  status: ('A' for Active; 'I' for Inactive)
ROOT
HETATM    1  C1  UNL     1     -32.777   8.322   1.063  1.00 20.00     0.223 A 
HETATM    2  C2  UNL     1     -31.279   8.057   3.130  1.00 20.00     0.027 A 
HETATM    3  C3  UNL     1     -32.435   8.723   2.446  1.00 20.00     0.089 A 
HETATM    4  C4  UNL     1     -32.689   7.531   3.345  1.00 20.00    -0.006 A 
HETATM    5  C5  UNL     1     -33.256   6.419   2.444  1.00 20.00     0.034 A 
HETATM    6  C6  UNL     1     -33.277   7.727   4.713  1.00 20.00     0.018 C 
HETATM    7  C7  UNL     1     -34.722   6.088   2.749  1.00 20.00     0.039 C 
HETATM    8  C8  UNL     1     -32.409   5.147   2.521  1.00 20.00     0.039 C 
HETATM    9  N9  UNL     1     -33.192   7.004   1.102  1.00 20.00    -0.351 N 
HETATM   10  O10 UNL     1     -32.675   9.065   0.101  1.00 20.00    -0.273 OA
HETATM   11  H23 UNL     1     -33.476   6.497   0.269  1.00 20.00     0.163 HD
ENDROOT
TORSDOF 0
