REMARK  2 active torsions:
REMARK  status: ('A' for Active; 'I' for Inactive)
REMARK    1  A    between atoms: C1_1  and  C7_7 
REMARK       I    between atoms: C1_1  and  N9_9 
REMARK    2  A    between atoms: C7_7  and  C8_8 
ROOT
HETATM    1  C1  UNL     1     -32.375   7.788   3.187  1.00 20.00     0.219 C 
HETATM    2  C2  UNL     1     -34.617   5.817   5.333  1.00 20.00     0.021 C 
HETATM    3  C3  UNL     1     -34.181   4.762   4.324  1.00 20.00     0.021 C 
HETATM    4  C4  UNL     1     -33.547   6.887   5.186  1.00 20.00     0.126 C 
HETATM    5  C5  UNL     1     -33.659   5.595   3.163  1.00 20.00     0.126 C 
HETATM    6  N9  UNL     1     -33.144   6.809   3.789  1.00 20.00    -0.352 N 
HETATM    7  O10 UNL     1     -31.547   8.479   3.783  1.00 20.00    -0.273 OA
ENDROOT
BRANCH   1   8
HETATM    8  C7  UNL     1     -32.601   7.974   1.708  1.00 20.00     0.103 C 
BRANCH   8   9
HETATM    9  C8  UNL     1     -33.067   9.390   1.415  1.00 20.00     0.005 C 
HETATM   10  C6  UNL     1     -32.035  10.442   1.796  1.00 20.00     0.005 C 
ENDBRANCH   8   9
ENDBRANCH   1   8
TORSDOF 2
