REMARK  1 active torsions:
REMARK  status: ('A' for Active; 'I' for Inactive)
REMARK    1  A    between atoms: C5_5  and  C6_6 
ROOT
HETATM    1  C1  UNL     1     -32.859  10.684   1.388  1.00 20.00     0.086 C 
HETATM    2  C2  UNL     1     -32.487   9.665   0.332  1.00 20.00     0.086 C 
HETATM    3  C5  UNL     1     -32.657   8.289   2.682  1.00 20.00     0.078 C 
HETATM    4  C7  UNL     1     -31.739   8.275   3.904  1.00 20.00     0.041 C 
HETATM    5  S9  UNL     1     -33.696   9.799   2.726  1.00 20.00    -0.145 SA
HETATM    6  S10 UNL     1     -31.628   8.307   1.164  1.00 20.00    -0.145 SA
ENDROOT
BRANCH   3   7
HETATM    7  C6  UNL     1     -33.566   7.061   2.659  1.00 20.00     0.078 C 
HETATM    8  C8  UNL     1     -34.485   7.075   1.437  1.00 20.00     0.041 C 
HETATM    9  S11 UNL     1     -34.589   7.048   4.181  1.00 20.00    -0.145 SA
HETATM   10  C3  UNL     1     -34.274   5.327   4.644  1.00 20.00     0.086 C 
HETATM   11  C4  UNL     1     -32.827   5.025   4.318  1.00 20.00     0.086 C 
HETATM   12  S12 UNL     1     -32.534   5.547   2.610  1.00 20.00    -0.145 SA
ENDBRANCH   3   7
TORSDOF 1
