REMARK  4 active torsions:
REMARK  status: ('A' for Active; 'I' for Inactive)
REMARK    1  A    between atoms: C1_1  and  C2_2 
REMARK    2  A    between atoms: C2_2  and  C3_3 
REMARK    3  A    between atoms: C3_3  and  C4_4 
REMARK    4  A    between atoms: C4_4  and  C5_5 
ROOT
HETATM    1  C2  UNL     1     -32.378   7.269   3.331  1.00 20.00     0.096 C 
ENDROOT
BRANCH   1   2
HETATM    2  C1  UNL     1     -33.562   6.849   4.187  1.00 20.00     0.218 C 
HETATM    3  O6  UNL     1     -34.044   7.565   5.058  1.00 20.00    -0.280 OA
HETATM    4 CL7  UNL     1     -34.151   5.272   3.737  1.00 20.00    -0.044 Cl
ENDBRANCH   1   2
BRANCH   1   5
HETATM    5  C3  UNL     1     -32.782   7.998   2.049  1.00 20.00     0.010 C 
BRANCH   5   6
HETATM    6  C4  UNL     1     -31.574   8.334   1.165  1.00 20.00     0.015 C 
BRANCH   6   7
HETATM    7  C5  UNL     1     -31.961   8.990  -0.156  1.00 20.00     0.114 C 
HETATM    8 CL8  UNL     1     -32.813  10.531   0.090  1.00 20.00    -0.130 Cl
ENDBRANCH   6   7
ENDBRANCH   5   6
ENDBRANCH   1   5
TORSDOF 4
