REMARK  0 active torsions:
REMARK  status: ('A' for Active; 'I' for Inactive)
ROOT
HETATM    1  C1  UNL     1     -32.747   7.288   3.471  1.00 20.00     0.131 C 
HETATM    2  C2  UNL     1     -32.253   5.857   3.380  1.00 20.00     0.079 C 
HETATM    3  C3  UNL     1     -33.362   4.831   3.160  1.00 20.00     0.012 C 
HETATM    4  C4  UNL     1     -33.856   6.007   6.138  1.00 20.00     0.001 C 
HETATM    5  C5  UNL     1     -34.061   7.432   5.620  1.00 20.00     0.012 C 
HETATM    6  C6  UNL     1     -34.667   4.957   5.381  1.00 20.00     0.005 C 
HETATM    7  C7  UNL     1     -35.122   6.565   3.507  1.00 20.00     0.016 C 
HETATM    8  C8  UNL     1     -34.112   7.542   4.094  1.00 20.00     0.056 C 
HETATM    9  C9  UNL     1     -34.698   5.140   3.855  1.00 20.00    -0.013 C 
HETATM   10  O10 UNL     1     -32.020   8.226   3.141  1.00 20.00    -0.298 OA
ENDROOT
TORSDOF 0
