REMARK  0 active torsions:
REMARK  status: ('A' for Active; 'I' for Inactive)
ROOT
HETATM    1  C1  UNL     1     -34.112   4.740   5.407  1.00 20.00     0.000 C 
HETATM    2  C2  UNL     1     -33.677   6.168   5.720  1.00 20.00     0.003 C 
HETATM    3  C3  UNL     1     -33.615   4.292   4.038  1.00 20.00     0.003 C 
HETATM    4  C4  UNL     1     -33.032   8.712   2.105  1.00 20.00     0.029 C 
HETATM    5  C5  UNL     1     -34.113   7.142   4.625  1.00 20.00     0.038 C 
HETATM    6  C6  UNL     1     -34.049   5.260   2.936  1.00 20.00     0.038 C 
HETATM    7  C7  UNL     1     -34.117   7.665   2.138  1.00 20.00     0.040 C 
HETATM    8  C8  UNL     1     -31.794   7.884   2.362  1.00 20.00     0.168 C 
HETATM    9  C9  UNL     1     -33.630   6.707   3.228  1.00 20.00     0.061 C 
HETATM   10  O10 UNL     1     -32.188   6.794   3.206  1.00 20.00    -0.380 OA
ENDROOT
TORSDOF 0
