REMARK  0 active torsions:
REMARK  status: ('A' for Active; 'I' for Inactive)
ROOT
HETATM    1  C1  UNL     1     -32.771   7.409   3.170  1.00 20.00    -0.089 C 
HETATM    2  C2  UNL     1     -32.539   8.375   2.263  1.00 20.00     0.014 C 
HETATM    3  C3  UNL     1     -32.515   7.661   4.639  1.00 20.00     0.033 C 
HETATM    4  C4  UNL     1     -33.254   6.046   2.729  1.00 20.00     0.033 C 
HETATM    5  C5  UNL     1     -33.793   7.731   5.480  1.00 20.00     0.004 C 
HETATM    6  C6  UNL     1     -34.700   5.748   3.137  1.00 20.00     0.004 C 
HETATM    7  C7  UNL     1     -34.130   6.463   6.266  1.00 20.00     0.000 C 
HETATM    8  C8  UNL     1     -34.862   4.855   4.369  1.00 20.00     0.000 C 
HETATM    9  C9  UNL     1     -33.952   5.119   5.566  1.00 20.00     0.000 C 
ENDROOT
TORSDOF 0
