REMARK  0 active torsions:
REMARK  status: ('A' for Active; 'I' for Inactive)
ROOT
HETATM    1  C1  UNL     1     -33.368   7.341   1.980  1.00 20.00     0.005 C 
HETATM    2  C2  UNL     1     -32.357   7.186   3.124  1.00 20.00     0.008 C 
HETATM    3  C3  UNL     1     -33.107   5.036   2.506  1.00 20.00     0.012 C 
HETATM    4  C4  UNL     1     -35.112   6.096   3.281  1.00 20.00     0.047 C 
HETATM    5  C5  UNL     1     -34.174   6.034   2.055  1.00 20.00    -0.011 C 
HETATM    6  C6  UNL     1     -32.759   5.841   3.766  1.00 20.00     0.025 C 
HETATM    7  C7  UNL     1     -34.139   5.930   4.470  1.00 20.00     0.117 C 
HETATM    8 CL8  UNL     1     -34.485   4.404   5.356  1.00 20.00    -0.101 Cl
HETATM    9 CL9  UNL     1     -34.265   7.269   5.637  1.00 20.00    -0.101 Cl
ENDROOT
TORSDOF 0
