REMARK  0 active torsions:
REMARK  status: ('A' for Active; 'I' for Inactive)
ROOT
HETATM    1  C1  UNL     1     -32.709   5.985   2.611  1.00 20.00     0.053 A 
HETATM    2  C2  UNL     1     -33.685   5.487   3.372  1.00 20.00    -0.072 A 
HETATM    3  C3  UNL     1     -32.814   7.444   2.745  1.00 20.00     0.150 A 
HETATM    4  C4  UNL     1     -33.969   4.046   3.644  1.00 20.00     0.034 C 
HETATM    5  C5  UNL     1     -33.921   7.848   3.679  1.00 20.00     0.092 A 
HETATM    6  C6  UNL     1     -34.019   3.797   5.154  1.00 20.00     0.004 C 
HETATM    7  C7  UNL     1     -34.936   4.792   5.877  1.00 20.00     0.001 C 
HETATM    8  C8  UNL     1     -34.550   6.244   5.574  1.00 20.00     0.009 C 
HETATM    9  C9  UNL     1     -34.542   6.507   4.066  1.00 20.00     0.022 A 
HETATM   10  O10 UNL     1     -32.072   8.222   2.163  1.00 20.00    -0.293 OA
ENDROOT
TORSDOF 0
