REMARK  2 active torsions:
REMARK  status: ('A' for Active; 'I' for Inactive)
REMARK    1  A    between atoms: C9_9  and  C11_11 
REMARK    2  A    between atoms: C10_10  and  C11_11 
ROOT
HETATM    1  C6  UNL     1     -32.975   8.458   2.198  1.00 20.00     0.207 A 
HETATM    2  C11 UNL     1     -32.991   7.110   2.874  1.00 20.00     0.089 A 
HETATM    3  O12 UNL     1     -31.899   7.519   2.043  1.00 20.00    -0.374 OA
ENDROOT
BRANCH   2   4
HETATM    4  C9  UNL     1     -33.824   5.976   2.325  1.00 20.00     0.023 C 
HETATM    5  C2  UNL     1     -33.068   4.653   2.556  1.00 20.00     0.012 C 
HETATM    6  C7  UNL     1     -32.778   4.466   4.059  1.00 20.00    -0.013 C 
HETATM    7  C1  UNL     1     -34.107   4.446   4.833  1.00 20.00     0.009 C 
HETATM    8  C3  UNL     1     -31.916   5.644   4.559  1.00 20.00     0.012 C 
HETATM    9  C8  UNL     1     -34.867   5.766   4.617  1.00 20.00    -0.013 C 
HETATM   10  C4  UNL     1     -35.151   5.947   3.110  1.00 20.00     0.012 C 
HETATM   11  C5  UNL     1     -33.997   6.940   5.117  1.00 20.00     0.012 C 
HETATM   12  C10 UNL     1     -32.665   6.974   4.343  1.00 20.00     0.023 C 
ENDBRANCH   2   4
TORSDOF 2
