REMARK  0 active torsions:
REMARK  status: ('A' for Active; 'I' for Inactive)
ROOT
HETATM    1  C1  UNL     1     -34.255   6.206   5.893  1.00 20.00     0.005 C 
HETATM    2  C2  UNL     1     -34.833   5.454   4.687  1.00 20.00     0.008 C 
HETATM    3  C3  UNL     1     -35.024   7.770   4.273  1.00 20.00     0.012 C 
HETATM    4  C4  UNL     1     -32.653   7.449   4.419  1.00 20.00     0.047 C 
HETATM    5  C5  UNL     1     -33.911   7.585   5.305  1.00 20.00    -0.011 C 
HETATM    6  C6  UNL     1     -34.677   6.469   3.534  1.00 20.00     0.025 C 
HETATM    7  C7  UNL     1     -33.186   6.704   3.174  1.00 20.00     0.117 C 
HETATM    8 CL8  UNL     1     -32.281   5.206   2.846  1.00 20.00    -0.101 Cl
HETATM    9 CL9  UNL     1     -33.055   7.747   1.716  1.00 20.00    -0.101 Cl
ENDROOT
TORSDOF 0
