REMARK  2 active torsions:
REMARK  status: ('A' for Active; 'I' for Inactive)
REMARK    1  A    between atoms: C1_1  and  C3_3 
REMARK    2  A    between atoms: C2_2  and  C5_5 
ROOT
HETATM    1  C1  UNL     1     -33.410   7.440   3.133  1.00 20.00     0.003 C 
HETATM    2  C2  UNL     1     -33.790   6.157   3.158  1.00 20.00     0.041 C 
ENDROOT
BRANCH   1   3
HETATM    3  C3  UNL     1     -33.047   8.123   1.911  1.00 20.00    -0.004 C 
HETATM    4  C4  UNL     1     -32.665   9.408   1.875  1.00 20.00    -0.031 C 
HETATM    5  C6  UNL     1     -32.289  10.125   0.619  1.00 20.00     0.036 C 
ENDBRANCH   1   3
BRANCH   2   6
HETATM    6  C5  UNL     1     -34.142   5.539   4.451  1.00 20.00     0.258 C 
HETATM    7  O7  UNL     1     -34.497   4.369   4.536  1.00 20.00    -0.302 OA
ENDBRANCH   2   6
TORSDOF 2
