REMARK  1 active torsions:
REMARK  status: ('A' for Active; 'I' for Inactive)
REMARK    1  A    between atoms: C1_1  and  O7_7 
ROOT
HETATM    1  C1  UNL     1     -33.521   6.241   3.102  1.00 20.00     0.294 A 
HETATM    2  C2  UNL     1     -34.099   5.397   4.218  1.00 20.00     0.106 A 
HETATM    3  C3  UNL     1     -34.139   3.910   4.055  1.00 20.00     0.051 C 
HETATM    4  C4  UNL     1     -34.174   5.922   5.617  1.00 20.00     0.051 C 
HETATM    5  O6  UNL     1     -34.937   6.103   3.293  1.00 20.00    -0.343 OA
ENDROOT
BRANCH   1   6
HETATM    6  O7  UNL     1     -32.961   7.514   3.459  1.00 20.00    -0.363 OA
HETATM    7  C5  UNL     1     -32.883   8.368   2.332  1.00 20.00     0.204 C 
ENDBRANCH   1   6
TORSDOF 1
