REMARK  3 active torsions:
REMARK  status: ('A' for Active; 'I' for Inactive)
REMARK    1  A    between atoms: C4_4  and  C10_10 
REMARK    2  A    between atoms: C5_5  and  C11_11 
REMARK    3  A    between atoms: C6_6  and  C12_12 
ROOT
HETATM    1  C7  UNL     1     -32.000   8.977   2.801  1.00 20.00     0.009 C 
HETATM    2  C8  UNL     1     -32.343   8.632   4.248  1.00 20.00     0.010 C 
HETATM    3  C9  UNL     1     -33.727   7.326   1.991  1.00 20.00     0.017 C 
HETATM    4  C10 UNL     1     -33.201   8.762   1.876  1.00 20.00     0.008 C 
HETATM    5  C11 UNL     1     -32.881   7.200   4.387  1.00 20.00     0.015 C 
HETATM    6  C12 UNL     1     -34.083   6.963   3.444  1.00 20.00     0.015 C 
ENDROOT
BRANCH   4   7
HETATM    7  C4  UNL     1     -32.835   9.088   0.460  1.00 20.00    -0.032 C 
HETATM    8  C1  UNL     1     -32.931  10.310  -0.076  1.00 20.00     0.007 C 
ENDBRANCH   4   7
BRANCH   6   9
HETATM    9  C6  UNL     1     -34.567   5.542   3.500  1.00 20.00    -0.031 C 
HETATM   10  C3  UNL     1     -33.817   4.483   3.176  1.00 20.00     0.007 C 
ENDBRANCH   6   9
BRANCH   5  11
HETATM   11  C5  UNL     1     -33.227   6.944   5.826  1.00 20.00    -0.031 C 
HETATM   12  C2  UNL     1     -34.171   7.611   6.499  1.00 20.00     0.007 C 
ENDBRANCH   5  11
TORSDOF 3
