REMARK  1 active torsions:
REMARK  status: ('A' for Active; 'I' for Inactive)
REMARK    1  A    between atoms: C1_1  and  C8_8 
ROOT
HETATM    1  C1  UNL     1     -33.044   6.793   3.266  1.00 20.00     0.139 C 
HETATM    2  C2  UNL     1     -33.628   4.702   3.547  1.00 20.00     0.209 C 
HETATM    3  C3  UNL     1     -34.537   5.632   4.343  1.00 20.00     0.070 C 
HETATM    4  C4  UNL     1     -35.936   5.728   3.725  1.00 20.00     0.042 C 
HETATM    5  C5  UNL     1     -34.627   5.231   5.811  1.00 20.00     0.042 C 
HETATM    6  N9  UNL     1     -33.891   6.955   4.232  1.00 20.00    -0.258 NA
HETATM    7  O10 UNL     1     -32.894   5.576   2.699  1.00 20.00    -0.335 OA
ENDROOT
BRANCH   1   8
HETATM    8  C8  UNL     1     -32.178   7.858   2.701  1.00 20.00     0.054 C 
HETATM    9  C6  UNL     1     -33.023   8.984   2.100  1.00 20.00     0.018 C 
HETATM   10  C7  UNL     1     -31.221   8.416   3.758  1.00 20.00     0.018 C 
ENDBRANCH   1   8
TORSDOF 1
