REMARK  2 active torsions:
REMARK  status: ('A' for Active; 'I' for Inactive)
REMARK    1  A    between atoms: C5_5  and  C9_9 
REMARK    2  A    between atoms: C9_9  and  O10_10 
ROOT
HETATM    1  C1  UNL     1     -33.106   8.393   3.553  1.00 20.00    -0.024 C 
HETATM    2  C2  UNL     1     -32.952   7.744   2.392  1.00 20.00    -0.087 C 
HETATM    3  C3  UNL     1     -33.678   7.508   4.611  1.00 20.00     0.035 C 
HETATM    4  C4  UNL     1     -33.396   6.318   2.495  1.00 20.00     0.041 C 
HETATM    5  C5  UNL     1     -33.483   6.109   4.014  1.00 20.00     0.026 C 
HETATM    6  C6  UNL     1     -32.451   8.307   1.112  1.00 20.00     0.043 C 
ENDROOT
BRANCH   5   7
HETATM    7  C9  UNL     1     -34.572   5.129   4.420  1.00 20.00     0.055 C 
HETATM    8  C7  UNL     1     -34.613   4.959   5.940  1.00 20.00     0.045 C 
HETATM    9  C8  UNL     1     -34.376   3.771   3.740  1.00 20.00     0.045 C 
BRANCH   7  10
HETATM   10  O10 UNL     1     -35.840   5.654   4.017  1.00 20.00    -0.390 OA
HETATM   11  H26 UNL     1     -36.502   5.004   4.293  1.00 20.00     0.210 HD
ENDBRANCH   7  10
ENDBRANCH   5   7
TORSDOF 2
