REMARK  1 active torsions:
REMARK  status: ('A' for Active; 'I' for Inactive)
REMARK    1  A    between atoms: C2_2  and  C3_3 
ROOT
HETATM    1  C3  UNL     1     -34.478   5.672   4.405  1.00 20.00     0.423 C 
HETATM    2  F4  UNL     1     -34.670   5.193   5.662  1.00 20.00    -0.166 F 
HETATM    3  F5  UNL     1     -33.768   4.724   3.739  1.00 20.00    -0.166 F 
HETATM    4  F6  UNL     1     -35.700   5.721   3.812  1.00 20.00    -0.166 F 
ENDROOT
BRANCH   1   5
HETATM    5  C2  UNL     1     -33.807   7.004   4.411  1.00 20.00     0.085 C 
HETATM    6  C1  UNL     1     -33.505   7.692   3.302  1.00 20.00     0.036 C 
HETATM    7 BR7  UNL     1     -33.403   7.674   6.112  1.00 20.00    -0.047 Br
ENDBRANCH   1   5
TORSDOF 1
