REMARK  2 active torsions:
REMARK  status: ('A' for Active; 'I' for Inactive)
REMARK    1  A    between atoms: C1_1  and  C2_2 
REMARK    2  A    between atoms: C3_3  and  C4_4 
ROOT
HETATM    1  C1  UNL     1     -32.620   7.900   4.248  1.00 20.00     0.051 C 
HETATM    2  C3  UNL     1     -33.452   6.913   4.621  1.00 20.00    -0.014 C 
HETATM    3  C5  UNL     1     -33.983   6.661   6.006  1.00 20.00     0.052 C 
ENDROOT
BRANCH   2   4
HETATM    4  C4  UNL     1     -33.936   5.924   3.586  1.00 20.00     0.151 C 
HETATM    5  C6  UNL     1     -34.265   4.507   3.987  1.00 20.00     0.096 C 
HETATM    6  O8  UNL     1     -34.062   6.275   2.411  1.00 20.00    -0.293 OA
ENDBRANCH   2   4
BRANCH   1   7
HETATM    7  C2  UNL     1     -32.124   8.108   2.869  1.00 20.00     0.259 C 
HETATM    8  O7  UNL     1     -32.729   8.811   2.067  1.00 20.00    -0.302 OA
ENDBRANCH   1   7
TORSDOF 2
