REMARK  1 active torsions:
REMARK  status: ('A' for Active; 'I' for Inactive)
REMARK    1  A    between atoms: C4_4  and  O5_5 
ROOT
HETATM    1  C1  UNL     1     -32.501  10.537   0.589  1.00 20.00     0.014 C 
HETATM    2  C2  UNL     1     -32.122   9.446   0.917  1.00 20.00    -0.091 C 
HETATM    3  C4  UNL     1     -31.656   8.118   1.316  1.00 20.00     0.259 C 
ENDROOT
BRANCH   3   4
HETATM    4  O5  UNL     1     -32.584   7.512   2.206  1.00 20.00    -0.384 OA
HETATM    5  C3  UNL     1     -32.429   8.000   3.532  1.00 20.00     0.202 C 
ENDBRANCH   3   4
TORSDOF 1
