REMARK  1 active torsions:
REMARK  status: ('A' for Active; 'I' for Inactive)
REMARK    1  A    between atoms: C3_3  and  C7_7 
ROOT
HETATM    1  C1  UNL     1     -34.373   6.465   5.800  1.00 20.00     0.001 C 
HETATM    2  C2  UNL     1     -34.509   5.577   4.802  1.00 20.00    -0.083 C 
HETATM    3  C5  UNL     1     -33.528   7.697   5.665  1.00 20.00     0.196 C 
HETATM    4  C6  UNL     1     -33.833   5.814   3.476  1.00 20.00     0.069 C 
HETATM    5  C7  UNL     1     -33.366   7.269   3.336  1.00 20.00     0.148 C 
HETATM    6  C8  UNL     1     -35.318   4.324   4.938  1.00 20.00     0.043 C 
HETATM    7  O11 UNL     1     -32.664   7.648   4.524  1.00 20.00    -0.378 OA
ENDROOT
BRANCH   5   8
HETATM    8  C3  UNL     1     -32.446   7.441   2.173  1.00 20.00     0.007 C 
HETATM    9  C4  UNL     1     -32.249   8.549   1.434  1.00 20.00    -0.089 C 
HETATM   10  C9  UNL     1     -31.278   8.557   0.286  1.00 20.00     0.042 C 
HETATM   11  C10 UNL     1     -32.959   9.851   1.676  1.00 20.00     0.042 C 
ENDBRANCH   5   8
TORSDOF 1
