REMARK  2 active torsions:
REMARK  status: ('A' for Active; 'I' for Inactive)
REMARK    1  A    between atoms: C1_1  and  C2_2 
REMARK    2  A    between atoms: C1_1  and  C3_3 
ROOT
HETATM    1  C1  UNL     1     -33.725   7.289   2.818  1.00 20.00     0.188 C 
ENDROOT
BRANCH   1   2
HETATM    2  C2  UNL     1     -32.242   7.538   2.999  1.00 20.00     0.361 C 
HETATM    3  F4  UNL     1     -32.004   7.907   4.283  1.00 20.00    -0.214 F 
HETATM    4  F5  UNL     1     -31.848   8.574   2.219  1.00 20.00    -0.214 F 
ENDBRANCH   1   2
BRANCH   1   5
HETATM    5  C3  UNL     1     -34.232   6.175   3.704  1.00 20.00     0.392 C 
HETATM    6  F6  UNL     1     -35.545   5.937   3.497  1.00 20.00    -0.171 F 
HETATM    7  F7  UNL     1     -33.560   5.026   3.482  1.00 20.00    -0.171 F 
HETATM    8  F8  UNL     1     -34.075   6.497   5.007  1.00 20.00    -0.171 F 
ENDBRANCH   1   5
TORSDOF 2
