REMARK  2 active torsions:
REMARK  status: ('A' for Active; 'I' for Inactive)
REMARK    1  A    between atoms: C3_3  and  C8_8 
REMARK    2  A    between atoms: C4_4  and  C7_7 
ROOT
HETATM    1  C5  UNL     1     -32.877   7.567   4.540  1.00 20.00     0.040 C 
HETATM    2  C6  UNL     1     -34.333   7.360   4.893  1.00 20.00     0.045 C 
HETATM    3  C7  UNL     1     -32.758   6.885   3.187  1.00 20.00     0.151 C 
HETATM    4  C8  UNL     1     -34.637   5.989   4.288  1.00 20.00     0.075 C 
HETATM    5  C10 UNL     1     -34.333   4.852   5.267  1.00 20.00     0.050 C 
HETATM    6  O11 UNL     1     -33.749   5.843   3.160  1.00 20.00    -0.367 OA
ENDROOT
BRANCH   3   7
HETATM    7  C4  UNL     1     -33.008   7.799   2.032  1.00 20.00    -0.065 C 
HETATM    8  C2  UNL     1     -34.054   7.631   1.208  1.00 20.00     0.016 C 
HETATM    9  C9  UNL     1     -32.024   8.915   1.847  1.00 20.00     0.045 C 
ENDBRANCH   3   7
BRANCH   4  10
HETATM   10  C3  UNL     1     -36.046   5.902   3.790  1.00 20.00     0.000 C 
HETATM   11  C1  UNL     1     -36.945   5.019   4.240  1.00 20.00     0.010 C 
ENDBRANCH   4  10
TORSDOF 2
