REMARK  0 active torsions:
REMARK  status: ('A' for Active; 'I' for Inactive)
ROOT
HETATM    1  C1  UNL     1     -34.378   5.839   6.435  1.00 20.00    -0.030 C 
HETATM    2  C2  UNL     1     -34.591   4.633   5.877  1.00 20.00    -0.030 C 
HETATM    3  C3  UNL     1     -33.333   7.042   2.043  1.00 20.00    -0.030 C 
HETATM    4  C4  UNL     1     -33.675   7.747   3.133  1.00 20.00    -0.025 C 
HETATM    5  C5  UNL     1     -34.007   7.074   5.643  1.00 20.00     0.035 C 
HETATM    6  C6  UNL     1     -34.424   4.355   4.399  1.00 20.00     0.032 C 
HETATM    7  C7  UNL     1     -33.597   5.571   2.224  1.00 20.00     0.032 C 
HETATM    8  C8  UNL     1     -34.279   6.844   4.159  1.00 20.00     0.016 C 
HETATM    9  C9  UNL     1     -33.662   5.501   3.745  1.00 20.00     0.000 C 
ENDROOT
TORSDOF 0
