REMARK  1 active torsions:
REMARK  status: ('A' for Active; 'I' for Inactive)
REMARK    1  A    between atoms: C2_2  and  C3_3 
ROOT
HETATM    1  C1  UNL     1     -33.091   7.684   2.393  1.00 20.00     0.147 C 
HETATM    2  C2  UNL     1     -33.525   6.447   3.036  1.00 20.00     0.425 C 
HETATM    3  N4  UNL     1     -32.746   8.666   1.881  1.00 20.00    -0.191 NA
HETATM    4  F5  UNL     1     -32.483   5.578   3.067  1.00 20.00    -0.179 F 
HETATM    5  F6  UNL     1     -34.492   5.872   2.278  1.00 20.00    -0.179 F 
ENDROOT
BRANCH   2   6
HETATM    6  C3  UNL     1     -34.044   6.652   4.434  1.00 20.00     0.469 C 
HETATM    7  F7  UNL     1     -35.108   7.485   4.428  1.00 20.00    -0.164 F 
HETATM    8  F8  UNL     1     -34.441   5.486   4.989  1.00 20.00    -0.164 F 
HETATM    9  F9  UNL     1     -33.104   7.195   5.236  1.00 20.00    -0.164 F 
ENDBRANCH   2   6
TORSDOF 1
