REMARK  2 active torsions:
REMARK  status: ('A' for Active; 'I' for Inactive)
REMARK    1  A    between atoms: C1_1  and  C3_3 
REMARK    2  A    between atoms: C2_2  and  C4_4 
ROOT
HETATM    1  C1  UNL     1     -33.491   7.902   2.713  1.00 20.00     0.017 C 
HETATM    2  C2  UNL     1     -33.127   8.700   1.893  1.00 20.00     0.017 C 
ENDROOT
BRANCH   1   3
HETATM    3  C3  UNL     1     -33.929   6.937   3.704  1.00 20.00     0.459 C 
HETATM    4  F5  UNL     1     -33.119   5.855   3.714  1.00 20.00    -0.159 F 
HETATM    5  F6  UNL     1     -33.919   7.479   4.942  1.00 20.00    -0.159 F 
HETATM    6  F7  UNL     1     -35.187   6.515   3.443  1.00 20.00    -0.159 F 
ENDBRANCH   1   3
BRANCH   2   7
HETATM    7  C4  UNL     1     -32.687   9.666   0.903  1.00 20.00     0.459 C 
HETATM    8  F8  UNL     1     -32.495  10.879   1.466  1.00 20.00    -0.159 F 
HETATM    9  F9  UNL     1     -33.606   9.801  -0.079  1.00 20.00    -0.159 F 
HETATM   10  F10 UNL     1     -31.523   9.278   0.336  1.00 20.00    -0.159 F 
ENDBRANCH   2   7
TORSDOF 2
