REMARK  3 active torsions:
REMARK  status: ('A' for Active; 'I' for Inactive)
REMARK    1  A    between atoms: C5_5  and  C7_7 
REMARK    2  A    between atoms: C5_5  and  C8_8 
REMARK    3  A    between atoms: C6_6  and  C8_8 
ROOT
HETATM    1  C3  UNL     1     -32.869   5.916   2.662  1.00 20.00     0.016 C 
HETATM    2  C4  UNL     1     -32.301   7.831   4.167  1.00 20.00     0.016 C 
HETATM    3  C8  UNL     1     -33.438   7.172   3.353  1.00 20.00    -0.035 C 
ENDROOT
BRANCH   3   4
HETATM    4  C5  UNL     1     -33.886   8.211   2.274  1.00 20.00     0.013 C 
BRANCH   4   5
HETATM    5  C7  UNL     1     -32.791   9.146   1.706  1.00 20.00    -0.022 C 
HETATM    6  C1  UNL     1     -31.668   8.354   1.028  1.00 20.00     0.009 C 
HETATM    7  C2  UNL     1     -33.400  10.113   0.684  1.00 20.00     0.009 C 
ENDBRANCH   4   5
ENDBRANCH   3   4
BRANCH   3   8
HETATM    8  C6  UNL     1     -34.620   6.803   4.279  1.00 20.00     0.123 C 
HETATM    9 CL9  UNL     1     -34.202   5.653   5.580  1.00 20.00    -0.130 Cl
ENDBRANCH   3   8
TORSDOF 3
