REMARK  0 active torsions:
REMARK  status: ('A' for Active; 'I' for Inactive)
ROOT
HETATM    1  C1  UNL     1     -33.041   7.410   4.774  1.00 20.00     0.047 C 
HETATM    2  C2  UNL     1     -32.625   7.902   3.601  1.00 20.00    -0.014 C 
HETATM    3  C3  UNL     1     -34.241   6.544   4.846  1.00 20.00     0.149 C 
HETATM    4  C4  UNL     1     -35.012   6.275   3.576  1.00 20.00     0.084 C 
HETATM    5  C5  UNL     1     -34.091   6.300   2.362  1.00 20.00     0.021 C 
HETATM    6  C6  UNL     1     -32.375   9.776   0.367  1.00 20.00     0.000 C 
HETATM    7  C7  UNL     1     -31.423   8.655   0.766  1.00 20.00     0.001 C 
HETATM    8  C8  UNL     1     -33.405  10.052   1.456  1.00 20.00     0.001 C 
HETATM    9  C9  UNL     1     -32.176   7.385   1.168  1.00 20.00     0.013 C 
HETATM   10  C10 UNL     1     -34.176   8.787   1.835  1.00 20.00     0.013 C 
HETATM   11  C11 UNL     1     -33.263   7.607   2.253  1.00 20.00    -0.022 C 
HETATM   12  O12 UNL     1     -34.617   6.112   5.934  1.00 20.00    -0.293 OA
ENDROOT
TORSDOF 0
