REMARK  2 active torsions:
REMARK  status: ('A' for Active; 'I' for Inactive)
REMARK    1  A    between atoms: C1_1  and  C2_2 
REMARK    2  A    between atoms: C2_2  and  C3_3 
ROOT
HETATM    1  C2  UNL     1     -33.517   6.764   4.365  1.00 20.00     0.391 C 
HETATM    2  F5  UNL     1     -32.381   6.306   4.954  1.00 20.00    -0.188 F 
HETATM    3  F6  UNL     1     -34.215   7.418   5.330  1.00 20.00    -0.188 F 
ENDROOT
BRANCH   1   4
HETATM    4  C1  UNL     1     -33.202   7.691   3.226  1.00 20.00     0.319 C 
HETATM    5  O4  UNL     1     -32.059   7.965   2.874  1.00 20.00    -0.300 OA
ENDBRANCH   1   4
BRANCH   1   6
HETATM    6  C3  UNL     1     -34.329   5.585   3.893  1.00 20.00     0.461 C 
HETATM    7  F7  UNL     1     -33.665   4.875   2.956  1.00 20.00    -0.165 F 
HETATM    8  F8  UNL     1     -34.602   4.753   4.921  1.00 20.00    -0.165 F 
HETATM    9  F9  UNL     1     -35.506   5.978   3.360  1.00 20.00    -0.165 F 
ENDBRANCH   1   6
TORSDOF 2
