REMARK  2 active torsions:
REMARK  status: ('A' for Active; 'I' for Inactive)
REMARK    1  A    between atoms: C3_3  and  C8_8 
REMARK    2  A    between atoms: C4_4  and  C7_7 
ROOT
HETATM    1  C5  UNL     1     -33.105   5.269   2.483  1.00 20.00     0.040 C 
HETATM    2  C6  UNL     1     -33.838   4.380   3.461  1.00 20.00     0.045 C 
HETATM    3  C7  UNL     1     -32.755   6.463   3.355  1.00 20.00     0.151 C 
HETATM    4  C8  UNL     1     -34.616   5.390   4.304  1.00 20.00     0.075 C 
HETATM    5  C10 UNL     1     -34.814   4.911   5.739  1.00 20.00     0.050 C 
HETATM    6  O11 UNL     1     -33.811   6.587   4.325  1.00 20.00    -0.367 OA
ENDROOT
BRANCH   3   7
HETATM    7  C4  UNL     1     -32.622   7.731   2.587  1.00 20.00    -0.065 C 
HETATM    8  C2  UNL     1     -32.730   7.765   1.251  1.00 20.00     0.016 C 
HETATM    9  C9  UNL     1     -32.361   8.969   3.394  1.00 20.00     0.045 C 
ENDBRANCH   3   7
BRANCH   4  10
HETATM   10  C3  UNL     1     -35.944   5.737   3.696  1.00 20.00     0.000 C 
HETATM   11  C1  UNL     1     -36.912   4.847   3.453  1.00 20.00     0.010 C 
ENDBRANCH   4  10
TORSDOF 2
