REMARK  0 active torsions:
REMARK  status: ('A' for Active; 'I' for Inactive)
ROOT
HETATM    1  C1  UNL     1     -34.415   4.904   5.520  1.00 20.00     0.000 C 
HETATM    2  C2  UNL     1     -34.421   6.276   6.195  1.00 20.00     0.000 C 
HETATM    3  C3  UNL     1     -34.829   4.917   4.049  1.00 20.00     0.000 C 
HETATM    4  C4  UNL     1     -33.356   7.272   5.732  1.00 20.00     0.001 C 
HETATM    5  C5  UNL     1     -33.678   4.825   3.049  1.00 20.00     0.001 C 
HETATM    6  C6  UNL     1     -33.565   7.810   4.312  1.00 20.00     0.012 C 
HETATM    7  C7  UNL     1     -32.443   5.692   3.297  1.00 20.00     0.012 C 
HETATM    8  C8  UNL     1     -33.080   7.681   1.836  1.00 20.00     0.038 C 
HETATM    9  C9  UNL     1     -32.543   9.095   1.737  1.00 20.00     0.168 C 
HETATM   10  C10 UNL     1     -31.259   7.920   3.286  1.00 20.00     0.177 C 
HETATM   11  C11 UNL     1     -32.627   7.220   3.222  1.00 20.00    -0.017 C 
HETATM   12  O12 UNL     1     -31.391   9.167   2.586  1.00 20.00    -0.390 OA
ENDROOT
TORSDOF 0
