REMARK  3 active torsions:
REMARK  status: ('A' for Active; 'I' for Inactive)
REMARK    1  A    between atoms: C1_1  and  C10_10 
REMARK    2  A    between atoms: C2_2  and  C8_8 
REMARK    3  A    between atoms: C9_9  and  C10_10 
ROOT
HETATM    1  C1  UNL     1     -33.981   7.612   2.221  1.00 20.00    -0.016 C 
HETATM    2  C2  UNL     1     -32.867   8.252   1.806  1.00 20.00    -0.087 C 
HETATM    3  C3  UNL     1     -31.549   7.948   2.480  1.00 20.00     0.043 C 
ENDROOT
BRANCH   1   4
HETATM    4  C10 UNL     1     -34.201   6.565   3.312  1.00 20.00    -0.030 C 
HETATM    5  C6  UNL     1     -35.691   6.165   3.367  1.00 20.00     0.019 C 
HETATM    6  C7  UNL     1     -33.418   5.288   2.912  1.00 20.00     0.019 C 
BRANCH   4   7
HETATM    7  C9  UNL     1     -33.732   7.012   4.725  1.00 20.00     0.008 C 
HETATM    8  C5  UNL     1     -33.939   5.988   5.837  1.00 20.00     0.006 C 
ENDBRANCH   4   7
ENDBRANCH   1   4
BRANCH   2   9
HETATM    9  C8  UNL     1     -32.770   9.244   0.671  1.00 20.00     0.029 C 
HETATM   10  C4  UNL     1     -33.001  10.683   1.114  1.00 20.00     0.010 C 
ENDBRANCH   2   9
TORSDOF 3
