REMARK  0 active torsions:
REMARK  status: ('A' for Active; 'I' for Inactive)
ROOT
HETATM    1  C1  UNL     1     -34.465   6.066   5.951  1.00 20.00     0.044 C 
HETATM    2  C2  UNL     1     -33.102   6.608   3.896  1.00 20.00     0.044 C 
HETATM    3  C3  UNL     1     -34.241   5.777   4.472  1.00 20.00     0.087 C 
HETATM    4 CL4  UNL     1     -35.742   6.089   3.559  1.00 20.00    -0.107 Cl
HETATM    5 BR5  UNL     1     -33.790   3.878   4.270  1.00 20.00    -0.069 Br
ENDROOT
TORSDOF 0
