REMARK  3 active torsions:
REMARK  status: ('A' for Active; 'I' for Inactive)
REMARK    1  A    between atoms: C1_1  and  C3_3 
REMARK    2  A    between atoms: C1_1  and  O4_4 
REMARK    3  A    between atoms: C2_2  and  O4_4 
ROOT
HETATM    1  C1  UNL     1     -33.433   8.082   2.325  1.00 20.00     0.291 C 
ENDROOT
BRANCH   1   2
HETATM    2  C3  UNL     1     -33.391   7.036   3.408  1.00 20.00     0.408 C 
HETATM    3  F7  UNL     1     -32.665   5.968   3.011  1.00 20.00    -0.169 F 
HETATM    4  F8  UNL     1     -34.631   6.599   3.715  1.00 20.00    -0.169 F 
HETATM    5  F9  UNL     1     -32.826   7.520   4.535  1.00 20.00    -0.169 F 
ENDBRANCH   1   2
BRANCH   1   6
HETATM    6  O4  UNL     1     -32.107   8.496   2.028  1.00 20.00    -0.324 OA
BRANCH   6   7
HETATM    7  C2  UNL     1     -32.060   9.497   1.022  1.00 20.00     0.500 C 
HETATM    8  F5  UNL     1     -32.630   9.025  -0.113  1.00 20.00    -0.185 F 
HETATM    9  F6  UNL     1     -32.769  10.578   1.426  1.00 20.00    -0.185 F 
ENDBRANCH   6   7
ENDBRANCH   1   6
TORSDOF 3
