REMARK  0 active torsions:
REMARK  status: ('A' for Active; 'I' for Inactive)
ROOT
HETATM    1  C1  UNL     1     -33.973   6.412   4.305  1.00 20.00     0.009 A 
HETATM    2  C2  UNL     1     -35.161   5.824   3.599  1.00 20.00     0.009 A 
HETATM    3  C3  UNL     1     -33.971   4.950   3.922  1.00 20.00    -0.048 A 
HETATM    4  C4  UNL     1     -33.084   4.519   2.788  1.00 20.00     0.015 C 
HETATM    5  C5  UNL     1     -34.121   3.934   5.021  1.00 20.00     0.015 C 
ENDROOT
TORSDOF 0
