REMARK  2 active torsions:
REMARK  status: ('A' for Active; 'I' for Inactive)
REMARK    1  A    between atoms: C6_6  and  C7_7 
REMARK    2  A    between atoms: C7_7  and  O8_8 
ROOT
HETATM    1  C1  UNL     1     -33.543   3.126   3.888  1.00 20.00     0.015 C 
HETATM    2  C2  UNL     1     -33.934   4.240   4.109  1.00 20.00    -0.079 C 
HETATM    3  C5  UNL     1     -34.420   5.851   5.898  1.00 20.00     0.061 C 
HETATM    4  C7  UNL     1     -34.420   5.607   4.383  1.00 20.00     0.119 C 
ENDROOT
BRANCH   4   5
HETATM    5  C6  UNL     1     -33.602   6.688   3.617  1.00 20.00     0.024 C 
HETATM    6  C3  UNL     1     -33.613   6.512   2.094  1.00 20.00     0.014 C 
HETATM    7  C4  UNL     1     -34.035   8.119   3.971  1.00 20.00     0.014 C 
ENDBRANCH   4   5
BRANCH   4   8
HETATM    8  O8  UNL     1     -35.785   5.683   3.954  1.00 20.00    -0.378 OA
HETATM    9  H20 UNL     1     -36.266   5.019   4.468  1.00 20.00     0.211 HD
ENDBRANCH   4   8
TORSDOF 2
