REMARK  0 active torsions:
REMARK  status: ('A' for Active; 'I' for Inactive)
ROOT
HETATM    1  C1  UNL     1     -33.600   6.717   4.059  1.00 20.00    -0.011 C 
HETATM    2  C2  UNL     1     -34.036   6.446   5.461  1.00 20.00     0.155 C 
HETATM    3  C3  UNL     1     -32.822   7.783   3.834  1.00 20.00    -0.078 C 
HETATM    4  C4  UNL     1     -34.039   5.757   2.996  1.00 20.00     0.042 C 
HETATM    5  C5  UNL     1     -34.136   4.994   5.878  1.00 20.00     0.083 C 
HETATM    6  C6  UNL     1     -33.931   4.307   3.461  1.00 20.00     0.005 C 
HETATM    7  C7  UNL     1     -34.685   4.102   4.772  1.00 20.00     0.008 C 
HETATM    8  C8  UNL     1     -32.334   8.135   2.459  1.00 20.00     0.043 C 
HETATM    9  C9  UNL     1     -32.386   8.697   4.942  1.00 20.00     0.043 C 
HETATM   10  O10 UNL     1     -34.232   7.358   6.262  1.00 20.00    -0.293 OA
ENDROOT
TORSDOF 0
