REMARK  4 active torsions:
REMARK  status: ('A' for Active; 'I' for Inactive)
REMARK    1  A    between atoms: C5_5  and  C6_6 
REMARK    2  A    between atoms: C6_6  and  C9_9 
REMARK    3  A    between atoms: C7_7  and  C8_8 
REMARK    4  A    between atoms: C7_7  and  C9_9 
ROOT
HETATM    1  C4  UNL     1     -31.507   7.903   3.594  1.00 20.00     0.010 C 
HETATM    2  C9  UNL     1     -32.741   7.725   2.701  1.00 20.00    -0.018 C 
ENDROOT
BRANCH   2   3
HETATM    3  C6  UNL     1     -33.091   9.087   2.059  1.00 20.00     0.004 C 
BRANCH   3   4
HETATM    4  C5  UNL     1     -31.963   9.678   1.210  1.00 20.00    -0.004 C 
HETATM    5  C1  UNL     1     -31.607   8.764   0.047  1.00 20.00     0.005 C 
ENDBRANCH   3   4
ENDBRANCH   2   3
BRANCH   2   6
HETATM    6  C7  UNL     1     -33.938   7.142   3.486  1.00 20.00     0.008 C 
BRANCH   6   7
HETATM    7  C8  UNL     1     -33.736   5.736   4.089  1.00 20.00    -0.022 C 
HETATM    8  C2  UNL     1     -33.439   4.733   2.969  1.00 20.00     0.009 C 
HETATM    9  C3  UNL     1     -34.951   5.266   4.890  1.00 20.00     0.009 C 
ENDBRANCH   6   7
ENDBRANCH   2   6
TORSDOF 4
