REMARK  0 active torsions:
REMARK  status: ('A' for Active; 'I' for Inactive)
ROOT
HETATM    1  C1  UNL     1     -33.780   4.255   3.825  1.00 20.00     0.051 C 
HETATM    2  C2  UNL     1     -34.695   5.376   5.880  1.00 20.00     0.051 C 
HETATM    3  C3  UNL     1     -35.573   6.004   3.610  1.00 20.00     0.051 C 
HETATM    4  C4  UNL     1     -34.359   5.539   4.404  1.00 20.00     0.092 C 
HETATM    5  F5  UNL     1     -33.402   6.508   4.301  1.00 20.00    -0.244 F 
ENDROOT
TORSDOF 0
