REMARK  0 active torsions:
REMARK  status: ('A' for Active; 'I' for Inactive)
ROOT
HETATM    1  C1  UNL     1     -33.240   7.275   4.684  1.00 20.00    -0.013 A 
HETATM    2  C2  UNL     1     -32.988   6.744   3.480  1.00 20.00    -0.070 A 
HETATM    3  C3  UNL     1     -34.164   6.340   5.355  1.00 20.00     0.160 A 
HETATM    4  C4  UNL     1     -33.704   5.440   3.201  1.00 20.00     0.022 A 
HETATM    5  C5  UNL     1     -34.482   5.144   4.496  1.00 20.00     0.064 A 
HETATM    6  C6  UNL     1     -32.762   8.512   5.345  1.00 20.00     0.052 C 
HETATM    7  C7  UNL     1     -32.066   7.299   2.443  1.00 20.00     0.044 C 
HETATM    8  C8  UNL     1     -34.648   5.540   2.003  1.00 20.00     0.015 C 
HETATM    9  C9  UNL     1     -34.026   3.861   5.175  1.00 20.00     0.019 C 
HETATM   10  O10 UNL     1     -34.601   6.521   6.483  1.00 20.00    -0.292 OA
ENDROOT
TORSDOF 0
