REMARK  2 active torsions:
REMARK  status: ('A' for Active; 'I' for Inactive)
REMARK    1  A    between atoms: C7_7  and  O9_9 
REMARK    2  A    between atoms: C8_8  and  O9_9 
ROOT
HETATM    1  O9  UNL     1     -32.308   6.355   2.745  1.00 20.00    -0.371 OA
ENDROOT
BRANCH   1   2
HETATM    2  C7  UNL     1     -33.466   5.535   2.901  1.00 20.00     0.051 C 
HETATM    3  C1  UNL     1     -34.568   6.070   1.987  1.00 20.00     0.045 C 
HETATM    4  C2  UNL     1     -33.080   4.113   2.503  1.00 20.00     0.045 C 
HETATM    5  C3  UNL     1     -33.902   5.583   4.365  1.00 20.00     0.045 C 
ENDBRANCH   1   2
BRANCH   1   6
HETATM    6  C8  UNL     1     -32.581   7.704   3.089  1.00 20.00     0.051 C 
HETATM    7  C4  UNL     1     -33.672   7.721   4.160  1.00 20.00     0.045 C 
HETATM    8  C5  UNL     1     -31.288   8.312   3.630  1.00 20.00     0.045 C 
HETATM    9  C6  UNL     1     -33.039   8.444   1.833  1.00 20.00     0.045 C 
ENDBRANCH   1   6
TORSDOF 2
