REMARK  3 active torsions:
REMARK  status: ('A' for Active; 'I' for Inactive)
REMARK    1  A    between atoms: C6_6  and  C9_9 
REMARK    2  A    between atoms: C7_7  and  C8_8 
REMARK    3  A    between atoms: C7_7  and  C9_9 
ROOT
HETATM    1  C4  UNL     1     -32.903   5.849   2.509  1.00 20.00     0.015 C 
HETATM    2  C5  UNL     1     -32.401   7.620   4.179  1.00 20.00     0.015 C 
HETATM    3  C9  UNL     1     -33.503   7.056   3.254  1.00 20.00    -0.048 C 
ENDROOT
BRANCH   3   4
HETATM    4  C6  UNL     1     -34.692   6.541   4.114  1.00 20.00     0.004 C 
HETATM    5  C1  UNL     1     -34.350   5.491   5.164  1.00 20.00     0.006 C 
ENDBRANCH   3   4
BRANCH   3   6
HETATM    6  C7  UNL     1     -33.910   8.186   2.261  1.00 20.00     0.012 C 
BRANCH   6   7
HETATM    7  C8  UNL     1     -32.796   9.157   1.804  1.00 20.00    -0.022 C 
HETATM    8  C2  UNL     1     -31.682   8.379   1.093  1.00 20.00     0.009 C 
HETATM    9  C3  UNL     1     -33.328  10.230   0.847  1.00 20.00     0.009 C 
ENDBRANCH   6   7
ENDBRANCH   3   6
TORSDOF 3
