REMARK  1 active torsions:
REMARK  status: ('A' for Active; 'I' for Inactive)
REMARK    1  A    between atoms: C4_4  and  C5_5 
ROOT
HETATM    1  C1  UNL     1     -35.620   5.935   3.860  1.00 20.00     0.015 C 
HETATM    2  C2  UNL     1     -33.583   4.544   3.462  1.00 20.00     0.015 C 
HETATM    3  C3  UNL     1     -34.234   5.188   5.800  1.00 20.00     0.015 C 
HETATM    4  C5  UNL     1     -34.181   5.660   4.337  1.00 20.00    -0.039 C 
ENDROOT
BRANCH   4   5
HETATM    5  C4  UNL     1     -33.374   6.971   4.200  1.00 20.00     0.122 C 
HETATM    6 CL6  UNL     1     -33.280   7.598   2.534  1.00 20.00    -0.130 Cl
ENDBRANCH   4   5
TORSDOF 1
