REMARK  2 active torsions:
REMARK  status: ('A' for Active; 'I' for Inactive)
REMARK    1  A    between atoms: C1_1  and  C3_3 
REMARK    2  A    between atoms: C2_2  and  C5_5 
ROOT
HETATM    1  C1  UNL     1     -32.223   7.279   2.617  1.00 20.00     0.003 C 
HETATM    2  C2  UNL     1     -33.451   6.884   2.981  1.00 20.00     0.049 C 
ENDROOT
BRANCH   1   3
HETATM    3  C3  UNL     1     -31.966   8.573   2.021  1.00 20.00    -0.004 C 
HETATM    4  C4  UNL     1     -32.776   9.137   1.113  1.00 20.00    -0.031 C 
HETATM    5  C6  UNL     1     -32.521  10.471   0.492  1.00 20.00     0.036 C 
ENDBRANCH   1   3
BRANCH   2   6
HETATM    6  C5  UNL     1     -33.742   5.559   3.596  1.00 20.00     0.145 C 
HETATM    7  C7  UNL     1     -34.360   5.489   4.968  1.00 20.00     0.096 C 
HETATM    8  O8  UNL     1     -33.470   4.536   2.967  1.00 20.00    -0.294 OA
ENDBRANCH   2   6
TORSDOF 2
