REMARK  0 active torsions:
REMARK  status: ('A' for Active; 'I' for Inactive)
ROOT
HETATM    1  C1  UNL     1     -31.789   8.529   1.515  1.00 20.00     0.196 C 
HETATM    2  C2  UNL     1     -31.845   9.067   0.111  1.00 20.00     0.196 C 
HETATM    3  C3  UNL     1     -33.252  10.245   1.424  1.00 20.00     0.337 C 
HETATM    4  O4  UNL     1     -33.000   9.008   2.097  1.00 20.00    -0.365 OA
HETATM    5  O5  UNL     1     -32.401  10.370   0.281  1.00 20.00    -0.365 OA
ENDROOT
TORSDOF 0
