REMARK  3 active torsions:
REMARK  status: ('A' for Active; 'I' for Inactive)
REMARK    1  A    between atoms: C2_2  and  C7_7 
REMARK    2  A    between atoms: C5_5  and  C6_6 
REMARK    3  A    between atoms: C6_6  and  C7_7 
ROOT
HETATM    1  C4  UNL     1     -32.622   5.664   2.722  1.00 20.00     0.012 C 
HETATM    2  C7  UNL     1     -32.849   6.967   3.490  1.00 20.00     0.012 C 
ENDROOT
BRANCH   2   3
HETATM    3  C2  UNL     1     -34.007   6.790   4.475  1.00 20.00     0.149 A 
HETATM    4  C1  UNL     1     -34.352   5.439   5.036  1.00 20.00     0.200 A 
HETATM    5  O8  UNL     1     -35.109   6.030   3.968  1.00 20.00    -0.381 OA
ENDBRANCH   2   3
BRANCH   2   6
HETATM    6  C6  UNL     1     -33.135   8.157   2.556  1.00 20.00     0.006 C 
BRANCH   6   7
HETATM    7  C5  UNL     1     -31.891   8.676   1.831  1.00 20.00    -0.004 C 
HETATM    8  C3  UNL     1     -32.240   9.802   0.869  1.00 20.00     0.005 C 
ENDBRANCH   6   7
ENDBRANCH   2   6
TORSDOF 3
