REMARK  3 active torsions:
REMARK  status: ('A' for Active; 'I' for Inactive)
REMARK    1  A    between atoms: C2_2  and  C3_3 
REMARK    2  A    between atoms: C3_3  and  C5_5 
REMARK    3  A    between atoms: C4_4  and  C5_5 
ROOT
HETATM    1  C5  UNL     1     -33.149   6.270   3.529  1.00 20.00     0.096 C 
HETATM    2 CL7  UNL     1     -32.918   4.702   2.681  1.00 20.00    -0.124 Cl
ENDROOT
BRANCH   1   3
HETATM    3  C3  UNL     1     -33.250   7.415   2.506  1.00 20.00     0.021 C 
BRANCH   3   4
HETATM    4  C2  UNL     1     -31.896   7.821   1.913  1.00 20.00    -0.003 C 
HETATM    5  C1  UNL     1     -32.053   8.930   0.883  1.00 20.00     0.005 C 
ENDBRANCH   3   4
ENDBRANCH   1   3
BRANCH   1   6
HETATM    6  C4  UNL     1     -34.393   6.146   4.411  1.00 20.00     0.134 C 
HETATM    7 CL6  UNL     1     -34.261   4.792   5.562  1.00 20.00    -0.129 Cl
ENDBRANCH   1   6
TORSDOF 3
