REMARK  2 active torsions:
REMARK  status: ('A' for Active; 'I' for Inactive)
REMARK    1  A    between atoms: C5_5  and  C7_7 
REMARK    2  A    between atoms: C7_7  and  C8_8 
ROOT
HETATM    1  C1  UNL     1     -34.251   4.429   5.599  1.00 20.00    -0.030 C 
HETATM    2  C2  UNL     1     -34.304   5.759   5.482  1.00 20.00    -0.026 C 
HETATM    3  C3  UNL     1     -33.996   3.766   4.287  1.00 20.00     0.027 C 
HETATM    4  C4  UNL     1     -33.547   4.930   3.403  1.00 20.00     0.012 C 
HETATM    5  C5  UNL     1     -34.097   6.202   4.066  1.00 20.00     0.008 C 
ENDROOT
BRANCH   5   6
HETATM    6  C7  UNL     1     -33.142   7.379   3.940  1.00 20.00     0.008 C 
BRANCH   6   7
HETATM    7  C8  UNL     1     -32.930   7.772   2.480  1.00 20.00    -0.004 C 
HETATM    8  C6  UNL     1     -31.997   8.966   2.355  1.00 20.00     0.005 C 
ENDBRANCH   6   7
ENDBRANCH   5   6
TORSDOF 2
