REMARK  2 active torsions:
REMARK  status: ('A' for Active; 'I' for Inactive)
REMARK    1  A    between atoms: C1_1  and  C3_3 
REMARK    2  A    between atoms: C2_2  and  C3_3 
ROOT
HETATM    1  C3  UNL     1     -34.599   5.636   3.795  1.00 20.00     0.187 C 
HETATM    2 BR7  UNL     1     -34.179   3.766   4.198  1.00 20.00    -0.077 Br
ENDROOT
BRANCH   1   3
HETATM    3  C1  UNL     1     -34.220   6.419   5.054  1.00 20.00     0.190 C 
HETATM    4  O4  UNL     1     -33.961   7.642   4.859  1.00 20.00    -0.647 OA
HETATM    5  O5  UNL     1     -34.193   5.763   6.133  1.00 20.00    -0.647 OA
ENDBRANCH   1   3
BRANCH   1   6
HETATM    6  C2  UNL     1     -33.905   6.033   2.507  1.00 20.00     0.248 C 
HETATM    7  F6  UNL     1     -32.558   5.899   2.634  1.00 20.00    -0.254 F 
ENDBRANCH   1   6
TORSDOF 2
