REMARK  2 active torsions:
REMARK  status: ('A' for Active; 'I' for Inactive)
REMARK    1  A    between atoms: C1_1  and  C2_2 
REMARK    2  A    between atoms: C2_2  and  C3_3 
ROOT
HETATM    1  C2  UNL     1     -33.268   6.082   3.557  1.00 20.00     0.203 C 
HETATM    2 CL8  UNL     1     -33.097   4.918   2.205  1.00 20.00    -0.115 Cl
ENDROOT
BRANCH   1   3
HETATM    3  C1  UNL     1     -33.531   7.491   3.028  1.00 20.00     0.143 C 
HETATM    4 CL7  UNL     1     -32.232   8.045   1.940  1.00 20.00    -0.129 Cl
ENDBRANCH   1   3
BRANCH   1   5
HETATM    5  C3  UNL     1     -34.394   5.617   4.464  1.00 20.00     0.405 C 
HETATM    6  F4  UNL     1     -34.521   6.406   5.553  1.00 20.00    -0.169 F 
HETATM    7  F5  UNL     1     -35.576   5.632   3.808  1.00 20.00    -0.169 F 
HETATM    8  F6  UNL     1     -34.190   4.351   4.891  1.00 20.00    -0.169 F 
ENDBRANCH   1   5
TORSDOF 2
