REMARK  2 active torsions:
REMARK  status: ('A' for Active; 'I' for Inactive)
REMARK    1  A    between atoms: C2_2  and  C3_3 
REMARK    2  A    between atoms: C3_3  and  O4_4 
ROOT
HETATM    1  C3  UNL     1     -34.005   6.168   3.837  1.00 20.00     0.398 C 
HETATM    2  F6  UNL     1     -35.337   6.020   3.639  1.00 20.00    -0.171 F 
HETATM    3  F7  UNL     1     -33.375   5.190   3.138  1.00 20.00    -0.171 F 
ENDROOT
BRANCH   1   4
HETATM    4  C2  UNL     1     -33.666   6.025   5.304  1.00 20.00     0.367 C 
HETATM    5  F5  UNL     1     -34.282   7.024   5.991  1.00 20.00    -0.223 F 
HETATM    6 CL8  UNL     1     -34.218   4.467   5.954  1.00 20.00    -0.080 Cl
ENDBRANCH   1   4
BRANCH   1   7
HETATM    7  O4  UNL     1     -33.582   7.430   3.334  1.00 20.00    -0.328 OA
HETATM    8  C1  UNL     1     -32.194   7.461   3.033  1.00 20.00     0.208 C 
ENDBRANCH   1   7
TORSDOF 2
