REMARK  2 active torsions:
REMARK  status: ('A' for Active; 'I' for Inactive)
REMARK    1  A    between atoms: C1_1  and  C4_4 
REMARK    2  A    between atoms: C5_5  and  C8_8 
ROOT
HETATM    1  C2  UNL     1     -33.459   5.834   2.383  1.00 20.00     0.020 C 
HETATM    2  C3  UNL     1     -34.203   7.405   3.615  1.00 20.00     0.020 C 
HETATM    3  C4  UNL     1     -34.590   5.917   3.437  1.00 20.00     0.087 C 
HETATM    4  C5  UNL     1     -33.640   7.359   2.172  1.00 20.00    -0.010 C 
ENDROOT
BRANCH   3   5
HETATM    5  C1  UNL     1     -34.412   5.059   4.637  1.00 20.00     0.177 C 
HETATM    6  O9  UNL     1     -34.746   5.589   5.733  1.00 20.00    -0.648 OA
HETATM    7  O10 UNL     1     -33.949   3.908   4.401  1.00 20.00    -0.648 OA
ENDBRANCH   3   5
BRANCH   4   8
HETATM    8  C8  UNL     1     -32.383   8.162   1.907  1.00 20.00    -0.019 C 
HETATM    9  C6  UNL     1     -32.713   9.641   1.684  1.00 20.00     0.010 C 
HETATM   10  C7  UNL     1     -31.384   8.012   3.058  1.00 20.00     0.010 C 
ENDBRANCH   4   8
TORSDOF 2
