REMARK  0 active torsions:
REMARK  status: ('A' for Active; 'I' for Inactive)
ROOT
HETATM    1  C1  UNL     1     -34.418   6.241   4.945  1.00 20.00    -0.089 C 
HETATM    2  C2  UNL     1     -32.841   7.338   2.796  1.00 20.00    -0.089 C 
HETATM    3  C3  UNL     1     -34.684   5.420   5.971  1.00 20.00     0.014 C 
HETATM    4  C4  UNL     1     -32.575   8.159   1.771  1.00 20.00     0.014 C 
HETATM    5  C5  UNL     1     -33.732   7.573   5.128  1.00 20.00     0.037 C 
HETATM    6  C6  UNL     1     -34.761   5.893   3.516  1.00 20.00     0.037 C 
HETATM    7  C7  UNL     1     -32.499   7.685   4.225  1.00 20.00     0.037 C 
HETATM    8  C8  UNL     1     -33.527   6.005   2.613  1.00 20.00     0.037 C 
ENDROOT
TORSDOF 0
