REMARK  2 active torsions:
REMARK  status: ('A' for Active; 'I' for Inactive)
REMARK    1  A    between atoms: C2_2  and  C3_3 
REMARK    2  A    between atoms: C2_2  and  C4_4 
ROOT
HETATM    1  C1  UNL     1     -35.052   6.335   3.508  1.00 20.00     0.016 C 
HETATM    2  C2  UNL     1     -33.942   5.581   3.478  1.00 20.00    -0.062 C 
ENDROOT
BRANCH   2   3
HETATM    3  C3  UNL     1     -33.874   4.275   4.222  1.00 20.00     0.149 C 
HETATM    4 CL5  UNL     1     -34.142   4.526   5.962  1.00 20.00    -0.126 Cl
ENDBRANCH   2   3
BRANCH   2   5
HETATM    5  C4  UNL     1     -32.730   6.019   2.703  1.00 20.00     0.149 C 
HETATM    6 CL6  UNL     1     -32.620   7.793   2.654  1.00 20.00    -0.126 Cl
ENDBRANCH   2   5
TORSDOF 2
