REMARK  0 active torsions:
REMARK  status: ('A' for Active; 'I' for Inactive)
ROOT
HETATM    1  C1  UNL     1     -32.720   7.869   4.175  1.00 20.00     0.053 A 
HETATM    2  C2  UNL     1     -33.686   7.021   4.532  1.00 20.00    -0.072 A 
HETATM    3  C3  UNL     1     -32.393   7.526   2.785  1.00 20.00     0.150 A 
HETATM    4  C4  UNL     1     -34.323   6.898   5.878  1.00 20.00     0.034 C 
HETATM    5  C5  UNL     1     -33.206   6.365   2.282  1.00 20.00     0.092 A 
HETATM    6  C6  UNL     1     -34.240   5.449   6.367  1.00 20.00     0.004 C 
HETATM    7  C7  UNL     1     -34.735   4.449   5.315  1.00 20.00     0.001 C 
HETATM    8  C8  UNL     1     -34.000   4.619   3.980  1.00 20.00     0.009 C 
HETATM    9  C9  UNL     1     -34.121   6.056   3.466  1.00 20.00     0.022 A 
HETATM   10  O10 UNL     1     -31.547   8.121   2.133  1.00 20.00    -0.293 OA
ENDROOT
TORSDOF 0
