REMARK  0 active torsions:
REMARK  status: ('A' for Active; 'I' for Inactive)
ROOT
HETATM    1  C1  UNL     1     -32.665   5.924   2.379  1.00 20.00     0.003 C 
HETATM    2  C2  UNL     1     -33.149   4.680   2.460  1.00 20.00    -0.025 C 
HETATM    3  C3  UNL     1     -32.669   6.825   3.522  1.00 20.00    -0.059 C 
HETATM    4  C4  UNL     1     -33.449   6.565   4.601  1.00 20.00    -0.070 C 
HETATM    5  C5  UNL     1     -33.739   4.163   3.734  1.00 20.00     0.040 C 
HETATM    6  C6  UNL     1     -34.311   5.282   4.658  1.00 20.00    -0.021 C 
HETATM    7  C7  UNL     1     -31.766   8.018   3.358  1.00 20.00     0.048 C 
HETATM    8  C8  UNL     1     -33.572   7.514   5.770  1.00 20.00     0.044 C 
HETATM    9  C9  UNL     1     -35.742   5.637   4.194  1.00 20.00     0.020 C 
HETATM   10  C10 UNL     1     -34.392   4.690   6.081  1.00 20.00     0.020 C 
ENDROOT
TORSDOF 0
