REMARK  2 active torsions:
REMARK  status: ('A' for Active; 'I' for Inactive)
REMARK    1  A    between atoms: C1_1  and  C5_5 
REMARK    2  A    between atoms: C1_1  and  C6_6 
ROOT
HETATM    1  C1  UNL     1     -33.535   7.129   4.054  1.00 20.00     0.167 C 
HETATM    2  O7  UNL     1     -33.969   7.639   5.091  1.00 20.00    -0.294 OA
ENDROOT
BRANCH   1   3
HETATM    3  C5  UNL     1     -32.398   7.781   3.294  1.00 20.00     0.248 C 
HETATM    4 CL8  UNL     1     -31.372   8.633   4.459  1.00 20.00    -0.100 Cl
HETATM    5 CL9  UNL     1     -33.094   8.899   2.111  1.00 20.00    -0.100 Cl
ENDBRANCH   1   3
BRANCH   1   6
HETATM    6  C6  UNL     1     -34.132   5.818   3.497  1.00 20.00     0.012 C 
HETATM    7  C2  UNL     1     -33.042   5.038   2.739  1.00 20.00     0.022 C 
HETATM    8  C3  UNL     1     -34.641   4.947   4.653  1.00 20.00     0.022 C 
HETATM    9  C4  UNL     1     -35.270   6.139   2.520  1.00 20.00     0.022 C 
ENDBRANCH   1   6
TORSDOF 2
