REMARK  0 active torsions:
REMARK  status: ('A' for Active; 'I' for Inactive)
ROOT
HETATM    1  C1  UNL     1     -32.216   6.929   3.391  1.00 20.00     0.117 C 
HETATM    2  C2  UNL     1     -34.134   4.836   3.473  1.00 20.00     0.117 C 
HETATM    3  C3  UNL     1     -32.570   8.106   2.487  1.00 20.00     0.033 C 
HETATM    4  C4  UNL     1     -33.799   3.672   4.401  1.00 20.00     0.033 C 
HETATM    5  S5  UNL     1     -32.629   5.348   2.547  1.00 20.00    -0.137 SA
HETATM    6  S6  UNL     1     -33.062   7.052   4.989  1.00 20.00    -0.081 SA
HETATM    7  S7  UNL     1     -34.835   6.229   4.395  1.00 20.00    -0.081 SA
ENDROOT
TORSDOF 0
