REMARK  0 active torsions:
REMARK  status: ('A' for Active; 'I' for Inactive)
ROOT
HETATM    1  C1  UNL     1     -33.623   5.018   3.090  1.00 20.00     0.002 C 
HETATM    2  C2  UNL     1     -34.554   5.911   3.913  1.00 20.00     0.002 C 
HETATM    3  C3  UNL     1     -32.463   5.910   2.643  1.00 20.00     0.032 C 
HETATM    4  C4  UNL     1     -33.916   7.302   3.920  1.00 20.00     0.032 C 
HETATM    5  C5  UNL     1     -32.383   9.769   1.656  1.00 20.00     0.086 C 
HETATM    6  C6  UNL     1     -32.945   8.981   0.493  1.00 20.00     0.086 C 
HETATM    7  C7  UNL     1     -33.025   7.333   2.676  1.00 20.00     0.056 C 
HETATM    8  S8  UNL     1     -31.698   8.574   2.829  1.00 20.00    -0.147 SA
HETATM    9  S9  UNL     1     -34.018   7.690   1.170  1.00 20.00    -0.147 SA
ENDROOT
TORSDOF 0
