REMARK  5 active torsions:
REMARK  status: ('A' for Active; 'I' for Inactive)
REMARK    1  A    between atoms: C1_1  and  C5_5 
REMARK    2  A    between atoms: C1_1  and  C9_9 
REMARK    3  A    between atoms: C5_5  and  C6_6 
REMARK    4  A    between atoms: C7_7  and  C9_9 
REMARK    5  A    between atoms: C8_8  and  C9_9 
ROOT
HETATM    1  C1  UNL     1     -33.410   7.113   3.196  1.00 20.00     0.131 C 
HETATM    2  O10 UNL     1     -34.203   7.837   3.797  1.00 20.00    -0.298 OA
ENDROOT
BRANCH   1   3
HETATM    3  C5  UNL     1     -33.788   5.725   2.698  1.00 20.00     0.078 C 
BRANCH   3   4
HETATM    4  C6  UNL     1     -33.560   4.619   3.725  1.00 20.00     0.003 C 
HETATM    5  C2  UNL     1     -34.315   4.864   5.024  1.00 20.00     0.005 C 
ENDBRANCH   3   4
ENDBRANCH   1   3
BRANCH   1   6
HETATM    6  C9  UNL     1     -31.987   7.578   2.883  1.00 20.00     0.054 C 
BRANCH   6   7
HETATM    7  C7  UNL     1     -31.492   8.519   3.993  1.00 20.00     0.007 C 
HETATM    8  C3  UNL     1     -30.068   9.008   3.762  1.00 20.00     0.006 C 
ENDBRANCH   6   7
BRANCH   6   9
HETATM    9  C8  UNL     1     -31.951   8.288   1.520  1.00 20.00     0.007 C 
HETATM   10  C4  UNL     1     -32.838   9.526   1.476  1.00 20.00     0.006 C 
ENDBRANCH   6   9
ENDBRANCH   1   6
TORSDOF 5
