REMARK  1 active torsions:
REMARK  status: ('A' for Active; 'I' for Inactive)
REMARK    1  A    between atoms: C5_5  and  O10_10 
ROOT
HETATM    1  C1  UNL     1     -32.197   8.707   3.076  1.00 20.00     0.007 C 
HETATM    2  C2  UNL     1     -32.903   8.445   1.963  1.00 20.00    -0.084 C 
HETATM    3  C3  UNL     1     -33.976   7.381   1.925  1.00 20.00     0.042 C 
HETATM    4  C4  UNL     1     -33.688   7.152   4.416  1.00 20.00     0.045 C 
HETATM    5  C5  UNL     1     -32.406   7.993   4.380  1.00 20.00     0.142 C 
HETATM    6  C6  UNL     1     -33.931   6.376   3.105  1.00 20.00    -0.042 C 
HETATM    7  C7  UNL     1     -32.680   9.203   0.688  1.00 20.00     0.043 C 
HETATM    8  C8  UNL     1     -32.824   5.327   2.877  1.00 20.00     0.015 C 
HETATM    9  C9  UNL     1     -35.278   5.636   3.193  1.00 20.00     0.015 C 
ENDROOT
BRANCH   5  10
HETATM   10  O10 UNL     1     -32.447   8.943   5.443  1.00 20.00    -0.392 OA
HETATM   11  H26 UNL     1     -32.583   8.437   6.259  1.00 20.00     0.210 HD
ENDBRANCH   5  10
TORSDOF 1
