REMARK  1 active torsions:
REMARK  status: ('A' for Active; 'I' for Inactive)
REMARK    1  A    between atoms: C2_2  and  C3_3 
ROOT
HETATM    1  C1  UNL     1     -34.199   4.265   5.160  1.00 20.00     0.023 C 
HETATM    2  C2  UNL     1     -34.130   5.604   5.147  1.00 20.00    -0.009 C 
HETATM    3  C4  UNL     1     -34.310   6.413   6.398  1.00 20.00     0.052 C 
ENDROOT
BRANCH   2   4
HETATM    4  C3  UNL     1     -33.870   6.375   3.877  1.00 20.00     0.247 C 
HETATM    5  O5  UNL     1     -33.822   7.604   3.950  1.00 20.00    -0.274 OA
HETATM    6 CL6  UNL     1     -33.648   5.520   2.361  1.00 20.00    -0.039 Cl
ENDBRANCH   2   4
TORSDOF 1
