REMARK  2 active torsions:
REMARK  status: ('A' for Active; 'I' for Inactive)
REMARK    1  A    between atoms: C1_1  and  C2_2 
REMARK    2  A    between atoms: C1_1  and  C3_3 
ROOT
HETATM    1  C1  UNL     1     -34.443   7.163   3.666  1.00 20.00     0.153 C 
ENDROOT
BRANCH   1   2
HETATM    2  C2  UNL     1     -34.615   6.277   4.900  1.00 20.00     0.186 C 
HETATM    3 CL7  UNL     1     -33.556   6.777   6.243  1.00 20.00    -0.108 Cl
HETATM    4 CL8  UNL     1     -34.251   4.580   4.482  1.00 20.00    -0.108 Cl
ENDBRANCH   1   2
BRANCH   1   5
HETATM    5  C3  UNL     1     -33.034   7.175   3.103  1.00 20.00     0.390 C 
HETATM    6  F4  UNL     1     -32.150   7.648   4.008  1.00 20.00    -0.171 F 
HETATM    7  F5  UNL     1     -32.626   5.948   2.721  1.00 20.00    -0.171 F 
HETATM    8  F6  UNL     1     -32.972   7.977   2.016  1.00 20.00    -0.171 F 
ENDBRANCH   1   5
TORSDOF 2
