REMARK  3 active torsions:
REMARK  status: ('A' for Active; 'I' for Inactive)
REMARK    1  A    between atoms: C1_1  and  C5_5 
REMARK    2  A    between atoms: C2_2  and  C6_6 
REMARK    3  A    between atoms: C6_6  and  C7_7 
ROOT
HETATM    1  C1  UNL     1     -33.709   5.503   3.616  1.00 20.00     0.150 A 
HETATM    2  C2  UNL     1     -32.644   6.272   2.874  1.00 20.00     0.151 A 
HETATM    3  O8  UNL     1     -33.825   5.794   2.217  1.00 20.00    -0.376 OA
ENDROOT
BRANCH   2   4
HETATM    4  C6  UNL     1     -32.515   7.786   2.934  1.00 20.00     0.034 C 
BRANCH   4   5
HETATM    5  C7  UNL     1     -32.238   8.378   1.554  1.00 20.00    -0.002 C 
HETATM    6  C4  UNL     1     -32.137   9.894   1.609  1.00 20.00     0.005 C 
ENDBRANCH   4   5
ENDBRANCH   2   4
BRANCH   1   7
HETATM    7  C5  UNL     1     -34.733   6.153   4.476  1.00 20.00     0.030 C 
HETATM    8  C3  UNL     1     -34.236   6.449   5.869  1.00 20.00     0.007 C 
ENDBRANCH   1   7
TORSDOF 3
