REMARK  0 active torsions:
REMARK  status: ('A' for Active; 'I' for Inactive)
ROOT
HETATM    1  C1  UNL     1     -32.682   7.810   2.391  1.00 20.00    -0.007 C 
HETATM    2  C2  UNL     1     -34.179   7.956   2.543  1.00 20.00     0.056 C 
HETATM    3  C3  UNL     1     -32.214   7.778   4.754  1.00 20.00     0.011 C 
HETATM    4  C4  UNL     1     -33.735   7.893   5.005  1.00 20.00     0.011 C 
HETATM    5  C5  UNL     1     -32.138   6.906   3.484  1.00 20.00     0.034 C 
HETATM    6  C6  UNL     1     -34.355   7.087   3.826  1.00 20.00    -0.032 C 
HETATM    7  C7  UNL     1     -33.328   5.924   3.636  1.00 20.00    -0.032 C 
HETATM    8  C8  UNL     1     -35.799   6.692   4.068  1.00 20.00     0.016 C 
HETATM    9  C9  UNL     1     -33.193   4.968   4.838  1.00 20.00     0.016 C 
HETATM   10  C10 UNL     1     -33.554   5.033   2.397  1.00 20.00     0.016 C 
HETATM   11  S11 UNL     1     -31.772   8.547   1.213  1.00 20.00    -0.089 SA
ENDROOT
TORSDOF 0
