REMARK  3 active torsions:
REMARK  status: ('A' for Active; 'I' for Inactive)
REMARK    1  A    between atoms: C3_3  and  C5_5 
REMARK    2  A    between atoms: C4_4  and  C6_6 
REMARK    3  A    between atoms: C5_5  and  C6_6 
ROOT
HETATM    1  C6  UNL     1     -33.766   6.961   3.418  1.00 20.00     0.082 C 
HETATM    2 CL7  UNL     1     -32.912   7.573   4.871  1.00 20.00    -0.125 Cl
ENDROOT
BRANCH   1   3
HETATM    3  C4  UNL     1     -33.998   5.447   3.532  1.00 20.00     0.016 C 
HETATM    4  C2  UNL     1     -34.778   5.041   4.777  1.00 20.00     0.006 C 
ENDBRANCH   1   3
BRANCH   1   5
HETATM    5  C5  UNL     1     -32.962   7.292   2.150  1.00 20.00     0.020 C 
BRANCH   5   6
HETATM    6  C3  UNL     1     -32.681   8.788   1.980  1.00 20.00    -0.003 C 
HETATM    7  C1  UNL     1     -31.814   9.052   0.757  1.00 20.00     0.005 C 
ENDBRANCH   5   6
ENDBRANCH   1   5
TORSDOF 3
