REMARK  0 active torsions:
REMARK  status: ('A' for Active; 'I' for Inactive)
ROOT
HETATM    1  C1  UNL     1     -34.569   5.387   5.890  1.00 20.00     0.000 C 
HETATM    2  C2  UNL     1     -34.062   4.226   5.040  1.00 20.00     0.000 C 
HETATM    3  C3  UNL     1     -33.842   6.716   5.686  1.00 20.00     0.004 C 
HETATM    4  C4  UNL     1     -34.026   4.482   3.534  1.00 20.00     0.004 C 
HETATM    5  C5  UNL     1     -34.181   7.372   4.344  1.00 20.00     0.049 C 
HETATM    6  C6  UNL     1     -32.911   5.448   3.133  1.00 20.00     0.049 C 
HETATM    7  C7  UNL     1     -31.584   8.040   1.985  1.00 20.00     0.180 C 
HETATM    8  C8  UNL     1     -32.759   8.593   1.204  1.00 20.00     0.103 C 
HETATM    9  C9  UNL     1     -33.276   6.942   3.180  1.00 20.00     0.108 C 
HETATM   10  O10 UNL     1     -32.043   7.689   3.295  1.00 20.00    -0.369 OA
HETATM   11  S11 UNL     1     -34.082   7.444   1.607  1.00 20.00    -0.129 SA
ENDROOT
TORSDOF 0
