REMARK  3 active torsions:
REMARK  status: ('A' for Active; 'I' for Inactive)
REMARK    1  A    between atoms: C1_1  and  C5_5 
REMARK    2  A    between atoms: C1_1  and  O8_8 
REMARK    3  A    between atoms: C6_6  and  O8_8 
ROOT
HETATM    1  O8  UNL     1     -33.678   7.684   3.219  1.00 20.00    -0.310 OA
ENDROOT
BRANCH   1   2
HETATM    2  C1  UNL     1     -32.366   8.071   3.253  1.00 20.00     0.273 C 
HETATM    3  O7  UNL     1     -31.676   8.153   4.259  1.00 20.00    -0.264 OA
BRANCH   2   4
HETATM    4  C5  UNL     1     -31.921   8.375   1.848  1.00 20.00     0.225 C 
HETATM    5 CL9  UNL     1     -32.238  10.075   1.461  1.00 20.00    -0.120 Cl
ENDBRANCH   2   4
ENDBRANCH   1   2
BRANCH   1   6
HETATM    6  C6  UNL     1     -33.949   6.371   3.712  1.00 20.00     0.060 C 
HETATM    7  C2  UNL     1     -33.504   6.299   5.172  1.00 20.00     0.045 C 
HETATM    8  C3  UNL     1     -35.453   6.138   3.597  1.00 20.00     0.045 C 
HETATM    9  C4  UNL     1     -33.181   5.363   2.858  1.00 20.00     0.045 C 
ENDBRANCH   1   6
TORSDOF 3
