REMARK  1 active torsions:
REMARK  status: ('A' for Active; 'I' for Inactive)
REMARK    1  A    between atoms: C4_4  and  C7_7 
ROOT
HETATM    1  C1  UNL     1     -34.828   4.819   4.525  1.00 20.00     0.135 A 
HETATM    2  C2  UNL     1     -34.993   6.159   4.796  1.00 20.00     0.136 A 
HETATM    3  C3  UNL     1     -33.120   5.320   3.089  1.00 20.00     0.143 A 
HETATM    4  C4  UNL     1     -33.286   6.661   3.360  1.00 20.00     0.055 A 
HETATM    5  N8  UNL     1     -33.888   4.376   3.666  1.00 20.00    -0.270 NA
HETATM    6  N9  UNL     1     -34.225   7.104   4.219  1.00 20.00    -0.262 NA
ENDROOT
BRANCH   4   7
HETATM    7  C7  UNL     1     -32.403   7.697   2.690  1.00 20.00     0.031 C 
HETATM    8  C5  UNL     1     -31.569   8.472   3.713  1.00 20.00     0.016 C 
HETATM    9  C6  UNL     1     -33.218   8.652   1.815  1.00 20.00     0.016 C 
ENDBRANCH   4   7
TORSDOF 1
