REMARK  2 active torsions:
REMARK  status: ('A' for Active; 'I' for Inactive)
REMARK    1  A    between atoms: C1_1  and  C2_2 
REMARK    2  A    between atoms: C1_1  and  C3_3 
ROOT
HETATM    1  C1  UNL     1     -33.022   5.645   3.814  1.00 20.00     0.234 C 
ENDROOT
BRANCH   1   2
HETATM    2  C2  UNL     1     -32.892   7.148   3.920  1.00 20.00     0.396 C 
HETATM    3  F4  UNL     1     -33.931   7.776   3.330  1.00 20.00    -0.171 F 
HETATM    4  F5  UNL     1     -32.866   7.530   5.216  1.00 20.00    -0.171 F 
HETATM    5  F6  UNL     1     -31.755   7.588   3.341  1.00 20.00    -0.171 F 
ENDBRANCH   1   2
BRANCH   1   6
HETATM    6  C3  UNL     1     -34.261   5.120   4.505  1.00 20.00     0.396 C 
HETATM    7  F7  UNL     1     -34.317   3.772   4.414  1.00 20.00    -0.171 F 
HETATM    8  F8  UNL     1     -35.385   5.615   3.946  1.00 20.00    -0.171 F 
HETATM    9  F9  UNL     1     -34.270   5.441   5.816  1.00 20.00    -0.171 F 
ENDBRANCH   1   6
TORSDOF 2
