REMARK  2 active torsions:
REMARK  status: ('A' for Active; 'I' for Inactive)
REMARK    1  A    between atoms: C1_1  and  C2_2 
REMARK    2  A    between atoms: C1_1  and  C3_3 
ROOT
HETATM    1  C1  UNL     1     -33.637   6.839   2.855  1.00 20.00     0.148 C 
HETATM    2 CL4  UNL     1     -32.223   5.711   2.801  1.00 20.00    -0.119 Cl
ENDROOT
BRANCH   1   3
HETATM    3  C2  UNL     1     -33.148   8.281   2.602  1.00 20.00     0.199 C 
HETATM    4 CL5  UNL     1     -31.666   8.649   3.543  1.00 20.00    -0.106 Cl
HETATM    5 CL6  UNL     1     -32.769   8.567   0.877  1.00 20.00    -0.106 Cl
ENDBRANCH   1   3
BRANCH   1   6
HETATM    6  C3  UNL     1     -34.422   6.650   4.173  1.00 20.00     0.199 C 
HETATM    7 CL7  UNL     1     -33.475   7.086   5.621  1.00 20.00    -0.106 Cl
HETATM    8 CL8  UNL     1     -35.035   4.977   4.345  1.00 20.00    -0.106 Cl
ENDBRANCH   1   6
TORSDOF 2
