REMARK  0 active torsions:
REMARK  status: ('A' for Active; 'I' for Inactive)
ROOT
HETATM    1  C1  UNL     1     -35.041   5.557   4.412  1.00 20.00     0.050 C 
HETATM    2  C2  UNL     1     -34.012   6.043   5.418  1.00 20.00     0.171 C 
HETATM    3  C3  UNL     1     -34.376   5.855   3.084  1.00 20.00     0.128 C 
HETATM    4  C4  UNL     1     -33.693   7.178   3.414  1.00 20.00     0.235 C 
HETATM    5  O5  UNL     1     -33.253   7.082   4.777  1.00 20.00    -0.369 OA
HETATM    6 CL6  UNL     1     -33.228   4.539   2.687  1.00 20.00    -0.121 Cl
HETATM    7 CL7  UNL     1     -32.359   7.634   2.349  1.00 20.00    -0.094 Cl
ENDROOT
TORSDOF 0
