REMARK  0 active torsions:
REMARK  status: ('A' for Active; 'I' for Inactive)
ROOT
HETATM    1  C1  UNL     1     -32.688   7.278   3.259  1.00 20.00    -0.077 C 
HETATM    2  C2  UNL     1     -32.320   8.352   2.545  1.00 20.00    -0.077 C 
HETATM    3  C3  UNL     1     -32.404   5.870   2.805  1.00 20.00     0.034 C 
HETATM    4  C4  UNL     1     -33.436   7.391   4.561  1.00 20.00     0.034 C 
HETATM    5  C5  UNL     1     -32.605   9.760   2.999  1.00 20.00     0.034 C 
HETATM    6  C6  UNL     1     -31.614   8.238   1.219  1.00 20.00     0.034 C 
HETATM    7  C7  UNL     1     -33.688   5.039   2.779  1.00 20.00     0.004 C 
HETATM    8  C8  UNL     1     -34.715   6.553   4.526  1.00 20.00     0.004 C 
HETATM    9  C9  UNL     1     -33.342  10.542   1.910  1.00 20.00     0.004 C 
HETATM   10  C10 UNL     1     -32.356   9.027   0.140  1.00 20.00     0.004 C 
HETATM   11  C11 UNL     1     -34.437   5.107   4.111  1.00 20.00     0.001 C 
HETATM   12  C12 UNL     1     -32.612  10.474   0.568  1.00 20.00     0.001 C 
ENDROOT
TORSDOF 0
