REMARK  3 active torsions:
REMARK  status: ('A' for Active; 'I' for Inactive)
REMARK    1  A    between atoms: C5_5  and  C8_8 
REMARK    2  A    between atoms: C6_6  and  O10_10 
REMARK    3  A    between atoms: C8_8  and  C9_9 
ROOT
HETATM    1  C1  UNL     1     -33.495   5.868   2.543  1.00 20.00     0.007 C 
HETATM    2  C2  UNL     1     -32.917   7.689   4.200  1.00 20.00     0.007 C 
HETATM    3  C3  UNL     1     -34.051   5.015   3.679  1.00 20.00     0.032 C 
HETATM    4  C4  UNL     1     -33.474   6.831   5.331  1.00 20.00     0.032 C 
HETATM    5  C5  UNL     1     -32.404   6.828   3.037  1.00 20.00    -0.014 C 
HETATM    6  C6  UNL     1     -34.557   5.876   4.835  1.00 20.00     0.118 C 
ENDROOT
BRANCH   5   7
HETATM    7  C8  UNL     1     -31.902   7.709   1.894  1.00 20.00     0.004 C 
BRANCH   7   8
HETATM    8  C9  UNL     1     -33.039   8.517   1.280  1.00 20.00    -0.004 C 
HETATM    9  C7  UNL     1     -32.535   9.413   0.159  1.00 20.00     0.005 C 
ENDBRANCH   7   8
ENDBRANCH   5   7
BRANCH   6  10
HETATM   10  O10 UNL     1     -34.956   5.040   5.915  1.00 20.00    -0.396 OA
HETATM   11  H28 UNL     1     -35.663   4.468   5.577  1.00 20.00     0.210 HD
ENDBRANCH   6  10
TORSDOF 3
