REMARK  2 active torsions:
REMARK  status: ('A' for Active; 'I' for Inactive)
REMARK    1  A    between atoms: C6_6  and  C7_7 
REMARK    2  A    between atoms: C6_6  and  C8_8 
ROOT
HETATM    1  C1  UNL     1     -33.458   5.179   3.046  1.00 20.00     0.068 C 
HETATM    2  C4  UNL     1     -35.647   5.873   3.871  1.00 20.00     0.031 C 
HETATM    3  C5  UNL     1     -33.575   6.557   5.086  1.00 20.00     0.031 C 
HETATM    4  C8  UNL     1     -34.174   6.301   3.696  1.00 20.00     0.042 C 
HETATM    5  N9  UNL     1     -32.906   4.293   2.537  1.00 20.00    -0.196 NA
ENDROOT
BRANCH   4   6
HETATM    6  C6  UNL     1     -34.141   7.572   2.802  1.00 20.00     0.027 C 
BRANCH   6   7
HETATM    7  C7  UNL     1     -32.842   7.896   2.026  1.00 20.00    -0.021 C 
HETATM    8  C2  UNL     1     -31.692   8.085   3.025  1.00 20.00     0.009 C 
HETATM    9  C3  UNL     1     -32.943   9.136   1.140  1.00 20.00     0.009 C 
ENDBRANCH   6   7
ENDBRANCH   4   6
TORSDOF 2
