REMARK  3 active torsions:
REMARK  status: ('A' for Active; 'I' for Inactive)
REMARK    1  A    between atoms: C3_3  and  C4_4 
REMARK    2  A    between atoms: C3_3  and  N5_5 
REMARK    3  A    between atoms: C4_4  and  O6_6 
ROOT
HETATM    1  C1  UNL     1     -33.706   6.702   3.482  1.00 20.00     0.157 C 
HETATM    2  N5  UNL     1     -33.119   7.679   3.201  1.00 20.00    -0.273 NA
HETATM    3  S7  UNL     1     -34.501   5.384   3.892  1.00 20.00    -0.055 SA
ENDROOT
BRANCH   2   4
HETATM    4  C3  UNL     1     -32.866   7.855   1.768  1.00 20.00     0.176 C 
BRANCH   4   5
HETATM    5  C4  UNL     1     -32.131   9.165   1.550  1.00 20.00     0.189 C 
BRANCH   5   6
HETATM    6  O6  UNL     1     -31.889   9.342   0.160  1.00 20.00    -0.394 OA
HETATM    7  C2  UNL     1     -33.055   9.785  -0.520  1.00 20.00     0.201 C 
ENDBRANCH   5   6
ENDBRANCH   4   5
ENDBRANCH   2   4
TORSDOF 3
