REMARK  0 active torsions:
REMARK  status: ('A' for Active; 'I' for Inactive)
ROOT
HETATM    1  C1  UNL     1     -34.304   5.387   4.908  1.00 20.00     0.127 C 
HETATM    2  C2  UNL     1     -34.005   4.243   3.970  1.00 20.00     0.078 C 
HETATM    3  C3  UNL     1     -34.712   6.694   4.264  1.00 20.00     0.087 C 
HETATM    4  C4  UNL     1     -33.018   4.677   2.898  1.00 20.00     0.008 C 
HETATM    5  C5  UNL     1     -32.046   9.443   2.165  1.00 20.00     0.000 C 
HETATM    6  C6  UNL     1     -31.403   8.283   2.918  1.00 20.00     0.001 C 
HETATM    7  C7  UNL     1     -33.331   9.023   1.461  1.00 20.00     0.001 C 
HETATM    8  C8  UNL     1     -33.455   5.969   2.205  1.00 20.00     0.010 C 
HETATM    9  C9  UNL     1     -32.389   7.617   3.877  1.00 20.00     0.010 C 
HETATM   10  C10 UNL     1     -34.310   8.351   2.424  1.00 20.00     0.010 C 
HETATM   11  C11 UNL     1     -33.699   7.147   3.188  1.00 20.00    -0.034 C 
HETATM   12  O12 UNL     1     -34.307   5.239   6.129  1.00 20.00    -0.298 OA
ENDROOT
TORSDOF 0
