REMARK  1 active torsions:
REMARK  status: ('A' for Active; 'I' for Inactive)
REMARK    1  A    between atoms: C1_1  and  C7_7 
ROOT
HETATM    1  C2  UNL     1     -34.189   3.713   4.065  1.00 20.00     0.000 C 
HETATM    2  C3  UNL     1     -34.867   4.731   4.974  1.00 20.00     0.001 C 
HETATM    3  C4  UNL     1     -33.113   4.363   3.203  1.00 20.00     0.001 C 
HETATM    4  C5  UNL     1     -35.441   5.905   4.180  1.00 20.00     0.018 C 
HETATM    5  C6  UNL     1     -33.669   5.534   2.391  1.00 20.00     0.018 C 
HETATM    6  C7  UNL     1     -34.410   6.557   3.255  1.00 20.00     0.032 C 
HETATM    7  C8  UNL     1     -35.054   7.642   2.392  1.00 20.00     0.025 C 
ENDROOT
BRANCH   6   8
HETATM    8  C1  UNL     1     -33.403   7.348   4.089  1.00 20.00     0.227 C 
HETATM    9  O9  UNL     1     -33.479   7.402   5.312  1.00 20.00    -0.279 OA
HETATM   10 CL10 UNL     1     -32.198   8.118   3.101  1.00 20.00    -0.043 Cl
ENDBRANCH   6   8
TORSDOF 1
