REMARK  1 active torsions:
REMARK  status: ('A' for Active; 'I' for Inactive)
REMARK    1  A    between atoms: C6_6  and  C8_8 
ROOT
HETATM    1  C1  UNL     1     -34.109   4.656   4.963  1.00 20.00     0.000 C 
HETATM    2  C2  UNL     1     -33.701   4.078   3.612  1.00 20.00     0.002 C 
HETATM    3  C3  UNL     1     -34.634   6.082   4.834  1.00 20.00     0.002 C 
HETATM    4  C4  UNL     1     -32.697   4.981   2.892  1.00 20.00     0.026 C 
HETATM    5  C5  UNL     1     -33.633   6.990   4.118  1.00 20.00     0.026 C 
HETATM    6  C6  UNL     1     -33.176   6.439   2.754  1.00 20.00     0.037 C 
HETATM    7 CL9  UNL     1     -34.555   6.506   1.591  1.00 20.00    -0.119 Cl
ENDROOT
BRANCH   6   8
HETATM    8  C8  UNL     1     -32.053   7.311   2.182  1.00 20.00     0.021 C 
HETATM    9  C7  UNL     1     -32.485   8.731   2.036  1.00 20.00     0.007 C 
ENDBRANCH   6   8
TORSDOF 1
