REMARK  2 active torsions:
REMARK  status: ('A' for Active; 'I' for Inactive)
REMARK    1  A    between atoms: C5_5  and  C7_7 
REMARK    2  A    between atoms: C6_6  and  O8_8 
ROOT
HETATM    1  C1  UNL     1     -33.223   4.252   3.006  1.00 20.00     0.003 C 
HETATM    2  C2  UNL     1     -32.427   5.488   2.591  1.00 20.00     0.014 C 
HETATM    3  C3  UNL     1     -33.973   4.480   4.313  1.00 20.00     0.032 C 
HETATM    4  C4  UNL     1     -34.064   6.960   3.829  1.00 20.00     0.045 C 
HETATM    5  C5  UNL     1     -33.315   6.737   2.509  1.00 20.00     0.096 C 
HETATM    6  C6  UNL     1     -34.860   5.721   4.241  1.00 20.00     0.118 C 
ENDROOT
BRANCH   5   7
HETATM    7  C7  UNL     1     -32.486   7.966   2.145  1.00 20.00     0.391 C 
HETATM    8  F9  UNL     1     -33.280   9.043   2.043  1.00 20.00    -0.171 F 
HETATM    9  F10 UNL     1     -31.563   8.196   3.092  1.00 20.00    -0.171 F 
HETATM   10  F11 UNL     1     -31.865   7.771   0.972  1.00 20.00    -0.171 F 
ENDBRANCH   5   7
BRANCH   6  11
HETATM   11  O8  UNL     1     -35.471   5.945   5.507  1.00 20.00    -0.396 OA
HETATM   12  H22 UNL     1     -35.998   5.155   5.705  1.00 20.00     0.210 HD
ENDBRANCH   6  11
TORSDOF 2
