REMARK  0 active torsions:
REMARK  status: ('A' for Active; 'I' for Inactive)
ROOT
HETATM    1  C1  UNL     1     -33.452   7.222   4.851  1.00 20.00     0.132 C 
HETATM    2  C2  UNL     1     -32.488   6.128   2.551  1.00 20.00     0.064 C 
HETATM    3  C3  UNL     1     -32.278   7.619   2.778  1.00 20.00     0.128 C 
HETATM    4  C4  UNL     1     -33.792   5.589   3.152  1.00 20.00     0.051 C 
HETATM    5  C5  UNL     1     -33.670   7.802   6.212  1.00 20.00     0.099 C 
HETATM    6  C6  UNL     1     -33.029   8.540   1.828  1.00 20.00     0.040 C 
HETATM    7  C7  UNL     1     -33.674   4.061   3.301  1.00 20.00     0.040 C 
HETATM    8  C8  UNL     1     -35.026   5.887   2.292  1.00 20.00     0.040 C 
HETATM    9  N9  UNL     1     -34.025   6.130   4.491  1.00 20.00    -0.261 NA
HETATM   10  O10 UNL     1     -32.593   7.986   4.132  1.00 20.00    -0.333 OA
ENDROOT
TORSDOF 0
