REMARK  3 active torsions:
REMARK  status: ('A' for Active; 'I' for Inactive)
REMARK    1  A    between atoms: C3_3  and  C4_4 
REMARK    2  A    between atoms: C5_5  and  C8_8 
REMARK    3  A    between atoms: C6_6  and  C8_8 
ROOT
HETATM    1  C4  UNL     1     -32.945   7.804   1.938  1.00 20.00    -0.004 C 
HETATM    2  C6  UNL     1     -32.939   6.857   2.889  1.00 20.00    -0.019 C 
ENDROOT
BRANCH   2   3
HETATM    3  C8  UNL     1     -33.810   5.624   2.846  1.00 20.00     0.026 C 
HETATM    4  C7  UNL     1     -32.939   4.367   2.783  1.00 20.00     0.018 C 
BRANCH   3   5
HETATM    5  C5  UNL     1     -34.712   5.569   4.053  1.00 20.00    -0.029 C 
HETATM    6  C2  UNL     1     -34.270   5.537   5.316  1.00 20.00     0.007 C 
ENDBRANCH   3   5
ENDBRANCH   2   3
BRANCH   1   7
HETATM    7  C3  UNL     1     -32.107   8.979   1.989  1.00 20.00    -0.011 C 
HETATM    8  C1  UNL     1     -32.110   9.925   1.043  1.00 20.00     0.011 C 
ENDBRANCH   1   7
TORSDOF 3
