REMARK  3 active torsions:
REMARK  status: ('A' for Active; 'I' for Inactive)
REMARK    1  A    between atoms: C7_7  and  C8_8 
REMARK    2  A    between atoms: C7_7  and  C9_9 
REMARK    3  A    between atoms: C9_9  and  S10_10 
ROOT
HETATM    1  C7  UNL     1     -32.954   6.349   3.759  1.00 20.00     0.028 C 
ENDROOT
BRANCH   1   2
HETATM    2  C8  UNL     1     -34.253   5.491   3.897  1.00 20.00    -0.050 C 
HETATM    3  C1  UNL     1     -34.018   3.980   3.772  1.00 20.00     0.014 C 
HETATM    4  C2  UNL     1     -34.824   5.758   5.312  1.00 20.00     0.014 C 
HETATM    5  C3  UNL     1     -35.338   5.921   2.891  1.00 20.00     0.014 C 
ENDBRANCH   1   2
BRANCH   1   6
HETATM    6  C9  UNL     1     -32.955   7.838   3.304  1.00 20.00     0.001 C 
HETATM    7  C4  UNL     1     -31.515   8.379   3.433  1.00 20.00     0.026 C 
HETATM    8  C5  UNL     1     -33.885   8.749   4.106  1.00 20.00     0.026 C 
BRANCH   6   9
HETATM    9  S10 UNL     1     -33.392   8.001   1.522  1.00 20.00    -0.164 SA
HETATM   10  C6  UNL     1     -33.199   9.790   1.395  1.00 20.00     0.090 C 
ENDBRANCH   6   9
ENDBRANCH   1   6
TORSDOF 3
