REMARK  0 active torsions:
REMARK  status: ('A' for Active; 'I' for Inactive)
ROOT
HETATM    1  C1  UNL     1     -33.335   5.951   4.987  1.00 20.00     0.288 C 
HETATM    2  C2  UNL     1     -32.875   6.706   3.719  1.00 20.00     0.288 C 
HETATM    3  C3  UNL     1     -34.421   5.280   4.114  1.00 20.00     0.343 C 
HETATM    4  C4  UNL     1     -33.523   5.574   2.887  1.00 20.00     0.343 C 
HETATM    5  F5  UNL     1     -33.788   6.722   6.000  1.00 20.00    -0.240 F 
HETATM    6  F6  UNL     1     -33.422   7.933   3.548  1.00 20.00    -0.240 F 
HETATM    7  F7  UNL     1     -35.623   5.901   4.110  1.00 20.00    -0.196 F 
HETATM    8  F8  UNL     1     -34.655   3.974   4.369  1.00 20.00    -0.196 F 
HETATM    9  F9  UNL     1     -34.171   5.966   1.768  1.00 20.00    -0.196 F 
HETATM   10  F10 UNL     1     -32.690   4.571   2.528  1.00 20.00    -0.196 F 
ENDROOT
TORSDOF 0
