REMARK  1 active torsions:
REMARK  status: ('A' for Active; 'I' for Inactive)
REMARK    1  A    between atoms: C3_3  and  C5_5 
ROOT
HETATM    1  C1  UNL     1     -33.710   4.853   2.972  1.00 20.00     0.065 A 
HETATM    2  C2  UNL     1     -34.159   4.869   5.390  1.00 20.00     0.069 A 
HETATM    3  C3  UNL     1     -33.582   6.113   3.513  1.00 20.00     0.026 A 
HETATM    4  C4  UNL     1     -33.841   6.123   4.914  1.00 20.00     0.031 A 
HETATM    5  S7  UNL     1     -34.143   3.688   4.150  1.00 20.00    -0.111 SA
HETATM    6 BR8  UNL     1     -33.758   7.676   5.981  1.00 20.00    -0.050 Br
ENDROOT
BRANCH   3   7
HETATM    7  C5  UNL     1     -33.222   7.248   2.700  1.00 20.00     0.271 C 
HETATM    8  O6  UNL     1     -32.163   7.325   2.058  1.00 20.00    -0.301 OA
ENDBRANCH   3   7
TORSDOF 1
