REMARK  2 active torsions:
REMARK  status: ('A' for Active; 'I' for Inactive)
REMARK    1  A    between atoms: C1_1  and  C5_5 
REMARK    2  A    between atoms: C4_4  and  C5_5 
ROOT
HETATM    1  C1  UNL     1     -33.882   6.511   4.263  1.00 20.00     0.164 C 
HETATM    2  C2  UNL     1     -34.203   5.273   4.651  1.00 20.00     0.301 C 
HETATM    3  F7  UNL     1     -34.097   7.521   5.138  1.00 20.00    -0.205 F 
HETATM    4  F8  UNL     1     -34.715   5.070   5.883  1.00 20.00    -0.170 F 
HETATM    5  F9  UNL     1     -34.017   4.222   3.825  1.00 20.00    -0.170 F 
ENDROOT
BRANCH   1   6
HETATM    6  C5  UNL     1     -33.314   6.858   2.919  1.00 20.00     0.110 C 
BRANCH   6   7
HETATM    7  C4  UNL     1     -33.100   8.326   2.700  1.00 20.00     0.151 A 
HETATM    8  C3  UNL     1     -31.965   8.829   1.852  1.00 20.00     0.200 A 
HETATM    9  O6  UNL     1     -31.902   8.846   3.287  1.00 20.00    -0.381 OA
ENDBRANCH   6   7
ENDBRANCH   1   6
TORSDOF 2
