REMARK  1 active torsions:
REMARK  status: ('A' for Active; 'I' for Inactive)
REMARK    1  A    between atoms: C2_2  and  C7_7 
ROOT
HETATM    1  C1  UNL     1     -32.579   7.640   3.384  1.00 20.00    -0.110 C 
HETATM    2  C2  UNL     1     -33.271   6.724   3.738  1.00 20.00    -0.098 C 
HETATM    3  C3  UNL     1     -31.738   8.756   2.954  1.00 20.00     0.112 C 
ENDROOT
BRANCH   2   4
HETATM    4  C7  UNL     1     -34.122   5.595   4.175  1.00 20.00     0.013 C 
HETATM    5  C4  UNL     1     -34.206   5.582   5.708  1.00 20.00     0.028 C 
HETATM    6  C5  UNL     1     -33.512   4.275   3.682  1.00 20.00     0.028 C 
HETATM    7  C6  UNL     1     -35.530   5.760   3.586  1.00 20.00     0.028 C 
ENDBRANCH   2   4
TORSDOF 1
