REMARK  3 active torsions:
REMARK  status: ('A' for Active; 'I' for Inactive)
REMARK    1  A    between atoms: C2_2  and  O5_5 
REMARK    2  A    between atoms: C3_3  and  C4_4 
REMARK    3  A    between atoms: C3_3  and  O5_5 
ROOT
HETATM    1  C3  UNL     1     -33.164   7.454   3.415  1.00 20.00     0.454 C 
HETATM    2  F6  UNL     1     -32.032   7.680   4.124  1.00 20.00    -0.166 F 
HETATM    3  F7  UNL     1     -34.107   8.325   3.848  1.00 20.00    -0.166 F 
ENDROOT
BRANCH   1   4
HETATM    4  C4  UNL     1     -33.632   6.044   3.639  1.00 20.00     0.484 C 
HETATM    5  F8  UNL     1     -32.700   5.158   3.229  1.00 20.00    -0.163 F 
HETATM    6  F9  UNL     1     -33.876   5.813   4.946  1.00 20.00    -0.163 F 
HETATM    7  F10 UNL     1     -34.769   5.794   2.955  1.00 20.00    -0.163 F 
ENDBRANCH   1   4
BRANCH   1   8
HETATM    8  O5  UNL     1     -32.910   7.681   2.035  1.00 20.00    -0.319 OA
BRANCH   8   9
HETATM    9  C2  UNL     1     -32.464   9.004   1.773  1.00 20.00     0.170 C 
HETATM   10  C1  UNL     1     -32.219   9.156   0.287  1.00 20.00     0.033 C 
ENDBRANCH   8   9
ENDBRANCH   1   8
TORSDOF 3
