REMARK  2 active torsions:
REMARK  status: ('A' for Active; 'I' for Inactive)
REMARK    1  A    between atoms: C1_1  and  C2_2 
REMARK    2  A    between atoms: C1_1  and  C3_3 
ROOT
HETATM    1  C1  UNL     1     -33.217   6.842   4.169  1.00 20.00     0.245 C 
HETATM    2  O4  UNL     1     -33.566   7.745   4.928  1.00 20.00    -0.287 OA
ENDROOT
BRANCH   1   3
HETATM    3  C2  UNL     1     -31.968   6.898   3.321  1.00 20.00     0.202 C 
HETATM    4 CL8  UNL     1     -32.311   7.635   1.749  1.00 20.00    -0.122 Cl
ENDBRANCH   1   3
BRANCH   1   5
HETATM    5  C3  UNL     1     -34.041   5.592   4.037  1.00 20.00     0.452 C 
HETATM    6  F5  UNL     1     -33.494   4.719   3.155  1.00 20.00    -0.163 F 
HETATM    7  F6  UNL     1     -35.298   5.861   3.602  1.00 20.00    -0.163 F 
HETATM    8  F7  UNL     1     -34.166   4.933   5.217  1.00 20.00    -0.163 F 
ENDBRANCH   1   5
TORSDOF 2
