REMARK  4 active torsions:
REMARK  status: ('A' for Active; 'I' for Inactive)
REMARK    1  A    between atoms: C1_1  and  C4_4 
REMARK    2  A    between atoms: C2_2  and  C8_8 
REMARK    3  A    between atoms: C8_8  and  C9_9 
REMARK    4  A    between atoms: C8_8  and  O10_10 
ROOT
HETATM    1  C8  UNL     1     -33.258   5.819   3.455  1.00 20.00     0.200 C 
ENDROOT
BRANCH   1   2
HETATM    2  C2  UNL     1     -33.025   6.998   2.609  1.00 20.00    -0.069 C 
HETATM    3  C1  UNL     1     -32.833   7.963   1.919  1.00 20.00    -0.070 C 
BRANCH   3   4
HETATM    4  C4  UNL     1     -32.608   9.109   1.101  1.00 20.00    -0.018 C 
HETATM    5  C3  UNL     1     -33.399  10.183   1.244  1.00 20.00     0.028 C 
HETATM    6  C5  UNL     1     -31.489   9.079   0.102  1.00 20.00     0.057 C 
ENDBRANCH   3   4
ENDBRANCH   1   2
BRANCH   1   7
HETATM    7  C9  UNL     1     -34.426   6.001   4.449  1.00 20.00     0.018 C 
HETATM    8  C6  UNL     1     -34.249   7.214   5.370  1.00 20.00     0.013 C 
HETATM    9  C7  UNL     1     -34.681   4.738   5.274  1.00 20.00     0.013 C 
ENDBRANCH   1   7
BRANCH   1  10
HETATM   10  O10 UNL     1     -33.512   4.695   2.614  1.00 20.00    -0.383 OA
HETATM   11  H24 UNL     1     -32.723   4.581   2.062  1.00 20.00     0.211 HD
ENDBRANCH   1  10
TORSDOF 4
