REMARK  2 active torsions:
REMARK  status: ('A' for Active; 'I' for Inactive)
REMARK    1  A    between atoms: C2_2  and  C3_3 
REMARK    2  A    between atoms: C2_2  and  N4_4 
ROOT
HETATM    1  C1  UNL     1     -35.558   4.738   4.547  1.00 20.00     0.157 C 
HETATM    2  N4  UNL     1     -34.517   5.110   4.150  1.00 20.00    -0.274 NA
HETATM    3  S5  UNL     1     -36.958   4.209   5.093  1.00 20.00    -0.055 SA
ENDROOT
BRANCH   2   4
HETATM    4  C2  UNL     1     -34.530   6.440   3.538  1.00 20.00     0.165 C 
BRANCH   4   5
HETATM    5  C3  UNL     1     -33.132   6.807   3.071  1.00 20.00     0.136 C 
HETATM    6 CL6  UNL     1     -33.104   8.422   2.322  1.00 20.00    -0.129 Cl
ENDBRANCH   4   5
ENDBRANCH   2   4
TORSDOF 2
