REMARK  4 active torsions:
REMARK  status: ('A' for Active; 'I' for Inactive)
REMARK    1  A    between atoms: C1_1  and  C5_5 
REMARK    2  A    between atoms: C1_1  and  C8_8 
REMARK    3  A    between atoms: C6_6  and  C8_8 
REMARK    4  A    between atoms: C7_7  and  C8_8 
ROOT
HETATM    1  C8  UNL     1     -33.744   7.485   3.574  1.00 20.00     0.054 C 
ENDROOT
BRANCH   1   2
HETATM    2  C1  UNL     1     -32.621   8.095   2.729  1.00 20.00     0.130 C 
HETATM    3  O9  UNL     1     -31.436   7.840   2.943  1.00 20.00    -0.298 OA
BRANCH   2   4
HETATM    4  C5  UNL     1     -33.056   9.014   1.597  1.00 20.00     0.074 C 
HETATM    5  C2  UNL     1     -31.881   9.554   0.799  1.00 20.00     0.013 C 
ENDBRANCH   2   4
ENDBRANCH   1   2
BRANCH   1   6
HETATM    6  C6  UNL     1     -33.315   7.283   5.037  1.00 20.00     0.007 C 
HETATM    7  C3  UNL     1     -34.447   6.743   5.905  1.00 20.00     0.006 C 
ENDBRANCH   1   6
BRANCH   1   8
HETATM    8  C7  UNL     1     -34.253   6.188   2.922  1.00 20.00     0.007 C 
HETATM    9  C4  UNL     1     -33.229   5.063   2.841  1.00 20.00     0.006 C 
ENDBRANCH   1   8
TORSDOF 4
