REMARK  3 active torsions:
REMARK  status: ('A' for Active; 'I' for Inactive)
REMARK    1  A    between atoms: C2_2  and  C3_3 
REMARK    2  A    between atoms: C2_2  and  C4_4 
REMARK    3  A    between atoms: C3_3  and  O5_5 
ROOT
HETATM    1  C2  UNL     1     -32.701   6.439   3.623  1.00 20.00     0.379 C 
HETATM    2  F6  UNL     1     -32.489   5.658   2.526  1.00 20.00    -0.231 F 
ENDROOT
BRANCH   1   3
HETATM    3  C3  UNL     1     -32.658   7.888   3.179  1.00 20.00     0.393 C 
HETATM    4  F7  UNL     1     -31.623   8.514   3.793  1.00 20.00    -0.172 F 
HETATM    5  F8  UNL     1     -33.798   8.524   3.543  1.00 20.00    -0.172 F 
BRANCH   3   6
HETATM    6  O5  UNL     1     -32.488   7.992   1.771  1.00 20.00    -0.329 OA
HETATM    7  C1  UNL     1     -32.444   9.339   1.324  1.00 20.00     0.208 C 
ENDBRANCH   3   6
ENDBRANCH   1   3
BRANCH   1   8
HETATM    8  C4  UNL     1     -34.019   6.023   4.238  1.00 20.00     0.426 C 
HETATM    9  F9  UNL     1     -34.247   6.714   5.377  1.00 20.00    -0.168 F 
HETATM   10  F10 UNL     1     -34.028   4.711   4.552  1.00 20.00    -0.168 F 
HETATM   11  F11 UNL     1     -35.051   6.258   3.400  1.00 20.00    -0.168 F 
ENDBRANCH   1   8
TORSDOF 3
