REMARK  0 active torsions:
REMARK  status: ('A' for Active; 'I' for Inactive)
ROOT
HETATM    1  C1  UNL     1     -34.868   4.405   4.571  1.00 20.00     0.134 C 
HETATM    2  C2  UNL     1     -34.658   6.719   3.940  1.00 20.00     0.134 C 
HETATM    3  C3  UNL     1     -34.203   4.738   5.905  1.00 20.00     0.183 C 
HETATM    4  C4  UNL     1     -33.998   6.999   5.288  1.00 20.00     0.183 C 
HETATM    5  N5  UNL     1     -34.472   5.331   3.504  1.00 20.00    -0.224 NA
HETATM    6  O6  UNL     1     -34.481   6.088   6.275  1.00 20.00    -0.389 OA
HETATM    7 CL7  UNL     1     -32.851   5.013   2.878  1.00 20.00    -0.022 Cl
ENDROOT
TORSDOF 0
