REMARK  0 active torsions:
REMARK  status: ('A' for Active; 'I' for Inactive)
REMARK       I    between atoms: C2_2  and  N4_4 
ROOT
HETATM    1  C1  UNL     1     -35.409   4.780   5.107  1.00 20.00     0.166 C 
HETATM    2  C2  UNL     1     -33.973   6.332   4.540  1.00 20.00     0.240 C 
HETATM    3  C3  UNL     1     -33.812   7.331   5.641  1.00 20.00     0.119 C 
HETATM    4  N4  UNL     1     -34.276   5.063   4.984  1.00 20.00    -0.200 NA
HETATM    5  O5  UNL     1     -33.828   6.704   3.380  1.00 20.00    -0.272 OA
HETATM    6  S6  UNL     1     -36.935   4.361   5.285  1.00 20.00    -0.055 SA
ENDROOT
TORSDOF 0
