REMARK  0 active torsions:
REMARK  status: ('A' for Active; 'I' for Inactive)
ROOT
HETATM    1  C1  UNL     1     -32.252   9.070   1.790  1.00 20.00     0.014 C 
HETATM    2  C2  UNL     1     -32.702   8.200   2.484  1.00 20.00    -0.091 C 
HETATM    3  C3  UNL     1     -34.729   5.680   5.315  1.00 20.00     0.000 C 
HETATM    4  C4  UNL     1     -35.416   5.904   3.968  1.00 20.00     0.003 C 
HETATM    5  C5  UNL     1     -34.001   6.923   5.801  1.00 20.00     0.003 C 
HETATM    6  C6  UNL     1     -34.766   6.999   3.115  1.00 20.00     0.039 C 
HETATM    7  C7  UNL     1     -32.927   7.406   4.819  1.00 20.00     0.039 C 
HETATM    8  C8  UNL     1     -33.254   7.133   3.336  1.00 20.00     0.099 C 
HETATM    9 CL9  UNL     1     -32.435   5.619   2.796  1.00 20.00    -0.105 Cl
ENDROOT
TORSDOF 0
