REMARK  2 active torsions:
REMARK  status: ('A' for Active; 'I' for Inactive)
REMARK    1  A    between atoms: C3_3  and  C7_7 
REMARK    2  A    between atoms: C7_7  and  C8_8 
ROOT
HETATM    1  C1  UNL     1     -33.661   6.857   4.776  1.00 20.00     0.263 C 
HETATM    2  C2  UNL     1     -35.167   5.632   3.425  1.00 20.00     0.046 C 
HETATM    3  C3  UNL     1     -34.081   6.687   3.342  1.00 20.00     0.088 C 
HETATM    4  C4  UNL     1     -34.951   4.949   4.760  1.00 20.00     0.128 C 
HETATM    5  C5  UNL     1     -34.169   3.648   4.671  1.00 20.00     0.040 C 
HETATM    6  O9  UNL     1     -32.914   7.730   5.193  1.00 20.00    -0.265 OA
HETATM    7  O10 UNL     1     -34.220   5.889   5.558  1.00 20.00    -0.316 OA
ENDROOT
BRANCH   3   8
HETATM    8  C7  UNL     1     -32.903   6.286   2.471  1.00 20.00     0.014 C 
BRANCH   8   9
HETATM    9  C8  UNL     1     -32.060   7.497   2.071  1.00 20.00    -0.004 C 
HETATM   10  C6  UNL     1     -32.867   8.499   1.263  1.00 20.00     0.005 C 
ENDBRANCH   8   9
ENDBRANCH   3   8
TORSDOF 2
