REMARK  0 active torsions:
REMARK  status: ('A' for Active; 'I' for Inactive)
ROOT
HETATM    1  C1  UNL     1     -34.202   5.233   5.189  1.00 20.00     0.072 C 
HETATM    2  C2  UNL     1     -34.295   6.532   5.974  1.00 20.00     0.173 C 
HETATM    3  C3  UNL     1     -32.950   6.878   4.105  1.00 20.00     0.255 C 
HETATM    4  C4  UNL     1     -33.897   5.722   3.784  1.00 20.00     0.154 C 
HETATM    5  O5  UNL     1     -33.453   7.488   5.306  1.00 20.00    -0.367 OA
HETATM    6 CL6  UNL     1     -32.750   8.083   2.824  1.00 20.00    -0.092 Cl
HETATM    7 CL7  UNL     1     -33.127   4.469   2.794  1.00 20.00    -0.098 Cl
HETATM    8 CL8  UNL     1     -35.418   6.254   2.996  1.00 20.00    -0.098 Cl
ENDROOT
TORSDOF 0
