REMARK  0 active torsions:
REMARK  status: ('A' for Active; 'I' for Inactive)
ROOT
HETATM    1  C1  UNL     1     -34.765   5.361   4.674  1.00 20.00     0.000 C 
HETATM    2  C2  UNL     1     -34.456   5.322   3.177  1.00 20.00     0.001 C 
HETATM    3  C3  UNL     1     -34.476   6.739   5.269  1.00 20.00     0.001 C 
HETATM    4  C4  UNL     1     -33.021   5.760   2.890  1.00 20.00     0.009 C 
HETATM    5  C5  UNL     1     -33.040   7.181   4.986  1.00 20.00     0.009 C 
HETATM    6  C6  UNL     1     -32.977   8.349   2.666  1.00 20.00     0.010 A 
HETATM    7  C7  UNL     1     -31.576   7.910   2.977  1.00 20.00     0.010 A 
HETATM    8  C8  UNL     1     -32.746   7.113   3.506  1.00 20.00    -0.040 A 
ENDROOT
TORSDOF 0
