REMARK  4 active torsions:
REMARK  status: ('A' for Active; 'I' for Inactive)
REMARK    1  A    between atoms: C1_1  and  C6_6 
REMARK    2  A    between atoms: C6_6  and  C8_8 
REMARK    3  A    between atoms: C7_7  and  C8_8 
REMARK    4  A    between atoms: C7_7  and  C9_9 
ROOT
HETATM    1  C2  UNL     1     -31.521   8.515   3.899  1.00 20.00     0.010 C 
HETATM    2  C8  UNL     1     -32.054   7.597   2.790  1.00 20.00    -0.010 C 
ENDROOT
BRANCH   2   3
HETATM    3  C6  UNL     1     -31.669   8.217   1.430  1.00 20.00     0.100 C 
BRANCH   3   4
HETATM    4  C1  UNL     1     -32.634   9.294   0.960  1.00 20.00     0.219 C 
HETATM    5  O10 UNL     1     -32.868  10.309   1.608  1.00 20.00    -0.280 OA
HETATM    6 CL11 UNL     1     -33.381   8.873  -0.557  1.00 20.00    -0.044 Cl
ENDBRANCH   3   4
ENDBRANCH   2   3
BRANCH   2   7
HETATM    7  C7  UNL     1     -33.591   7.424   2.897  1.00 20.00     0.013 C 
BRANCH   7   8
HETATM    8  C9  UNL     1     -34.120   6.338   3.879  1.00 20.00    -0.051 C 
HETATM    9  C3  UNL     1     -35.656   6.281   3.742  1.00 20.00     0.014 C 
HETATM   10  C4  UNL     1     -33.779   6.650   5.342  1.00 20.00     0.014 C 
HETATM   11  C5  UNL     1     -33.558   4.952   3.516  1.00 20.00     0.014 C 
ENDBRANCH   7   8
ENDBRANCH   2   7
TORSDOF 4
