REMARK  3 active torsions:
REMARK  status: ('A' for Active; 'I' for Inactive)
REMARK    1  A    between atoms: C3_3  and  C4_4 
REMARK    2  A    between atoms: C4_4  and  O10_10 
REMARK    3  A    between atoms: C7_7  and  O10_10 
ROOT
HETATM    1  C1  UNL     1     -33.533   6.900   5.039  1.00 20.00     0.105 C 
HETATM    2  C2  UNL     1     -33.601   5.538   3.069  1.00 20.00     0.042 C 
HETATM    3  C3  UNL     1     -33.188   6.658   3.678  1.00 20.00     0.110 C 
HETATM    4  N8  UNL     1     -33.814   7.100   6.147  1.00 20.00    -0.191 NA
ENDROOT
BRANCH   3   5
HETATM    5  C4  UNL     1     -32.371   7.619   2.885  1.00 20.00     0.303 C 
HETATM    6  O9  UNL     1     -31.234   7.964   3.173  1.00 20.00    -0.258 OA
BRANCH   5   7
HETATM    7  O10 UNL     1     -33.086   8.041   1.806  1.00 20.00    -0.312 OA
BRANCH   7   8
HETATM    8  C7  UNL     1     -32.788   9.364   1.345  1.00 20.00     0.124 C 
HETATM    9  C5  UNL     1     -32.270   9.292  -0.083  1.00 20.00     0.040 C 
HETATM   10  C6  UNL     1     -34.039  10.224   1.451  1.00 20.00     0.040 C 
ENDBRANCH   7   8
ENDBRANCH   5   7
ENDBRANCH   3   5
TORSDOF 3
