REMARK  1 active torsions:
REMARK  status: ('A' for Active; 'I' for Inactive)
REMARK    1  A    between atoms: C1_1  and  C6_6 
ROOT
HETATM    1  C2  UNL     1     -33.261   7.042   5.397  1.00 20.00     0.022 C 
HETATM    2  C3  UNL     1     -33.629   5.772   3.220  1.00 20.00     0.022 C 
HETATM    3  C4  UNL     1     -34.152   6.113   6.212  1.00 20.00     0.074 C 
HETATM    4  C5  UNL     1     -34.550   4.738   3.857  1.00 20.00     0.074 C 
HETATM    5  C6  UNL     1     -33.676   7.128   3.927  1.00 20.00     0.048 C 
HETATM    6  S8  UNL     1     -34.104   4.410   5.586  1.00 20.00    -0.169 SA
ENDROOT
BRANCH   5   7
HETATM    7  C1  UNL     1     -32.766   8.078   3.208  1.00 20.00     0.235 C 
HETATM    8  O7  UNL     1     -32.505   7.990   2.013  1.00 20.00    -0.306 OA
ENDBRANCH   5   7
TORSDOF 1
