REMARK  1 active torsions:
REMARK  status: ('A' for Active; 'I' for Inactive)
REMARK    1  A    between atoms: C1_1  and  C4_4 
ROOT
HETATM    1  C3  UNL     1     -34.229   6.069   5.141  1.00 20.00    -0.024 C 
HETATM    2  C4  UNL     1     -33.739   6.196   3.890  1.00 20.00    -0.066 C 
HETATM    3  C6  UNL     1     -34.757   4.845   5.819  1.00 20.00     0.036 C 
HETATM    4  C7  UNL     1     -33.639   5.061   2.905  1.00 20.00     0.048 C 
ENDROOT
BRANCH   2   5
HETATM    5  C1  UNL     1     -33.274   7.514   3.452  1.00 20.00     0.002 C 
HETATM    6  C2  UNL     1     -32.760   7.829   2.252  1.00 20.00    -0.030 C 
HETATM    7  C5  UNL     1     -32.306   9.205   1.884  1.00 20.00     0.036 C 
ENDBRANCH   2   5
TORSDOF 1
