REMARK  6 active torsions:
REMARK  status: ('A' for Active; 'I' for Inactive)
REMARK    1  A    between atoms: C2_2  and  C3_3 
REMARK    2  A    between atoms: C3_3  and  C4_4 
REMARK    3  A    between atoms: C4_4  and  C5_5 
REMARK    4  A    between atoms: C5_5  and  C6_6 
REMARK    5  A    between atoms: C6_6  and  C7_7 
REMARK    6  A    between atoms: C7_7  and  C8_8 
ROOT
HETATM    1  C4  UNL     1     -31.764   7.876   2.001  1.00 20.00     0.005 C 
ENDROOT
BRANCH   1   2
HETATM    2  C3  UNL     1     -31.560   8.720   0.736  1.00 20.00     0.050 C 
BRANCH   2   3
HETATM    3  C2  UNL     1     -32.603   9.781   0.521  1.00 20.00     0.002 C 
HETATM    4  C1  UNL     1     -33.424   9.823  -0.536  1.00 20.00     0.032 C 
HETATM    5 CL9  UNL     1     -32.672  11.034   1.714  1.00 20.00    -0.090 Cl
ENDBRANCH   2   3
ENDBRANCH   1   2
BRANCH   1   6
HETATM    6  C5  UNL     1     -33.061   7.061   1.980  1.00 20.00     0.000 C 
BRANCH   6   7
HETATM    7  C6  UNL     1     -33.205   6.217   3.248  1.00 20.00     0.001 C 
BRANCH   7   8
HETATM    8  C7  UNL     1     -34.515   5.427   3.245  1.00 20.00     0.015 C 
BRANCH   8   9
HETATM    9  C8  UNL     1     -34.637   4.563   4.494  1.00 20.00     0.114 C 
HETATM   10 CL10 UNL     1     -34.587   5.575   5.956  1.00 20.00    -0.130 Cl
ENDBRANCH   8   9
ENDBRANCH   7   8
ENDBRANCH   6   7
ENDBRANCH   1   6
TORSDOF 6
