REMARK  1 active torsions:
REMARK  status: ('A' for Active; 'I' for Inactive)
REMARK    1  A    between atoms: C1_1  and  C5_5 
ROOT
HETATM    1  C2  UNL     1     -33.668   4.396   3.588  1.00 20.00     0.006 C 
HETATM    2  C3  UNL     1     -34.523   4.654   4.838  1.00 20.00     0.006 C 
HETATM    3  C4  UNL     1     -35.409   5.921   3.061  1.00 20.00     0.011 C 
HETATM    4  C5  UNL     1     -33.203   6.846   3.335  1.00 20.00     0.067 C 
HETATM    5  C6  UNL     1     -33.946   5.636   2.719  1.00 20.00    -0.002 C 
HETATM    6  C7  UNL     1     -35.129   6.045   4.564  1.00 20.00    -0.006 C 
HETATM    7  C8  UNL     1     -34.049   7.178   4.605  1.00 20.00    -0.033 C 
HETATM    8  C10 UNL     1     -34.738   8.558   4.568  1.00 20.00     0.016 C 
HETATM    9  C11 UNL     1     -33.176   7.145   5.870  1.00 20.00     0.016 C 
ENDROOT
BRANCH   4  10
HETATM   10  C1  UNL     1     -33.088   7.961   2.338  1.00 20.00     0.128 C 
HETATM   11  C9  UNL     1     -31.883   8.854   2.458  1.00 20.00     0.091 C 
HETATM   12  O12 UNL     1     -33.937   8.136   1.465  1.00 20.00    -0.298 OA
ENDBRANCH   4  10
TORSDOF 1
