REMARK  2 active torsions:
REMARK  status: ('A' for Active; 'I' for Inactive)
REMARK    1  A    between atoms: C1_1  and  C4_4 
REMARK    2  A    between atoms: C3_3  and  C4_4 
ROOT
HETATM    1  C4  UNL     1     -33.281   7.862   3.225  1.00 20.00     0.359 C 
HETATM    2  F10 UNL     1     -32.122   7.947   3.934  1.00 20.00    -0.192 F 
HETATM    3  F11 UNL     1     -34.095   8.835   3.718  1.00 20.00    -0.192 F 
ENDROOT
BRANCH   1   4
HETATM    4  C1  UNL     1     -33.873   6.496   3.383  1.00 20.00     0.238 C 
HETATM    5  C2  UNL     1     -34.240   5.945   4.544  1.00 20.00     0.307 C 
HETATM    6  F6  UNL     1     -34.765   4.703   4.587  1.00 20.00    -0.170 F 
HETATM    7  F7  UNL     1     -34.078   6.639   5.691  1.00 20.00    -0.170 F 
HETATM    8  F5  UNL     1     -34.035   5.753   2.263  1.00 20.00    -0.198 F 
ENDBRANCH   1   4
BRANCH   1   9
HETATM    9  C3  UNL     1     -32.977   8.184   1.778  1.00 20.00     0.432 C 
HETATM   10  F8  UNL     1     -32.390   9.403   1.684  1.00 20.00    -0.207 F 
HETATM   11  F9  UNL     1     -32.079   7.284   1.301  1.00 20.00    -0.207 F 
ENDBRANCH   1   9
TORSDOF 2
