REMARK  3 active torsions:
REMARK  status: ('A' for Active; 'I' for Inactive)
REMARK    1  A    between atoms: C5_5  and  C6_6 
REMARK    2  A    between atoms: C5_5  and  N8_8 
REMARK    3  A    between atoms: C6_6  and  N9_9 
ROOT
HETATM    1  C1  UNL     1     -32.283   9.098   1.458  1.00 20.00     0.157 C 
HETATM    2  N8  UNL     1     -31.489   8.468   2.052  1.00 20.00    -0.274 NA
HETATM    3  S10 UNL     1     -33.337   9.962   0.635  1.00 20.00    -0.055 SA
ENDROOT
BRANCH   2   4
HETATM    4  C5  UNL     1     -32.029   7.698   3.175  1.00 20.00     0.172 C 
BRANCH   4   5
HETATM    5  C6  UNL     1     -33.081   6.715   2.675  1.00 20.00     0.172 C 
BRANCH   5   6
HETATM    6  N9  UNL     1     -33.695   5.938   3.747  1.00 20.00    -0.280 N 
HETATM    7  C4  UNL     1     -34.336   6.436   4.843  1.00 20.00     0.113 A 
HETATM    8  C2  UNL     1     -34.746   5.343   5.567  1.00 20.00     0.040 A 
HETATM    9  C3  UNL     1     -34.301   4.238   4.819  1.00 20.00     0.140 A 
HETATM   10  N7  UNL     1     -33.657   4.595   3.704  1.00 20.00    -0.185 NA
ENDBRANCH   5   6
ENDBRANCH   4   5
ENDBRANCH   2   4
TORSDOF 3
