REMARK  2 active torsions:
REMARK  status: ('A' for Active; 'I' for Inactive)
REMARK    1  A    between atoms: C1_1  and  C2_2 
REMARK    2  A    between atoms: C1_1  and  C3_3 
ROOT
HETATM    1  C3  UNL     1     -33.998   5.854   4.649  1.00 20.00     0.256 C 
HETATM    2  F4  UNL     1     -35.283   6.142   4.296  1.00 20.00    -0.207 F 
HETATM    3 CL5  UNL     1     -33.599   6.814   6.096  1.00 20.00    -0.066 Cl
HETATM    4 CL6  UNL     1     -33.911   4.118   5.037  1.00 20.00    -0.066 Cl
ENDROOT
BRANCH   1   5
HETATM    5  C1  UNL     1     -33.098   6.216   3.464  1.00 20.00     0.089 C 
BRANCH   5   6
HETATM    6  C2  UNL     1     -33.139   7.677   3.036  1.00 20.00     0.090 C 
HETATM    7 BR7  UNL     1     -31.879   7.962   1.572  1.00 20.00    -0.096 Br
ENDBRANCH   5   6
ENDBRANCH   1   5
TORSDOF 2
