REMARK  6 active torsions:
REMARK  status: ('A' for Active; 'I' for Inactive)
REMARK    1  A    between atoms: C1_1  and  C4_4 
REMARK    2  A    between atoms: C4_4  and  C5_5 
REMARK    3  A    between atoms: C5_5  and  C6_6 
REMARK    4  A    between atoms: C6_6  and  C7_7 
REMARK    5  A    between atoms: C7_7  and  C8_8 
REMARK    6  A    between atoms: C8_8  and  C9_9 
ROOT
HETATM    1  C6  UNL     1     -32.457   7.507   4.284  1.00 20.00     0.000 C 
ENDROOT
BRANCH   1   2
HETATM    2  C5  UNL     1     -33.642   7.368   5.242  1.00 20.00     0.008 C 
BRANCH   2   3
HETATM    3  C4  UNL     1     -34.770   6.549   4.616  1.00 20.00     0.096 C 
BRANCH   3   4
HETATM    4  C1  UNL     1     -34.318   5.156   4.217  1.00 20.00     0.218 C 
HETATM    5  O10 UNL     1     -34.360   4.195   4.979  1.00 20.00    -0.280 OA
HETATM    6 CL11 UNL     1     -33.749   5.116   2.570  1.00 20.00    -0.044 Cl
ENDBRANCH   3   4
ENDBRANCH   2   3
ENDBRANCH   1   2
BRANCH   1   7
HETATM    7  C7  UNL     1     -32.863   8.239   3.003  1.00 20.00     0.000 C 
BRANCH   7   8
HETATM    8  C8  UNL     1     -31.714   8.403   2.002  1.00 20.00     0.004 C 
BRANCH   8   9
HETATM    9  C9  UNL     1     -32.078   9.075   0.664  1.00 20.00    -0.023 C 
HETATM   10  C2  UNL     1     -33.147   8.300  -0.107  1.00 20.00     0.009 C 
HETATM   11  C3  UNL     1     -32.561  10.506   0.920  1.00 20.00     0.009 C 
ENDBRANCH   8   9
ENDBRANCH   7   8
ENDBRANCH   1   7
TORSDOF 6
