REMARK  2 active torsions:
REMARK  status: ('A' for Active; 'I' for Inactive)
REMARK    1  A    between atoms: C2_2  and  C3_3 
REMARK    2  A    between atoms: C3_3  and  C4_4 
ROOT
HETATM    1  C1  UNL     1     -32.817   8.099   2.098  1.00 20.00     0.059 C 
HETATM    2  C2  UNL     1     -33.616   7.539   3.196  1.00 20.00     0.132 C 
HETATM    3  N5  UNL     1     -32.187   8.543   1.230  1.00 20.00    -0.197 NA
ENDROOT
BRANCH   2   4
HETATM    4  C3  UNL     1     -33.459   6.021   3.271  1.00 20.00     0.131 C 
BRANCH   4   5
HETATM    5  C4  UNL     1     -34.302   5.420   4.374  1.00 20.00     0.388 C 
HETATM    6  F6  UNL     1     -33.932   5.885   5.586  1.00 20.00    -0.171 F 
HETATM    7  F7  UNL     1     -35.611   5.700   4.200  1.00 20.00    -0.171 F 
HETATM    8  F8  UNL     1     -34.169   4.075   4.393  1.00 20.00    -0.171 F 
ENDBRANCH   4   5
ENDBRANCH   2   4
TORSDOF 2
