REMARK  1 active torsions:
REMARK  status: ('A' for Active; 'I' for Inactive)
REMARK    1  A    between atoms: C7_7  and  O8_8 
ROOT
HETATM    1  C1  UNL     1     -34.062   5.626   5.506  1.00 20.00    -0.025 C 
HETATM    2  C2  UNL     1     -34.195   6.906   5.128  1.00 20.00    -0.023 C 
HETATM    3  C3  UNL     1     -35.526   5.652   3.712  1.00 20.00     0.019 C 
HETATM    4  C4  UNL     1     -33.293   4.934   3.269  1.00 20.00     0.041 C 
HETATM    5  C5  UNL     1     -34.422   4.772   4.313  1.00 20.00     0.011 C 
HETATM    6  C6  UNL     1     -34.644   6.904   3.683  1.00 20.00     0.037 C 
HETATM    7  C7  UNL     1     -33.484   6.400   2.794  1.00 20.00     0.126 C 
ENDROOT
BRANCH   7   8
HETATM    8  O8  UNL     1     -32.304   7.164   2.954  1.00 20.00    -0.395 OA
HETATM    9  H18 UNL     1     -31.612   6.738   2.420  1.00 20.00     0.210 HD
ENDBRANCH   7   8
TORSDOF 1
