REMARK  1 active torsions:
REMARK  status: ('A' for Active; 'I' for Inactive)
REMARK    1  A    between atoms: C2_2  and  C7_7 
ROOT
HETATM    1  C1  UNL     1     -32.785   7.648   3.623  1.00 20.00     0.127 C 
HETATM    2  C3  UNL     1     -33.277   7.137   2.290  1.00 20.00     0.079 C 
HETATM    3  C4  UNL     1     -33.729   7.490   4.792  1.00 20.00     0.079 C 
HETATM    4  C5  UNL     1     -33.796   5.709   2.413  1.00 20.00     0.019 C 
HETATM    5  C6  UNL     1     -34.221   6.051   4.893  1.00 20.00     0.019 C 
HETATM    6  C7  UNL     1     -34.774   5.509   3.573  1.00 20.00     0.048 C 
HETATM    7  O8  UNL     1     -31.718   8.249   3.731  1.00 20.00    -0.298 OA
ENDROOT
BRANCH   6   8
HETATM    8  C2  UNL     1     -36.113   6.118   3.274  1.00 20.00     0.235 C 
HETATM    9  O9  UNL     1     -36.876   6.532   4.141  1.00 20.00    -0.306 OA
ENDBRANCH   6   8
TORSDOF 1
