REMARK  4 active torsions:
REMARK  status: ('A' for Active; 'I' for Inactive)
REMARK    1  A    between atoms: C1_1  and  C4_4 
REMARK    2  A    between atoms: C2_2  and  C6_6 
REMARK    3  A    between atoms: C6_6  and  C7_7 
REMARK    4  A    between atoms: C7_7  and  O8_8 
ROOT
HETATM    1  C1  UNL     1     -33.191   8.533   2.163  1.00 20.00    -0.072 C 
HETATM    2  C2  UNL     1     -33.363   7.857   3.141  1.00 20.00    -0.099 C 
ENDROOT
BRANCH   2   3
HETATM    3  C6  UNL     1     -33.572   7.028   4.338  1.00 20.00     0.120 C 
BRANCH   3   4
HETATM    4  C7  UNL     1     -34.709   6.036   4.136  1.00 20.00     0.176 C 
BRANCH   4   5
HETATM    5  O8  UNL     1     -34.888   5.268   5.320  1.00 20.00    -0.400 OA
HETATM    6  H18 UNL     1     -35.619   4.653   5.146  1.00 20.00     0.209 HD
ENDBRANCH   4   5
ENDBRANCH   3   4
ENDBRANCH   2   3
BRANCH   1   7
HETATM    7  C4  UNL     1     -32.986   9.340   1.004  1.00 20.00    -0.018 C 
HETATM    8  C3  UNL     1     -33.336   8.861  -0.199  1.00 20.00     0.028 C 
HETATM    9  C5  UNL     1     -32.383  10.705   1.167  1.00 20.00     0.057 C 
ENDBRANCH   1   7
TORSDOF 4
