REMARK  2 active torsions:
REMARK  status: ('A' for Active; 'I' for Inactive)
REMARK    1  A    between atoms: C7_7  and  C10_10 
REMARK    2  A    between atoms: C8_8  and  C9_9 
ROOT
HETATM    1  C1  UNL     1     -33.203   5.104   3.362  1.00 20.00    -0.019 A 
HETATM    2  C3  UNL     1     -33.964   5.103   4.461  1.00 20.00    -0.087 A 
HETATM    3  C5  UNL     1     -34.700   6.392   4.655  1.00 20.00     0.039 A 
HETATM    4  C8  UNL     1     -33.300   6.384   2.600  1.00 20.00     0.021 A 
HETATM    5  C10 UNL     1     -34.284   7.255   3.455  1.00 20.00     0.005 A 
HETATM    6  C11 UNL     1     -34.107   3.991   5.438  1.00 20.00     0.043 C 
ENDROOT
BRANCH   4   7
HETATM    7  C9  UNL     1     -32.011   7.245   2.583  1.00 20.00     0.022 C 
HETATM    8  C4  UNL     1     -32.322   8.493   1.781  1.00 20.00    -0.082 C 
HETATM    9  C2  UNL     1     -33.161   9.241   2.516  1.00 20.00    -0.019 C 
HETATM   10  C12 UNL     1     -31.798   8.734   0.419  1.00 20.00     0.043 C 
HETATM   11  C7  UNL     1     -33.412   8.492   3.807  1.00 20.00     0.014 C 
HETATM   12  C6  UNL     1     -32.018   7.880   3.982  1.00 20.00     0.018 C 
ENDBRANCH   4   7
TORSDOF 2
