REMARK  1 active torsions:
REMARK  status: ('A' for Active; 'I' for Inactive)
REMARK    1  A    between atoms: C1_1  and  C6_6 
ROOT
HETATM    1  C2  UNL     1     -35.691   6.069   3.779  1.00 20.00     0.005 C 
HETATM    2  C3  UNL     1     -34.730   5.675   2.648  1.00 20.00     0.006 C 
HETATM    3  C4  UNL     1     -33.759   6.551   5.295  1.00 20.00     0.017 C 
HETATM    4  C5  UNL     1     -34.243   4.339   4.543  1.00 20.00     0.010 C 
HETATM    5  C6  UNL     1     -32.763   6.156   4.193  1.00 20.00     0.059 C 
HETATM    6  C7  UNL     1     -34.946   5.603   5.040  1.00 20.00    -0.013 C 
HETATM    7  C8  UNL     1     -33.530   5.074   3.404  1.00 20.00    -0.003 C 
ENDROOT
BRANCH   5   8
HETATM    8  C1  UNL     1     -32.319   7.312   3.353  1.00 20.00     0.127 C 
HETATM    9  C9  UNL     1     -31.601   8.428   4.063  1.00 20.00     0.091 C 
HETATM   10  O10 UNL     1     -32.528   7.347   2.141  1.00 20.00    -0.298 OA
ENDBRANCH   5   8
TORSDOF 1
