REMARK  2 active torsions:
REMARK  status: ('A' for Active; 'I' for Inactive)
REMARK    1  A    between atoms: C2_2  and  C3_3 
REMARK    2  A    between atoms: C3_3  and  O9_9 
ROOT
HETATM    1  C1  UNL     1     -33.902   6.454   4.775  1.00 20.00    -0.013 C 
HETATM    2  C2  UNL     1     -33.147   6.467   3.671  1.00 20.00     0.013 C 
HETATM    3  C4  UNL     1     -34.521   5.115   5.003  1.00 20.00     0.028 C 
HETATM    4  C5  UNL     1     -33.142   5.138   2.985  1.00 20.00     0.045 C 
HETATM    5  C6  UNL     1     -34.298   4.406   3.668  1.00 20.00     0.009 C 
ENDROOT
BRANCH   2   6
HETATM    6  C3  UNL     1     -32.399   7.578   3.171  1.00 20.00     0.288 C 
HETATM    7  O8  UNL     1     -31.502   8.141   3.794  1.00 20.00    -0.260 OA
BRANCH   6   8
HETATM    8  O9  UNL     1     -32.841   7.891   1.922  1.00 20.00    -0.323 OA
HETATM    9  C7  UNL     1     -32.185   8.991   1.284  1.00 20.00     0.213 C 
ENDBRANCH   6   8
ENDBRANCH   2   6
TORSDOF 2
