REMARK  1 active torsions:
REMARK  status: ('A' for Active; 'I' for Inactive)
REMARK    1  A    between atoms: C1_1  and  C3_3 
ROOT
HETATM    1  C2  UNL     1     -32.531   5.994   3.716  1.00 20.00     0.110 C 
HETATM    2  C3  UNL     1     -32.623   7.527   3.467  1.00 20.00     0.110 C 
HETATM    3  C4  UNL     1     -33.960   6.036   4.293  1.00 20.00     0.310 C 
HETATM    4  C5  UNL     1     -33.757   7.552   4.546  1.00 20.00     0.323 C 
HETATM    5  C6  UNL     1     -31.361   8.271   3.901  1.00 20.00     0.031 C 
HETATM    6  F8  UNL     1     -34.168   5.284   5.397  1.00 20.00    -0.200 F 
HETATM    7  F9  UNL     1     -34.946   5.726   3.419  1.00 20.00    -0.200 F 
HETATM    8  F10 UNL     1     -34.821   8.336   4.264  1.00 20.00    -0.198 F 
HETATM    9  F11 UNL     1     -33.369   7.867   5.805  1.00 20.00    -0.198 F 
ENDROOT
BRANCH   2  10
HETATM   10  C1  UNL     1     -33.062   7.941   2.028  1.00 20.00     0.233 C 
HETATM   11  O7  UNL     1     -34.144   7.600   1.560  1.00 20.00    -0.279 OA
HETATM   12 CL12 UNL     1     -31.857   8.906   1.229  1.00 20.00    -0.043 Cl
ENDBRANCH   2  10
TORSDOF 1
