REMARK  0 active torsions:
REMARK  status: ('A' for Active; 'I' for Inactive)
ROOT
HETATM    1  C1  UNL     1     -32.546   8.154   2.457  1.00 20.00     0.071 C 
HETATM    2  C2  UNL     1     -34.843   5.282   3.655  1.00 20.00    -0.000 C 
HETATM    3  C3  UNL     1     -35.068   6.178   4.624  1.00 20.00    -0.000 C 
HETATM    4  C4  UNL     1     -33.594   4.978   3.007  1.00 20.00    -0.002 C 
HETATM    5  C5  UNL     1     -34.116   7.056   5.253  1.00 20.00    -0.002 C 
HETATM    6  C6  UNL     1     -32.515   5.765   2.897  1.00 20.00    -0.004 C 
HETATM    7  C7  UNL     1     -32.948   7.488   4.758  1.00 20.00    -0.004 C 
HETATM    8  C8  UNL     1     -32.256   7.130   3.472  1.00 20.00     0.138 C 
HETATM    9  N9  UNL     1     -32.774   8.962   1.657  1.00 20.00    -0.196 NA
ENDROOT
TORSDOF 0
