REMARK  1 active torsions:
REMARK  status: ('A' for Active; 'I' for Inactive)
REMARK    1  A    between atoms: C1_1  and  C6_6 
ROOT
HETATM    1  C2  UNL     1     -34.286   5.752   5.767  1.00 20.00     0.005 C 
HETATM    2  C3  UNL     1     -34.215   7.159   5.155  1.00 20.00     0.006 C 
HETATM    3  C4  UNL     1     -33.805   4.723   3.537  1.00 20.00     0.016 C 
HETATM    4  C5  UNL     1     -35.833   5.906   3.962  1.00 20.00     0.010 C 
HETATM    5  C6  UNL     1     -33.734   6.113   2.883  1.00 20.00     0.051 C 
HETATM    6  C7  UNL     1     -34.879   4.911   4.625  1.00 20.00    -0.013 C 
HETATM    7  C8  UNL     1     -34.731   6.941   3.720  1.00 20.00    -0.003 C 
ENDROOT
BRANCH   5   8
HETATM    8  C1  UNL     1     -32.351   6.685   2.854  1.00 20.00     0.236 C 
HETATM    9  O9  UNL     1     -32.116   7.887   2.911  1.00 20.00    -0.306 OA
ENDBRANCH   5   8
TORSDOF 1
