REMARK  0 active torsions:
REMARK  status: ('A' for Active; 'I' for Inactive)
ROOT
HETATM    1  C1  UNL     1     -35.436   5.777   4.499  1.00 20.00    -0.025 C 
HETATM    2  C2  UNL     1     -35.480   5.854   3.160  1.00 20.00    -0.025 C 
HETATM    3  C3  UNL     1     -32.336   7.985   4.999  1.00 20.00    -0.024 A 
HETATM    4  C4  UNL     1     -31.627   8.326   3.921  1.00 20.00    -0.025 A 
HETATM    5  C5  UNL     1     -33.306   5.348   3.730  1.00 20.00     0.018 C 
HETATM    6  C6  UNL     1     -34.004   6.030   4.915  1.00 20.00     0.016 C 
HETATM    7  C7  UNL     1     -34.076   6.160   2.683  1.00 20.00     0.014 C 
HETATM    8  C8  UNL     1     -33.716   7.531   4.657  1.00 20.00     0.021 A 
HETATM    9  C9  UNL     1     -32.382   8.143   2.638  1.00 20.00     0.009 A 
HETATM   10  C10 UNL     1     -33.766   7.629   3.090  1.00 20.00     0.009 A 
HETATM   11  C11 UNL     1     -32.488   9.456   1.869  1.00 20.00     0.014 C 
ENDROOT
TORSDOF 0
