REMARK  2 active torsions:
REMARK  status: ('A' for Active; 'I' for Inactive)
REMARK    1  A    between atoms: C1_1  and  C4_4 
REMARK    2  A    between atoms: C3_3  and  C4_4 
ROOT
HETATM    1  C4  UNL     1     -34.128   5.676   4.457  1.00 20.00     0.359 C 
HETATM    2  F8  UNL     1     -35.375   6.001   4.019  1.00 20.00    -0.191 F 
HETATM    3  F9  UNL     1     -34.242   5.448   5.792  1.00 20.00    -0.191 F 
ENDROOT
BRANCH   1   4
HETATM    4  C1  UNL     1     -33.613   4.450   3.739  1.00 20.00     0.200 C 
HETATM    5  C2  UNL     1     -32.824   4.666   2.475  1.00 20.00     0.098 C 
HETATM    6  O5  UNL     1     -33.858   3.317   4.154  1.00 20.00    -0.292 OA
ENDBRANCH   1   4
BRANCH   1   7
HETATM    7  C3  UNL     1     -33.218   6.862   4.241  1.00 20.00     0.432 C 
HETATM    8  F6  UNL     1     -33.638   7.581   3.171  1.00 20.00    -0.207 F 
HETATM    9  F7  UNL     1     -33.295   7.686   5.317  1.00 20.00    -0.207 F 
ENDBRANCH   1   7
TORSDOF 2
