REMARK  1 active torsions:
REMARK  status: ('A' for Active; 'I' for Inactive)
REMARK    1  A    between atoms: C1_1  and  C4_4 
ROOT
HETATM    1  C1  UNL     1     -32.632   9.555   1.221  1.00 20.00    -0.080 C 
HETATM    2  C2  UNL     1     -32.819   8.546   1.845  1.00 20.00    -0.106 C 
HETATM    3  C5  UNL     1     -33.046   7.318   2.606  1.00 20.00     0.112 C 
ENDROOT
BRANCH   1   4
HETATM    4  C4  UNL     1     -32.410  10.744   0.478  1.00 20.00     0.054 C 
HETATM    5  C3  UNL     1     -32.491  11.953   1.040  1.00 20.00     0.020 C 
ENDBRANCH   1   4
TORSDOF 1
