REMARK  2 active torsions:
REMARK  status: ('A' for Active; 'I' for Inactive)
REMARK    1  A    between atoms: C2_2  and  C6_6 
REMARK    2  A    between atoms: C2_2  and  O9_9 
ROOT
HETATM    1  C1  UNL     1     -34.362   6.269   5.328  1.00 20.00     0.079 C 
HETATM    2  C3  UNL     1     -35.773   5.956   3.346  1.00 20.00     0.042 C 
HETATM    3  C4  UNL     1     -34.464   4.035   4.320  1.00 20.00     0.042 C 
HETATM    4  C6  UNL     1     -34.468   5.544   4.040  1.00 20.00     0.129 C 
HETATM    5  N7  UNL     1     -34.282   6.836   6.337  1.00 20.00    -0.196 NA
ENDROOT
BRANCH   4   6
HETATM    6  C2  UNL     1     -33.277   5.903   3.147  1.00 20.00     0.280 C 
HETATM    7  O8  UNL     1     -32.460   5.097   2.718  1.00 20.00    -0.263 OA
BRANCH   6   8
HETATM    8  O9  UNL     1     -33.255   7.248   2.898  1.00 20.00    -0.325 OA
HETATM    9  C5  UNL     1     -32.182   7.709   2.071  1.00 20.00     0.213 C 
ENDBRANCH   6   8
ENDBRANCH   4   6
TORSDOF 2
