REMARK  0 active torsions:
REMARK  status: ('A' for Active; 'I' for Inactive)
ROOT
HETATM    1  C1  UNL     1     -35.670   5.844   4.118  1.00 20.00     0.009 C 
HETATM    2  C2  UNL     1     -34.629   5.674   1.842  1.00 20.00     0.009 C 
HETATM    3  C3  UNL     1     -33.742   4.285   3.734  1.00 20.00     0.009 C 
HETATM    4  C4  UNL     1     -34.310   7.747   3.215  1.00 20.00     0.048 C 
HETATM    5  C5  UNL     1     -33.424   6.359   5.106  1.00 20.00     0.048 C 
HETATM    6  C6  UNL     1     -32.383   6.189   2.831  1.00 20.00     0.048 C 
HETATM    7  C7  UNL     1     -35.299   6.629   2.846  1.00 20.00    -0.011 C 
HETATM    8  C8  UNL     1     -34.407   5.231   4.751  1.00 20.00    -0.011 C 
HETATM    9  C9  UNL     1     -33.359   5.060   2.460  1.00 20.00    -0.011 C 
HETATM   10  C10 UNL     1     -33.048   7.137   3.838  1.00 20.00     0.104 C 
HETATM   11  F11 UNL     1     -32.181   8.129   4.160  1.00 20.00    -0.243 F 
ENDROOT
TORSDOF 0
