REMARK  1 active torsions:
REMARK  status: ('A' for Active; 'I' for Inactive)
REMARK    1  A    between atoms: C1_1  and  C5_5 
ROOT
HETATM    1  C2  UNL     1     -34.995   6.101   4.266  1.00 20.00     0.040 C 
HETATM    2  C3  UNL     1     -34.664   5.157   5.404  1.00 20.00     0.168 C 
HETATM    3  C4  UNL     1     -33.707   4.286   3.461  1.00 20.00     0.179 C 
HETATM    4  C5  UNL     1     -33.960   5.759   3.227  1.00 20.00     0.073 C 
HETATM    5  O7  UNL     1     -34.067   3.994   4.821  1.00 20.00    -0.390 OA
ENDROOT
BRANCH   4   6
HETATM    6  C1  UNL     1     -32.691   6.548   3.502  1.00 20.00     0.237 C 
HETATM    7  O6  UNL     1     -32.164   7.288   2.679  1.00 20.00    -0.306 OA
ENDBRANCH   4   6
TORSDOF 1
