REMARK  5 active torsions:
REMARK  status: ('A' for Active; 'I' for Inactive)
REMARK    1  A    between atoms: C1_1  and  C8_8 
REMARK    2  A    between atoms: C4_4  and  C6_6 
REMARK    3  A    between atoms: C5_5  and  C7_7 
REMARK    4  A    between atoms: C6_6  and  C8_8 
REMARK    5  A    between atoms: C7_7  and  C8_8 
ROOT
HETATM    1  C8  UNL     1     -33.172   6.498   3.445  1.00 20.00     0.072 C 
ENDROOT
BRANCH   1   2
HETATM    2  C1  UNL     1     -34.242   6.432   4.534  1.00 20.00     0.223 C 
HETATM    3  O9  UNL     1     -35.371   6.003   4.310  1.00 20.00    -0.279 OA
HETATM    4 CL10 UNL     1     -33.675   7.019   6.072  1.00 20.00    -0.043 Cl
ENDBRANCH   1   2
BRANCH   1   5
HETATM    5  C6  UNL     1     -33.398   5.363   2.425  1.00 20.00     0.013 C 
BRANCH   5   6
HETATM    6  C4  UNL     1     -32.929   3.978   2.885  1.00 20.00    -0.004 C 
HETATM    7  C2  UNL     1     -33.574   3.517   4.184  1.00 20.00     0.005 C 
ENDBRANCH   5   6
ENDBRANCH   1   5
BRANCH   1   8
HETATM    8  C7  UNL     1     -33.242   7.863   2.731  1.00 20.00     0.013 C 
BRANCH   8   9
HETATM    9  C5  UNL     1     -31.986   8.245   1.940  1.00 20.00    -0.004 C 
HETATM   10  C3  UNL     1     -32.111   9.567   1.199  1.00 20.00     0.005 C 
ENDBRANCH   8   9
ENDBRANCH   1   8
TORSDOF 5
