REMARK  1 active torsions:
REMARK  status: ('A' for Active; 'I' for Inactive)
REMARK    1  A    between atoms: C1_1  and  C6_6 
ROOT
HETATM    1  C2  UNL     1     -33.804   5.264   3.152  1.00 20.00     0.038 C 
HETATM    2  C3  UNL     1     -33.877   6.543   5.307  1.00 20.00     0.038 C 
HETATM    3  C4  UNL     1     -34.477   4.114   3.891  1.00 20.00     0.168 C 
HETATM    4  C5  UNL     1     -34.547   5.323   5.929  1.00 20.00     0.168 C 
HETATM    5  C6  UNL     1     -34.152   6.593   3.810  1.00 20.00     0.051 C 
HETATM    6  O8  UNL     1     -34.124   4.126   5.275  1.00 20.00    -0.391 OA
ENDROOT
BRANCH   5   7
HETATM    7  C1  UNL     1     -33.275   7.669   3.201  1.00 20.00     0.235 C 
HETATM    8  O7  UNL     1     -32.854   7.628   2.050  1.00 20.00    -0.306 OA
ENDBRANCH   5   7
TORSDOF 1
