REMARK  0 active torsions:
REMARK  status: ('A' for Active; 'I' for Inactive)
ROOT
HETATM    1  C1  UNL     1     -35.056   5.720   4.727  1.00 20.00     0.031 A 
HETATM    2  C2  UNL     1     -34.938   5.895   2.305  1.00 20.00     0.043 A 
HETATM    3  C3  UNL     1     -33.356   7.048   3.705  1.00 20.00     0.033 A 
HETATM    4  C4  UNL     1     -33.949   6.557   4.860  1.00 20.00    -0.045 A 
HETATM    5  C5  UNL     1     -33.836   6.728   2.440  1.00 20.00     0.017 A 
HETATM    6  C6  UNL     1     -35.549   5.390   3.457  1.00 20.00     0.035 A 
HETATM    7  C7  UNL     1     -32.190   7.937   3.661  1.00 20.00     0.171 A 
HETATM    8  C8  UNL     1     -31.768   8.308   2.258  1.00 20.00     0.163 A 
HETATM    9  C9  UNL     1     -33.458   6.886   6.229  1.00 20.00     0.049 C 
HETATM   10  O10 UNL     1     -31.614   8.340   4.660  1.00 20.00    -0.291 OA
HETATM   11  S11 UNL     1     -32.919   7.472   1.127  1.00 20.00    -0.121 SA
HETATM   12 CL12 UNL     1     -36.917   4.354   3.313  1.00 20.00    -0.084 Cl
ENDROOT
TORSDOF 0
