REMARK  0 active torsions:
REMARK  status: ('A' for Active; 'I' for Inactive)
ROOT
HETATM    1  C1  UNL     1     -33.189   5.530   3.199  1.00 20.00     0.135 C 
HETATM    2  C2  UNL     1     -32.277   6.625   2.709  1.00 20.00     0.088 C 
HETATM    3  C3  UNL     1     -33.956   7.552   4.200  1.00 20.00     0.025 C 
HETATM    4  C4  UNL     1     -34.263   6.040   4.146  1.00 20.00     0.014 C 
HETATM    5  C5  UNL     1     -33.098   7.897   2.963  1.00 20.00    -0.040 C 
HETATM    6  C6  UNL     1     -35.657   5.735   3.601  1.00 20.00     0.023 C 
HETATM    7  C7  UNL     1     -34.086   5.397   5.523  1.00 20.00     0.023 C 
HETATM    8  C8  UNL     1     -33.961   8.244   1.739  1.00 20.00     0.015 C 
HETATM    9  C9  UNL     1     -32.180   9.090   3.261  1.00 20.00     0.015 C 
HETATM   10  O10 UNL     1     -33.045   4.352   2.893  1.00 20.00    -0.297 OA
ENDROOT
TORSDOF 0
