REMARK  5 active torsions:
REMARK  status: ('A' for Active; 'I' for Inactive)
REMARK    1  A    between atoms: C3_3  and  C7_7 
REMARK    2  A    between atoms: C4_4  and  C8_8 
REMARK    3  A    between atoms: C7_7  and  C9_9 
REMARK    4  A    between atoms: C8_8  and  C10_10 
REMARK    5  A    between atoms: C9_9  and  C10_10 
ROOT
HETATM    1  C9  UNL     1     -32.930   8.438   2.932  1.00 20.00     0.004 C 
ENDROOT
BRANCH   1   2
HETATM    2  C7  UNL     1     -31.903   8.930   1.910  1.00 20.00     0.026 C 
BRANCH   2   3
HETATM    3  C3  UNL     1     -32.575   9.543   0.716  1.00 20.00    -0.031 C 
HETATM    4  C1  UNL     1     -32.441   9.079  -0.535  1.00 20.00    -0.035 C 
HETATM    5  C5  UNL     1     -33.104   9.691  -1.724  1.00 20.00     0.035 C 
ENDBRANCH   2   3
ENDBRANCH   1   2
BRANCH   1   6
HETATM    6  C10 UNL     1     -32.246   7.842   4.165  1.00 20.00     0.004 C 
BRANCH   6   7
HETATM    7  C8  UNL     1     -33.273   7.386   5.203  1.00 20.00     0.026 C 
BRANCH   7   8
HETATM    8  C4  UNL     1     -34.167   6.314   4.651  1.00 20.00    -0.031 C 
HETATM    9  C2  UNL     1     -33.922   5.001   4.775  1.00 20.00    -0.035 C 
HETATM   10  C6  UNL     1     -34.813   3.934   4.232  1.00 20.00     0.035 C 
ENDBRANCH   7   8
ENDBRANCH   6   7
ENDBRANCH   1   6
TORSDOF 5
