REMARK  1 active torsions:
REMARK  status: ('A' for Active; 'I' for Inactive)
REMARK    1  A    between atoms: C2_2  and  C4_4 
ROOT
HETATM    1  C4  UNL     1     -32.957   7.414   3.173  1.00 20.00     0.407 C 
HETATM    2  F5  UNL     1     -32.730   6.081   3.066  1.00 20.00    -0.167 F 
HETATM    3  F6  UNL     1     -32.151   7.871   4.164  1.00 20.00    -0.167 F 
HETATM    4  F7  UNL     1     -34.234   7.561   3.608  1.00 20.00    -0.167 F 
ENDROOT
BRANCH   1   5
HETATM    5  C2  UNL     1     -32.686   8.115   1.888  1.00 20.00     0.084 C 
HETATM    6  C1  UNL     1     -32.825   9.435   1.700  1.00 20.00    -0.026 C 
HETATM    7  C3  UNL     1     -32.549  10.123   0.405  1.00 20.00     0.036 C 
ENDBRANCH   1   5
TORSDOF 1
