REMARK  2 active torsions:
REMARK  status: ('A' for Active; 'I' for Inactive)
REMARK    1  A    between atoms: C1_1  and  C2_2 
REMARK    2  A    between atoms: C1_1  and  C3_3 
ROOT
HETATM    1  C3  UNL     1     -34.535   5.801   4.351  1.00 20.00     0.390 C 
HETATM    2  F5  UNL     1     -34.847   5.791   5.666  1.00 20.00    -0.171 F 
HETATM    3  F6  UNL     1     -35.673   6.035   3.663  1.00 20.00    -0.171 F 
HETATM    4  F7  UNL     1     -34.096   4.567   4.025  1.00 20.00    -0.171 F 
ENDROOT
BRANCH   1   5
HETATM    5  C1  UNL     1     -33.490   6.856   4.062  1.00 20.00     0.148 C 
BRANCH   5   6
HETATM    6  C2  UNL     1     -33.128   6.916   2.589  1.00 20.00     0.230 C 
HETATM    7  F4  UNL     1     -32.186   7.877   2.397  1.00 20.00    -0.255 F 
ENDBRANCH   5   6
ENDBRANCH   1   5
TORSDOF 2
