REMARK  0 active torsions:
REMARK  status: ('A' for Active; 'I' for Inactive)
ROOT
HETATM    1  C1  UNL     1     -33.873   7.887   3.597  1.00 20.00     0.048 C 
HETATM    2  C2  UNL     1     -33.465   5.977   2.268  1.00 20.00     0.177 C 
HETATM    3  C3  UNL     1     -34.201   6.396   3.534  1.00 20.00    -0.023 C 
HETATM    4  C4  UNL     1     -32.531   8.025   2.859  1.00 20.00     0.054 C 
HETATM    5  C5  UNL     1     -35.704   6.135   3.434  1.00 20.00     0.017 C 
HETATM    6  C6  UNL     1     -33.640   5.653   4.757  1.00 20.00     0.017 C 
HETATM    7  C7  UNL     1     -31.376   8.363   3.801  1.00 20.00     0.045 C 
HETATM    8  C8  UNL     1     -32.610   9.071   1.745  1.00 20.00     0.045 C 
HETATM    9  O9  UNL     1     -32.257   6.747   2.251  1.00 20.00    -0.380 OA
ENDROOT
TORSDOF 0
