REMARK  0 active torsions:
REMARK  status: ('A' for Active; 'I' for Inactive)
ROOT
HETATM    1  C1  UNL     1     -33.357   7.008   2.172  1.00 20.00     0.027 A 
HETATM    2  C2  UNL     1     -32.626   5.835   2.773  1.00 20.00     0.027 A 
HETATM    3  C3  UNL     1     -33.632   6.602   3.607  1.00 20.00     0.120 A 
HETATM    4  C4  UNL     1     -32.606   8.245   1.813  1.00 20.00     0.014 C 
HETATM    5  C5  UNL     1     -32.883   4.458   2.260  1.00 20.00     0.014 C 
HETATM    6 CL6  UNL     1     -33.011   7.578   4.937  1.00 20.00    -0.101 Cl
HETATM    7 CL7  UNL     1     -35.208   5.896   3.963  1.00 20.00    -0.101 Cl
ENDROOT
TORSDOF 0
