REMARK  2 active torsions:
REMARK  status: ('A' for Active; 'I' for Inactive)
REMARK    1  A    between atoms: C1_1  and  C4_4 
REMARK    2  A    between atoms: C1_1  and  O8_8 
ROOT
HETATM    1  C2  UNL     1     -34.115   4.780   5.036  1.00 20.00     0.020 A 
HETATM    2  C3  UNL     1     -35.321   5.551   4.592  1.00 20.00     0.020 A 
HETATM    3  C4  UNL     1     -33.966   6.227   4.614  1.00 20.00     0.044 A 
HETATM    4  C5  UNL     1     -33.721   7.238   5.705  1.00 20.00     0.026 C 
ENDROOT
BRANCH   3   5
HETATM    5  C1  UNL     1     -33.321   6.481   3.302  1.00 20.00     0.266 C 
HETATM    6  O7  UNL     1     -32.912   5.601   2.558  1.00 20.00    -0.264 OA
BRANCH   5   7
HETATM    7  O8  UNL     1     -33.264   7.824   3.075  1.00 20.00    -0.326 OA
HETATM    8  C6  UNL     1     -32.661   8.214   1.837  1.00 20.00     0.213 C 
ENDBRANCH   5   7
ENDBRANCH   3   5
TORSDOF 2
