REMARK  0 active torsions:
REMARK  status: ('A' for Active; 'I' for Inactive)
ROOT
HETATM    1  C1  UNL     1     -33.853   6.823   6.002  1.00 20.00    -0.003 A 
HETATM    2  C2  UNL     1     -34.634   5.602   6.008  1.00 20.00    -0.003 A 
HETATM    3  C3  UNL     1     -33.331   6.980   4.770  1.00 20.00    -0.013 A 
HETATM    4  C4  UNL     1     -34.563   5.054   4.780  1.00 20.00    -0.013 A 
HETATM    5  C5  UNL     1     -32.824   5.289   2.863  1.00 20.00     0.019 A 
HETATM    6  C6  UNL     1     -34.047   6.069   2.444  1.00 20.00     0.019 A 
HETATM    7  C7  UNL     1     -33.734   5.876   3.890  1.00 20.00    -0.005 A 
ENDROOT
TORSDOF 0
