REMARK  2 active torsions:
REMARK  status: ('A' for Active; 'I' for Inactive)
REMARK    1  A    between atoms: C1_1  and  C3_3 
REMARK    2  A    between atoms: C2_2  and  C3_3 
ROOT
HETATM    1  C3  UNL     1     -33.807   6.462   3.013  1.00 20.00     0.358 C 
HETATM    2  F8  UNL     1     -32.890   5.462   3.031  1.00 20.00    -0.194 F 
HETATM    3  F9  UNL     1     -34.512   6.331   1.862  1.00 20.00    -0.194 F 
ENDROOT
BRANCH   1   4
HETATM    4  C1  UNL     1     -34.743   6.297   4.185  1.00 20.00     0.430 C 
HETATM    5  F4  UNL     1     -35.334   5.077   4.117  1.00 20.00    -0.208 F 
HETATM    6  F5  UNL     1     -34.047   6.331   5.347  1.00 20.00    -0.208 F 
ENDBRANCH   1   4
BRANCH   1   7
HETATM    7  C2  UNL     1     -33.088   7.789   3.006  1.00 20.00     0.430 C 
HETATM    8  F6  UNL     1     -32.342   7.900   4.134  1.00 20.00    -0.208 F 
HETATM    9  F7  UNL     1     -32.228   7.847   1.961  1.00 20.00    -0.208 F 
ENDBRANCH   1   7
TORSDOF 2
