REMARK  1 active torsions:
REMARK  status: ('A' for Active; 'I' for Inactive)
REMARK    1  A    between atoms: C2_2  and  C3_3 
ROOT
HETATM    1  C1  UNL     1     -33.477   6.554   4.865  1.00 20.00    -0.019 C 
HETATM    2  C2  UNL     1     -33.101   6.702   3.582  1.00 20.00    -0.004 C 
HETATM    3  C4  UNL     1     -34.290   5.444   5.454  1.00 20.00     0.036 C 
HETATM    4  C5  UNL     1     -33.469   5.766   2.463  1.00 20.00     0.053 C 
ENDROOT
BRANCH   2   5
HETATM    5  C3  UNL     1     -32.245   7.883   3.162  1.00 20.00     0.247 C 
HETATM    6  O6  UNL     1     -31.463   8.350   3.992  1.00 20.00    -0.274 OA
HETATM    7 CL7  UNL     1     -32.372   8.540   1.539  1.00 20.00    -0.039 Cl
ENDBRANCH   2   5
TORSDOF 1
