REMARK  0 active torsions:
REMARK  status: ('A' for Active; 'I' for Inactive)
ROOT
HETATM    1  C1  UNL     1     -32.226   7.842   3.442  1.00 20.00     0.131 C 
HETATM    2  C2  UNL     1     -33.195   7.151   4.372  1.00 20.00     0.087 C 
HETATM    3  C3  UNL     1     -34.003   7.080   2.097  1.00 20.00     0.021 C 
HETATM    4  C4  UNL     1     -32.580   7.635   1.985  1.00 20.00     0.052 C 
HETATM    5  C5  UNL     1     -34.028   6.281   3.414  1.00 20.00    -0.041 C 
HETATM    6  C6  UNL     1     -32.507   8.914   1.175  1.00 20.00     0.018 C 
HETATM    7  C7  UNL     1     -33.389   4.893   3.237  1.00 20.00     0.015 C 
HETATM    8  C8  UNL     1     -35.462   6.110   3.924  1.00 20.00     0.015 C 
HETATM    9  O9  UNL     1     -31.265   8.495   3.832  1.00 20.00    -0.298 OA
ENDROOT
TORSDOF 0
