REMARK  4 active torsions:
REMARK  status: ('A' for Active; 'I' for Inactive)
REMARK    1  A    between atoms: C3_3  and  C5_5 
REMARK    2  A    between atoms: C4_4  and  C6_6 
REMARK    3  A    between atoms: C5_5  and  C7_7 
REMARK    4  A    between atoms: C6_6  and  C7_7 
ROOT
HETATM    1  C1  UNL     1     -34.432   5.930   5.331  1.00 20.00     0.059 C 
HETATM    2  C4  UNL     1     -34.547   5.371   3.977  1.00 20.00     0.124 C 
HETATM    3  N8  UNL     1     -34.343   6.370   6.401  1.00 20.00    -0.197 NA
ENDROOT
BRANCH   2   4
HETATM    4  C6  UNL     1     -33.416   5.842   3.060  1.00 20.00     0.014 C 
BRANCH   4   5
HETATM    5  C7  UNL     1     -33.428   7.360   2.836  1.00 20.00     0.006 C 
BRANCH   5   6
HETATM    6  C5  UNL     1     -32.348   7.831   1.852  1.00 20.00     0.050 C 
BRANCH   6   7
HETATM    7  C3  UNL     1     -32.384   9.302   1.545  1.00 20.00     0.002 C 
HETATM    8  C2  UNL     1     -32.616   9.809   0.328  1.00 20.00     0.032 C 
HETATM    9 CL9  UNL     1     -32.161  10.367   2.892  1.00 20.00    -0.090 Cl
ENDBRANCH   6   7
ENDBRANCH   5   6
ENDBRANCH   4   5
ENDBRANCH   2   4
TORSDOF 4
