REMARK  2 active torsions:
REMARK  status: ('A' for Active; 'I' for Inactive)
REMARK    1  A    between atoms: C5_5  and  C7_7 
REMARK    2  A    between atoms: C6_6  and  O10_10 
ROOT
HETATM    1  C1  UNL     1     -35.222   5.931   3.717  1.00 20.00     0.006 A 
HETATM    2  C2  UNL     1     -33.913   6.670   5.736  1.00 20.00     0.006 A 
HETATM    3  C3  UNL     1     -34.282   6.452   2.914  1.00 20.00    -0.008 A 
HETATM    4  C4  UNL     1     -32.970   7.193   4.937  1.00 20.00    -0.008 A 
HETATM    5  C6  UNL     1     -35.142   5.981   5.215  1.00 20.00     0.163 A 
HETATM    6  C7  UNL     1     -33.035   7.119   3.434  1.00 20.00     0.044 A 
HETATM    7  C8  UNL     1     -31.787   6.434   2.875  1.00 20.00     0.031 C 
ENDROOT
BRANCH   6   8
HETATM    8  C5  UNL     1     -33.105   8.544   2.957  1.00 20.00     0.248 C 
HETATM    9  O9  UNL     1     -32.260   9.056   2.231  1.00 20.00    -0.305 OA
ENDBRANCH   6   8
BRANCH   5  10
HETATM   10  O10 UNL     1     -35.175   4.644   5.706  1.00 20.00    -0.388 OA
HETATM   11  H20 UNL     1     -36.015   4.260   5.407  1.00 20.00     0.210 HD
ENDBRANCH   5  10
TORSDOF 2
