REMARK  1 active torsions:
REMARK  status: ('A' for Active; 'I' for Inactive)
REMARK    1  A    between atoms: C1_1  and  C6_6 
ROOT
HETATM    1  C2  UNL     1     -33.325   4.503   2.623  1.00 20.00     0.002 C 
HETATM    2  C3  UNL     1     -32.340   5.660   2.488  1.00 20.00     0.012 C 
HETATM    3  C4  UNL     1     -33.773   4.307   4.071  1.00 20.00     0.009 C 
HETATM    4  C5  UNL     1     -33.343   6.757   4.535  1.00 20.00     0.021 C 
HETATM    5  C6  UNL     1     -32.899   6.952   3.082  1.00 20.00     0.055 C 
HETATM    6  C7  UNL     1     -34.341   5.590   4.718  1.00 20.00    -0.047 C 
HETATM    7  C9  UNL     1     -34.549   5.341   6.224  1.00 20.00     0.015 C 
HETATM    8  C10 UNL     1     -35.709   5.947   4.105  1.00 20.00     0.015 C 
ENDROOT
BRANCH   5   9
HETATM    9  C1  UNL     1     -31.845   8.016   3.014  1.00 20.00     0.127 C 
HETATM   10  C8  UNL     1     -31.790   8.835   1.753  1.00 20.00     0.091 C 
HETATM   11  O11 UNL     1     -31.065   8.211   3.945  1.00 20.00    -0.298 OA
ENDBRANCH   5   9
TORSDOF 1
