REMARK  3 active torsions:
REMARK  status: ('A' for Active; 'I' for Inactive)
REMARK    1  A    between atoms: C4_4  and  C6_6 
REMARK    2  A    between atoms: C5_5  and  C6_6 
REMARK    3  A    between atoms: C6_6  and  N7_7 
ROOT
HETATM    1  C1  UNL     1     -32.537   8.156   2.340  1.00 20.00     0.158 C 
HETATM    2  N7  UNL     1     -32.763   7.195   2.973  1.00 20.00    -0.270 NA
HETATM    3  S8  UNL     1     -32.205   9.442   1.461  1.00 20.00    -0.055 SA
ENDROOT
BRANCH   2   4
HETATM    4  C6  UNL     1     -33.809   7.365   3.992  1.00 20.00     0.109 C 
BRANCH   4   5
HETATM    5  C4  UNL     1     -33.200   7.087   5.371  1.00 20.00     0.023 C 
HETATM    6  C2  UNL     1     -34.208   7.260   6.500  1.00 20.00     0.007 C 
ENDBRANCH   4   5
BRANCH   4   7
HETATM    7  C5  UNL     1     -34.949   6.385   3.690  1.00 20.00     0.023 C 
HETATM    8  C3  UNL     1     -34.503   4.952   3.727  1.00 20.00     0.007 C 
ENDBRANCH   4   7
ENDBRANCH   2   4
TORSDOF 3
