REMARK  2 active torsions:
REMARK  status: ('A' for Active; 'I' for Inactive)
REMARK    1  A    between atoms: C2_2  and  C3_3 
REMARK    2  A    between atoms: C4_4  and  C5_5 
ROOT
HETATM    1  C3  UNL     1     -32.995   8.376   2.254  1.00 20.00    -0.001 C 
HETATM    2  C4  UNL     1     -33.132   7.049   2.395  1.00 20.00    -0.000 C 
ENDROOT
BRANCH   2   3
HETATM    3  C5  UNL     1     -33.694   6.436   3.578  1.00 20.00    -0.004 C 
HETATM    4  C6  UNL     1     -33.833   5.110   3.722  1.00 20.00    -0.031 C 
HETATM    5  C7  UNL     1     -34.412   4.465   4.938  1.00 20.00     0.036 C 
ENDBRANCH   2   3
BRANCH   1   6
HETATM    6  C2  UNL     1     -32.434   8.988   1.071  1.00 20.00    -0.010 C 
HETATM    7  C1  UNL     1     -32.293  10.310   0.923  1.00 20.00     0.011 C 
ENDBRANCH   1   6
TORSDOF 2
