REMARK  2 active torsions:
REMARK  status: ('A' for Active; 'I' for Inactive)
REMARK    1  A    between atoms: C1_1  and  C2_2 
REMARK    2  A    between atoms: C1_1  and  C3_3 
ROOT
HETATM    1  C1  UNL     1     -34.011   7.232   4.335  1.00 20.00     0.341 C 
HETATM    2  F4  UNL     1     -33.186   7.165   5.418  1.00 20.00    -0.234 F 
ENDROOT
BRANCH   1   3
HETATM    3  C2  UNL     1     -34.957   6.053   4.392  1.00 20.00     0.395 C 
HETATM    4  F5  UNL     1     -34.242   4.901   4.355  1.00 20.00    -0.211 F 
HETATM    5  F6  UNL     1     -35.764   6.049   3.304  1.00 20.00    -0.211 F 
ENDBRANCH   1   3
BRANCH   1   6
HETATM    6  C3  UNL     1     -33.153   7.238   3.093  1.00 20.00     0.423 C 
HETATM    7  F7  UNL     1     -32.273   8.262   3.128  1.00 20.00    -0.168 F 
HETATM    8  F8  UNL     1     -33.906   7.386   1.982  1.00 20.00    -0.168 F 
HETATM    9  F9  UNL     1     -32.451   6.093   2.969  1.00 20.00    -0.168 F 
ENDBRANCH   1   6
TORSDOF 2
