REMARK  3 active torsions:
REMARK  status: ('A' for Active; 'I' for Inactive)
REMARK    1  A    between atoms: C1_1  and  C7_7 
REMARK    2  A    between atoms: C5_5  and  C6_6 
REMARK    3  A    between atoms: C6_6  and  C7_7 
ROOT
HETATM    1  C3  UNL     1     -35.298   6.012   2.872  1.00 20.00     0.024 C 
HETATM    2  C4  UNL     1     -33.056   4.959   3.071  1.00 20.00     0.024 C 
HETATM    3  C7  UNL     1     -33.976   6.047   3.663  1.00 20.00     0.029 C 
ENDROOT
BRANCH   3   4
HETATM    4  C1  UNL     1     -34.264   5.716   5.146  1.00 20.00     0.226 C 
HETATM    5  O8  UNL     1     -34.767   4.647   5.486  1.00 20.00    -0.279 OA
HETATM    6 CL9  UNL     1     -33.820   6.981   6.269  1.00 20.00    -0.043 Cl
ENDBRANCH   3   4
BRANCH   3   7
HETATM    7  C6  UNL     1     -33.322   7.445   3.503  1.00 20.00     0.017 C 
BRANCH   7   8
HETATM    8  C5  UNL     1     -33.068   7.876   2.053  1.00 20.00    -0.003 C 
HETATM    9  C2  UNL     1     -32.507   9.290   1.989  1.00 20.00     0.005 C 
ENDBRANCH   7   8
ENDBRANCH   3   7
TORSDOF 3
