REMARK  2 active torsions:
REMARK  status: ('A' for Active; 'I' for Inactive)
REMARK    1  A    between atoms: C3_3  and  O6_6 
REMARK    2  A    between atoms: C4_4  and  O6_6 
ROOT
HETATM    1  C1  UNL     1     -32.588  10.725   0.893  1.00 20.00     0.014 C 
HETATM    2  C2  UNL     1     -32.208   9.620   1.168  1.00 20.00    -0.091 C 
HETATM    3  C4  UNL     1     -31.741   8.274   1.502  1.00 20.00     0.272 C 
ENDROOT
BRANCH   3   4
HETATM    4  O6  UNL     1     -32.697   7.603   2.314  1.00 20.00    -0.297 OA
BRANCH   4   5
HETATM    5  C3  UNL     1     -32.559   7.755   3.674  1.00 20.00     0.358 C 
HETATM    6  O5  UNL     1     -31.667   8.429   4.182  1.00 20.00    -0.245 OA
HETATM    7 CL7  UNL     1     -33.778   6.895   4.577  1.00 20.00    -0.012 Cl
ENDBRANCH   4   5
ENDBRANCH   3   4
TORSDOF 2
