REMARK  2 active torsions:
REMARK  status: ('A' for Active; 'I' for Inactive)
REMARK    1  A    between atoms: C5_5  and  C6_6 
REMARK    2  A    between atoms: C5_5  and  N7_7 
ROOT
HETATM    1  C1  UNL     1     -32.546   7.816   2.584  1.00 20.00     0.157 C 
HETATM    2  N7  UNL     1     -32.408   6.901   3.306  1.00 20.00    -0.275 NA
HETATM    3  S8  UNL     1     -32.708   9.048   1.588  1.00 20.00    -0.055 SA
ENDROOT
BRANCH   2   4
HETATM    4  C5  UNL     1     -33.368   6.840   4.412  1.00 20.00     0.158 C 
BRANCH   4   5
HETATM    5  C6  UNL     1     -34.225   5.559   4.334  1.00 20.00    -0.033 C 
HETATM    6  C2  UNL     1     -34.050   4.709   5.605  1.00 20.00     0.016 C 
HETATM    7  C3  UNL     1     -33.760   4.734   3.121  1.00 20.00     0.016 C 
HETATM    8  C4  UNL     1     -35.712   5.909   4.154  1.00 20.00     0.016 C 
ENDBRANCH   4   5
ENDBRANCH   2   4
TORSDOF 2
