REMARK  1 active torsions:
REMARK  status: ('A' for Active; 'I' for Inactive)
REMARK    1  A    between atoms: C4_4  and  N7_7 
ROOT
HETATM    1  C1  UNL     1     -32.338   8.693   1.758  1.00 20.00     0.163 C 
HETATM    2  N7  UNL     1     -31.923   8.214   2.760  1.00 20.00    -0.231 NA
HETATM    3  S9  UNL     1     -32.888   9.346   0.411  1.00 20.00    -0.055 SA
ENDROOT
BRANCH   2   4
HETATM    4  C4  UNL     1     -32.679   7.152   3.229  1.00 20.00     0.094 A 
HETATM    5  C2  UNL     1     -32.954   5.939   2.569  1.00 20.00     0.171 A 
HETATM    6  N6  UNL     1     -33.717   5.119   3.296  1.00 20.00    -0.183 NA
HETATM    7  N8  UNL     1     -33.926   5.817   4.425  1.00 20.00    -0.283 N 
HETATM    8  C3  UNL     1     -33.325   7.041   4.435  1.00 20.00     0.145 A 
HETATM    9  C5  UNL     1     -34.725   5.246   5.483  1.00 20.00     0.179 C 
ENDBRANCH   2   4
TORSDOF 1
