REMARK  1 active torsions:
REMARK  status: ('A' for Active; 'I' for Inactive)
REMARK    1  A    between atoms: C3_3  and  C4_4 
ROOT
HETATM    1  C1  UNL     1     -31.928   7.790   2.842  1.00 20.00     0.197 C 
HETATM    2  C2  UNL     1     -31.734   8.116   4.298  1.00 20.00     0.197 C 
HETATM    3  C3  UNL     1     -33.848   7.395   3.978  1.00 20.00     0.369 C 
HETATM    4  O5  UNL     1     -33.347   7.777   2.689  1.00 20.00    -0.351 OA
HETATM    5  O6  UNL     1     -32.780   7.385   4.934  1.00 20.00    -0.351 OA
ENDROOT
BRANCH   3   6
HETATM    6  C4  UNL     1     -34.470   6.014   3.902  1.00 20.00     0.437 C 
HETATM    7  F7  UNL     1     -35.480   6.001   3.013  1.00 20.00    -0.166 F 
HETATM    8  F8  UNL     1     -33.554   5.106   3.519  1.00 20.00    -0.166 F 
HETATM    9  F9  UNL     1     -34.954   5.650   5.103  1.00 20.00    -0.166 F 
ENDBRANCH   3   6
TORSDOF 1
