REMARK  3 active torsions:
REMARK  status: ('A' for Active; 'I' for Inactive)
REMARK    1  A    between atoms: C3_3  and  C5_5 
REMARK    2  A    between atoms: C4_4  and  C6_6 
REMARK    3  A    between atoms: C5_5  and  C6_6 
ROOT
HETATM    1  C1  UNL     1     -31.983   8.791   1.354  1.00 20.00     0.059 C 
HETATM    2  C4  UNL     1     -32.169   8.328   2.736  1.00 20.00     0.124 C 
HETATM    3  N7  UNL     1     -31.834   9.156   0.263  1.00 20.00    -0.197 NA
ENDROOT
BRANCH   2   4
HETATM    4  C6  UNL     1     -33.379   7.402   2.878  1.00 20.00     0.020 C 
BRANCH   4   5
HETATM    5  C5  UNL     1     -33.537   6.848   4.301  1.00 20.00     0.051 C 
BRANCH   5   6
HETATM    6  C3  UNL     1     -34.686   5.885   4.412  1.00 20.00     0.002 C 
HETATM    7  C2  UNL     1     -35.816   5.980   3.701  1.00 20.00     0.032 C 
HETATM    8 CL8  UNL     1     -34.461   4.558   5.501  1.00 20.00    -0.090 Cl
ENDBRANCH   5   6
ENDBRANCH   4   5
ENDBRANCH   2   4
TORSDOF 3
