REMARK  2 active torsions:
REMARK  status: ('A' for Active; 'I' for Inactive)
REMARK    1  A    between atoms: C1_1  and  C3_3 
REMARK    2  A    between atoms: C2_2  and  C3_3 
ROOT
HETATM    1  C3  UNL     1     -34.547   5.875   4.034  1.00 20.00     0.139 C 
HETATM    2 CL6  UNL     1     -34.210   4.374   4.950  1.00 20.00    -0.120 Cl
ENDROOT
BRANCH   1   3
HETATM    3  C1  UNL     1     -33.905   7.058   4.741  1.00 20.00     0.244 C 
HETATM    4  F4  UNL     1     -34.390   7.158   6.007  1.00 20.00    -0.254 F 
ENDBRANCH   1   3
BRANCH   1   5
HETATM    5  C2  UNL     1     -34.039   5.721   2.609  1.00 20.00     0.244 C 
HETATM    6  F5  UNL     1     -32.692   5.530   2.634  1.00 20.00    -0.254 F 
ENDBRANCH   1   5
TORSDOF 2
