REMARK  3 active torsions:
REMARK  status: ('A' for Active; 'I' for Inactive)
REMARK    1  A    between atoms: C1_1  and  C3_3 
REMARK    2  A    between atoms: C1_1  and  N4_4 
REMARK    3  A    between atoms: C2_2  and  C3_3 
ROOT
HETATM    1  C1  UNL     1     -33.678   6.798   4.757  1.00 20.00     0.222 C 
ENDROOT
BRANCH   1   2
HETATM    2  C3  UNL     1     -33.450   7.011   3.264  1.00 20.00     0.120 C 
HETATM    3 CL8  UNL     1     -32.579   5.610   2.551  1.00 20.00    -0.122 Cl
BRANCH   2   4
HETATM    4  C2  UNL     1     -32.698   8.310   2.959  1.00 20.00     0.136 C 
HETATM    5 CL7  UNL     1     -32.878   8.857   1.272  1.00 20.00    -0.129 Cl
ENDBRANCH   2   4
ENDBRANCH   1   2
BRANCH   1   6
HETATM    6  N4  UNL     1     -34.756   5.807   4.938  1.00 20.00    -0.154 N 
HETATM    7  O5  UNL     1     -34.746   5.136   5.983  1.00 20.00    -0.536 OA
HETATM    8  O6  UNL     1     -35.613   5.717   4.043  1.00 20.00    -0.536 OA
ENDBRANCH   1   6
TORSDOF 3
