REMARK  0 active torsions:
REMARK  status: ('A' for Active; 'I' for Inactive)
ROOT
HETATM    1  C1  UNL     1     -32.582   7.826   4.233  1.00 20.00     0.064 C 
HETATM    2  C2  UNL     1     -33.829   4.422   4.066  1.00 20.00     0.005 C 
HETATM    3  C3  UNL     1     -33.625   5.363   2.871  1.00 20.00     0.006 C 
HETATM    4  C4  UNL     1     -34.131   6.385   5.588  1.00 20.00     0.024 C 
HETATM    5  C5  UNL     1     -35.714   5.863   3.875  1.00 20.00     0.010 C 
HETATM    6  C6  UNL     1     -33.963   7.370   4.414  1.00 20.00     0.097 C 
HETATM    7  C7  UNL     1     -34.844   5.185   4.934  1.00 20.00    -0.013 C 
HETATM    8  C8  UNL     1     -34.524   6.568   3.217  1.00 20.00     0.003 C 
HETATM    9  N9  UNL     1     -31.489   8.187   4.090  1.00 20.00    -0.197 NA
ENDROOT
TORSDOF 0
