REMARK  0 active torsions:
REMARK  status: ('A' for Active; 'I' for Inactive)
ROOT
HETATM    1  C1  UNL     1     -32.975   7.740   3.178  1.00 20.00     0.018 A 
HETATM    2  C2  UNL     1     -32.822   7.142   4.555  1.00 20.00     0.018 A 
HETATM    3  C3  UNL     1     -33.574   6.382   3.482  1.00 20.00     0.083 A 
HETATM    4  C4  UNL     1     -31.773   7.930   2.317  1.00 20.00     0.012 C 
HETATM    5  C5  UNL     1     -33.491   7.789   5.720  1.00 20.00     0.012 C 
HETATM    6 BR6  UNL     1     -35.481   6.245   3.530  1.00 20.00    -0.072 Br
HETATM    7 BR7  UNL     1     -32.776   4.783   2.803  1.00 20.00    -0.072 Br
ENDROOT
TORSDOF 0
