REMARK  1 active torsions:
REMARK  status: ('A' for Active; 'I' for Inactive)
REMARK    1  A    between atoms: C8_8  and  C12_12 
ROOT
HETATM    1  C1  UNL     1     -33.955   5.623   6.116  1.00 20.00    -0.023 C 
HETATM    2  C2  UNL     1     -33.972   6.893   5.668  1.00 20.00    -0.081 C 
HETATM    3  C3  UNL     1     -34.423   4.453   5.291  1.00 20.00     0.034 C 
HETATM    4  C4  UNL     1     -35.473   6.152   3.797  1.00 20.00     0.018 C 
HETATM    5  C5  UNL     1     -33.374   4.979   3.038  1.00 20.00     0.173 C 
HETATM    6  C6  UNL     1     -34.506   7.243   4.280  1.00 20.00     0.043 C 
HETATM    7  C7  UNL     1     -34.696   4.833   3.822  1.00 20.00     0.014 C 
HETATM    8  C8  UNL     1     -33.332   7.359   3.272  1.00 20.00     0.133 C 
HETATM    9  C9  UNL     1     -33.484   8.037   6.508  1.00 20.00     0.043 C 
HETATM   10  O13 UNL     1     -33.288   6.239   2.373  1.00 20.00    -0.384 OA
ENDROOT
BRANCH   8  11
HETATM   11  C12 UNL     1     -33.479   8.605   2.404  1.00 20.00     0.007 C 
HETATM   12  C10 UNL     1     -33.039   9.849   3.172  1.00 20.00     0.012 C 
HETATM   13  C11 UNL     1     -32.675   8.457   1.114  1.00 20.00     0.012 C 
ENDBRANCH   8  11
TORSDOF 1
