REMARK  1 active torsions:
REMARK  status: ('A' for Active; 'I' for Inactive)
REMARK    1  A    between atoms: C6_6  and  C7_7 
ROOT
HETATM    1  C1  UNL     1     -32.414   7.788   4.755  1.00 20.00     0.051 A 
HETATM    2  C2  UNL     1     -33.865   6.486   3.133  1.00 20.00     0.051 A 
HETATM    3  C3  UNL     1     -31.788   8.355   3.718  1.00 20.00    -0.013 A 
HETATM    4  C4  UNL     1     -33.222   7.067   2.115  1.00 20.00    -0.013 A 
HETATM    5  C5  UNL     1     -33.511   6.821   4.531  1.00 20.00     0.171 A 
HETATM    6  C6  UNL     1     -32.123   8.083   2.276  1.00 20.00     0.044 A 
HETATM    7  O8  UNL     1     -34.105   6.307   5.474  1.00 20.00    -0.289 OA
ENDROOT
BRANCH   6   8
HETATM    8  C7  UNL     1     -32.502   9.385   1.569  1.00 20.00     0.127 C 
HETATM    9 CL9  UNL     1     -32.326   9.199  -0.184  1.00 20.00    -0.130 Cl
ENDBRANCH   6   8
TORSDOF 1
