REMARK  2 active torsions:
REMARK  status: ('A' for Active; 'I' for Inactive)
REMARK    1  A    between atoms: C7_7  and  C8_8 
REMARK    2  A    between atoms: C9_9  and  C10_10 
ROOT
HETATM    1  C1  UNL     1     -31.507   8.526   3.290  1.00 20.00     0.047 C 
HETATM    2  C2  UNL     1     -31.977   7.875   4.376  1.00 20.00    -0.017 C 
HETATM    3  C5  UNL     1     -32.248   7.931   2.126  1.00 20.00     0.154 C 
HETATM    4  C7  UNL     1     -33.197   7.099   4.013  1.00 20.00     0.028 C 
HETATM    5  C10 UNL     1     -32.766   6.620   2.605  1.00 20.00     0.075 C 
HETATM    6  O11 UNL     1     -32.302   8.394   1.003  1.00 20.00    -0.293 OA
ENDROOT
BRANCH   5   7
HETATM    7  C9  UNL     1     -33.826   5.586   2.262  1.00 20.00     0.021 C 
HETATM    8  C4  UNL     1     -35.245   6.000   2.578  1.00 20.00    -0.025 C 
HETATM    9  C3  UNL     1     -35.363   6.083   3.917  1.00 20.00    -0.025 C 
HETATM   10  C8  UNL     1     -33.973   5.853   4.510  1.00 20.00     0.017 C 
HETATM   11  C6  UNL     1     -33.596   4.721   3.540  1.00 20.00     0.018 C 
ENDBRANCH   5   7
TORSDOF 2
