REMARK  0 active torsions:
REMARK  status: ('A' for Active; 'I' for Inactive)
ROOT
HETATM    1  C1  UNL     1     -34.112   4.061   4.829  1.00 20.00     0.028 C 
HETATM    2  C2  UNL     1     -34.351   4.850   6.091  1.00 20.00     0.028 C 
HETATM    3  C3  UNL     1     -34.637   5.004   3.768  1.00 20.00     0.167 C 
HETATM    4  C4  UNL     1     -34.050   6.262   5.637  1.00 20.00     0.167 C 
HETATM    5  O5  UNL     1     -34.410   6.336   4.251  1.00 20.00    -0.391 OA
ENDROOT
TORSDOF 0
