REMARK  3 active torsions:
REMARK  status: ('A' for Active; 'I' for Inactive)
REMARK    1  A    between atoms: C1_1  and  C7_7 
REMARK    2  A    between atoms: C1_1  and  O9_9 
REMARK    3  A    between atoms: C5_5  and  C7_7 
ROOT
HETATM    1  C2  UNL     1     -31.872   8.326   1.390  1.00 20.00     0.011 A 
HETATM    2  C3  UNL     1     -32.380   9.688   1.875  1.00 20.00     0.011 A 
HETATM    3  C4  UNL     1     -32.150   8.135   4.081  1.00 20.00     0.015 A 
HETATM    4  C5  UNL     1     -33.535   7.841   3.486  1.00 20.00     0.005 A 
HETATM    5  C6  UNL     1     -32.486   8.491   2.704  1.00 20.00    -0.036 A 
ENDROOT
BRANCH   4   6
HETATM    6  C7  UNL     1     -33.938   6.438   3.193  1.00 20.00     0.115 C 
BRANCH   6   7
HETATM    7  C1  UNL     1     -34.502   5.716   4.404  1.00 20.00     0.139 C 
HETATM    8  O8  UNL     1     -34.666   6.215   5.508  1.00 20.00    -0.650 OA
BRANCH   7   9
HETATM    9  O9  UNL     1     -34.808   4.427   4.106  1.00 20.00    -0.776 OA
HETATM   10  H19 UNL     1     -35.174   3.950   4.881  1.00 20.00     0.167 HD
ENDBRANCH   7   9
ENDBRANCH   6   7
ENDBRANCH   4   6
TORSDOF 3
