REMARK  0 active torsions:
REMARK  status: ('A' for Active; 'I' for Inactive)
ROOT
HETATM    1  C1  UNL     1     -33.094   6.880   3.935  1.00 20.00     0.260 C 
HETATM    2  C2  UNL     1     -33.724   6.032   2.860  1.00 20.00     0.137 C 
HETATM    3  C3  UNL     1     -33.489   4.551   3.102  1.00 20.00     0.177 C 
HETATM    4  C4  UNL     1     -34.697   5.878   5.499  1.00 20.00     0.205 C 
HETATM    5  C5  UNL     1     -34.346   4.411   5.326  1.00 20.00     0.194 C 
HETATM    6  O6  UNL     1     -32.196   7.680   3.684  1.00 20.00    -0.265 OA
HETATM    7  O7  UNL     1     -33.566   6.722   5.195  1.00 20.00    -0.319 OA
HETATM    8  O8  UNL     1     -34.478   4.001   3.967  1.00 20.00    -0.389 OA
ENDROOT
TORSDOF 0
