REMARK  0 active torsions:
REMARK  status: ('A' for Active; 'I' for Inactive)
ROOT
HETATM    1  C1  UNL     1     -33.717   6.785   3.641  1.00 20.00     0.201 C 
HETATM    2  C2  UNL     1     -34.113   5.409   5.696  1.00 20.00     0.099 C 
HETATM    3  C3  UNL     1     -34.440   6.723   4.982  1.00 20.00     0.074 C 
HETATM    4  C4  UNL     1     -34.066   7.916   5.855  1.00 20.00     0.020 C 
HETATM    5  O5  UNL     1     -33.463   7.816   3.033  1.00 20.00    -0.284 OA
HETATM    6  S6  UNL     1     -33.318   5.198   2.982  1.00 20.00    -0.019 SA
HETATM    7  S7  UNL     1     -34.249   4.121   4.446  1.00 20.00    -0.089 SA
ENDROOT
TORSDOF 0
