REMARK  3 active torsions:
REMARK  status: ('A' for Active; 'I' for Inactive)
REMARK    1  A    between atoms: C1_1  and  C3_3 
REMARK    2  A    between atoms: C1_1  and  O4_4 
REMARK    3  A    between atoms: C2_2  and  O4_4 
ROOT
HETATM    1  C1  UNL     1     -33.793   6.311   4.857  1.00 20.00     0.330 C 
HETATM    2 CL10 UNL     1     -34.613   6.179   6.435  1.00 20.00    -0.086 Cl
ENDROOT
BRANCH   1   3
HETATM    3  C3  UNL     1     -34.546   5.500   3.823  1.00 20.00     0.427 C 
HETATM    4  F7  UNL     1     -34.627   4.197   4.167  1.00 20.00    -0.167 F 
HETATM    5  F8  UNL     1     -33.927   5.570   2.623  1.00 20.00    -0.167 F 
HETATM    6  F9  UNL     1     -35.803   5.966   3.655  1.00 20.00    -0.167 F 
ENDBRANCH   1   3
BRANCH   1   7
HETATM    7  O4  UNL     1     -33.786   7.673   4.432  1.00 20.00    -0.302 OA
BRANCH   7   8
HETATM    8  C2  UNL     1     -32.663   7.994   3.629  1.00 20.00     0.501 C 
HETATM    9  F5  UNL     1     -32.713   7.214   2.521  1.00 20.00    -0.184 F 
HETATM   10  F6  UNL     1     -32.778   9.278   3.212  1.00 20.00    -0.184 F 
ENDBRANCH   7   8
ENDBRANCH   1   7
TORSDOF 3
