REMARK  1 active torsions:
REMARK  status: ('A' for Active; 'I' for Inactive)
REMARK    1  A    between atoms: C3_3  and  C8_8 
ROOT
HETATM    1  C1  UNL     1     -33.708   4.616   3.617  1.00 20.00    -0.026 C 
HETATM    2  C2  UNL     1     -33.814   5.379   2.519  1.00 20.00    -0.025 C 
HETATM    3  C4  UNL     1     -35.534   5.999   3.930  1.00 20.00     0.017 C 
HETATM    4  C5  UNL     1     -33.547   6.580   5.106  1.00 20.00     0.021 C 
HETATM    5  C6  UNL     1     -34.405   5.349   4.737  1.00 20.00     0.009 C 
HETATM    6  C7  UNL     1     -34.574   6.628   2.912  1.00 20.00     0.019 C 
HETATM    7  C8  UNL     1     -33.697   7.489   3.852  1.00 20.00     0.063 C 
ENDROOT
BRANCH   7   8
HETATM    8  C3  UNL     1     -32.383   7.879   3.250  1.00 20.00     0.128 C 
HETATM    9  C9  UNL     1     -31.447   8.671   4.122  1.00 20.00     0.091 C 
HETATM   10  O10 UNL     1     -32.083   7.567   2.098  1.00 20.00    -0.298 OA
ENDBRANCH   7   8
TORSDOF 1
