REMARK  0 active torsions:
REMARK  status: ('A' for Active; 'I' for Inactive)
ROOT
HETATM    1  C1  UNL     1     -35.965   5.106   4.424  1.00 20.00     0.270 A 
HETATM    2  C2  UNL     1     -34.580   5.293   5.110  1.00 20.00     0.072 A 
HETATM    3  C3  UNL     1     -34.278   6.109   3.794  1.00 20.00     0.079 A 
HETATM    4  C4  UNL     1     -33.830   3.977   5.318  1.00 20.00     0.029 C 
HETATM    5  C5  UNL     1     -34.662   6.071   6.424  1.00 20.00     0.029 C 
HETATM    6  C6  UNL     1     -33.261   5.524   2.814  1.00 20.00     0.047 C 
HETATM    7  C7  UNL     1     -34.093   7.621   3.923  1.00 20.00     0.047 C 
HETATM    8  O8  UNL     1     -37.015   4.557   4.674  1.00 20.00    -0.264 OA
HETATM    9  O9  UNL     1     -35.632   5.823   3.319  1.00 20.00    -0.309 OA
ENDROOT
TORSDOF 0
