REMARK  2 active torsions:
REMARK  status: ('A' for Active; 'I' for Inactive)
REMARK    1  A    between atoms: C1_1  and  C3_3 
REMARK    2  A    between atoms: C3_3  and  O6_6 
ROOT
HETATM    1  C1  UNL     1     -32.920   7.152   4.637  1.00 20.00     0.156 C 
HETATM    2  C2  UNL     1     -34.124   6.763   5.066  1.00 20.00     0.273 C 
HETATM    3  F7  UNL     1     -34.394   6.797   6.388  1.00 20.00    -0.173 F 
HETATM    4  F8  UNL     1     -35.074   6.336   4.208  1.00 20.00    -0.173 F 
ENDROOT
BRANCH   1   5
HETATM    5  C3  UNL     1     -32.575   7.134   3.199  1.00 20.00     0.287 C 
HETATM    6  O5  UNL     1     -32.573   6.146   2.482  1.00 20.00    -0.260 OA
BRANCH   5   7
HETATM    7  O6  UNL     1     -32.266   8.408   2.836  1.00 20.00    -0.323 OA
HETATM    8  C4  UNL     1     -31.902   8.585   1.462  1.00 20.00     0.213 C 
ENDBRANCH   5   7
ENDBRANCH   1   5
TORSDOF 2
