REMARK  0 active torsions:
REMARK  status: ('A' for Active; 'I' for Inactive)
ROOT
HETATM    1  C1  UNL     1     -34.158   5.682   2.909  1.00 20.00     0.008 C 
HETATM    2  C2  UNL     1     -33.867   6.964   2.319  1.00 20.00     0.028 C 
HETATM    3  C3  UNL     1     -34.103   6.325   5.303  1.00 20.00     0.034 C 
HETATM    4  C4  UNL     1     -34.266   5.382   4.213  1.00 20.00    -0.060 C 
HETATM    5  C5  UNL     1     -33.137   7.957   2.841  1.00 20.00     0.085 C 
HETATM    6  C6  UNL     1     -33.345   7.429   5.331  1.00 20.00     0.086 C 
HETATM    7  C7  UNL     1     -32.546   7.981   4.205  1.00 20.00     0.215 C 
HETATM    8  C8  UNL     1     -34.616   3.983   4.647  1.00 20.00     0.048 C 
HETATM    9  O9  UNL     1     -31.466   8.532   4.411  1.00 20.00    -0.285 OA
HETATM   10 CL10 UNL     1     -32.800   9.360   1.876  1.00 20.00    -0.080 Cl
HETATM   11 CL11 UNL     1     -33.223   8.331   6.811  1.00 20.00    -0.080 Cl
ENDROOT
TORSDOF 0
