REMARK  0 active torsions:
REMARK  status: ('A' for Active; 'I' for Inactive)
ROOT
HETATM    1  C1  UNL     1     -34.365   4.679   5.715  1.00 20.00     0.020 C 
HETATM    2  C2  UNL     1     -34.475   3.964   4.371  1.00 20.00     0.075 C 
HETATM    3  C3  UNL     1     -34.660   6.175   5.661  1.00 20.00     0.075 C 
HETATM    4  C4  UNL     1     -33.660   6.267   3.095  1.00 20.00     0.147 C 
HETATM    5  S5  UNL     1     -33.224   4.514   3.172  1.00 20.00    -0.159 SA
HETATM    6  S6  UNL     1     -33.441   7.103   4.683  1.00 20.00    -0.159 SA
ENDROOT
TORSDOF 0
