REMARK  0 active torsions:
REMARK  status: ('A' for Active; 'I' for Inactive)
ROOT
HETATM    1  C1  UNL     1     -34.185   4.898   3.418  1.00 20.00     0.149 C 
HETATM    2  C2  UNL     1     -33.883   7.504   4.287  1.00 20.00     0.149 C 
HETATM    3  C3  UNL     1     -34.842   5.573   6.016  1.00 20.00     0.149 C 
HETATM    4  S4  UNL     1     -33.068   6.308   3.197  1.00 20.00    -0.149 SA
HETATM    5  S5  UNL     1     -34.117   4.196   5.088  1.00 20.00    -0.149 SA
HETATM    6  S6  UNL     1     -33.786   7.046   6.038  1.00 20.00    -0.149 SA
ENDROOT
TORSDOF 0
