REMARK  2 active torsions:
REMARK  status: ('A' for Active; 'I' for Inactive)
REMARK    1  A    between atoms: C1_1  and  C2_2 
REMARK    2  A    between atoms: C1_1  and  C3_3 
ROOT
HETATM    1  C1  UNL     1     -33.088   5.802   3.801  1.00 20.00     0.374 C 
HETATM    2  O4  UNL     1     -33.201   5.858   2.486  1.00 20.00    -0.216 OA
ENDROOT
BRANCH   1   3
HETATM    3  C2  UNL     1     -34.278   5.004   4.348  1.00 20.00     0.424 C 
HETATM    4  F5  UNL     1     -34.317   5.076   5.701  1.00 20.00    -0.168 F 
HETATM    5  F6  UNL     1     -35.466   5.454   3.888  1.00 20.00    -0.168 F 
HETATM    6  F7  UNL     1     -34.182   3.691   4.030  1.00 20.00    -0.168 F 
ENDBRANCH   1   3
BRANCH   1   7
HETATM    7  C3  UNL     1     -33.118   7.237   4.343  1.00 20.00     0.424 C 
HETATM    8  F8  UNL     1     -32.004   7.923   3.993  1.00 20.00    -0.168 F 
HETATM    9  F9  UNL     1     -33.166   7.233   5.697  1.00 20.00    -0.168 F 
HETATM   10  F10 UNL     1     -34.188   7.938   3.906  1.00 20.00    -0.168 F 
ENDBRANCH   1   7
TORSDOF 2
