REMARK  0 active torsions:
REMARK  status: ('A' for Active; 'I' for Inactive)
ROOT
HETATM    1  C1  UNL     1     -34.112   4.374   5.606  1.00 20.00     0.177 C 
HETATM    2  C2  UNL     1     -34.352   6.577   4.758  1.00 20.00     0.177 C 
HETATM    3  C3  UNL     1     -34.126   3.662   4.263  1.00 20.00     0.100 C 
HETATM    4  C4  UNL     1     -34.402   6.198   3.286  1.00 20.00     0.100 C 
HETATM    5  O5  UNL     1     -34.912   5.556   5.582  1.00 20.00    -0.390 OA
HETATM    6  S6  UNL     1     -33.398   4.717   2.977  1.00 20.00    -0.165 SA
ENDROOT
TORSDOF 0
