REMARK  0 active torsions:
REMARK  status: ('A' for Active; 'I' for Inactive)
ROOT
HETATM    1  C1  UNL     1     -32.566   7.222   3.246  1.00 20.00     0.127 C 
HETATM    2  C2  UNL     1     -32.344   7.744   4.650  1.00 20.00     0.078 C 
HETATM    3  C3  UNL     1     -32.684   5.724   3.071  1.00 20.00     0.078 C 
HETATM    4  C4  UNL     1     -33.599   7.709   5.520  1.00 20.00     0.007 C 
HETATM    5  C5  UNL     1     -34.107   5.286   2.756  1.00 20.00     0.007 C 
HETATM    6  C6  UNL     1     -34.066   6.296   5.883  1.00 20.00     0.000 C 
HETATM    7  C7  UNL     1     -35.223   5.972   3.543  1.00 20.00     0.000 C 
HETATM    8  C8  UNL     1     -35.231   5.746   5.055  1.00 20.00     0.000 C 
HETATM    9  O9  UNL     1     -32.673   7.988   2.288  1.00 20.00    -0.298 OA
ENDROOT
TORSDOF 0
