REMARK  1 active torsions:
REMARK  status: ('A' for Active; 'I' for Inactive)
REMARK    1  A    between atoms: C1_1  and  C2_2 
ROOT
HETATM    1  C2  UNL     1     -34.271   5.912   4.221  1.00 20.00     0.281 C 
HETATM    2 CL5  UNL     1     -34.148   4.385   5.111  1.00 20.00    -0.073 Cl
HETATM    3 CL6  UNL     1     -33.977   7.290   5.295  1.00 20.00    -0.073 Cl
HETATM    4 CL7  UNL     1     -35.860   6.043   3.447  1.00 20.00    -0.073 Cl
ENDROOT
BRANCH   1   5
HETATM    5  C1  UNL     1     -33.206   5.947   3.160  1.00 20.00     0.352 C 
HETATM    6  O3  UNL     1     -32.742   4.972   2.585  1.00 20.00    -0.255 OA
HETATM    7  F4  UNL     1     -32.766   7.144   2.741  1.00 20.00    -0.160 F 
ENDBRANCH   1   5
TORSDOF 1
