REMARK  2 active torsions:
REMARK  status: ('A' for Active; 'I' for Inactive)
REMARK    1  A    between atoms: C1_1  and  O10_10 
REMARK    2  A    between atoms: C8_8  and  O10_10 
ROOT
HETATM    1  C2  UNL     1     -34.166   4.073   5.146  1.00 20.00     0.005 C 
HETATM    2  C3  UNL     1     -33.810   4.254   3.662  1.00 20.00     0.007 C 
HETATM    3  C4  UNL     1     -35.496   5.827   4.243  1.00 20.00     0.012 C 
HETATM    4  C5  UNL     1     -33.639   6.486   5.580  1.00 20.00     0.037 C 
HETATM    5  C6  UNL     1     -34.767   5.437   5.527  1.00 20.00    -0.012 C 
HETATM    6  C7  UNL     1     -34.237   5.703   3.380  1.00 20.00     0.015 C 
HETATM    7  C8  UNL     1     -33.261   6.653   4.100  1.00 20.00     0.135 C 
ENDROOT
BRANCH   7   8
HETATM    8  O10 UNL     1     -33.486   7.997   3.697  1.00 20.00    -0.323 OA
BRANCH   8   9
HETATM    9  C1  UNL     1     -32.705   8.447   2.676  1.00 20.00     0.398 C 
HETATM   10  O9  UNL     1     -31.842   7.826   2.077  1.00 20.00    -0.276 OA
ENDBRANCH   8   9
ENDBRANCH   7   8
TORSDOF 2
