REMARK  0 active torsions:
REMARK  status: ('A' for Active; 'I' for Inactive)
ROOT
HETATM    1  C1  UNL     1     -34.111   6.731   5.332  1.00 20.00     0.016 C 
HETATM    2  C2  UNL     1     -35.125   7.165   4.274  1.00 20.00     0.016 C 
HETATM    3  C3  UNL     1     -34.716   5.514   6.022  1.00 20.00     0.140 C 
HETATM    4  C4  UNL     1     -35.497   5.903   3.504  1.00 20.00     0.140 C 
HETATM    5  O5  UNL     1     -36.918   4.380   5.123  1.00 20.00    -0.228 OA
HETATM    6  O6  UNL     1     -34.679   3.525   4.290  1.00 20.00    -0.228 OA
HETATM    7  S7  UNL     1     -35.543   4.602   4.727  1.00 20.00     0.144 S 
ENDROOT
TORSDOF 0
