REMARK  0 active torsions:
REMARK  status: ('A' for Active; 'I' for Inactive)
ROOT
HETATM    1  C1  UNL     1     -34.318   6.221   4.947  1.00 20.00     0.090 A 
HETATM    2  C2  UNL     1     -33.951   3.880   4.517  1.00 20.00     0.167 A 
HETATM    3  C3  UNL     1     -33.763   5.915   3.722  1.00 20.00     0.109 A 
HETATM    4  N4  UNL     1     -33.552   4.573   3.474  1.00 20.00    -0.246 NA
HETATM    5  S5  UNL     1     -34.592   4.778   5.832  1.00 20.00    -0.092 SA
HETATM    6 BR6  UNL     1     -33.304   7.224   2.432  1.00 20.00    -0.029 Br
ENDROOT
TORSDOF 0
