REMARK  0 active torsions:
REMARK  status: ('A' for Active; 'I' for Inactive)
ROOT
HETATM    1  C1  UNL     1     -33.204   5.454   3.217  1.00 20.00     0.056 C 
HETATM    2  C2  UNL     1     -32.687   7.600   3.130  1.00 20.00     0.264 C 
HETATM    3  C3  UNL     1     -33.016   4.148   2.992  1.00 20.00     0.047 C 
HETATM    4  C4  UNL     1     -33.524   7.442   4.362  1.00 20.00     0.127 C 
HETATM    5  C5  UNL     1     -34.159   6.070   4.198  1.00 20.00     0.010 C 
HETATM    6  C6  UNL     1     -34.241   5.347   5.548  1.00 20.00     0.022 C 
HETATM    7  C7  UNL     1     -35.560   6.182   3.579  1.00 20.00     0.022 C 
HETATM    8  O8  UNL     1     -32.219   8.663   2.744  1.00 20.00    -0.265 OA
HETATM    9  O9  UNL     1     -32.456   6.401   2.519  1.00 20.00    -0.283 OA
ENDROOT
TORSDOF 0
