REMARK  0 active torsions:
REMARK  status: ('A' for Active; 'I' for Inactive)
ROOT
HETATM    1  C1  UNL     1     -33.577   6.282   3.461  1.00 20.00     0.086 C 
HETATM    2  C2  UNL     1     -34.418   5.895   4.590  1.00 20.00     0.235 C 
HETATM    3  N3  UNL     1     -32.912   6.591   2.562  1.00 20.00    -0.195 NA
HETATM    4 BR4  UNL     1     -34.026   7.004   6.143  1.00 20.00    -0.063 Br
HETATM    5 BR5  UNL     1     -34.201   3.999   4.982  1.00 20.00    -0.063 Br
ENDROOT
TORSDOF 0
