REMARK  1 active torsions:
REMARK  status: ('A' for Active; 'I' for Inactive)
REMARK    1  A    between atoms: C2_2  and  C4_4 
ROOT
HETATM    1  C1  UNL     1     -35.726   5.851   3.684  1.00 20.00     0.207 A 
HETATM    2  C2  UNL     1     -34.411   5.269   4.143  1.00 20.00     0.091 A 
HETATM    3  C3  UNL     1     -34.331   4.584   5.469  1.00 20.00     0.049 C 
HETATM    4  O5  UNL     1     -34.685   6.674   4.233  1.00 20.00    -0.374 OA
ENDROOT
BRANCH   2   5
HETATM    5  C4  UNL     1     -33.366   4.923   3.133  1.00 20.00     0.154 C 
HETATM    6 CL6  UNL     1     -32.475   6.376   2.607  1.00 20.00    -0.127 Cl
ENDBRANCH   2   5
TORSDOF 1
