REMARK  1 active torsions:
REMARK  status: ('A' for Active; 'I' for Inactive)
REMARK    1  A    between atoms: C1_1  and  C3_3 
ROOT
HETATM    1  C2  UNL     1     -34.891   6.060   3.453  1.00 20.00     0.065 A 
HETATM    2  C3  UNL     1     -33.604   6.675   3.965  1.00 20.00     0.070 A 
HETATM    3  C4  UNL     1     -33.713   5.167   3.735  1.00 20.00     0.130 A 
HETATM    4  C5  UNL     1     -33.622   7.219   5.375  1.00 20.00     0.028 C 
HETATM    5 CL8  UNL     1     -32.910   4.427   2.344  1.00 20.00    -0.100 Cl
HETATM    6 CL9  UNL     1     -33.826   4.062   5.105  1.00 20.00    -0.100 Cl
ENDROOT
BRANCH   2   7
HETATM    7  C1  UNL     1     -32.807   7.466   2.993  1.00 20.00     0.230 C 
HETATM    8  O6  UNL     1     -33.172   7.616   1.831  1.00 20.00    -0.279 OA
HETATM    9 CL7  UNL     1     -31.361   8.114   3.706  1.00 20.00    -0.043 Cl
ENDBRANCH   2   7
TORSDOF 1
