REMARK  1 active torsions:
REMARK  status: ('A' for Active; 'I' for Inactive)
REMARK    1  A    between atoms: C8_8  and  O9_9 
ROOT
HETATM    1  C1  UNL     1     -33.416   7.272   2.815  1.00 20.00     0.010 C 
HETATM    2  C2  UNL     1     -33.104   6.737   5.104  1.00 20.00     0.012 C 
HETATM    3  C3  UNL     1     -35.375   7.124   4.143  1.00 20.00     0.012 C 
HETATM    4  C4  UNL     1     -33.935   7.662   4.198  1.00 20.00    -0.013 C 
HETATM    5  C5  UNL     1     -33.726   5.790   2.951  1.00 20.00    -0.001 C 
HETATM    6  C6  UNL     1     -33.231   5.383   4.378  1.00 20.00     0.019 C 
HETATM    7  C7  UNL     1     -35.165   5.714   3.559  1.00 20.00     0.019 C 
HETATM    8  C8  UNL     1     -34.591   4.647   4.535  1.00 20.00     0.127 C 
ENDROOT
BRANCH   8   9
HETATM    9  O9  UNL     1     -35.154   4.600   5.857  1.00 20.00    -0.395 OA
HETATM   10  H21 UNL     1     -35.985   4.114   5.773  1.00 20.00     0.210 HD
ENDBRANCH   8   9
TORSDOF 1
