REMARK  1 active torsions:
REMARK  status: ('A' for Active; 'I' for Inactive)
REMARK    1  A    between atoms: C7_7  and  C11_11 
ROOT
HETATM    1  C1  UNL     1     -33.961   5.320   3.590  1.00 20.00    -0.018 C 
HETATM    2  C2  UNL     1     -33.632   6.192   2.413  1.00 20.00     0.159 C 
HETATM    3  C3  UNL     1     -33.836   3.995   3.440  1.00 20.00     0.023 C 
HETATM    4  C4  UNL     1     -33.323   7.093   5.245  1.00 20.00     0.010 C 
HETATM    5  C5  UNL     1     -32.507   7.674   4.082  1.00 20.00     0.013 C 
HETATM    6  C6  UNL     1     -34.401   6.077   4.819  1.00 20.00     0.017 C 
HETATM    7  C7  UNL     1     -33.254   7.635   2.745  1.00 20.00     0.063 C 
HETATM    8  C8  UNL     1     -34.817   5.219   6.018  1.00 20.00     0.015 C 
HETATM    9  O12 UNL     1     -33.708   5.775   1.260  1.00 20.00    -0.292 OA
ENDROOT
BRANCH   7  10
HETATM   10  C11 UNL     1     -32.397   8.243   1.637  1.00 20.00    -0.011 C 
HETATM   11  C9  UNL     1     -33.268   8.665   0.456  1.00 20.00     0.010 C 
HETATM   12  C10 UNL     1     -31.598   9.431   2.168  1.00 20.00     0.010 C 
ENDBRANCH   7  10
TORSDOF 1
