REMARK  0 active torsions:
REMARK  status: ('A' for Active; 'I' for Inactive)
ROOT
HETATM    1  C1  UNL     1     -33.974   4.538   2.592  1.00 20.00    -0.024 C 
HETATM    2  C2  UNL     1     -33.806   4.305   3.900  1.00 20.00    -0.024 C 
HETATM    3  C3  UNL     1     -32.526   7.042   3.539  1.00 20.00     0.164 C 
HETATM    4  C4  UNL     1     -35.274   6.096   3.722  1.00 20.00     0.021 C 
HETATM    5  C5  UNL     1     -34.537   5.924   2.392  1.00 20.00     0.034 C 
HETATM    6  C6  UNL     1     -34.242   5.513   4.691  1.00 20.00     0.034 C 
HETATM    7  C7  UNL     1     -33.389   6.936   2.275  1.00 20.00     0.161 C 
HETATM    8  C8  UNL     1     -33.058   6.475   4.861  1.00 20.00     0.161 C 
HETATM    9  O9  UNL     1     -31.442   7.634   3.506  1.00 20.00    -0.295 OA
HETATM   10 CL10 UNL     1     -34.015   8.576   1.950  1.00 20.00    -0.116 Cl
HETATM   11 CL11 UNL     1     -33.513   7.876   5.868  1.00 20.00    -0.116 Cl
ENDROOT
TORSDOF 0
