REMARK  1 active torsions:
REMARK  status: ('A' for Active; 'I' for Inactive)
REMARK    1  A    between atoms: C4_4  and  C7_7 
ROOT
HETATM    1  C1  UNL     1     -32.923   6.771   1.108  1.00 20.00     0.015 A 
HETATM    2  C2  UNL     1     -33.270   5.627   1.827  1.00 20.00     0.008 A 
HETATM    3  C3  UNL     1     -33.312   8.118   3.071  1.00 20.00     0.022 A 
HETATM    4  C4  UNL     1     -32.947   8.016   1.730  1.00 20.00     0.002 A 
HETATM    5  C5  UNL     1     -33.650   5.718   3.175  1.00 20.00    -0.052 A 
HETATM    6  C6  UNL     1     -33.653   6.974   3.809  1.00 20.00    -0.051 A 
HETATM    7  C8  UNL     1     -33.985   4.455   3.928  1.00 20.00     0.039 C 
HETATM    8  C9  UNL     1     -34.075   7.130   5.248  1.00 20.00     0.039 C 
HETATM    9  C10 UNL     1     -34.732   4.712   5.235  1.00 20.00     0.005 C 
HETATM   10  C11 UNL     1     -34.049   5.818   6.030  1.00 20.00     0.005 C 
ENDROOT
BRANCH   4  11
HETATM   11  C7  UNL     1     -32.591   9.210   0.980  1.00 20.00     0.269 C 
HETATM   12  O12 UNL     1     -32.260   9.186  -0.209  1.00 20.00    -0.301 OA
ENDBRANCH   4  11
TORSDOF 1
