REMARK  0 active torsions:
REMARK  status: ('A' for Active; 'I' for Inactive)
ROOT
HETATM    1  C1  UNL     1     -32.034   8.543   4.223  1.00 20.00     0.009 A 
HETATM    2  C2  UNL     1     -31.984   8.831   2.859  1.00 20.00     0.019 A 
HETATM    3  C3  UNL     1     -33.813   7.303   2.466  1.00 20.00     0.034 A 
HETATM    4  C4  UNL     1     -33.864   7.014   3.835  1.00 20.00     0.017 A 
HETATM    5  C5  UNL     1     -32.982   7.642   4.728  1.00 20.00    -0.044 A 
HETATM    6  C6  UNL     1     -32.874   8.214   1.983  1.00 20.00     0.011 A 
HETATM    7  C7  UNL     1     -34.854   6.024   4.335  1.00 20.00     0.160 C 
HETATM    8  C8  UNL     1     -33.002   7.334   6.201  1.00 20.00     0.040 C 
HETATM    9  C9  UNL     1     -34.866   5.710   5.815  1.00 20.00     0.084 C 
HETATM   10  C10 UNL     1     -34.387   6.887   6.648  1.00 20.00     0.012 C 
HETATM   11  O11 UNL     1     -35.602   5.443   3.554  1.00 20.00    -0.292 OA
HETATM   12 BR12 UNL     1     -32.801   8.603   0.134  1.00 20.00    -0.051 Br
ENDROOT
TORSDOF 0
