REMARK  3 active torsions:
REMARK  status: ('A' for Active; 'I' for Inactive)
REMARK    1  A    between atoms: C7_7  and  C8_8 
REMARK    2  A    between atoms: C7_7  and  N9_9 
REMARK    3  A    between atoms: C8_8  and  N10_10 
ROOT
HETATM    1  C1  UNL     1     -32.488   9.685   0.965  1.00 20.00     0.157 C 
HETATM    2  N9  UNL     1     -32.139   9.559   2.079  1.00 20.00    -0.274 NA
HETATM    3  S11 UNL     1     -32.956   9.886  -0.544  1.00 20.00    -0.055 SA
ENDROOT
BRANCH   2   4
HETATM    4  C7  UNL     1     -32.206   8.189   2.594  1.00 20.00     0.178 C 
BRANCH   4   5
HETATM    5  C8  UNL     1     -33.566   7.944   3.220  1.00 20.00     0.256 C 
BRANCH   5   6
HETATM    6  N10 UNL     1     -33.622   6.549   3.780  1.00 20.00    -0.070 N 
HETATM    7  C5  UNL     1     -34.746   6.393   4.777  1.00 20.00     0.235 C 
HETATM    8  C3  UNL     1     -34.679   5.006   5.400  1.00 20.00     0.028 C 
HETATM    9  C2  UNL     1     -34.705   3.909   4.341  1.00 20.00     0.003 C 
HETATM   10  C4  UNL     1     -33.611   4.122   3.299  1.00 20.00     0.028 C 
HETATM   11  C6  UNL     1     -33.681   5.512   2.684  1.00 20.00     0.235 C 
HETATM   12  H26 UNL     1     -32.739   6.405   4.289  1.00 20.00     0.279 HD
ENDBRANCH   5   6
ENDBRANCH   4   5
ENDBRANCH   2   4
TORSDOF 3
