REMARK  0 active torsions:
REMARK  status: ('A' for Active; 'I' for Inactive)
ROOT
HETATM    1  C1  UNL     1     -33.580   7.330   4.153  1.00 20.00     0.142 C 
HETATM    2  C2  UNL     1     -32.742   4.880   2.757  1.00 20.00     0.002 C 
HETATM    3  C3  UNL     1     -31.862   6.120   2.707  1.00 20.00     0.016 C 
HETATM    4  C4  UNL     1     -33.421   4.785   4.116  1.00 20.00     0.016 C 
HETATM    5  C5  UNL     1     -32.633   7.431   2.940  1.00 20.00     0.014 C 
HETATM    6  C6  UNL     1     -34.303   6.000   4.448  1.00 20.00     0.014 C 
HETATM    7  C7  UNL     1     -31.601   8.545   3.210  1.00 20.00     0.023 C 
HETATM    8  C8  UNL     1     -33.443   7.830   1.697  1.00 20.00     0.023 C 
HETATM    9  C9  UNL     1     -35.626   5.959   3.670  1.00 20.00     0.023 C 
HETATM   10  C10 UNL     1     -34.637   5.944   5.954  1.00 20.00     0.023 C 
HETATM   11  O11 UNL     1     -33.834   8.336   4.825  1.00 20.00    -0.296 OA
ENDROOT
TORSDOF 0
