REMARK  1 active torsions:
REMARK  status: ('A' for Active; 'I' for Inactive)
REMARK    1  A    between atoms: C2_2  and  O3_3 
ROOT
HETATM    1  C2  UNL     1     -34.389   6.212   5.078  1.00 20.00     0.314 C 
HETATM    2 CL4  UNL     1     -34.266   4.483   5.477  1.00 20.00    -0.078 Cl
HETATM    3 CL5  UNL     1     -33.904   7.187   6.480  1.00 20.00    -0.078 Cl
ENDROOT
BRANCH   1   4
HETATM    4  O3  UNL     1     -33.528   6.480   3.977  1.00 20.00    -0.362 OA
HETATM    5  C1  UNL     1     -34.086   6.074   2.735  1.00 20.00     0.204 C 
ENDBRANCH   1   4
TORSDOF 1
