REMARK  1 active torsions:
REMARK  status: ('A' for Active; 'I' for Inactive)
REMARK    1  A    between atoms: C3_3  and  C6_6 
ROOT
HETATM    1  C1  UNL     1     -33.147   7.402   4.569  1.00 20.00     0.272 C 
HETATM    2  C2  UNL     1     -33.130   6.411   2.447  1.00 20.00     0.055 C 
HETATM    3  C3  UNL     1     -33.182   6.042   3.917  1.00 20.00     0.195 C 
HETATM    4  C4  UNL     1     -32.271   7.657   2.468  1.00 20.00     0.129 C 
HETATM    5  C5  UNL     1     -32.520   8.577   1.288  1.00 20.00     0.040 C 
HETATM    6  O7  UNL     1     -33.489   7.662   5.712  1.00 20.00    -0.265 OA
HETATM    7  O8  UNL     1     -32.636   8.319   3.687  1.00 20.00    -0.316 OA
ENDROOT
BRANCH   3   8
HETATM    8  C6  UNL     1     -34.422   5.247   4.280  1.00 20.00     0.400 C 
HETATM    9  F9  UNL     1     -34.470   5.031   5.607  1.00 20.00    -0.170 F 
HETATM   10  F10 UNL     1     -35.531   5.915   3.915  1.00 20.00    -0.170 F 
HETATM   11  F11 UNL     1     -34.416   4.056   3.654  1.00 20.00    -0.170 F 
ENDBRANCH   3   8
TORSDOF 1
