REMARK  2 active torsions:
REMARK  status: ('A' for Active; 'I' for Inactive)
REMARK    1  A    between atoms: P5_5  and  P6_6 
REMARK    2  A    between atoms: P5_5  and  S8_8 
ROOT
HETATM    1  C1  UNL     1     -32.780   7.924   4.850  1.00 20.00     0.061 C 
HETATM    2  P5  UNL     1     -34.174   7.575   3.718  1.00 20.00    -0.021 P 
ENDROOT
BRANCH   2   3
HETATM    3  P6  UNL     1     -35.005   5.768   4.539  1.00 20.00    -0.027 P 
HETATM    4  C2  UNL     1     -34.022   4.363   4.013  1.00 20.00     0.060 C 
HETATM    5  C3  UNL     1     -34.682   5.836   6.308  1.00 20.00     0.060 C 
HETATM    6  S7  UNL     1     -36.897   5.653   4.092  1.00 20.00    -0.092 SA
ENDBRANCH   2   3
BRANCH   2   7
HETATM    7  S8  UNL     1     -33.182   6.852   2.004  1.00 20.00    -0.137 SA
HETATM    8  C4  UNL     1     -32.579   8.303   1.116  1.00 20.00     0.095 C 
ENDBRANCH   2   7
TORSDOF 2
