REMARK  1 active torsions:
REMARK  status: ('A' for Active; 'I' for Inactive)
REMARK    1  A    between atoms: C1_1  and  C2_2 
ROOT
HETATM    1  C2  UNL     1     -34.037   5.810   4.000  1.00 20.00     0.391 C 
HETATM    2  F4  UNL     1     -35.157   6.125   3.296  1.00 20.00    -0.178 F 
HETATM    3  F5  UNL     1     -33.222   5.141   3.145  1.00 20.00    -0.178 F 
HETATM    4 CL6  UNL     1     -34.474   4.756   5.352  1.00 20.00    -0.039 Cl
ENDROOT
BRANCH   1   5
HETATM    5  C1  UNL     1     -33.392   7.035   4.566  1.00 20.00     0.282 C 
HETATM    6  O3  UNL     1     -33.648   7.505   5.666  1.00 20.00    -0.277 OA
HETATM    7 BR7  UNL     1     -32.034   7.921   3.562  1.00 20.00    -0.001 Br
ENDBRANCH   1   5
TORSDOF 1
