REMARK  1 active torsions:
REMARK  status: ('A' for Active; 'I' for Inactive)
REMARK    1  A    between atoms: C1_1  and  C2_2 
ROOT
HETATM    1  C2  UNL     1     -33.940   5.671   3.847  1.00 20.00     0.395 C 
HETATM    2  F4  UNL     1     -33.231   5.110   2.832  1.00 20.00    -0.178 F 
HETATM    3  F5  UNL     1     -35.182   5.920   3.352  1.00 20.00    -0.178 F 
HETATM    4 CL7  UNL     1     -34.070   4.521   5.188  1.00 20.00    -0.038 Cl
ENDROOT
BRANCH   1   5
HETATM    5  C1  UNL     1     -33.307   6.930   4.378  1.00 20.00     0.307 C 
HETATM    6  O3  UNL     1     -32.636   7.660   3.653  1.00 20.00    -0.272 OA
HETATM    7 CL6  UNL     1     -33.670   7.225   6.054  1.00 20.00    -0.036 Cl
ENDBRANCH   1   5
TORSDOF 1
