REMARK  1 active torsions:
REMARK  status: ('A' for Active; 'I' for Inactive)
REMARK    1  A    between atoms: C5_5  and  C8_8 
ROOT
HETATM    1  C1  UNL     1     -32.944   7.600   4.460  1.00 20.00     0.010 C 
HETATM    2  C2  UNL     1     -34.068   6.909   5.230  1.00 20.00     0.035 C 
HETATM    3  C3  UNL     1     -32.937   5.897   2.597  1.00 20.00     0.041 C 
HETATM    4  C5  UNL     1     -33.086   7.389   2.944  1.00 20.00     0.019 C 
HETATM    5  C6  UNL     1     -34.268   5.491   4.799  1.00 20.00     0.151 A 
HETATM    6  C7  UNL     1     -33.741   4.998   3.478  1.00 20.00     0.151 A 
HETATM    7  O10 UNL     1     -35.114   5.358   3.640  1.00 20.00    -0.375 OA
ENDROOT
BRANCH   4   8
HETATM    8  C8  UNL     1     -32.078   8.215   2.187  1.00 20.00     0.149 A 
HETATM    9  C4  UNL     1     -32.354   9.649   1.884  1.00 20.00     0.200 A 
HETATM   10  O9  UNL     1     -32.523   8.617   0.898  1.00 20.00    -0.381 OA
ENDBRANCH   4   8
TORSDOF 1
