REMARK  2 active torsions:
REMARK  status: ('A' for Active; 'I' for Inactive)
REMARK    1  A    between atoms: C1_1  and  O5_5 
REMARK    2  A    between atoms: C3_3  and  O5_5 
ROOT
HETATM    1  O5  UNL     1     -33.607   7.340   3.328  1.00 20.00    -0.288 OA
ENDROOT
BRANCH   1   2
HETATM    2  C1  UNL     1     -32.535   8.062   2.870  1.00 20.00     0.359 C 
HETATM    3  O4  UNL     1     -31.571   8.356   3.570  1.00 20.00    -0.245 OA
HETATM    4 CL6  UNL     1     -32.704   8.507   1.192  1.00 20.00    -0.012 Cl
ENDBRANCH   1   2
BRANCH   1   5
HETATM    5  C3  UNL     1     -33.360   6.015   3.827  1.00 20.00     0.224 C 
HETATM    6  C2  UNL     1     -33.321   5.022   2.677  1.00 20.00     0.057 C 
HETATM    7 CL7  UNL     1     -34.691   5.593   4.938  1.00 20.00    -0.095 Cl
ENDBRANCH   1   5
TORSDOF 2
