REMARK  1 active torsions:
REMARK  status: ('A' for Active; 'I' for Inactive)
REMARK    1  A    between atoms: C1_1  and  C5_5 
ROOT
HETATM    1  C2  UNL     1     -34.135   7.718   4.770  1.00 20.00     0.006 C 
HETATM    2  C3  UNL     1     -33.811   6.319   5.309  1.00 20.00     0.006 C 
HETATM    3  C4  UNL     1     -35.180   6.081   3.411  1.00 20.00     0.011 C 
HETATM    4  C5  UNL     1     -33.281   7.097   2.431  1.00 20.00     0.067 C 
HETATM    5  C6  UNL     1     -34.510   7.453   3.299  1.00 20.00    -0.002 C 
HETATM    6  C7  UNL     1     -33.946   5.433   4.058  1.00 20.00    -0.006 C 
HETATM    7  C8  UNL     1     -32.814   5.728   3.016  1.00 20.00    -0.033 C 
HETATM    8  C10 UNL     1     -32.820   4.651   1.910  1.00 20.00     0.016 C 
HETATM    9  C11 UNL     1     -31.409   5.729   3.639  1.00 20.00     0.016 C 
ENDROOT
BRANCH   4  10
HETATM   10  C1  UNL     1     -32.263   8.196   2.384  1.00 20.00     0.128 C 
HETATM   11  C9  UNL     1     -31.981   8.800   1.035  1.00 20.00     0.091 C 
HETATM   12  O12 UNL     1     -31.688   8.587   3.399  1.00 20.00    -0.298 OA
ENDBRANCH   4  10
TORSDOF 1
