REMARK  0 active torsions:
REMARK  status: ('A' for Active; 'I' for Inactive)
ROOT
HETATM    1  C1  UNL     1     -33.722   6.317   5.495  1.00 20.00     0.025 C 
HETATM    2  C2  UNL     1     -33.369   6.397   4.042  1.00 20.00     0.081 C 
HETATM    3  C3  UNL     1     -32.849   7.832   3.987  1.00 20.00     0.029 C 
HETATM    4  C4  UNL     1     -34.522   5.180   6.034  1.00 20.00     0.067 C 
HETATM    5  C5  UNL     1     -31.567   7.950   3.167  1.00 20.00     0.034 C 
HETATM    6  C6  UNL     1     -33.916   8.801   3.466  1.00 20.00     0.034 C 
HETATM    7  N7  UNL     1     -33.279   7.285   6.232  1.00 20.00    -0.210 NA
HETATM    8  N8  UNL     1     -32.569   8.087   5.405  1.00 20.00    -0.208 NA
HETATM    9  H20 UNL     1     -31.576   7.979   5.613  1.00 20.00     0.149 HD
ENDROOT
TORSDOF 0
