REMARK  2 active torsions:
REMARK  status: ('A' for Active; 'I' for Inactive)
REMARK    1  A    between atoms: C6_6  and  C8_8 
REMARK    2  A    between atoms: C8_8  and  O9_9 
ROOT
HETATM    1  C1  UNL     1     -31.920   8.519   2.412  1.00 20.00    -0.030 C 
HETATM    2  C2  UNL     1     -31.685   8.548   3.731  1.00 20.00    -0.030 C 
HETATM    3  C3  UNL     1     -32.994   7.678   1.788  1.00 20.00     0.031 C 
HETATM    4  C4  UNL     1     -32.487   7.764   4.727  1.00 20.00     0.034 C 
HETATM    5  C5  UNL     1     -33.554   6.585   2.723  1.00 20.00    -0.009 C 
HETATM    6  C6  UNL     1     -33.784   7.180   4.134  1.00 20.00     0.016 C 
HETATM    7  C7  UNL     1     -32.645   5.348   2.719  1.00 20.00     0.011 C 
ENDROOT
BRANCH   6   8
HETATM    8  C8  UNL     1     -34.424   6.190   5.107  1.00 20.00     0.169 C 
BRANCH   8   9
HETATM    9  O9  UNL     1     -35.613   5.692   4.523  1.00 20.00    -0.400 OA
HETATM   10  H23 UNL     1     -36.003   5.066   5.157  1.00 20.00     0.209 HD
ENDBRANCH   8   9
ENDBRANCH   6   8
TORSDOF 2
