REMARK  1 active torsions:
REMARK  status: ('A' for Active; 'I' for Inactive)
REMARK    1  A    between atoms: C3_3  and  C6_6 
ROOT
HETATM    1  C1  UNL     1     -31.576   8.620   3.217  1.00 20.00    -0.024 C 
HETATM    2  C2  UNL     1     -32.234   8.118   2.159  1.00 20.00    -0.087 C 
HETATM    3  C4  UNL     1     -31.917   8.294   4.639  1.00 20.00     0.032 C 
HETATM    4  C5  UNL     1     -33.373   7.145   2.319  1.00 20.00     0.045 C 
HETATM    5  C6  UNL     1     -33.502   6.553   3.732  1.00 20.00     0.055 C 
HETATM    6  C7  UNL     1     -33.295   7.630   4.810  1.00 20.00    -0.004 C 
HETATM    7  C8  UNL     1     -31.879   8.496   0.751  1.00 20.00     0.043 C 
HETATM    8  C9  UNL     1     -33.420   7.068   6.229  1.00 20.00     0.011 C 
ENDROOT
BRANCH   5   9
HETATM    9  C3  UNL     1     -34.859   5.920   3.843  1.00 20.00     0.236 C 
HETATM   10  O10 UNL     1     -35.032   4.722   4.041  1.00 20.00    -0.306 OA
ENDBRANCH   5   9
TORSDOF 1
