REMARK  2 active torsions:
REMARK  status: ('A' for Active; 'I' for Inactive)
REMARK    1  A    between atoms: C3_3  and  C7_7 
REMARK    2  A    between atoms: C4_4  and  C8_8 
ROOT
HETATM    1  C5  UNL     1     -33.208   7.201   4.961  1.00 20.00     0.014 C 
HETATM    2  C6  UNL     1     -32.659   8.224   3.971  1.00 20.00     0.037 C 
HETATM    3  C7  UNL     1     -34.364   6.416   4.329  1.00 20.00     0.036 C 
HETATM    4  C8  UNL     1     -32.305   7.562   2.640  1.00 20.00     0.144 C 
HETATM    5  C9  UNL     1     -33.954   5.827   2.963  1.00 20.00     0.126 C 
HETATM    6  C10 UNL     1     -32.990   4.639   3.024  1.00 20.00     0.040 C 
HETATM    7  O11 UNL     1     -33.433   6.859   2.112  1.00 20.00    -0.377 OA
ENDROOT
BRANCH   3   8
HETATM    8  C3  UNL     1     -34.912   5.390   5.274  1.00 20.00    -0.030 C 
HETATM    9  C1  UNL     1     -34.173   4.731   6.172  1.00 20.00     0.007 C 
ENDBRANCH   3   8
BRANCH   4  10
HETATM   10  C4  UNL     1     -31.889   8.580   1.627  1.00 20.00    -0.005 C 
HETATM   11  C2  UNL     1     -32.738   9.211   0.808  1.00 20.00     0.009 C 
ENDBRANCH   4  10
TORSDOF 2
