REMARK  2 active torsions:
REMARK  status: ('A' for Active; 'I' for Inactive)
REMARK    1  A    between atoms: C3_3  and  C7_7 
REMARK    2  A    between atoms: C4_4  and  C8_8 
ROOT
HETATM    1  C5  UNL     1     -33.797   4.142   3.539  1.00 20.00     0.014 C 
HETATM    2  C6  UNL     1     -32.823   5.302   3.330  1.00 20.00     0.037 C 
HETATM    3  C7  UNL     1     -35.104   4.606   4.196  1.00 20.00     0.036 C 
HETATM    4  C8  UNL     1     -33.517   6.469   2.625  1.00 20.00     0.144 C 
HETATM    5  C9  UNL     1     -35.663   5.826   3.435  1.00 20.00     0.126 C 
HETATM    6  C10 UNL     1     -36.922   6.414   4.064  1.00 20.00     0.040 C 
HETATM    7  O11 UNL     1     -34.683   6.869   3.349  1.00 20.00    -0.377 OA
ENDROOT
BRANCH   3   8
HETATM    8  C3  UNL     1     -34.884   4.867   5.659  1.00 20.00    -0.030 C 
HETATM    9  C1  UNL     1     -34.560   6.062   6.166  1.00 20.00     0.007 C 
ENDBRANCH   3   8
BRANCH   4  10
HETATM   10  C4  UNL     1     -32.607   7.648   2.524  1.00 20.00    -0.005 C 
HETATM   11  C2  UNL     1     -32.243   8.216   1.370  1.00 20.00     0.009 C 
ENDBRANCH   4  10
TORSDOF 2
