REMARK  1 active torsions:
REMARK  status: ('A' for Active; 'I' for Inactive)
REMARK    1  A    between atoms: C3_3  and  C7_7 
ROOT
HETATM    1  C1  UNL     1     -33.509   5.330   3.520  1.00 20.00    -0.019 C 
HETATM    2  C2  UNL     1     -33.915   5.803   4.712  1.00 20.00    -0.087 C 
HETATM    3  C4  UNL     1     -33.623   7.214   5.151  1.00 20.00     0.034 C 
HETATM    4  C5  UNL     1     -32.537   7.891   4.315  1.00 20.00     0.016 C 
HETATM    5  C6  UNL     1     -32.770   6.149   2.488  1.00 20.00     0.015 C 
HETATM    6  C7  UNL     1     -32.764   7.656   2.822  1.00 20.00     0.054 C 
HETATM    7  C8  UNL     1     -34.682   4.954   5.682  1.00 20.00     0.043 C 
HETATM    8  C9  UNL     1     -33.381   5.908   1.102  1.00 20.00     0.015 C 
ENDROOT
BRANCH   6   9
HETATM    9  C3  UNL     1     -31.679   8.350   2.052  1.00 20.00     0.236 C 
HETATM   10  O10 UNL     1     -31.890   9.258   1.255  1.00 20.00    -0.306 OA
ENDBRANCH   6   9
TORSDOF 1
