REMARK  1 active torsions:
REMARK  status: ('A' for Active; 'I' for Inactive)
REMARK    1  A    between atoms: C3_3  and  C7_7 
ROOT
HETATM    1  C1  UNL     1     -34.227   5.241   3.543  1.00 20.00    -0.019 C 
HETATM    2  C2  UNL     1     -34.246   5.680   4.813  1.00 20.00    -0.087 C 
HETATM    3  C4  UNL     1     -33.472   6.897   5.249  1.00 20.00     0.034 C 
HETATM    4  C5  UNL     1     -32.999   7.760   4.080  1.00 20.00     0.016 C 
HETATM    5  C6  UNL     1     -33.413   5.873   2.438  1.00 20.00     0.015 C 
HETATM    6  C7  UNL     1     -32.391   6.900   2.971  1.00 20.00     0.054 C 
HETATM    7  C8  UNL     1     -35.044   4.988   5.879  1.00 20.00     0.043 C 
HETATM    8  C9  UNL     1     -32.702   4.783   1.628  1.00 20.00     0.015 C 
ENDROOT
BRANCH   6   9
HETATM    9  C3  UNL     1     -31.931   7.807   1.868  1.00 20.00     0.236 C 
HETATM   10  O10 UNL     1     -32.688   8.523   1.221  1.00 20.00    -0.306 OA
ENDBRANCH   6   9
TORSDOF 1
