REMARK  2 active torsions:
REMARK  status: ('A' for Active; 'I' for Inactive)
REMARK    1  A    between atoms: C6_6  and  C8_8 
REMARK    2  A    between atoms: C8_8  and  O9_9 
ROOT
HETATM    1  C1  UNL     1     -31.774   8.384   3.530  1.00 20.00    -0.030 C 
HETATM    2  C2  UNL     1     -32.221   8.530   4.783  1.00 20.00    -0.030 C 
HETATM    3  C3  UNL     1     -32.350   7.390   2.567  1.00 20.00     0.031 C 
HETATM    4  C4  UNL     1     -33.322   7.694   5.362  1.00 20.00     0.034 C 
HETATM    5  C5  UNL     1     -33.704   6.804   3.020  1.00 20.00    -0.009 C 
HETATM    6  C6  UNL     1     -33.654   6.442   4.523  1.00 20.00     0.016 C 
HETATM    7  C7  UNL     1     -34.071   5.619   2.124  1.00 20.00     0.011 C 
ENDROOT
BRANCH   6   8
HETATM    8  C8  UNL     1     -34.952   5.815   5.037  1.00 20.00     0.169 C 
BRANCH   8   9
HETATM    9  O9  UNL     1     -35.005   4.473   4.593  1.00 20.00    -0.400 OA
HETATM   10  H23 UNL     1     -35.834   4.092   4.929  1.00 20.00     0.209 HD
ENDBRANCH   8   9
ENDBRANCH   6   8
TORSDOF 2
