REMARK  1 active torsions:
REMARK  status: ('A' for Active; 'I' for Inactive)
REMARK    1  A    between atoms: C2_2  and  C5_5 
ROOT
HETATM    1  C3  UNL     1     -34.735   5.938   2.323  1.00 20.00     0.039 C 
HETATM    2  C4  UNL     1     -35.313   6.010   3.718  1.00 20.00     0.040 C 
HETATM    3  C5  UNL     1     -33.243   6.108   2.565  1.00 20.00     0.151 C 
HETATM    4  C6  UNL     1     -34.224   5.355   4.565  1.00 20.00     0.054 C 
HETATM    5  C9  UNL     1     -34.386   3.834   4.634  1.00 20.00     0.045 C 
HETATM    6  C10 UNL     1     -34.166   5.942   5.972  1.00 20.00     0.045 C 
HETATM    7  O11 UNL     1     -32.978   5.636   3.897  1.00 20.00    -0.371 OA
ENDROOT
BRANCH   3   8
HETATM    8  C2  UNL     1     -32.784   7.527   2.476  1.00 20.00    -0.059 C 
HETATM    9  C1  UNL     1     -32.849   8.208   1.316  1.00 20.00    -0.026 C 
HETATM   10  C7  UNL     1     -32.440   9.603   1.064  1.00 20.00     0.036 C 
HETATM   11  C8  UNL     1     -32.257   8.107   3.757  1.00 20.00     0.046 C 
ENDBRANCH   3   8
TORSDOF 1
