REMARK  1 active torsions:
REMARK  status: ('A' for Active; 'I' for Inactive)
REMARK    1  A    between atoms: C3_3  and  C7_7 
ROOT
HETATM    1  C1  UNL     1     -34.519   6.095   4.324  1.00 20.00    -0.020 C 
HETATM    2  C2  UNL     1     -33.789   7.025   4.963  1.00 20.00    -0.086 C 
HETATM    3  C4  UNL     1     -32.704   7.813   4.270  1.00 20.00     0.045 C 
HETATM    4  C5  UNL     1     -33.536   6.809   2.106  1.00 20.00     0.020 C 
HETATM    5  C6  UNL     1     -34.368   5.759   2.862  1.00 20.00     0.005 C 
HETATM    6  C7  UNL     1     -32.306   7.242   2.903  1.00 20.00     0.051 C 
HETATM    7  C8  UNL     1     -34.010   7.345   6.412  1.00 20.00     0.043 C 
HETATM    8  C9  UNL     1     -33.776   4.356   2.711  1.00 20.00     0.014 C 
ENDROOT
BRANCH   6   9
HETATM    9  C3  UNL     1     -31.537   8.276   2.139  1.00 20.00     0.236 C 
HETATM   10  O10 UNL     1     -31.882   8.700   1.041  1.00 20.00    -0.306 OA
ENDBRANCH   6   9
TORSDOF 1
