REMARK  1 active torsions:
REMARK  status: ('A' for Active; 'I' for Inactive)
REMARK    1  A    between atoms: C2_2  and  C3_3 
ROOT
HETATM    1  C1  UNL     1     -33.486   7.055   3.324  1.00 20.00    -0.061 C 
HETATM    2  C2  UNL     1     -33.390   7.541   2.081  1.00 20.00     0.088 C 
HETATM    3  C4  UNL     1     -33.733   8.280   5.453  1.00 20.00     0.009 C 
HETATM    4  C5  UNL     1     -34.528   7.104   6.049  1.00 20.00     0.006 C 
HETATM    5  C6  UNL     1     -32.460   6.277   5.279  1.00 20.00     0.014 C 
HETATM    6  C7  UNL     1     -32.725   7.579   4.527  1.00 20.00     0.016 C 
HETATM    7  C8  UNL     1     -33.945   5.878   5.309  1.00 20.00    -0.002 C 
HETATM    8  C9  UNL     1     -34.324   5.869   3.790  1.00 20.00    -0.020 C 
HETATM    9  C10 UNL     1     -33.881   4.554   3.122  1.00 20.00     0.020 C 
HETATM   10  C11 UNL     1     -35.825   6.065   3.535  1.00 20.00     0.020 C 
ENDROOT
BRANCH   2  11
HETATM   11  C3  UNL     1     -32.467   8.718   1.741  1.00 20.00     0.198 C 
HETATM   12  O12 UNL     1     -31.437   8.792   2.473  1.00 20.00    -0.644 OA
HETATM   13  O13 UNL     1     -32.824   9.471   0.791  1.00 20.00    -0.644 OA
ENDBRANCH   2  11
TORSDOF 1
