REMARK  2 active torsions:
REMARK  status: ('A' for Active; 'I' for Inactive)
REMARK    1  A    between atoms: C1_1  and  C10_10 
REMARK    2  A    between atoms: C8_8  and  C10_10 
ROOT
HETATM    1  C2  UNL     1     -34.839   5.090   5.554  1.00 20.00     0.005 C 
HETATM    2  C3  UNL     1     -34.313   6.526   5.706  1.00 20.00     0.005 C 
HETATM    3  C4  UNL     1     -35.333   6.317   3.575  1.00 20.00     0.009 C 
HETATM    4  C5  UNL     1     -33.509   4.796   3.448  1.00 20.00     0.010 C 
HETATM    5  C6  UNL     1     -34.930   4.916   4.028  1.00 20.00    -0.014 C 
HETATM    6  C7  UNL     1     -34.130   6.983   4.247  1.00 20.00    -0.010 C 
HETATM    7  C8  UNL     1     -32.930   6.214   3.645  1.00 20.00    -0.003 C 
ENDROOT
BRANCH   7   8
HETATM    8  C10 UNL     1     -32.433   6.822   2.338  1.00 20.00     0.082 C 
BRANCH   8   9
HETATM    9  C1  UNL     1     -32.367   8.335   2.393  1.00 20.00     0.123 C 
HETATM   10  C9  UNL     1     -31.475   8.915   3.460  1.00 20.00     0.091 C 
HETATM   11  O11 UNL     1     -32.994   9.063   1.625  1.00 20.00    -0.298 OA
ENDBRANCH   8   9
ENDBRANCH   7   8
TORSDOF 2
