REMARK  2 active torsions:
REMARK  status: ('A' for Active; 'I' for Inactive)
REMARK    1  A    between atoms: C1_1  and  S11_11 
REMARK    2  A    between atoms: C8_8  and  S11_11 
ROOT
HETATM    1  C2  UNL     1     -34.278   4.624   5.708  1.00 20.00     0.005 C 
HETATM    2  C3  UNL     1     -33.846   6.086   5.892  1.00 20.00     0.006 C 
HETATM    3  C4  UNL     1     -35.565   6.004   4.260  1.00 20.00     0.010 C 
HETATM    4  C5  UNL     1     -33.802   4.764   3.248  1.00 20.00     0.020 C 
HETATM    5  C6  UNL     1     -34.913   4.624   4.307  1.00 20.00    -0.013 C 
HETATM    6  C7  UNL     1     -34.254   6.738   4.556  1.00 20.00     0.000 C 
HETATM    7  C8  UNL     1     -33.304   6.209   3.459  1.00 20.00     0.059 C 
ENDROOT
BRANCH   7   8
HETATM    8  S11 UNL     1     -33.408   7.196   1.932  1.00 20.00    -0.088 SA
BRANCH   8   9
HETATM    9  C1  UNL     1     -32.323   8.519   2.350  1.00 20.00     0.182 C 
HETATM   10  C9  UNL     1     -32.188   9.542   1.258  1.00 20.00     0.104 C 
HETATM   11  O10 UNL     1     -31.736   8.604   3.422  1.00 20.00    -0.286 OA
ENDBRANCH   8   9
ENDBRANCH   7   8
TORSDOF 2
