REMARK  3 active torsions:
REMARK  status: ('A' for Active; 'I' for Inactive)
REMARK    1  A    between atoms: C3_3  and  C8_8 
REMARK    2  A    between atoms: C4_4  and  C10_10 
REMARK    3  A    between atoms: C10_10  and  O11_11 
ROOT
HETATM    1  C1  UNL     1     -31.713   9.794   0.345  1.00 20.00    -0.031 C 
HETATM    2  C2  UNL     1     -31.345   8.531   0.604  1.00 20.00    -0.030 C 
HETATM    3  C5  UNL     1     -32.829  10.488   1.069  1.00 20.00     0.027 C 
HETATM    4  C6  UNL     1     -31.987   7.690   1.669  1.00 20.00     0.035 C 
HETATM    5  C7  UNL     1     -33.708   9.528   1.875  1.00 20.00     0.012 C 
HETATM    6  C8  UNL     1     -32.858   8.508   2.624  1.00 20.00     0.011 C 
ENDROOT
BRANCH   6   7
HETATM    7  C3  UNL     1     -33.798   7.552   3.334  1.00 20.00    -0.023 C 
HETATM    8  C4  UNL     1     -33.504   6.269   3.592  1.00 20.00     0.000 C 
BRANCH   8   9
HETATM    9  C10 UNL     1     -34.435   5.327   4.295  1.00 20.00     0.136 C 
HETATM   10  C9  UNL     1     -34.260   5.403   5.806  1.00 20.00     0.043 C 
BRANCH   9  11
HETATM   11  O11 UNL     1     -35.770   5.696   3.960  1.00 20.00    -0.392 OA
HETATM   12  H27 UNL     1     -36.353   5.076   4.424  1.00 20.00     0.210 HD
ENDBRANCH   9  11
ENDBRANCH   8   9
ENDBRANCH   6   7
TORSDOF 3
