REMARK  1 active torsions:
REMARK  status: ('A' for Active; 'I' for Inactive)
REMARK    1  A    between atoms: C3_3  and  C6_6 
ROOT
HETATM    1  C1  UNL     1     -34.420   4.059   3.815  1.00 20.00    -0.030 C 
HETATM    2  C2  UNL     1     -34.586   4.128   5.141  1.00 20.00    -0.030 C 
HETATM    3  C4  UNL     1     -33.957   5.217   2.985  1.00 20.00     0.038 C 
HETATM    4  C5  UNL     1     -34.353   5.379   5.932  1.00 20.00     0.031 C 
HETATM    5  C6  UNL     1     -33.401   6.388   3.813  1.00 20.00     0.054 C 
HETATM    6  C7  UNL     1     -34.261   6.650   5.064  1.00 20.00    -0.004 C 
HETATM    7  C8  UNL     1     -33.721   7.809   5.909  1.00 20.00     0.011 C 
ENDROOT
BRANCH   5   8
HETATM    8  C3  UNL     1     -33.348   7.595   2.923  1.00 20.00     0.236 C 
HETATM    9  O9  UNL     1     -32.307   8.172   2.629  1.00 20.00    -0.306 OA
ENDBRANCH   5   8
TORSDOF 1
