REMARK  2 active torsions:
REMARK  status: ('A' for Active; 'I' for Inactive)
REMARK    1  A    between atoms: C1_1  and  S11_11 
REMARK    2  A    between atoms: C8_8  and  S11_11 
ROOT
HETATM    1  C2  UNL     1     -34.119   5.550   5.593  1.00 20.00     0.005 C 
HETATM    2  C3  UNL     1     -33.982   6.996   5.096  1.00 20.00     0.006 C 
HETATM    3  C4  UNL     1     -35.675   5.932   3.832  1.00 20.00     0.010 C 
HETATM    4  C5  UNL     1     -33.722   4.669   3.284  1.00 20.00     0.020 C 
HETATM    5  C6  UNL     1     -34.774   4.835   4.399  1.00 20.00    -0.013 C 
HETATM    6  C7  UNL     1     -34.515   6.919   3.653  1.00 20.00     0.000 C 
HETATM    7  C8  UNL     1     -33.593   6.098   2.721  1.00 20.00     0.059 C 
ENDROOT
BRANCH   7   8
HETATM    8  S11 UNL     1     -31.875   6.673   2.615  1.00 20.00    -0.088 SA
BRANCH   8   9
HETATM    9  C1  UNL     1     -32.132   8.414   2.537  1.00 20.00     0.182 C 
HETATM   10  C9  UNL     1     -32.281   8.935   1.136  1.00 20.00     0.104 C 
HETATM   11  O10 UNL     1     -32.187   9.134   3.527  1.00 20.00    -0.286 OA
ENDBRANCH   8   9
ENDBRANCH   7   8
TORSDOF 2
