REMARK  0 active torsions:
REMARK  status: ('A' for Active; 'I' for Inactive)
ROOT
HETATM    1  C1  UNL     1     -34.685   4.201   5.049  1.00 20.00     0.000 C 
HETATM    2  C2  UNL     1     -34.242   5.383   5.915  1.00 20.00     0.003 C 
HETATM    3  C3  UNL     1     -33.914   4.150   3.728  1.00 20.00     0.003 C 
HETATM    4  C4  UNL     1     -34.359   6.706   5.159  1.00 20.00     0.040 C 
HETATM    5  C5  UNL     1     -34.029   5.468   2.962  1.00 20.00     0.040 C 
HETATM    6  C6  UNL     1     -32.298   7.293   3.665  1.00 20.00     0.207 A 
HETATM    7  C7  UNL     1     -33.635   6.613   3.848  1.00 20.00     0.082 A 
HETATM    8  O8  UNL     1     -33.513   7.865   3.160  1.00 20.00    -0.375 OA
ENDROOT
TORSDOF 0
