REMARK  0 active torsions:
REMARK  status: ('A' for Active; 'I' for Inactive)
ROOT
HETATM    1  C1  UNL     1     -32.756   8.227   2.677  1.00 20.00     0.086 C 
HETATM    2  C2  UNL     1     -34.202   4.719   4.750  1.00 20.00     0.005 C 
HETATM    3  C3  UNL     1     -34.812   6.074   5.137  1.00 20.00     0.008 C 
HETATM    4  C4  UNL     1     -34.763   5.932   2.781  1.00 20.00     0.012 C 
HETATM    5  C5  UNL     1     -32.442   5.846   3.361  1.00 20.00     0.046 C 
HETATM    6  C6  UNL     1     -33.709   4.963   3.313  1.00 20.00    -0.011 C 
HETATM    7  C7  UNL     1     -34.521   6.953   3.904  1.00 20.00     0.024 C 
HETATM    8  C8  UNL     1     -33.003   7.236   3.739  1.00 20.00     0.129 C 
HETATM    9  N9  UNL     1     -32.562   9.007   1.841  1.00 20.00    -0.195 NA
HETATM   10 CL10 UNL     1     -32.236   7.890   5.208  1.00 20.00    -0.102 Cl
ENDROOT
TORSDOF 0
