REMARK  1 active torsions:
REMARK  status: ('A' for Active; 'I' for Inactive)
REMARK    1  A    between atoms: C8_8  and  C9_9 
ROOT
HETATM    1  C1  UNL     1     -32.956   8.200   2.236  1.00 20.00     0.059 C 
HETATM    2  C9  UNL     1     -33.751   8.035   3.446  1.00 20.00     0.129 C 
HETATM    3  N10 UNL     1     -32.332   8.361   1.270  1.00 20.00    -0.197 NA
ENDROOT
BRANCH   2   4
HETATM    4  C8  UNL     1     -33.503   6.590   3.865  1.00 20.00     0.003 C 
HETATM    5  C5  UNL     1     -33.883   6.334   5.339  1.00 20.00     0.010 C 
HETATM    6  C6  UNL     1     -34.887   5.170   5.243  1.00 20.00    -0.014 C 
HETATM    7  C2  UNL     1     -34.143   3.897   4.807  1.00 20.00     0.005 C 
HETATM    8  C4  UNL     1     -35.661   5.532   3.977  1.00 20.00     0.009 C 
HETATM    9  C3  UNL     1     -33.832   4.168   3.327  1.00 20.00     0.005 C 
HETATM   10  C7  UNL     1     -34.402   5.582   3.109  1.00 20.00    -0.009 C 
ENDBRANCH   2   4
TORSDOF 1
