REMARK  1 active torsions:
REMARK  status: ('A' for Active; 'I' for Inactive)
REMARK    1  A    between atoms: C2_2  and  C3_3 
ROOT
HETATM    1  C3  UNL     1     -34.053   5.694   4.220  1.00 20.00     0.216 C 
HETATM    2 CL5  UNL     1     -34.044   5.949   6.000  1.00 20.00    -0.081 Cl
HETATM    3 CL6  UNL     1     -35.713   6.030   3.616  1.00 20.00    -0.081 Cl
HETATM    4 CL7  UNL     1     -33.684   3.963   3.903  1.00 20.00    -0.081 Cl
ENDROOT
BRANCH   1   5
HETATM    5  C2  UNL     1     -33.060   6.577   3.555  1.00 20.00     0.199 A 
HETATM    6  C1  UNL     1     -33.305   7.125   2.177  1.00 20.00     0.204 A 
HETATM    7  O4  UNL     1     -33.501   7.924   3.355  1.00 20.00    -0.377 OA
ENDBRANCH   1   5
TORSDOF 1
