REMARK  1 active torsions:
REMARK  status: ('A' for Active; 'I' for Inactive)
REMARK    1  A    between atoms: C8_8  and  C9_9 
ROOT
HETATM    1  C1  UNL     1     -32.293   8.394   2.375  1.00 20.00     0.059 C 
HETATM    2  C9  UNL     1     -32.120   6.987   2.718  1.00 20.00     0.129 C 
HETATM    3  N10 UNL     1     -32.403   9.517   2.104  1.00 20.00    -0.197 NA
ENDROOT
BRANCH   2   4
HETATM    4  C8  UNL     1     -33.532   6.421   2.719  1.00 20.00     0.003 C 
HETATM    5  C5  UNL     1     -33.593   4.919   3.066  1.00 20.00     0.010 C 
HETATM    6  C6  UNL     1     -34.648   4.867   4.187  1.00 20.00    -0.014 C 
HETATM    7  C2  UNL     1     -34.029   5.440   5.473  1.00 20.00     0.005 C 
HETATM    8  C4  UNL     1     -35.609   5.983   3.777  1.00 20.00     0.009 C 
HETATM    9  C3  UNL     1     -33.962   6.946   5.181  1.00 20.00     0.005 C 
HETATM   10  C7  UNL     1     -34.506   7.045   3.746  1.00 20.00    -0.009 C 
ENDBRANCH   2   4
TORSDOF 1
