REMARK  1 active torsions:
REMARK  status: ('A' for Active; 'I' for Inactive)
REMARK    1  A    between atoms: C8_8  and  O10_10 
ROOT
HETATM    1  C1  UNL     1     -34.799   5.145   3.481  1.00 20.00     0.005 C 
HETATM    2  C2  UNL     1     -32.637   5.957   2.513  1.00 20.00     0.005 C 
HETATM    3  C3  UNL     1     -35.299   6.594   3.547  1.00 20.00     0.008 C 
HETATM    4  C4  UNL     1     -33.151   7.400   2.599  1.00 20.00     0.008 C 
HETATM    5  C5  UNL     1     -32.878   5.691   4.992  1.00 20.00     0.042 C 
HETATM    6  C6  UNL     1     -33.267   5.099   3.623  1.00 20.00    -0.012 C 
HETATM    7  C7  UNL     1     -34.116   7.547   3.797  1.00 20.00     0.019 C 
HETATM    8  C8  UNL     1     -33.371   7.154   5.102  1.00 20.00     0.058 C 
HETATM    9  C9  UNL     1     -34.225   7.355   6.357  1.00 20.00     0.046 C 
ENDROOT
BRANCH   8  10
HETATM   10  O10 UNL     1     -32.221   7.995   5.253  1.00 20.00    -0.390 OA
HETATM   11  H26 UNL     1     -31.778   7.702   6.062  1.00 20.00     0.210 HD
ENDBRANCH   8  10
TORSDOF 1
