REMARK  0 active torsions:
REMARK  status: ('A' for Active; 'I' for Inactive)
ROOT
HETATM    1  C1  UNL     1     -33.911   6.142   5.762  1.00 20.00     0.018 C 
HETATM    2  C2  UNL     1     -33.365   4.579   2.478  1.00 20.00     0.018 C 
HETATM    3  C3  UNL     1     -32.868   6.785   4.843  1.00 20.00     0.022 C 
HETATM    4  C4  UNL     1     -32.859   3.842   3.720  1.00 20.00     0.022 C 
HETATM    5  C5  UNL     1     -34.711   4.963   5.187  1.00 20.00     0.066 C 
HETATM    6  C6  UNL     1     -34.115   5.899   2.718  1.00 20.00     0.066 C 
HETATM    7  C7  UNL     1     -33.343   7.039   3.407  1.00 20.00     0.096 C 
HETATM    8  C8  UNL     1     -33.863   3.714   4.874  1.00 20.00     0.096 C 
HETATM    9  S9  UNL     1     -35.596   5.544   3.708  1.00 20.00    -0.156 SA
HETATM   10 CL10 UNL     1     -31.938   7.539   2.407  1.00 20.00    -0.124 Cl
HETATM   11 CL11 UNL     1     -34.951   2.309   4.547  1.00 20.00    -0.124 Cl
ENDROOT
TORSDOF 0
