REMARK  0 active torsions:
REMARK  status: ('A' for Active; 'I' for Inactive)
ROOT
HETATM    1  C1  UNL     1     -34.798   5.773   3.415  1.00 20.00     0.178 C 
HETATM    2  C2  UNL     1     -34.061   4.455   3.578  1.00 20.00     0.102 C 
HETATM    3  C3  UNL     1     -34.460   5.899   5.698  1.00 20.00     0.241 C 
HETATM    4  O4  UNL     1     -34.387   6.642   4.477  1.00 20.00    -0.381 OA
HETATM    5  S5  UNL     1     -34.163   4.155   5.350  1.00 20.00    -0.141 SA
ENDROOT
TORSDOF 0
