REMARK  1 active torsions:
REMARK  status: ('A' for Active; 'I' for Inactive)
REMARK    1  A    between atoms: C1_1  and  C6_6 
ROOT
HETATM    1  C2  UNL     1     -34.126   7.587   5.830  1.00 20.00     0.002 C 
HETATM    2  C3  UNL     1     -33.130   8.282   4.908  1.00 20.00     0.012 C 
HETATM    3  C4  UNL     1     -34.077   6.067   5.672  1.00 20.00     0.009 C 
HETATM    4  C5  UNL     1     -33.263   6.340   3.292  1.00 20.00     0.021 C 
HETATM    5  C6  UNL     1     -33.319   7.863   3.450  1.00 20.00     0.055 C 
HETATM    6  C7  UNL     1     -34.256   5.593   4.212  1.00 20.00    -0.047 C 
HETATM    7  C9  UNL     1     -33.968   4.082   4.138  1.00 20.00     0.015 C 
HETATM    8  C10 UNL     1     -35.706   5.821   3.743  1.00 20.00     0.015 C 
ENDROOT
BRANCH   5   9
HETATM    9  C1  UNL     1     -32.246   8.498   2.618  1.00 20.00     0.127 C 
HETATM   10  C8  UNL     1     -32.608   8.847   1.199  1.00 20.00     0.091 C 
HETATM   11  O11 UNL     1     -31.125   8.723   3.072  1.00 20.00    -0.298 OA
ENDBRANCH   5   9
TORSDOF 1
