REMARK  1 active torsions:
REMARK  status: ('A' for Active; 'I' for Inactive)
REMARK    1  A    between atoms: C2_2  and  C4_4 
ROOT
HETATM    1  C3  UNL     1     -32.528   5.239   2.677  1.00 20.00     0.205 A 
HETATM    2  C4  UNL     1     -33.900   5.616   3.106  1.00 20.00     0.173 A 
HETATM    3  O6  UNL     1     -33.010   6.584   2.589  1.00 20.00    -0.377 OA
ENDROOT
BRANCH   2   4
HETATM    4  C2  UNL     1     -34.199   5.552   4.574  1.00 20.00    -0.062 C 
HETATM    5  C1  UNL     1     -34.550   4.406   5.177  1.00 20.00     0.016 C 
HETATM    6  C5  UNL     1     -34.084   6.842   5.330  1.00 20.00     0.045 C 
ENDBRANCH   2   4
TORSDOF 1
