REMARK  0 active torsions:
REMARK  status: ('A' for Active; 'I' for Inactive)
ROOT
HETATM    1  C1  UNL     1     -34.603   4.993   5.962  1.00 20.00     0.029 C 
HETATM    2  C2  UNL     1     -34.931   5.029   4.471  1.00 20.00     0.044 C 
HETATM    3  C3  UNL     1     -34.408   6.408   6.502  1.00 20.00     0.167 C 
HETATM    4  C4  UNL     1     -33.704   7.242   4.391  1.00 20.00     0.207 C 
HETATM    5  C5  UNL     1     -32.904   5.297   2.845  1.00 20.00     0.209 A 
HETATM    6  C6  UNL     1     -33.934   5.901   3.770  1.00 20.00     0.103 A 
HETATM    7  O7  UNL     1     -33.378   7.087   5.776  1.00 20.00    -0.388 OA
HETATM    8  O8  UNL     1     -34.089   5.935   2.345  1.00 20.00    -0.373 OA
ENDROOT
TORSDOF 0
