REMARK  1 active torsions:
REMARK  status: ('A' for Active; 'I' for Inactive)
REMARK    1  A    between atoms: C9_9  and  O11_11 
ROOT
HETATM    1  C1  UNL     1     -31.400   7.561   3.461  1.00 20.00    -0.025 C 
HETATM    2  C2  UNL     1     -31.976   7.980   4.604  1.00 20.00    -0.025 C 
HETATM    3  C3  UNL     1     -33.007   4.346   3.126  1.00 20.00    -0.022 C 
HETATM    4  C4  UNL     1     -33.836   3.908   4.102  1.00 20.00     0.001 C 
HETATM    5  C5  UNL     1     -33.603   8.066   3.037  1.00 20.00     0.018 C 
HETATM    6  C6  UNL     1     -32.498   7.081   2.541  1.00 20.00     0.017 C 
HETATM    7  C7  UNL     1     -33.467   7.656   4.511  1.00 20.00     0.016 C 
HETATM    8  C8  UNL     1     -33.226   5.807   2.999  1.00 20.00     0.023 C 
HETATM    9  C9  UNL     1     -34.495   5.066   4.860  1.00 20.00     0.146 C 
HETATM   10  C10 UNL     1     -33.464   6.114   4.504  1.00 20.00     0.034 C 
ENDROOT
BRANCH   9  11
HETATM   11  O11 UNL     1     -35.785   5.337   4.355  1.00 20.00    -0.391 OA
HETATM   12  H23 UNL     1     -36.316   4.528   4.465  1.00 20.00     0.210 HD
ENDBRANCH   9  11
TORSDOF 1
