REMARK  2 active torsions:
REMARK  status: ('A' for Active; 'I' for Inactive)
REMARK    1  A    between atoms: C3_3  and  C5_5 
REMARK    2  A    between atoms: C4_4  and  C10_10 
ROOT
HETATM    1  C1  UNL     1     -35.288   5.847   3.738  1.00 20.00    -0.026 C 
HETATM    2  C2  UNL     1     -34.522   5.354   2.753  1.00 20.00    -0.025 C 
HETATM    3  C6  UNL     1     -33.388   4.980   4.729  1.00 20.00     0.017 C 
HETATM    4  C7  UNL     1     -33.498   7.351   4.534  1.00 20.00     0.017 C 
HETATM    5  C8  UNL     1     -34.378   6.136   4.907  1.00 20.00     0.009 C 
HETATM    6  C9  UNL     1     -33.098   5.326   3.263  1.00 20.00     0.016 C 
HETATM    7  C10 UNL     1     -32.579   6.776   3.418  1.00 20.00     0.017 C 
ENDROOT
BRANCH   7   8
HETATM    8  C4  UNL     1     -32.568   7.578   2.158  1.00 20.00    -0.015 C 
HETATM    9  C3  UNL     1     -32.179   8.859   2.100  1.00 20.00     0.081 C 
BRANCH   9  10
HETATM   10  C5  UNL     1     -32.182   9.649   0.784  1.00 20.00     0.198 C 
HETATM   11  O11 UNL     1     -31.983   8.936  -0.244  1.00 20.00    -0.645 OA
HETATM   12  O12 UNL     1     -32.378  10.894   0.862  1.00 20.00    -0.645 OA
ENDBRANCH   9  10
ENDBRANCH   7   8
TORSDOF 2
