REMARK  0 active torsions:
REMARK  status: ('A' for Active; 'I' for Inactive)
ROOT
HETATM    1  C1  UNL     1     -34.165   4.336   5.717  1.00 20.00    -0.025 A 
HETATM    2  C2  UNL     1     -34.182   3.951   4.431  1.00 20.00     0.003 A 
HETATM    3  C3  UNL     1     -34.228   5.844   5.798  1.00 20.00     0.061 A 
HETATM    4  C4  UNL     1     -34.277   5.078   3.490  1.00 20.00     0.173 A 
HETATM    5  C5  UNL     1     -34.205   6.316   4.363  1.00 20.00     0.158 A 
HETATM    6  O6  UNL     1     -35.346   6.037   3.554  1.00 20.00    -0.371 OA
ENDROOT
TORSDOF 0
