REMARK  0 active torsions:
REMARK  status: ('A' for Active; 'I' for Inactive)
ROOT
HETATM    1  C1  UNL     1     -33.710   4.144   3.811  1.00 20.00     0.029 C 
HETATM    2  C2  UNL     1     -33.674   5.147   2.659  1.00 20.00     0.044 C 
HETATM    3  C3  UNL     1     -34.662   4.617   4.904  1.00 20.00     0.167 C 
HETATM    4  C4  UNL     1     -34.346   6.908   4.360  1.00 20.00     0.207 C 
HETATM    5  C5  UNL     1     -32.879   7.603   2.326  1.00 20.00     0.209 A 
HETATM    6  C6  UNL     1     -33.481   6.531   3.199  1.00 20.00     0.103 A 
HETATM    7  O7  UNL     1     -34.272   5.908   5.381  1.00 20.00    -0.388 OA
HETATM    8  O8  UNL     1     -32.109   6.927   3.332  1.00 20.00    -0.373 OA
ENDROOT
TORSDOF 0
