REMARK  0 active torsions:
REMARK  status: ('A' for Active; 'I' for Inactive)
ROOT
HETATM    1  C1  UNL     1     -32.384   7.408   2.497  1.00 20.00     0.064 C 
HETATM    2  C2  UNL     1     -33.341   5.134   2.651  1.00 20.00     0.022 C 
HETATM    3  C3  UNL     1     -33.816   4.036   3.604  1.00 20.00     0.036 C 
HETATM    4  C4  UNL     1     -34.230   7.009   4.087  1.00 20.00     0.053 C 
HETATM    5  C5  UNL     1     -32.982   6.419   3.411  1.00 20.00     0.095 C 
HETATM    6  C6  UNL     1     -34.852   4.524   4.565  1.00 20.00     0.151 A 
HETATM    7  C7  UNL     1     -35.033   5.994   4.836  1.00 20.00     0.152 A 
HETATM    8  N8  UNL     1     -31.914   8.186   1.777  1.00 20.00    -0.197 NA
HETATM    9  O9  UNL     1     -34.296   5.161   5.733  1.00 20.00    -0.375 OA
ENDROOT
TORSDOF 0
