REMARK  0 active torsions:
REMARK  status: ('A' for Active; 'I' for Inactive)
ROOT
HETATM    1  C1  UNL     1     -33.875   6.043   3.708  1.00 20.00     0.223 C 
HETATM    2  C2  UNL     1     -34.194   5.559   4.876  1.00 20.00    -0.033 C 
HETATM    3  C3  UNL     1     -34.581   4.121   5.070  1.00 20.00     0.047 C 
HETATM    4  C4  UNL     1     -34.198   6.401   6.120  1.00 20.00     0.047 C 
HETATM    5  O5  UNL     1     -33.587   6.481   2.655  1.00 20.00    -0.284 OA
ENDROOT
TORSDOF 0
