REMARK  3 active torsions:
REMARK  status: ('A' for Active; 'I' for Inactive)
REMARK    1  A    between atoms: C2_2  and  C6_6 
REMARK    2  A    between atoms: C6_6  and  C7_7 
REMARK    3  A    between atoms: C6_6  and  O8_8 
ROOT
HETATM    1  C6  UNL     1     -33.416   7.034   4.881  1.00 20.00     0.144 C 
ENDROOT
BRANCH   1   2
HETATM    2  C2  UNL     1     -33.239   8.262   4.032  1.00 20.00     0.000 C 
HETATM    3  C1  UNL     1     -32.325   8.367   3.057  1.00 20.00    -0.033 C 
HETATM    4  C3  UNL     1     -32.149   9.584   2.210  1.00 20.00     0.036 C 
ENDBRANCH   1   2
BRANCH   1   5
HETATM    5  C7  UNL     1     -34.837   6.423   4.851  1.00 20.00     0.010 C 
HETATM    6  C4  UNL     1     -35.001   5.218   5.783  1.00 20.00     0.012 C 
HETATM    7  C5  UNL     1     -35.269   6.055   3.430  1.00 20.00     0.012 C 
ENDBRANCH   1   5
BRANCH   1   8
HETATM    8  O8  UNL     1     -33.083   7.393   6.224  1.00 20.00    -0.391 OA
HETATM    9  H22 UNL     1     -32.162   7.692   6.206  1.00 20.00     0.210 HD
ENDBRANCH   1   8
TORSDOF 3
