REMARK  3 active torsions:
REMARK  status: ('A' for Active; 'I' for Inactive)
REMARK    1  A    between atoms: C1_1  and  C7_7 
REMARK    2  A    between atoms: C8_8  and  C10_10 
REMARK    3  A    between atoms: C9_9  and  C11_11 
ROOT
HETATM    1  C2  UNL     1     -32.555   8.332   4.470  1.00 20.00     0.012 C 
HETATM    2  C3  UNL     1     -33.046   7.463   5.678  1.00 20.00     0.006 C 
HETATM    3  C7  UNL     1     -33.102   7.642   3.170  1.00 20.00     0.052 C 
HETATM    4  C10 UNL     1     -34.164   6.712   5.012  1.00 20.00    -0.005 C 
HETATM    5  C11 UNL     1     -33.465   6.283   3.717  1.00 20.00     0.004 C 
ENDROOT
BRANCH   3   6
HETATM    6  C1  UNL     1     -32.045   7.566   2.117  1.00 20.00     0.236 C 
HETATM    7  O12 UNL     1     -31.527   8.554   1.607  1.00 20.00    -0.306 OA
ENDBRANCH   3   6
BRANCH   5   8
HETATM    8  C9  UNL     1     -34.416   5.194   3.193  1.00 20.00    -0.009 C 
HETATM    9  C5  UNL     1     -33.905   3.885   3.849  1.00 20.00     0.005 C 
HETATM   10  C4  UNL     1     -34.117   4.166   5.360  1.00 20.00     0.005 C 
HETATM   11  C8  UNL     1     -34.953   5.462   5.375  1.00 20.00    -0.010 C 
HETATM   12  C6  UNL     1     -35.705   5.344   4.024  1.00 20.00     0.010 C 
ENDBRANCH   5   8
TORSDOF 3
