REMARK  0 active torsions:
REMARK  status: ('A' for Active; 'I' for Inactive)
ROOT
HETATM    1  C1  UNL     1     -34.422   6.987   4.147  1.00 20.00     0.066 C 
HETATM    2  C2  UNL     1     -33.345   5.335   2.568  1.00 20.00     0.066 C 
HETATM    3  C3  UNL     1     -34.586   5.828   5.125  1.00 20.00     0.170 C 
HETATM    4  C4  UNL     1     -33.576   4.277   3.642  1.00 20.00     0.170 C 
HETATM    5  C5  UNL     1     -31.979   7.434   3.323  1.00 20.00     0.207 A 
HETATM    6  C6  UNL     1     -33.285   6.685   3.217  1.00 20.00     0.086 A 
HETATM    7  O7  UNL     1     -34.740   4.592   4.415  1.00 20.00    -0.391 OA
HETATM    8  O8  UNL     1     -32.957   7.754   2.322  1.00 20.00    -0.375 OA
ENDROOT
TORSDOF 0
