REMARK  2 active torsions:
REMARK  status: ('A' for Active; 'I' for Inactive)
REMARK    1  A    between atoms: C8_8  and  C9_9 
REMARK    2  A    between atoms: C8_8  and  O10_10 
ROOT
HETATM    1  C1  UNL     1     -31.708   8.752   1.545  1.00 20.00     0.012 C 
HETATM    2  C2  UNL     1     -32.616   8.339   2.212  1.00 20.00    -0.115 C 
HETATM    3  C9  UNL     1     -33.734   7.842   3.017  1.00 20.00     0.130 C 
ENDROOT
BRANCH   3   4
HETATM    4  C8  UNL     1     -33.227   7.044   4.223  1.00 20.00     0.068 C 
HETATM    5  C6  UNL     1     -32.391   5.830   3.786  1.00 20.00     0.038 C 
HETATM    6  C4  UNL     1     -33.235   4.711   3.181  1.00 20.00     0.003 C 
HETATM    7  C3  UNL     1     -34.371   4.297   4.112  1.00 20.00     0.000 C 
HETATM    8  C5  UNL     1     -35.230   5.486   4.531  1.00 20.00     0.003 C 
HETATM    9  C7  UNL     1     -34.384   6.605   5.135  1.00 20.00     0.038 C 
BRANCH   4  10
HETATM   10  O10 UNL     1     -32.382   7.932   4.962  1.00 20.00    -0.389 OA
HETATM   11  H24 UNL     1     -32.060   7.428   5.724  1.00 20.00     0.210 HD
ENDBRANCH   4  10
ENDBRANCH   3   4
TORSDOF 2
