REMARK  2 active torsions:
REMARK  status: ('A' for Active; 'I' for Inactive)
REMARK    1  A    between atoms: C1_1  and  C2_2 
REMARK    2  A    between atoms: C2_2  and  C3_3 
ROOT
HETATM    1  C2  UNL     1     -33.871   5.774   3.737  1.00 20.00     0.428 C 
HETATM    2  F6  UNL     1     -32.911   5.152   3.004  1.00 20.00    -0.184 F 
HETATM    3  F7  UNL     1     -34.971   5.858   2.944  1.00 20.00    -0.184 F 
ENDROOT
BRANCH   1   4
HETATM    4  C1  UNL     1     -33.410   7.133   4.165  1.00 20.00     0.379 C 
HETATM    5  O4  UNL     1     -33.080   8.034   3.409  1.00 20.00    -0.253 OA
HETATM    6  F5  UNL     1     -33.390   7.395   5.479  1.00 20.00    -0.157 F 
ENDBRANCH   1   4
BRANCH   1   7
HETATM    7  C3  UNL     1     -34.196   4.919   4.935  1.00 20.00     0.465 C 
HETATM    8  F8  UNL     1     -35.176   5.486   5.672  1.00 20.00    -0.165 F 
HETATM    9  F9  UNL     1     -33.119   4.764   5.734  1.00 20.00    -0.165 F 
HETATM   10  F10 UNL     1     -34.619   3.692   4.563  1.00 20.00    -0.165 F 
ENDBRANCH   1   7
TORSDOF 2
