REMARK  0 active torsions:
REMARK  status: ('A' for Active; 'I' for Inactive)
ROOT
HETATM    1  C1  UNL     1     -32.925   5.750   3.416  1.00 20.00     0.374 C 
HETATM    2  C2  UNL     1     -33.038   7.246   3.109  1.00 20.00     0.398 C 
HETATM    3  C3  UNL     1     -34.131   5.999   4.326  1.00 20.00     0.398 C 
HETATM    4  O4  UNL     1     -34.350   7.300   3.724  1.00 20.00    -0.252 OA
HETATM    5  F5  UNL     1     -33.138   4.917   2.373  1.00 20.00    -0.231 F 
HETATM    6  F6  UNL     1     -33.060   7.589   1.804  1.00 20.00    -0.172 F 
HETATM    7  F7  UNL     1     -32.145   8.051   3.724  1.00 20.00    -0.172 F 
HETATM    8  F8  UNL     1     -33.873   6.079   5.650  1.00 20.00    -0.172 F 
HETATM    9  F9  UNL     1     -35.182   5.168   4.169  1.00 20.00    -0.172 F 
ENDROOT
TORSDOF 0
