REMARK  3 active torsions:
REMARK  status: ('A' for Active; 'I' for Inactive)
REMARK    1  A    between atoms: C1_1  and  C2_2 
REMARK    2  A    between atoms: C1_1  and  C3_3 
REMARK    3  A    between atoms: C2_2  and  S8_8 
ROOT
HETATM    1  C1  UNL     1     -33.730   6.915   4.457  1.00 20.00     0.241 C 
HETATM    2  O4  UNL     1     -34.206   7.710   5.265  1.00 20.00    -0.287 OA
ENDROOT
BRANCH   1   3
HETATM    3  C2  UNL     1     -32.472   7.176   3.656  1.00 20.00     0.158 C 
BRANCH   3   4
HETATM    4  S8  UNL     1     -32.831   7.971   2.072  1.00 20.00    -0.174 SA
HETATM    5  H11 UNL     1     -31.560   8.048   1.652  1.00 20.00     0.102 HD
ENDBRANCH   3   4
ENDBRANCH   1   3
BRANCH   1   6
HETATM    6  C3  UNL     1     -34.396   5.590   4.210  1.00 20.00     0.451 C 
HETATM    7  F5  UNL     1     -33.726   4.853   3.289  1.00 20.00    -0.163 F 
HETATM    8  F6  UNL     1     -34.465   4.843   5.341  1.00 20.00    -0.163 F 
HETATM    9  F7  UNL     1     -35.666   5.731   3.754  1.00 20.00    -0.163 F 
ENDBRANCH   1   6
TORSDOF 3
