REMARK  2 active torsions:
REMARK  status: ('A' for Active; 'I' for Inactive)
REMARK    1  A    between atoms: C4_4  and  C7_7 
REMARK    2  A    between atoms: C8_8  and  O11_11 
ROOT
HETATM    1  C1  UNL     1     -32.667   7.350   4.416  1.00 20.00    -0.019 C 
HETATM    2  C2  UNL     1     -33.051   6.233   5.051  1.00 20.00     0.007 C 
HETATM    3  C5  UNL     1     -34.300   6.857   2.539  1.00 20.00     0.016 C 
HETATM    4  C6  UNL     1     -35.116   6.128   3.604  1.00 20.00     0.042 C 
HETATM    5  C7  UNL     1     -33.341   7.879   3.176  1.00 20.00     0.036 C 
HETATM    6  C8  UNL     1     -34.217   5.387   4.613  1.00 20.00     0.072 C 
HETATM    7  C10 UNL     1     -33.708   4.056   4.053  1.00 20.00     0.050 C 
ENDROOT
BRANCH   5   8
HETATM    8  C4  UNL     1     -32.334   8.343   2.168  1.00 20.00    -0.085 C 
HETATM    9  C3  UNL     1     -31.442   7.506   1.620  1.00 20.00     0.014 C 
HETATM   10  C9  UNL     1     -32.382   9.798   1.807  1.00 20.00     0.043 C 
ENDBRANCH   5   8
BRANCH   6  11
HETATM   11  O11 UNL     1     -35.005   5.099   5.773  1.00 20.00    -0.386 OA
HETATM   12  H27 UNL     1     -35.746   4.556   5.468  1.00 20.00     0.211 HD
ENDBRANCH   6  11
TORSDOF 2
