REMARK  1 active torsions:
REMARK  status: ('A' for Active; 'I' for Inactive)
REMARK    1  A    between atoms: C1_1  and  S5_5 
ROOT
HETATM    1  C1  UNL     1     -34.470   5.255   4.731  1.00 20.00     0.041 C 
HETATM    2  C2  UNL     1     -34.073   3.819   4.957  1.00 20.00     0.069 C 
HETATM    3  S4  UNL     1     -35.074   5.769   3.256  1.00 20.00    -0.078 SA
ENDROOT
BRANCH   1   4
HETATM    4  S5  UNL     1     -34.243   6.351   6.089  1.00 20.00    -0.128 SA
HETATM    5  C3  UNL     1     -33.096   7.534   5.346  1.00 20.00     0.096 C 
ENDBRANCH   1   4
TORSDOF 1
