REMARK  0 active torsions:
REMARK  status: ('A' for Active; 'I' for Inactive)
ROOT
HETATM    1  C1  UNL     1     -33.660   5.261   3.533  1.00 20.00     0.229 C 
HETATM    2  C2  UNL     1     -34.675   4.869   4.587  1.00 20.00     0.104 C 
HETATM    3  C3  UNL     1     -34.188   5.189   5.996  1.00 20.00     0.009 C 
HETATM    4  C4  UNL     1     -34.472   6.626   6.429  1.00 20.00     0.002 C 
HETATM    5  C5  UNL     1     -33.743   7.691   5.611  1.00 20.00     0.021 C 
HETATM    6  C6  UNL     1     -34.114   7.675   4.131  1.00 20.00     0.140 C 
HETATM    7  N7  UNL     1     -33.418   6.620   3.399  1.00 20.00    -0.284 N 
HETATM    8  O8  UNL     1     -33.102   4.386   2.866  1.00 20.00    -0.273 OA
HETATM    9 BR9  UNL     1     -32.073   7.182   2.170  1.00 20.00     0.052 Br
ENDROOT
TORSDOF 0
