REMARK  0 active torsions:
REMARK  status: ('A' for Active; 'I' for Inactive)
ROOT
HETATM    1  C1  UNL     1     -33.138   7.360   3.864  1.00 20.00     0.127 C 
HETATM    2  C2  UNL     1     -34.015   7.590   5.081  1.00 20.00     0.082 C 
HETATM    3  C3  UNL     1     -33.675   6.457   2.768  1.00 20.00     0.082 C 
HETATM    4  C4  UNL     1     -33.999   5.128   5.693  1.00 20.00     0.005 C 
HETATM    5  C5  UNL     1     -33.797   4.459   4.327  1.00 20.00     0.005 C 
HETATM    6  C6  UNL     1     -35.670   5.938   4.188  1.00 20.00     0.010 C 
HETATM    7  C7  UNL     1     -34.870   6.362   5.417  1.00 20.00    -0.007 C 
HETATM    8  C8  UNL     1     -34.563   5.337   3.327  1.00 20.00    -0.007 C 
HETATM    9  O9  UNL     1     -32.077   7.969   3.721  1.00 20.00    -0.298 OA
ENDROOT
TORSDOF 0
