REMARK  1 active torsions:
REMARK  status: ('A' for Active; 'I' for Inactive)
REMARK    1  A    between atoms: C2_2  and  C3_3 
ROOT
HETATM    1  C1  UNL     1     -34.086   6.622   4.612  1.00 20.00    -0.012 C 
HETATM    2  C2  UNL     1     -33.645   6.098   3.460  1.00 20.00    -0.001 C 
HETATM    3  C4  UNL     1     -34.516   5.731   5.739  1.00 20.00     0.054 C 
HETATM    4  C5  UNL     1     -33.584   4.622   3.218  1.00 20.00     0.209 C 
HETATM    5  C6  UNL     1     -34.053   4.292   5.520  1.00 20.00     0.171 C 
HETATM    6  O8  UNL     1     -34.349   3.886   4.183  1.00 20.00    -0.386 OA
ENDROOT
BRANCH   2   7
HETATM    7  C3  UNL     1     -33.229   7.012   2.395  1.00 20.00     0.267 C 
HETATM    8  O7  UNL     1     -33.271   8.231   2.516  1.00 20.00    -0.302 OA
ENDBRANCH   2   7
TORSDOF 1
