REMARK  2 active torsions:
REMARK  status: ('A' for Active; 'I' for Inactive)
REMARK    1  A    between atoms: C2_2  and  C6_6 
REMARK    2  A    between atoms: C6_6  and  O7_7 
ROOT
HETATM    1  C4  UNL     1     -34.073   4.375   3.867  1.00 20.00     0.050 C 
HETATM    2  C5  UNL     1     -34.813   5.542   5.970  1.00 20.00     0.050 C 
HETATM    3  C6  UNL     1     -34.708   5.641   4.446  1.00 20.00     0.068 C 
ENDROOT
BRANCH   3   4
HETATM    4  C2  UNL     1     -33.879   6.850   4.068  1.00 20.00     0.005 C 
HETATM    5  C1  UNL     1     -32.592   7.063   4.382  1.00 20.00    -0.032 C 
HETATM    6  C3  UNL     1     -31.832   8.283   3.976  1.00 20.00     0.036 C 
ENDBRANCH   3   4
BRANCH   3   7
HETATM    7  O7  UNL     1     -36.032   5.751   3.919  1.00 20.00    -0.387 OA
HETATM    8  H19 UNL     1     -36.503   4.951   4.197  1.00 20.00     0.211 HD
ENDBRANCH   3   7
TORSDOF 2
