REMARK  3 active torsions:
REMARK  status: ('A' for Active; 'I' for Inactive)
REMARK    1  A    between atoms: C1_1  and  C2_2 
REMARK    2  A    between atoms: C3_3  and  C8_8 
REMARK    3  A    between atoms: C8_8  and  C9_9 
ROOT
HETATM    1  C1  UNL     1     -34.283   5.905   5.572  1.00 20.00     0.043 C 
HETATM    2  C3  UNL     1     -33.848   7.179   5.544  1.00 20.00    -0.080 C 
HETATM    3  C4  UNL     1     -33.272   7.894   6.736  1.00 20.00     0.043 C 
ENDROOT
BRANCH   2   4
HETATM    4  C8  UNL     1     -33.849   7.943   4.230  1.00 20.00     0.042 C 
BRANCH   4   5
HETATM    5  C9  UNL     1     -32.594   7.804   3.321  1.00 20.00    -0.048 C 
HETATM    6  C5  UNL     1     -31.340   8.361   4.016  1.00 20.00     0.015 C 
HETATM    7  C6  UNL     1     -32.335   6.344   2.914  1.00 20.00     0.015 C 
HETATM    8  C7  UNL     1     -32.844   8.622   2.037  1.00 20.00     0.015 C 
ENDBRANCH   4   5
ENDBRANCH   2   4
BRANCH   1   9
HETATM    9  C2  UNL     1     -34.849   5.201   4.401  1.00 20.00     0.259 C 
HETATM   10  O10 UNL     1     -34.729   3.989   4.259  1.00 20.00    -0.302 OA
ENDBRANCH   1   9
TORSDOF 3
