REMARK  1 active torsions:
REMARK  status: ('A' for Active; 'I' for Inactive)
REMARK    1  A    between atoms: C2_2  and  C4_4 
ROOT
HETATM    1  C3  UNL     1     -33.590   6.859   5.998  1.00 20.00     0.204 A 
HETATM    2  C4  UNL     1     -34.560   5.962   5.311  1.00 20.00     0.167 A 
HETATM    3  O5  UNL     1     -33.792   6.902   4.581  1.00 20.00    -0.377 OA
ENDROOT
BRANCH   2   4
HETATM    4  C2  UNL     1     -34.239   4.506   5.271  1.00 20.00    -0.003 C 
HETATM    5  C1  UNL     1     -34.201   3.778   4.150  1.00 20.00     0.009 C 
ENDBRANCH   2   4
TORSDOF 1
