REMARK  4 active torsions:
REMARK  status: ('A' for Active; 'I' for Inactive)
REMARK    1  A    between atoms: C5_5  and  C7_7 
REMARK    2  A    between atoms: C5_5  and  C8_8 
REMARK    3  A    between atoms: C6_6  and  C7_7 
REMARK    4  A    between atoms: C6_6  and  S9_9 
ROOT
HETATM    1  C5  UNL     1     -33.254   6.821   4.379  1.00 20.00     0.013 C 
ENDROOT
BRANCH   1   2
HETATM    2  C7  UNL     1     -32.349   7.553   3.356  1.00 20.00    -0.009 C 
HETATM    3  C1  UNL     1     -31.179   8.307   3.990  1.00 20.00     0.011 C 
BRANCH   2   4
HETATM    4  C6  UNL     1     -33.178   8.485   2.439  1.00 20.00     0.075 C 
BRANCH   4   5
HETATM    5  S9  UNL     1     -32.290   9.179   1.009  1.00 20.00    -0.182 SA
HETATM    6  H27 UNL     1     -33.328   9.877   0.529  1.00 20.00     0.101 HD
ENDBRANCH   4   5
ENDBRANCH   2   4
ENDBRANCH   1   2
BRANCH   1   7
HETATM    7  C8  UNL     1     -34.149   5.639   3.898  1.00 20.00    -0.051 C 
HETATM    8  C2  UNL     1     -35.544   6.109   3.459  1.00 20.00     0.014 C 
HETATM    9  C3  UNL     1     -33.490   4.844   2.757  1.00 20.00     0.014 C 
HETATM   10  C4  UNL     1     -34.319   4.669   5.090  1.00 20.00     0.014 C 
ENDBRANCH   1   7
TORSDOF 4
