REMARK  2 active torsions:
REMARK  status: ('A' for Active; 'I' for Inactive)
REMARK    1  A    between atoms: C6_6  and  O8_8 
REMARK    2  A    between atoms: N7_7  and  O8_8 
ROOT
HETATM    1  C1  UNL     1     -33.133  10.439   0.936  1.00 20.00     0.014 C 
HETATM    2  C2  UNL     1     -32.537   9.468   1.312  1.00 20.00    -0.089 C 
HETATM    3  C6  UNL     1     -31.808   8.285   1.771  1.00 20.00     0.296 C 
ENDROOT
BRANCH   3   4
HETATM    4  O8  UNL     1     -32.707   7.319   2.295  1.00 20.00    -0.244 OA
BRANCH   4   5
HETATM    5  N7  UNL     1     -33.041   7.698   3.601  1.00 20.00    -0.143 NA
HETATM    6  C3  UNL     1     -33.865   6.850   4.135  1.00 20.00     0.032 C 
HETATM    7  C4  UNL     1     -34.417   6.971   5.534  1.00 20.00     0.067 C 
HETATM    8  C5  UNL     1     -34.307   5.668   3.313  1.00 20.00     0.067 C 
ENDBRANCH   4   5
ENDBRANCH   3   4
TORSDOF 2
