REMARK  2 active torsions:
REMARK  status: ('A' for Active; 'I' for Inactive)
REMARK    1  A    between atoms: C4_4  and  C5_5 
REMARK    2  A    between atoms: C4_4  and  N6_6 
ROOT
HETATM    1  C1  UNL     1     -34.302   4.904   5.281  1.00 20.00     0.016 C 
HETATM    2  C2  UNL     1     -33.470   4.706   2.931  1.00 20.00     0.016 C 
HETATM    3  C3  UNL     1     -35.639   5.865   3.385  1.00 20.00     0.016 C 
HETATM    4  C5  UNL     1     -34.219   5.616   3.921  1.00 20.00    -0.036 C 
ENDROOT
BRANCH   4   5
HETATM    5  C4  UNL     1     -33.443   6.944   4.046  1.00 20.00     0.154 C 
BRANCH   5   6
HETATM    6  N6  UNL     1     -33.371   7.638   2.757  1.00 20.00    -0.063 NA
HETATM    7  O7  UNL     1     -32.204   7.846   2.387  1.00 20.00    -0.101 OA
ENDBRANCH   5   6
ENDBRANCH   4   5
TORSDOF 2
