REMARK  2 active torsions:
REMARK  status: ('A' for Active; 'I' for Inactive)
REMARK    1  A    between atoms: C2_2  and  C3_3 
REMARK    2  A    between atoms: N7_7  and  N8_8 
ROOT
HETATM    1  C2  UNL     1     -33.634   7.290   3.064  1.00 20.00     0.138 C 
HETATM    2  N7  UNL     1     -33.074   7.647   1.953  1.00 20.00    -0.214 NA
ENDROOT
BRANCH   1   3
HETATM    3  C3  UNL     1     -33.769   5.865   3.486  1.00 20.00    -0.047 C 
HETATM    4  C1  UNL     1     -34.380   5.666   4.667  1.00 20.00    -0.023 C 
HETATM    5  C4  UNL     1     -34.655   4.359   5.338  1.00 20.00     0.036 C 
HETATM    6  C5  UNL     1     -33.216   4.826   2.562  1.00 20.00     0.049 C 
ENDBRANCH   1   3
BRANCH   2   7
HETATM    7  N8  UNL     1     -33.055   8.984   1.773  1.00 20.00    -0.222 NA
HETATM    8  C6  UNL     1     -32.030   9.483   0.872  1.00 20.00     0.135 C 
HETATM    9  H20 UNL     1     -33.011   9.479   2.664  1.00 20.00     0.148 HD
ENDBRANCH   2   7
TORSDOF 2
