REMARK  3 active torsions:
REMARK  status: ('A' for Active; 'I' for Inactive)
REMARK    1  A    between atoms: C3_3  and  C9_9 
REMARK    2  A    between atoms: C8_8  and  C10_10 
REMARK    3  A    between atoms: C9_9  and  C10_10 
ROOT
HETATM    1  C1  UNL     1     -34.150   4.898   5.825  1.00 20.00    -0.026 C 
HETATM    2  C2  UNL     1     -34.086   6.236   5.892  1.00 20.00    -0.025 C 
HETATM    3  C4  UNL     1     -35.430   5.723   4.087  1.00 20.00     0.017 C 
HETATM    4  C5  UNL     1     -33.299   4.856   3.500  1.00 20.00     0.013 C 
HETATM    5  C6  UNL     1     -34.512   4.540   4.403  1.00 20.00     0.009 C 
HETATM    6  C7  UNL     1     -34.391   6.769   4.509  1.00 20.00     0.012 C 
HETATM    7  C8  UNL     1     -33.181   6.410   3.607  1.00 20.00    -0.006 C 
ENDROOT
BRANCH   7   8
HETATM    8  C10 UNL     1     -33.230   7.091   2.244  1.00 20.00     0.012 C 
BRANCH   8   9
HETATM    9  C9  UNL     1     -32.679   8.508   2.312  1.00 20.00     0.070 C 
BRANCH   9  10
HETATM   10  C3  UNL     1     -32.742   9.216   0.980  1.00 20.00     0.231 C 
HETATM   11  O11 UNL     1     -32.328  10.351   0.771  1.00 20.00    -0.307 OA
ENDBRANCH   9  10
ENDBRANCH   8   9
ENDBRANCH   7   8
TORSDOF 3
