REMARK  3 active torsions:
REMARK  status: ('A' for Active; 'I' for Inactive)
REMARK    1  A    between atoms: C1_1  and  C3_3 
REMARK    2  A    between atoms: C2_2  and  C7_7 
REMARK    3  A    between atoms: C7_7  and  C8_8 
ROOT
HETATM    1  C1  UNL     1     -33.011   7.610   3.403  1.00 20.00     0.045 C 
HETATM    2  C2  UNL     1     -32.589   7.876   2.159  1.00 20.00    -0.023 C 
ENDROOT
BRANCH   2   3
HETATM    3  C7  UNL     1     -31.711   9.048   1.818  1.00 20.00     0.031 C 
BRANCH   3   4
HETATM    4  C8  UNL     1     -32.392  10.059   0.877  1.00 20.00    -0.019 C 
HETATM    5  C5  UNL     1     -32.772   9.373  -0.437  1.00 20.00     0.010 C 
HETATM    6  C6  UNL     1     -33.636  10.688   1.510  1.00 20.00     0.010 C 
ENDBRANCH   3   4
ENDBRANCH   2   3
BRANCH   1   7
HETATM    7  C3  UNL     1     -33.884   6.435   3.674  1.00 20.00     0.145 C 
HETATM    8  C4  UNL     1     -34.306   6.220   5.103  1.00 20.00     0.096 C 
HETATM    9  O9  UNL     1     -34.231   5.659   2.786  1.00 20.00    -0.294 OA
ENDBRANCH   1   7
TORSDOF 3
