REMARK  2 active torsions:
REMARK  status: ('A' for Active; 'I' for Inactive)
REMARK    1  A    between atoms: C6_6  and  C8_8 
REMARK    2  A    between atoms: C7_7  and  C8_8 
ROOT
HETATM    1  C1  UNL     1     -30.780   8.166   3.235  1.00 20.00     0.075 C 
HETATM    2  C8  UNL     1     -31.870   7.534   2.455  1.00 20.00     0.186 C 
HETATM    3  N9  UNL     1     -29.930   8.652   3.858  1.00 20.00    -0.196 NA
ENDROOT
BRANCH   2   4
HETATM    4  C6  UNL     1     -32.777   6.712   3.307  1.00 20.00    -0.031 A 
HETATM    5  C2  UNL     1     -32.916   5.349   3.067  1.00 20.00     0.028 A 
HETATM    6  C4  UNL     1     -33.770   4.630   3.887  1.00 20.00     0.116 A 
HETATM    7  N10 UNL     1     -34.477   5.171   4.904  1.00 20.00    -0.273 NA
HETATM    8  C5  UNL     1     -34.317   6.498   5.107  1.00 20.00     0.116 A 
HETATM    9  C3  UNL     1     -33.488   7.305   4.345  1.00 20.00     0.028 A 
ENDBRANCH   2   4
BRANCH   2  10
HETATM   10  C7  UNL     1     -32.640   8.575   1.650  1.00 20.00     0.255 C 
HETATM   11  O11 UNL     1     -32.465   9.788   1.707  1.00 20.00    -0.305 OA
ENDBRANCH   2  10
TORSDOF 2
