REMARK  3 active torsions:
REMARK  status: ('A' for Active; 'I' for Inactive)
REMARK    1  A    between atoms: C3_3  and  C9_9 
REMARK    2  A    between atoms: C8_8  and  C10_10 
REMARK    3  A    between atoms: C9_9  and  C10_10 
ROOT
HETATM    1  C1  UNL     1     -34.112   5.222   5.462  1.00 20.00    -0.026 C 
HETATM    2  C2  UNL     1     -34.104   6.560   5.373  1.00 20.00    -0.025 C 
HETATM    3  C4  UNL     1     -35.543   5.790   3.739  1.00 20.00     0.017 C 
HETATM    4  C5  UNL     1     -33.402   4.945   3.115  1.00 20.00     0.013 C 
HETATM    5  C6  UNL     1     -34.549   4.688   4.119  1.00 20.00     0.009 C 
HETATM    6  C7  UNL     1     -34.527   6.917   3.967  1.00 20.00     0.012 C 
HETATM    7  C8  UNL     1     -33.421   6.498   2.962  1.00 20.00    -0.006 C 
ENDROOT
BRANCH   7   8
HETATM    8  C10 UNL     1     -32.064   7.148   3.186  1.00 20.00     0.012 C 
BRANCH   8   9
HETATM    9  C9  UNL     1     -31.989   8.521   2.531  1.00 20.00     0.070 C 
BRANCH   9  10
HETATM   10  C3  UNL     1     -32.235   8.467   1.042  1.00 20.00     0.231 C 
HETATM   11  O11 UNL     1     -31.421   8.798   0.187  1.00 20.00    -0.307 OA
ENDBRANCH   9  10
ENDBRANCH   8   9
ENDBRANCH   7   8
TORSDOF 3
