REMARK  1 active torsions:
REMARK  status: ('A' for Active; 'I' for Inactive)
REMARK    1  A    between atoms: C3_3  and  C8_8 
ROOT
HETATM    1  C1  UNL     1     -33.519   5.240   3.303  1.00 20.00     0.048 A 
HETATM    2  C2  UNL     1     -33.999   4.388   4.316  1.00 20.00     0.141 A 
HETATM    3  C3  UNL     1     -33.353   6.453   3.925  1.00 20.00     0.039 A 
HETATM    4  C7  UNL     1     -33.732   7.246   6.279  1.00 20.00     0.179 C 
HETATM    5  N9  UNL     1     -34.129   5.008   5.492  1.00 20.00    -0.185 NA
HETATM    6  N10 UNL     1     -33.729   6.262   5.222  1.00 20.00    -0.278 N 
ENDROOT
BRANCH   3   7
HETATM    7  C8  UNL     1     -32.859   7.806   3.385  1.00 20.00    -0.007 C 
HETATM    8  C4  UNL     1     -32.519   7.673   1.885  1.00 20.00     0.021 C 
HETATM    9  C5  UNL     1     -31.595   8.242   4.156  1.00 20.00     0.021 C 
HETATM   10  C6  UNL     1     -33.892   8.947   3.519  1.00 20.00     0.021 C 
ENDBRANCH   3   7
TORSDOF 1
