REMARK  0 active torsions:
REMARK  status: ('A' for Active; 'I' for Inactive)
ROOT
HETATM    1  C1  UNL     1     -33.743   6.557   5.298  1.00 20.00     0.145 C 
HETATM    2  C2  UNL     1     -33.556   7.266   2.885  1.00 20.00     0.061 C 
HETATM    3  C3  UNL     1     -35.440   5.535   3.738  1.00 20.00     0.061 C 
HETATM    4  C4  UNL     1     -33.740   7.744   4.329  1.00 20.00     0.103 C 
HETATM    5  C5  UNL     1     -34.322   5.251   4.747  1.00 20.00     0.103 C 
HETATM    6  C6  UNL     1     -32.776   8.832   4.804  1.00 20.00     0.024 C 
HETATM    7  C7  UNL     1     -34.674   4.290   5.884  1.00 20.00     0.024 C 
HETATM    8  O8  UNL     1     -33.307   6.648   6.445  1.00 20.00    -0.296 OA
HETATM    9  S9  UNL     1     -32.191   7.540   1.949  1.00 20.00    -0.076 SA
HETATM   10  S10 UNL     1     -37.066   5.210   3.989  1.00 20.00    -0.076 SA
HETATM   11  S11 UNL     1     -34.906   6.315   2.238  1.00 20.00    -0.074 SA
ENDROOT
TORSDOF 0
