REMARK  4 active torsions:
REMARK  status: ('A' for Active; 'I' for Inactive)
REMARK    1  A    between atoms: C1_1  and  C7_7 
REMARK    2  A    between atoms: C2_2  and  C9_9 
REMARK    3  A    between atoms: C9_9  and  C11_11 
REMARK    4  A    between atoms: C10_10  and  C11_11 
ROOT
HETATM    1  C3  UNL     1     -34.709   5.124   4.702  1.00 20.00     0.006 C 
HETATM    2  C4  UNL     1     -34.196   5.458   6.098  1.00 20.00     0.026 C 
HETATM    3  C5  UNL     1     -34.012   5.986   3.654  1.00 20.00     0.045 C 
HETATM    4  C6  UNL     1     -34.253   6.959   6.348  1.00 20.00     0.169 C 
HETATM    5  C7  UNL     1     -34.084   7.467   4.034  1.00 20.00     0.200 C 
HETATM    6  O12 UNL     1     -33.533   7.667   5.339  1.00 20.00    -0.374 OA
ENDROOT
BRANCH   5   7
HETATM    7  C1  UNL     1     -33.331   8.283   3.074  1.00 20.00    -0.074 C 
HETATM    8  C2  UNL     1     -32.714   8.950   2.288  1.00 20.00    -0.104 C 
BRANCH   8   9
HETATM    9  C9  UNL     1     -31.958   9.768   1.329  1.00 20.00     0.094 C 
BRANCH   9  10
HETATM   10  C11 UNL     1     -31.960   9.130  -0.060  1.00 20.00     0.012 C 
BRANCH  10  11
HETATM   11  C10 UNL     1     -33.379   9.011  -0.616  1.00 20.00    -0.004 C 
HETATM   12  C8  UNL     1     -34.059  10.368  -0.701  1.00 20.00     0.005 C 
ENDBRANCH  10  11
ENDBRANCH   9  10
ENDBRANCH   8   9
ENDBRANCH   5   7
TORSDOF 4
