REMARK  4 active torsions:
REMARK  status: ('A' for Active; 'I' for Inactive)
REMARK    1  A    between atoms: C1_1  and  C6_6 
REMARK    2  A    between atoms: C2_2  and  C8_8 
REMARK    3  A    between atoms: C8_8  and  C10_10 
REMARK    4  A    between atoms: C9_9  and  C10_10 
ROOT
HETATM    1  C1  UNL     1     -33.740   7.574   3.245  1.00 20.00    -0.074 C 
HETATM    2  C2  UNL     1     -33.134   8.462   2.711  1.00 20.00    -0.104 C 
ENDROOT
BRANCH   1   3
HETATM    3  C6  UNL     1     -34.478   6.490   3.895  1.00 20.00     0.200 C 
HETATM    4  C4  UNL     1     -33.740   5.163   3.829  1.00 20.00     0.047 C 
HETATM    5  C3  UNL     1     -34.223   4.472   5.080  1.00 20.00     0.030 C 
HETATM    6  C5  UNL     1     -34.303   5.624   6.056  1.00 20.00     0.169 C 
HETATM    7  O11 UNL     1     -34.666   6.783   5.292  1.00 20.00    -0.374 OA
ENDBRANCH   1   3
BRANCH   2   8
HETATM    8  C8  UNL     1     -32.393   9.552   2.060  1.00 20.00     0.094 C 
BRANCH   8   9
HETATM    9  C10 UNL     1     -31.680   9.057   0.802  1.00 20.00     0.012 C 
BRANCH   9  10
HETATM   10  C9  UNL     1     -32.676   8.533  -0.233  1.00 20.00    -0.004 C 
HETATM   11  C7  UNL     1     -33.681   9.602  -0.629  1.00 20.00     0.005 C 
ENDBRANCH   9  10
ENDBRANCH   8   9
ENDBRANCH   2   8
TORSDOF 4
