REMARK  6 active torsions:
REMARK  status: ('A' for Active; 'I' for Inactive)
REMARK    1  A    between atoms: C1_1  and  C5_5 
REMARK    2  A    between atoms: C1_1  and  C8_8 
REMARK    3  A    between atoms: C6_6  and  O10_10 
REMARK    4  A    between atoms: C7_7  and  O11_11 
REMARK    5  A    between atoms: C8_8  and  O10_10 
REMARK    6  A    between atoms: C8_8  and  O11_11 
ROOT
HETATM    1  C8  UNL     1     -33.521   7.660   3.610  1.00 20.00     0.329 C 
ENDROOT
BRANCH   1   2
HETATM    2  C1  UNL     1     -32.531   8.451   2.763  1.00 20.00     0.181 C 
HETATM    3  O9  UNL     1     -31.447   8.822   3.212  1.00 20.00    -0.293 OA
BRANCH   2   4
HETATM    4  C5  UNL     1     -32.967   8.766   1.339  1.00 20.00     0.079 C 
HETATM    5  C2  UNL     1     -31.937   9.582   0.580  1.00 20.00     0.013 C 
ENDBRANCH   2   4
ENDBRANCH   1   2
BRANCH   1   6
HETATM    6  O10 UNL     1     -33.743   6.459   2.873  1.00 20.00    -0.355 OA
BRANCH   6   7
HETATM    7  C6  UNL     1     -32.544   5.721   2.679  1.00 20.00     0.167 C 
HETATM    8  C3  UNL     1     -32.860   4.466   1.893  1.00 20.00     0.033 C 
ENDBRANCH   6   7
ENDBRANCH   1   6
BRANCH   1   9
HETATM    9  O11 UNL     1     -32.957   7.393   4.887  1.00 20.00    -0.355 OA
BRANCH   9  10
HETATM   10  C7  UNL     1     -33.941   7.077   5.864  1.00 20.00     0.167 C 
HETATM   11  C4  UNL     1     -34.702   5.847   5.418  1.00 20.00     0.033 C 
ENDBRANCH   9  10
ENDBRANCH   1   9
TORSDOF 6
