REMARK  0 active torsions:
REMARK  status: ('A' for Active; 'I' for Inactive)
ROOT
HETATM    1  C1  UNL     1     -34.167   7.074   6.032  1.00 20.00     0.009 A 
HETATM    2  C2  UNL     1     -34.414   5.761   5.990  1.00 20.00     0.074 A 
HETATM    3  C3  UNL     1     -33.687   7.772   4.872  1.00 20.00     0.043 A 
HETATM    4  C4  UNL     1     -33.480   7.107   3.728  1.00 20.00     0.108 A 
HETATM    5  C5  UNL     1     -34.189   4.996   4.728  1.00 20.00     0.248 A 
HETATM    6  C6  UNL     1     -33.476   5.056   2.355  1.00 20.00     0.160 C 
HETATM    7  N7  UNL     1     -33.718   5.736   3.626  1.00 20.00    -0.309 N 
HETATM    8  O8  UNL     1     -34.425   3.788   4.729  1.00 20.00    -0.268 OA
HETATM    9 CL9  UNL     1     -32.904   7.954   2.339  1.00 20.00    -0.064 Cl
ENDROOT
TORSDOF 0
