REMARK  1 active torsions:
REMARK  status: ('A' for Active; 'I' for Inactive)
REMARK    1  A    between atoms: C3_3  and  C7_7 
ROOT
HETATM    1  C1  UNL     1     -33.790   6.076   4.629  1.00 20.00    -0.082 C 
HETATM    2  C2  UNL     1     -33.468   5.774   3.351  1.00 20.00    -0.081 C 
HETATM    3  C4  UNL     1     -33.754   7.497   5.152  1.00 20.00     0.035 C 
HETATM    4  C5  UNL     1     -33.001   6.833   2.368  1.00 20.00     0.050 C 
HETATM    5  C6  UNL     1     -33.596   8.568   4.073  1.00 20.00     0.021 C 
HETATM    6  C7  UNL     1     -32.573   8.170   3.004  1.00 20.00     0.013 C 
HETATM    7  C8  UNL     1     -34.195   5.069   5.674  1.00 20.00     0.043 C 
HETATM    8  C9  UNL     1     -33.549   4.397   2.747  1.00 20.00     0.043 C 
HETATM    9  C10 UNL     1     -31.151   8.081   3.581  1.00 20.00     0.023 C 
ENDROOT
BRANCH   6  10
HETATM   10  C3  UNL     1     -32.572   9.243   1.945  1.00 20.00     0.240 C 
HETATM   11  O11 UNL     1     -31.875   9.198   0.937  1.00 20.00    -0.306 OA
ENDBRANCH   6  10
TORSDOF 1
