REMARK  4 active torsions:
REMARK  status: ('A' for Active; 'I' for Inactive)
REMARK    1  A    between atoms: C2_2  and  C6_6 
REMARK    2  A    between atoms: C2_2  and  C7_7 
REMARK    3  A    between atoms: C6_6  and  C8_8 
REMARK    4  A    between atoms: C7_7  and  O10_10 
ROOT
HETATM    1  C1  UNL     1     -32.298   8.337   1.100  1.00 20.00     0.209 A 
HETATM    2  C2  UNL     1     -32.462   8.349   2.601  1.00 20.00     0.104 A 
HETATM    3  O9  UNL     1     -32.490   9.558   1.830  1.00 20.00    -0.373 OA
ENDROOT
BRANCH   2   4
HETATM    4  C6  UNL     1     -33.809   7.979   3.212  1.00 20.00     0.051 C 
BRANCH   4   5
HETATM    5  C8  UNL     1     -34.068   6.463   3.408  1.00 20.00    -0.049 C 
HETATM    6  C3  UNL     1     -35.348   6.090   2.635  1.00 20.00     0.014 C 
HETATM    7  C4  UNL     1     -34.278   6.123   4.893  1.00 20.00     0.014 C 
HETATM    8  C5  UNL     1     -32.903   5.625   2.857  1.00 20.00     0.014 C 
ENDBRANCH   4   5
ENDBRANCH   2   4
BRANCH   2   9
HETATM    9  C7  UNL     1     -31.257   8.219   3.475  1.00 20.00     0.204 C 
BRANCH   9  10
HETATM   10  O10 UNL     1     -31.648   8.267   4.845  1.00 20.00    -0.398 OA
HETATM   11  H26 UNL     1     -30.835   8.179   5.367  1.00 20.00     0.209 HD
ENDBRANCH   9  10
ENDBRANCH   2   9
TORSDOF 4
