REMARK  1 active torsions:
REMARK  status: ('A' for Active; 'I' for Inactive)
REMARK    1  A    between atoms: C1_1  and  S12_12 
ROOT
HETATM    1  C1  UNL     1     -33.271   7.370   2.877  1.00 20.00     0.066 C 
HETATM    2  C2  UNL     1     -33.455   8.851   2.870  1.00 20.00     0.074 C 
HETATM    3  C3  UNL     1     -31.370   8.209   0.383  1.00 20.00     0.042 A 
HETATM    4  C4  UNL     1     -32.305   9.351   2.011  1.00 20.00     0.029 A 
HETATM    5  C5  UNL     1     -32.392   9.376   0.443  1.00 20.00    -0.039 A 
HETATM    6  C6  UNL     1     -31.385   8.104   1.921  1.00 20.00     0.056 A 
HETATM    7  C7  UNL     1     -31.841  10.678  -0.143  1.00 20.00     0.015 C 
HETATM    8  C8  UNL     1     -33.738   9.025  -0.188  1.00 20.00     0.015 C 
HETATM    9  C9  UNL     1     -30.047   8.172   2.626  1.00 20.00     0.041 C 
HETATM   10  N11 UNL     1     -32.167   6.933   2.365  1.00 20.00    -0.276 NA
ENDROOT
BRANCH   1  11
HETATM   11  S12 UNL     1     -34.493   6.349   3.551  1.00 20.00    -0.119 SA
HETATM   12  C10 UNL     1     -33.916   6.275   5.262  1.00 20.00     0.097 C 
ENDBRANCH   1  11
TORSDOF 1
