REMARK  1 active torsions:
REMARK  status: ('A' for Active; 'I' for Inactive)
REMARK    1  A    between atoms: C3_3  and  C7_7 
ROOT
HETATM    1  C1  UNL     1     -34.060   6.272   4.969  1.00 20.00    -0.082 C 
HETATM    2  C2  UNL     1     -33.651   5.666   3.831  1.00 20.00    -0.081 C 
HETATM    3  C4  UNL     1     -33.706   7.710   5.284  1.00 20.00     0.035 C 
HETATM    4  C5  UNL     1     -32.855   6.402   2.769  1.00 20.00     0.050 C 
HETATM    5  C6  UNL     1     -32.644   8.318   4.369  1.00 20.00     0.021 C 
HETATM    6  C7  UNL     1     -32.856   7.937   2.899  1.00 20.00     0.013 C 
HETATM    7  C8  UNL     1     -34.909   5.622   6.030  1.00 20.00     0.043 C 
HETATM    8  C9  UNL     1     -33.904   4.221   3.489  1.00 20.00     0.043 C 
HETATM    9  C10 UNL     1     -34.149   8.547   2.336  1.00 20.00     0.023 C 
ENDROOT
BRANCH   6  10
HETATM   10  C3  UNL     1     -31.705   8.472   2.085  1.00 20.00     0.240 C 
HETATM   11  O11 UNL     1     -31.591   8.295   0.876  1.00 20.00    -0.306 OA
ENDBRANCH   6  10
TORSDOF 1
