REMARK  0 active torsions:
REMARK  status: ('A' for Active; 'I' for Inactive)
ROOT
HETATM    1  C1  UNL     1     -32.809   7.099   4.180  1.00 20.00     0.062 C 
HETATM    2  C2  UNL     1     -34.044   5.632   5.790  1.00 20.00     0.113 C 
HETATM    3  C3  UNL     1     -34.333   5.409   4.298  1.00 20.00     0.056 C 
HETATM    4  C4  UNL     1     -31.797   8.049   3.637  1.00 20.00     0.078 C 
HETATM    5  C5  UNL     1     -34.219   3.921   3.951  1.00 20.00     0.041 C 
HETATM    6  C6  UNL     1     -35.728   5.917   3.902  1.00 20.00     0.041 C 
HETATM    7  N7  UNL     1     -33.326   6.139   3.488  1.00 20.00    -0.277 NA
HETATM    8  S8  UNL     1     -33.288   7.270   5.846  1.00 20.00    -0.113 SA
ENDROOT
TORSDOF 0
