REMARK  0 active torsions:
REMARK  status: ('A' for Active; 'I' for Inactive)
ROOT
HETATM    1  C1  UNL     1     -33.609   6.641   4.823  1.00 20.00     0.084 C 
HETATM    2  C2  UNL     1     -33.215   4.998   3.027  1.00 20.00     0.048 C 
HETATM    3  C3  UNL     1     -35.555   5.642   3.685  1.00 20.00     0.048 C 
HETATM    4  C4  UNL     1     -34.126   5.423   4.178  1.00 20.00     0.118 C 
HETATM    5  N5  UNL     1     -33.202   7.604   5.328  1.00 20.00    -0.195 NA
HETATM    6 CL6  UNL     1     -34.132   4.131   5.421  1.00 20.00    -0.104 Cl
ENDROOT
TORSDOF 0
