REMARK  2 active torsions:
REMARK  status: ('A' for Active; 'I' for Inactive)
REMARK    1  A    between atoms: C3_3  and  C7_7 
REMARK    2  A    between atoms: C7_7  and  C8_8 
ROOT
HETATM    1  C1  UNL     1     -33.082   9.811   1.439  1.00 20.00     0.088 C 
HETATM    2  C2  UNL     1     -33.468   8.509   1.857  1.00 20.00     0.096 C 
HETATM    3  C3  UNL     1     -32.692   7.689   2.591  1.00 20.00    -0.073 C 
HETATM    4  C4  UNL     1     -31.319   8.138   3.020  1.00 20.00     0.044 C 
HETATM    5  N9  UNL     1     -32.775  10.877   1.097  1.00 20.00    -0.192 NA
ENDROOT
BRANCH   3   6
HETATM    6  C7  UNL     1     -33.108   6.312   3.073  1.00 20.00     0.038 C 
BRANCH   6   7
HETATM    7  C8  UNL     1     -34.328   6.304   4.018  1.00 20.00    -0.019 C 
HETATM    8  C5  UNL     1     -34.081   7.119   5.290  1.00 20.00     0.010 C 
HETATM    9  C6  UNL     1     -34.687   4.863   4.390  1.00 20.00     0.010 C 
ENDBRANCH   6   7
ENDBRANCH   3   6
TORSDOF 2
