REMARK  1 active torsions:
REMARK  status: ('A' for Active; 'I' for Inactive)
REMARK    1  A    between atoms: C6_6  and  C10_10 
ROOT
HETATM    1  C1  UNL     1     -33.246   6.189   4.181  1.00 20.00     0.052 C 
HETATM    2  C2  UNL     1     -32.992   5.795   2.924  1.00 20.00    -0.080 C 
HETATM    3  C3  UNL     1     -33.105   7.614   4.570  1.00 20.00     0.149 C 
HETATM    4  C4  UNL     1     -32.618   6.757   1.824  1.00 20.00     0.039 C 
HETATM    5  C5  UNL     1     -32.583   8.594   3.545  1.00 20.00     0.088 C 
HETATM    6  C6  UNL     1     -33.029   8.202   2.138  1.00 20.00     0.000 C 
HETATM    7  C7  UNL     1     -33.062   4.348   2.531  1.00 20.00     0.043 C 
HETATM    8  O11 UNL     1     -33.352   7.957   5.725  1.00 20.00    -0.293 OA
ENDROOT
BRANCH   6   9
HETATM    9  C10 UNL     1     -32.467   9.167   1.097  1.00 20.00    -0.018 C 
HETATM   10  C8  UNL     1     -32.957   8.794  -0.301  1.00 20.00     0.010 C 
HETATM   11  C9  UNL     1     -32.851  10.605   1.435  1.00 20.00     0.010 C 
ENDBRANCH   6   9
TORSDOF 1
