REMARK  1 active torsions:
REMARK  status: ('A' for Active; 'I' for Inactive)
REMARK    1  A    between atoms: C3_3  and  C5_5 
ROOT
HETATM    1  C1  UNL     1     -33.012   6.045   3.411  1.00 20.00     0.179 C 
HETATM    2  C2  UNL     1     -33.694   4.106   3.595  1.00 20.00     0.179 C 
HETATM    3  C3  UNL     1     -34.197   5.437   4.185  1.00 20.00     0.011 C 
HETATM    4  C4  UNL     1     -35.562   5.869   3.662  1.00 20.00     0.020 C 
HETATM    5  O6  UNL     1     -32.779   4.798   2.712  1.00 20.00    -0.389 OA
ENDROOT
BRANCH   3   6
HETATM    6  C5  UNL     1     -34.093   5.544   5.699  1.00 20.00     0.128 C 
HETATM    7 CL7  UNL     1     -33.988   7.246   6.190  1.00 20.00    -0.130 Cl
ENDBRANCH   3   6
TORSDOF 1
