REMARK  0 active torsions:
REMARK  status: ('A' for Active; 'I' for Inactive)
ROOT
HETATM    1  C1  UNL     1     -34.808   5.032   5.787  1.00 20.00     0.028 C 
HETATM    2  C2  UNL     1     -34.183   4.104   4.746  1.00 20.00     0.017 C 
HETATM    3  C3  UNL     1     -34.059   6.359   5.864  1.00 20.00     0.188 C 
HETATM    4  C4  UNL     1     -34.071   4.784   3.389  1.00 20.00     0.140 C 
HETATM    5  O5  UNL     1     -33.170   7.022   2.217  1.00 20.00    -0.229 OA
HETATM    6  O6  UNL     1     -34.017   6.984   4.582  1.00 20.00    -0.296 OA
HETATM    7  S7  UNL     1     -33.035   6.279   3.513  1.00 20.00     0.152 S 
ENDROOT
TORSDOF 0
