REMARK  0 active torsions:
REMARK  status: ('A' for Active; 'I' for Inactive)
ROOT
HETATM    1  C1  UNL     1     -33.829   7.436   6.097  1.00 20.00    -0.002 A 
HETATM    2  C2  UNL     1     -32.966   7.901   5.048  1.00 20.00     0.010 A 
HETATM    3  C3  UNL     1     -34.591   6.349   5.945  1.00 20.00    -0.010 A 
HETATM    4  C4  UNL     1     -32.858   7.296   3.857  1.00 20.00    -0.015 A 
HETATM    5  C5  UNL     1     -33.673   6.068   3.592  1.00 20.00     0.166 A 
HETATM    6  C6  UNL     1     -34.619   5.522   4.684  1.00 20.00     0.035 A 
HETATM    7  C7  UNL     1     -31.957   7.785   2.767  1.00 20.00     0.052 C 
HETATM    8  C8  UNL     1     -34.183   4.088   5.018  1.00 20.00     0.027 C 
HETATM    9  C9  UNL     1     -36.047   5.519   4.120  1.00 20.00     0.027 C 
HETATM   10  O10 UNL     1     -33.578   5.506   2.498  1.00 20.00    -0.292 OA
ENDROOT
TORSDOF 0
