REMARK  0 active torsions:
REMARK  status: ('A' for Active; 'I' for Inactive)
ROOT
HETATM    1  C1  UNL     1     -33.419   7.557   3.972  1.00 20.00     0.021 A 
HETATM    2  C2  UNL     1     -33.319   7.210   2.675  1.00 20.00     0.004 A 
HETATM    3  C3  UNL     1     -33.972   5.276   4.165  1.00 20.00     0.145 A 
HETATM    4  C4  UNL     1     -33.185   8.921   4.544  1.00 20.00     0.069 C 
HETATM    5  C5  UNL     1     -32.960   8.047   1.494  1.00 20.00     0.058 C 
HETATM    6  C6  UNL     1     -33.933   6.708   6.254  1.00 20.00     0.157 C 
HETATM    7  N7  UNL     1     -33.781   6.500   4.815  1.00 20.00    -0.340 N 
HETATM    8  S8  UNL     1     -34.403   3.794   4.798  1.00 20.00    -0.052 SA
HETATM    9  S9  UNL     1     -33.675   5.519   2.436  1.00 20.00    -0.063 SA
ENDROOT
TORSDOF 0
