REMARK  0 active torsions:
REMARK  status: ('A' for Active; 'I' for Inactive)
ROOT
HETATM    1  C1  UNL     1     -33.112   5.528   3.192  1.00 20.00     0.149 C 
HETATM    2  C2  UNL     1     -32.634   6.933   2.878  1.00 20.00     0.080 C 
HETATM    3  C3  UNL     1     -32.063   7.610   4.115  1.00 20.00     0.007 C 
HETATM    4  C4  UNL     1     -33.037   7.565   5.287  1.00 20.00     0.003 C 
HETATM    5  C5  UNL     1     -33.418   6.121   5.616  1.00 20.00     0.033 C 
HETATM    6  C6  UNL     1     -34.015   5.370   4.418  1.00 20.00     0.093 C 
HETATM    7  C7  UNL     1     -35.429   5.839   4.075  1.00 20.00     0.041 C 
HETATM    8  O8  UNL     1     -32.853   4.602   2.423  1.00 20.00    -0.296 OA
HETATM    9 CL9  UNL     1     -34.094   3.623   4.837  1.00 20.00    -0.111 Cl
ENDROOT
TORSDOF 0
