REMARK  0 active torsions:
REMARK  status: ('A' for Active; 'I' for Inactive)
ROOT
HETATM    1  C1  UNL     1     -33.010   7.125   3.845  1.00 20.00     0.061 C 
HETATM    2  C2  UNL     1     -33.894   5.924   5.850  1.00 20.00     0.107 C 
HETATM    3  C3  UNL     1     -34.245   5.342   4.484  1.00 20.00     0.114 C 
HETATM    4  C4  UNL     1     -32.173   8.047   3.026  1.00 20.00     0.078 C 
HETATM    5  C5  UNL     1     -34.055   3.832   4.451  1.00 20.00     0.035 C 
HETATM    6  N6  UNL     1     -33.379   5.952   3.447  1.00 20.00    -0.282 NA
HETATM    7  S7  UNL     1     -33.468   7.630   5.450  1.00 20.00    -0.113 SA
ENDROOT
TORSDOF 0
