REMARK  1 active torsions:
REMARK  status: ('A' for Active; 'I' for Inactive)
REMARK    1  A    between atoms: C1_1  and  C7_7 
ROOT
HETATM    1  C2  UNL     1     -34.325   5.015   5.990  1.00 20.00     0.001 C 
HETATM    2  C3  UNL     1     -32.539   5.774   2.502  1.00 20.00     0.016 C 
HETATM    3  C4  UNL     1     -35.118   4.464   4.813  1.00 20.00     0.005 C 
HETATM    4  C5  UNL     1     -34.248   6.506   5.693  1.00 20.00     0.006 C 
HETATM    5  C6  UNL     1     -33.420   4.603   2.900  1.00 20.00     0.006 C 
HETATM    6  C7  UNL     1     -32.611   6.684   3.722  1.00 20.00     0.091 C 
HETATM    7  C8  UNL     1     -34.607   5.256   3.612  1.00 20.00    -0.010 C 
HETATM    8  C9  UNL     1     -34.076   6.593   4.174  1.00 20.00     0.004 C 
ENDROOT
BRANCH   6   9
HETATM    9  C1  UNL     1     -32.229   8.083   3.359  1.00 20.00     0.177 C 
HETATM   10  O10 UNL     1     -32.938   8.621   2.464  1.00 20.00    -0.648 OA
HETATM   11  O11 UNL     1     -31.242   8.545   3.998  1.00 20.00    -0.648 OA
ENDBRANCH   6   9
TORSDOF 1
