REMARK  3 active torsions:
REMARK  status: ('A' for Active; 'I' for Inactive)
REMARK    1  A    between atoms: C3_3  and  C9_9 
REMARK    2  A    between atoms: C8_8  and  O11_11 
REMARK    3  A    between atoms: N10_10  and  O11_11 
ROOT
HETATM    1  C1  UNL     1     -31.830   8.524  -0.154  1.00 20.00     0.014 C 
HETATM    2  C2  UNL     1     -32.088   8.737   0.999  1.00 20.00    -0.089 C 
HETATM    3  C8  UNL     1     -32.403   8.999   2.403  1.00 20.00     0.296 C 
ENDROOT
BRANCH   3   4
HETATM    4  O11 UNL     1     -31.979   7.917   3.218  1.00 20.00    -0.244 OA
BRANCH   4   5
HETATM    5  N10 UNL     1     -32.937   6.900   3.125  1.00 20.00    -0.142 NA
HETATM    6  C3  UNL     1     -33.453   6.624   4.287  1.00 20.00     0.043 C 
HETATM    7  C4  UNL     1     -33.030   7.347   5.553  1.00 20.00     0.069 C 
BRANCH   6   8
HETATM    8  C9  UNL     1     -34.530   5.518   4.384  1.00 20.00    -0.009 C 
HETATM    9  C5  UNL     1     -34.980   5.370   5.844  1.00 20.00     0.021 C 
HETATM   10  C6  UNL     1     -33.950   4.194   3.864  1.00 20.00     0.021 C 
HETATM   11  C7  UNL     1     -35.766   5.869   3.532  1.00 20.00     0.021 C 
ENDBRANCH   6   8
ENDBRANCH   4   5
ENDBRANCH   3   4
TORSDOF 3
