REMARK  2 active torsions:
REMARK  status: ('A' for Active; 'I' for Inactive)
REMARK    1  A    between atoms: C1_1  and  C7_7 
REMARK    2  A    between atoms: C7_7  and  C8_8 
ROOT
HETATM    1  C3  UNL     1     -33.096   7.646   5.376  1.00 20.00     0.018 C 
HETATM    2  C7  UNL     1     -33.628   7.222   4.003  1.00 20.00     0.058 C 
ENDROOT
BRANCH   2   3
HETATM    3  C1  UNL     1     -32.528   7.492   2.972  1.00 20.00     0.127 C 
HETATM    4  C2  UNL     1     -32.971   7.972   1.613  1.00 20.00     0.091 C 
HETATM    5  O9  UNL     1     -31.333   7.350   3.232  1.00 20.00    -0.298 OA
ENDBRANCH   2   3
BRANCH   2   6
HETATM    6  C8  UNL     1     -34.197   5.767   3.931  1.00 20.00    -0.041 C 
HETATM    7  C4  UNL     1     -35.694   5.798   3.556  1.00 20.00     0.015 C 
HETATM    8  C5  UNL     1     -33.459   4.880   2.910  1.00 20.00     0.015 C 
HETATM    9  C6  UNL     1     -34.081   5.094   5.317  1.00 20.00     0.015 C 
ENDBRANCH   2   6
TORSDOF 2
