REMARK  3 active torsions:
REMARK  status: ('A' for Active; 'I' for Inactive)
REMARK    1  A    between atoms: C3_3  and  C8_8 
REMARK    2  A    between atoms: C6_6  and  C7_7 
REMARK    3  A    between atoms: C7_7  and  C8_8 
ROOT
HETATM    1  C1  UNL     1     -34.990   5.897   4.797  1.00 20.00     0.197 C 
HETATM    2  C2  UNL     1     -34.471   4.521   4.484  1.00 20.00     0.197 C 
HETATM    3  C3  UNL     1     -33.824   5.941   2.855  1.00 20.00     0.263 C 
HETATM    4  O9  UNL     1     -34.909   6.577   3.544  1.00 20.00    -0.359 OA
HETATM    5  O10 UNL     1     -33.401   4.778   3.577  1.00 20.00    -0.359 OA
ENDROOT
BRANCH   3   6
HETATM    6  C8  UNL     1     -32.660   6.904   2.724  1.00 20.00     0.037 C 
HETATM    7  C5  UNL     1     -32.179   7.323   4.114  1.00 20.00     0.015 C 
BRANCH   6   8
HETATM    8  C7  UNL     1     -33.074   8.108   1.856  1.00 20.00     0.009 C 
BRANCH   8   9
HETATM    9  C6  UNL     1     -31.937   9.104   1.614  1.00 20.00    -0.004 C 
HETATM   10  C4  UNL     1     -32.377  10.234   0.695  1.00 20.00     0.005 C 
ENDBRANCH   8   9
ENDBRANCH   6   8
ENDBRANCH   3   6
TORSDOF 3
