REMARK  0 active torsions:
REMARK  status: ('A' for Active; 'I' for Inactive)
ROOT
HETATM    1  C1  UNL     1     -33.457   7.756   6.317  1.00 20.00     0.002 A 
HETATM    2  C2  UNL     1     -33.964   6.506   5.945  1.00 20.00     0.016 A 
HETATM    3  C3  UNL     1     -32.756   8.561   5.394  1.00 20.00     0.007 A 
HETATM    4  C4  UNL     1     -33.715   6.086   4.656  1.00 20.00     0.017 A 
HETATM    5  C5  UNL     1     -32.518   8.111   4.091  1.00 20.00    -0.051 A 
HETATM    6  C6  UNL     1     -32.975   6.845   3.765  1.00 20.00    -0.033 A 
HETATM    7  C7  UNL     1     -34.221   4.936   3.914  1.00 20.00     0.160 C 
HETATM    8  C8  UNL     1     -31.919   8.981   3.020  1.00 20.00     0.039 C 
HETATM    9  C9  UNL     1     -33.881   5.111   2.441  1.00 20.00     0.093 C 
HETATM   10  C10 UNL     1     -31.661   8.253   1.682  1.00 20.00     0.005 C 
HETATM   11  C11 UNL     1     -32.735   7.201   1.344  1.00 20.00     0.010 C 
HETATM   12  C12 UNL     1     -32.759   6.159   2.455  1.00 20.00     0.027 C 
HETATM   13  O13 UNL     1     -34.867   4.030   4.407  1.00 20.00    -0.292 OA
ENDROOT
TORSDOF 0
