REMARK  4 active torsions:
REMARK  status: ('A' for Active; 'I' for Inactive)
REMARK    1  A    between atoms: C2_2  and  C7_7 
REMARK    2  A    between atoms: C7_7  and  C9_9 
REMARK    3  A    between atoms: C8_8  and  C9_9 
REMARK    4  A    between atoms: C9_9  and  O10_10 
ROOT
HETATM    1  C6  UNL     1     -35.641   6.324   3.402  1.00 20.00     0.047 C 
HETATM    2  C9  UNL     1     -34.557   5.742   4.331  1.00 20.00     0.064 C 
ENDROOT
BRANCH   2   3
HETATM    3  C7  UNL     1     -33.535   6.861   4.752  1.00 20.00     0.037 C 
HETATM    4  C3  UNL     1     -33.896   7.571   6.067  1.00 20.00     0.017 C 
BRANCH   3   5
HETATM    5  C2  UNL     1     -33.380   7.934   3.693  1.00 20.00    -0.030 C 
HETATM    6  C1  UNL     1     -32.226   8.225   3.082  1.00 20.00     0.007 C 
ENDBRANCH   3   5
ENDBRANCH   2   3
BRANCH   2   7
HETATM    7  C8  UNL     1     -33.856   4.496   3.682  1.00 20.00     0.012 C 
HETATM    8  C4  UNL     1     -33.257   4.790   2.296  1.00 20.00     0.012 C 
HETATM    9  C5  UNL     1     -32.774   3.862   4.563  1.00 20.00     0.012 C 
ENDBRANCH   2   7
BRANCH   2  10
HETATM   10  O10 UNL     1     -35.225   5.270   5.513  1.00 20.00    -0.389 OA
HETATM   11  H28 UNL     1     -35.850   4.597   5.212  1.00 20.00     0.210 HD
ENDBRANCH   2  10
TORSDOF 4
