REMARK  2 active torsions:
REMARK  status: ('A' for Active; 'I' for Inactive)
REMARK    1  A    between atoms: C3_3  and  C6_6 
REMARK    2  A    between atoms: C6_6  and  C7_7 
ROOT
HETATM    1  C1  UNL     1     -34.923   6.237   4.008  1.00 20.00     0.281 C 
HETATM    2  C2  UNL     1     -34.050   6.113   5.248  1.00 20.00     0.106 C 
HETATM    3  C3  UNL     1     -33.356   7.896   3.436  1.00 20.00     0.282 C 
HETATM    4  N8  UNL     1     -34.079   6.728   2.911  1.00 20.00     0.098 N 
HETATM    5  S9  UNL     1     -33.023   7.598   5.201  1.00 20.00    -0.132 SA
HETATM    6  H24 UNL     1     -33.404   5.999   2.677  1.00 20.00     0.317 HD
ENDROOT
BRANCH   3   7
HETATM    7  C6  UNL     1     -32.059   8.128   2.674  1.00 20.00     0.050 C 
BRANCH   7   8
HETATM    8  C7  UNL     1     -32.267   8.406   1.175  1.00 20.00    -0.020 C 
HETATM    9  C4  UNL     1     -33.123   9.648   0.926  1.00 20.00     0.009 C 
HETATM   10  C5  UNL     1     -30.911   8.565   0.483  1.00 20.00     0.009 C 
ENDBRANCH   7   8
ENDBRANCH   3   7
TORSDOF 2
