REMARK  2 active torsions:
REMARK  status: ('A' for Active; 'I' for Inactive)
REMARK    1  A    between atoms: C1_1  and  C5_5 
REMARK    2  A    between atoms: C2_2  and  C6_6 
ROOT
HETATM    1  C1  UNL     1     -33.197   8.018   2.014  1.00 20.00    -0.063 C 
HETATM    2  C2  UNL     1     -33.519   7.033   2.621  1.00 20.00    -0.063 C 
ENDROOT
BRANCH   1   3
HETATM    3  C5  UNL     1     -32.813   9.192   1.290  1.00 20.00     0.141 A 
HETATM    4  C3  UNL     1     -32.720   9.124  -0.215  1.00 20.00     0.221 A 
HETATM    5  O9  UNL     1     -31.555   9.049   0.617  1.00 20.00    -0.362 OA
HETATM    6  C7  UNL     1     -32.987  10.515   1.961  1.00 20.00     0.063 C 
ENDBRANCH   1   3
BRANCH   2   7
HETATM    7  C6  UNL     1     -33.912   5.834   3.361  1.00 20.00     0.141 A 
HETATM    8  C4  UNL     1     -35.144   5.905   4.205  1.00 20.00     0.221 A 
HETATM    9  O10 UNL     1     -33.831   6.030   4.768  1.00 20.00    -0.362 OA
HETATM   10  C8  UNL     1     -33.380   4.543   2.872  1.00 20.00     0.063 C 
ENDBRANCH   2   7
TORSDOF 2
