REMARK  2 active torsions:
REMARK  status: ('A' for Active; 'I' for Inactive)
REMARK    1  A    between atoms: C3_3  and  C6_6 
REMARK    2  A    between atoms: C6_6  and  C7_7 
ROOT
HETATM    1  C1  UNL     1     -34.657   6.145   4.821  1.00 20.00     0.281 C 
HETATM    2  C2  UNL     1     -34.505   5.097   3.728  1.00 20.00     0.106 C 
HETATM    3  C3  UNL     1     -33.259   7.394   3.394  1.00 20.00     0.282 C 
HETATM    4  N8  UNL     1     -33.457   6.982   4.786  1.00 20.00     0.098 N 
HETATM    5  S9  UNL     1     -33.809   6.018   2.336  1.00 20.00    -0.132 SA
HETATM    6  H24 UNL     1     -33.569   7.798   5.387  1.00 20.00     0.317 HD
ENDROOT
BRANCH   3   7
HETATM    7  C6  UNL     1     -31.797   7.724   3.143  1.00 20.00     0.050 C 
BRANCH   7   8
HETATM    8  C7  UNL     1     -31.499   8.129   1.688  1.00 20.00    -0.020 C 
HETATM    9  C4  UNL     1     -32.284   9.367   1.255  1.00 20.00     0.009 C 
HETATM   10  C5  UNL     1     -29.999   8.382   1.516  1.00 20.00     0.009 C 
ENDBRANCH   7   8
ENDBRANCH   3   7
TORSDOF 2
