REMARK  0 active torsions:
REMARK  status: ('A' for Active; 'I' for Inactive)
ROOT
HETATM    1  C1  UNL     1     -33.611   5.867   4.335  1.00 20.00    -0.014 A 
HETATM    2  C2  UNL     1     -33.423   7.187   4.472  1.00 20.00    -0.070 A 
HETATM    3  C3  UNL     1     -32.928   5.492   3.082  1.00 20.00     0.156 A 
HETATM    4  C4  UNL     1     -32.330   6.681   2.391  1.00 20.00     0.092 A 
HETATM    5  C5  UNL     1     -32.600   7.823   3.374  1.00 20.00     0.018 A 
HETATM    6  C6  UNL     1     -34.328   4.873   5.167  1.00 20.00     0.052 C 
HETATM    7  C7  UNL     1     -33.960   8.051   5.567  1.00 20.00     0.044 C 
HETATM    8  C8  UNL     1     -31.299   8.434   3.889  1.00 20.00     0.015 C 
HETATM    9  O9  UNL     1     -32.875   4.347   2.656  1.00 20.00    -0.293 OA
ENDROOT
TORSDOF 0
