REMARK  0 active torsions:
REMARK  status: ('A' for Active; 'I' for Inactive)
ROOT
HETATM    1  C1  UNL     1     -33.608   6.820   4.637  1.00 20.00    -0.002 A 
HETATM    2  C2  UNL     1     -34.133   5.592   4.785  1.00 20.00    -0.064 A 
HETATM    3  C3  UNL     1     -33.457   7.189   3.210  1.00 20.00     0.215 A 
HETATM    4  C4  UNL     1     -34.468   4.826   3.540  1.00 20.00     0.117 A 
HETATM    5  C5  UNL     1     -33.180   7.804   5.671  1.00 20.00     0.053 C 
HETATM    6  C6  UNL     1     -34.424   4.900   6.081  1.00 20.00     0.045 C 
HETATM    7  O7  UNL     1     -33.007   8.248   2.805  1.00 20.00    -0.280 OA
HETATM    8  S8  UNL     1     -34.012   5.903   2.161  1.00 20.00    -0.083 SA
ENDROOT
TORSDOF 0
