REMARK  2 active torsions:
REMARK  status: ('A' for Active; 'I' for Inactive)
REMARK    1  A    between atoms: C1_1  and  C5_5 
REMARK    2  A    between atoms: C2_2  and  C6_6 
ROOT
HETATM    1  C1  UNL     1     -33.283   7.399   2.688  1.00 20.00    -0.063 C 
HETATM    2  C2  UNL     1     -32.952   8.205   1.861  1.00 20.00    -0.063 C 
ENDROOT
BRANCH   1   3
HETATM    3  C5  UNL     1     -33.678   6.440   3.675  1.00 20.00     0.141 A 
HETATM    4  C3  UNL     1     -34.582   5.302   3.266  1.00 20.00     0.221 A 
HETATM    5  O9  UNL     1     -33.167   5.125   3.413  1.00 20.00    -0.362 OA
HETATM    6  C7  UNL     1     -33.595   6.840   5.112  1.00 20.00     0.063 C 
ENDBRANCH   1   3
BRANCH   2   7
HETATM    7  C6  UNL     1     -32.549   9.185   0.854  1.00 20.00     0.141 A 
HETATM    8  C4  UNL     1     -33.576  10.162   0.378  1.00 20.00     0.221 A 
HETATM    9  O10 UNL     1     -32.595  10.514   1.362  1.00 20.00    -0.362 OA
HETATM   10  C8  UNL     1     -31.354   8.860   0.045  1.00 20.00     0.063 C 
ENDBRANCH   2   7
TORSDOF 2
