REMARK  1 active torsions:
REMARK  status: ('A' for Active; 'I' for Inactive)
REMARK    1  A    between atoms: C4_4  and  C11_11 
ROOT
HETATM    1  C1  UNL     1     -33.655   6.272   5.564  1.00 20.00     0.053 C 
HETATM    2  C2  UNL     1     -33.942   5.446   4.552  1.00 20.00    -0.072 C 
HETATM    3  C3  UNL     1     -33.239   7.540   4.956  1.00 20.00     0.155 C 
HETATM    4  C4  UNL     1     -33.463   7.537   3.464  1.00 20.00     0.075 C 
HETATM    5  C5  UNL     1     -33.707   6.028   3.163  1.00 20.00    -0.013 C 
HETATM    6  C6  UNL     1     -34.416   4.042   4.746  1.00 20.00     0.044 C 
HETATM    7  C7  UNL     1     -34.944   5.878   2.263  1.00 20.00     0.020 C 
HETATM    8  C8  UNL     1     -32.511   5.324   2.500  1.00 20.00     0.020 C 
HETATM    9  O12 UNL     1     -32.811   8.479   5.611  1.00 20.00    -0.293 OA
ENDROOT
BRANCH   4  10
HETATM   10  C11 UNL     1     -32.329   8.222   2.719  1.00 20.00    -0.010 C 
HETATM   11  C9  UNL     1     -32.767   8.617   1.307  1.00 20.00     0.010 C 
HETATM   12  C10 UNL     1     -31.839   9.451   3.486  1.00 20.00     0.010 C 
ENDBRANCH   4  10
TORSDOF 1
