REMARK  1 active torsions:
REMARK  status: ('A' for Active; 'I' for Inactive)
REMARK    1  A    between atoms: C6_6  and  O11_11 
ROOT
HETATM    1  C1  UNL     1     -33.962   6.259   3.037  1.00 20.00     0.011 A 
HETATM    2  C2  UNL     1     -34.655   5.422   3.915  1.00 20.00     0.037 A 
HETATM    3  C3  UNL     1     -33.669   6.541   5.835  1.00 20.00     0.044 A 
HETATM    4  C4  UNL     1     -33.118   7.222   3.570  1.00 20.00    -0.048 A 
HETATM    5  C5  UNL     1     -32.976   7.359   4.957  1.00 20.00    -0.049 A 
HETATM    6  C6  UNL     1     -34.509   5.561   5.304  1.00 20.00     0.066 A 
HETATM    7  C7  UNL     1     -32.055   8.489   5.294  1.00 20.00     0.040 C 
HETATM    8  C8  UNL     1     -31.311   8.667   3.963  1.00 20.00     0.014 C 
HETATM    9  C9  UNL     1     -32.302   8.262   2.852  1.00 20.00     0.015 C 
HETATM   10  C10 UNL     1     -31.593   7.776   1.598  1.00 20.00     0.015 C 
ENDROOT
BRANCH   6  11
HETATM   11  O11 UNL     1     -35.201   4.737   6.140  1.00 20.00    -0.361 OA
HETATM   12  H23 UNL     1     -35.743   4.118   5.626  1.00 20.00     0.217 HD
ENDBRANCH   6  11
TORSDOF 1
