REMARK  2 active torsions:
REMARK  status: ('A' for Active; 'I' for Inactive)
REMARK    1  A    between atoms: C2_2  and  C3_3 
REMARK    2  A    between atoms: C3_3  and  N4_4 
ROOT
HETATM    1  C1  UNL     1     -35.709   6.033   3.297  1.00 20.00     0.055 C 
HETATM    2  C3  UNL     1     -34.242   6.181   3.715  1.00 20.00     0.145 C 
HETATM    3 CL7  UNL     1     -34.221   6.682   5.451  1.00 20.00    -0.097 Cl
ENDROOT
BRANCH   2   4
HETATM    4  C2  UNL     1     -33.456   4.865   3.606  1.00 20.00     0.160 C 
HETATM    5 CL6  UNL     1     -34.113   3.562   4.637  1.00 20.00    -0.127 Cl
ENDBRANCH   2   4
BRANCH   2   6
HETATM    6  N4  UNL     1     -33.509   7.265   2.963  1.00 20.00    -0.036 NA
HETATM    7  O5  UNL     1     -32.325   7.396   3.290  1.00 20.00    -0.099 OA
ENDBRANCH   2   6
TORSDOF 2
