REMARK  3 active torsions:
REMARK  status: ('A' for Active; 'I' for Inactive)
REMARK    1  A    between atoms: C3_3  and  C10_10 
REMARK    2  A    between atoms: C7_7  and  C11_11 
REMARK    3  A    between atoms: C10_10  and  C11_11 
ROOT
HETATM    1  C1  UNL     1     -33.317   9.658   1.601  1.00 20.00    -0.024 C 
HETATM    2  C2  UNL     1     -32.493   9.270   0.612  1.00 20.00    -0.087 C 
HETATM    3  C4  UNL     1     -33.306   9.060   2.978  1.00 20.00     0.032 C 
HETATM    4  C5  UNL     1     -31.450   8.200   0.814  1.00 20.00     0.034 C 
HETATM    5  C6  UNL     1     -31.226   7.827   2.283  1.00 20.00     0.009 C 
HETATM    6  C7  UNL     1     -32.534   7.733   3.078  1.00 20.00    -0.007 C 
HETATM    7  C8  UNL     1     -32.562   9.874  -0.760  1.00 20.00     0.043 C 
ENDROOT
BRANCH   6   8
HETATM    8  C11 UNL     1     -33.391   6.548   2.619  1.00 20.00    -0.008 C 
HETATM    9  C9  UNL     1     -32.566   5.259   2.680  1.00 20.00     0.011 C 
BRANCH   8  10
HETATM   10  C10 UNL     1     -34.656   6.443   3.483  1.00 20.00     0.074 C 
BRANCH  10  11
HETATM   11  C3  UNL     1     -34.382   6.204   4.951  1.00 20.00     0.231 C 
HETATM   12  O12 UNL     1     -34.720   5.205   5.576  1.00 20.00    -0.307 OA
ENDBRANCH  10  11
ENDBRANCH   8  10
ENDBRANCH   6   8
TORSDOF 3
