REMARK  3 active torsions:
REMARK  status: ('A' for Active; 'I' for Inactive)
REMARK    1  A    between atoms: C4_4  and  C11_11 
REMARK    2  A    between atoms: C5_5  and  C9_9 
REMARK    3  A    between atoms: C8_8  and  C11_11 
ROOT
HETATM    1  C1  UNL     1     -31.408   8.056   3.825  1.00 20.00    -0.030 C 
HETATM    2  C2  UNL     1     -31.658   7.961   2.512  1.00 20.00    -0.025 C 
HETATM    3  C6  UNL     1     -32.421   7.743   4.881  1.00 20.00     0.027 C 
HETATM    4  C7  UNL     1     -33.849   7.623   4.341  1.00 20.00     0.016 C 
HETATM    5  C8  UNL     1     -32.975   7.504   1.938  1.00 20.00     0.025 C 
HETATM    6  C9  UNL     1     -33.919   6.892   2.997  1.00 20.00     0.055 C 
ENDROOT
BRANCH   5   7
HETATM    7  C11 UNL     1     -33.647   8.679   1.220  1.00 20.00     0.011 C 
HETATM    8  C10 UNL     1     -33.077   8.839  -0.187  1.00 20.00     0.015 C 
BRANCH   7   9
HETATM    9  C4  UNL     1     -33.455   9.945   2.012  1.00 20.00    -0.032 C 
HETATM   10  C3  UNL     1     -32.853  11.039   1.533  1.00 20.00     0.007 C 
ENDBRANCH   7   9
ENDBRANCH   5   7
BRANCH   6  11
HETATM   11  C5  UNL     1     -33.615   5.434   3.201  1.00 20.00     0.236 C 
HETATM   12  O12 UNL     1     -33.813   4.843   4.258  1.00 20.00    -0.306 OA
ENDBRANCH   6  11
TORSDOF 3
