REMARK  2 active torsions:
REMARK  status: ('A' for Active; 'I' for Inactive)
REMARK    1  A    between atoms: C5_5  and  O12_12 
REMARK    2  A    between atoms: C11_11  and  O12_12 
ROOT
HETATM    1  C1  UNL     1     -32.506   8.027   4.839  1.00 20.00     0.036 C 
HETATM    2  C2  UNL     1     -31.265   8.766   2.767  1.00 20.00     0.013 C 
HETATM    3  C3  UNL     1     -33.799   8.914   2.845  1.00 20.00     0.040 C 
HETATM    4  C4  UNL     1     -31.288   7.773   3.941  1.00 20.00    -0.015 C 
HETATM    5  C5  UNL     1     -33.821   7.986   4.063  1.00 20.00     0.122 C 
HETATM    6  C6  UNL     1     -32.562   8.757   1.925  1.00 20.00    -0.045 C 
HETATM    7  C7  UNL     1     -29.995   7.878   4.752  1.00 20.00     0.010 C 
HETATM    8  C8  UNL     1     -32.526   9.949   0.946  1.00 20.00     0.015 C 
HETATM    9  C9  UNL     1     -32.647   7.471   1.079  1.00 20.00     0.015 C 
ENDROOT
BRANCH   5  10
HETATM   10  O12 UNL     1     -34.108   6.655   3.649  1.00 20.00    -0.386 OA
BRANCH  10  11
HETATM   11  C11 UNL     1     -34.668   5.891   4.707  1.00 20.00     0.163 C 
HETATM   12  C10 UNL     1     -34.950   4.490   4.208  1.00 20.00     0.033 C 
ENDBRANCH  10  11
ENDBRANCH   5  10
TORSDOF 2
