REMARK  2 active torsions:
REMARK  status: ('A' for Active; 'I' for Inactive)
REMARK    1  A    between atoms: C1_1  and  C4_4 
REMARK    2  A    between atoms: C4_4  and  C5_5 
ROOT
HETATM    1  C1  UNL     1     -32.865   7.883   2.515  1.00 20.00     0.244 A 
HETATM    2  C3  UNL     1     -33.963   6.170   3.838  1.00 20.00     0.147 C 
HETATM    3  N6  UNL     1     -32.741   6.587   3.160  1.00 20.00    -0.168 NA
HETATM    4  O7  UNL     1     -32.341   7.803   3.843  1.00 20.00    -0.279 OA
ENDROOT
BRANCH   1   5
HETATM    5  C4  UNL     1     -31.879   8.286   1.481  1.00 20.00     0.051 C 
BRANCH   5   6
HETATM    6  C5  UNL     1     -32.044   9.754   1.093  1.00 20.00    -0.001 C 
HETATM    7  C2  UNL     1     -33.419  10.023   0.504  1.00 20.00     0.005 C 
ENDBRANCH   5   6
ENDBRANCH   1   5
TORSDOF 2
