REMARK  0 active torsions:
REMARK  status: ('A' for Active; 'I' for Inactive)
ROOT
HETATM    1  C1  UNL     1     -32.477   9.655   1.307  1.00 20.00     0.095 C 
HETATM    2  C2  UNL     1     -34.276   5.320   4.642  1.00 20.00     0.095 C 
HETATM    3  C3  UNL     1     -32.327   8.961   3.622  1.00 20.00    -0.007 C 
HETATM    4  C4  UNL     1     -34.269   5.926   2.297  1.00 20.00    -0.007 C 
HETATM    5  C5  UNL     1     -32.379   8.669   2.319  1.00 20.00     0.024 C 
HETATM    6  C6  UNL     1     -33.692   5.924   3.502  1.00 20.00     0.024 C 
HETATM    7  C7  UNL     1     -32.163   7.743   4.469  1.00 20.00     0.039 C 
HETATM    8  C8  UNL     1     -33.414   6.575   1.260  1.00 20.00     0.039 C 
HETATM    9  C9  UNL     1     -32.259   7.192   2.062  1.00 20.00     0.042 C 
HETATM   10  C10 UNL     1     -32.337   6.578   3.484  1.00 20.00     0.042 C 
HETATM   11  N11 UNL     1     -32.557  10.462   0.477  1.00 20.00    -0.192 NA
HETATM   12  N12 UNL     1     -34.755   4.824   5.575  1.00 20.00    -0.192 NA
ENDROOT
TORSDOF 0
