REMARK  1 active torsions:
REMARK  status: ('A' for Active; 'I' for Inactive)
REMARK    1  A    between atoms: C7_7  and  O9_9 
ROOT
HETATM    1  C1  UNL     1     -34.778   4.501   4.619  1.00 20.00    -0.023 C 
HETATM    2  C2  UNL     1     -33.664   4.159   3.953  1.00 20.00    -0.023 C 
HETATM    3  C3  UNL     1     -35.401   6.182   2.926  1.00 20.00     0.012 C 
HETATM    4  C4  UNL     1     -34.111   5.786   2.155  1.00 20.00     0.012 C 
HETATM    5  C5  UNL     1     -34.988   5.982   4.403  1.00 20.00     0.037 C 
HETATM    6  C6  UNL     1     -33.135   5.414   3.296  1.00 20.00     0.037 C 
HETATM    7  C7  UNL     1     -33.518   6.421   4.389  1.00 20.00     0.136 C 
ENDROOT
BRANCH   7   8
HETATM    8  O9  UNL     1     -33.348   7.769   4.001  1.00 20.00    -0.389 OA
HETATM    9  C8  UNL     1     -31.976   8.150   3.997  1.00 20.00     0.202 C 
ENDBRANCH   7   8
TORSDOF 1
