REMARK  2 active torsions:
REMARK  status: ('A' for Active; 'I' for Inactive)
REMARK    1  A    between atoms: C2_2  and  C3_3 
REMARK    2  A    between atoms: C3_3  and  O10_10 
ROOT
HETATM    1  C1  UNL     1     -33.372   5.586   3.579  1.00 20.00    -0.074 C 
HETATM    2  C2  UNL     1     -32.697   6.211   2.608  1.00 20.00     0.085 C 
HETATM    3  C4  UNL     1     -33.702   4.121   3.581  1.00 20.00     0.034 C 
HETATM    4  C5  UNL     1     -33.903   6.254   4.815  1.00 20.00     0.034 C 
HETATM    5  C6  UNL     1     -34.716   3.999   4.713  1.00 20.00     0.005 C 
HETATM    6  C7  UNL     1     -34.291   5.076   5.701  1.00 20.00     0.005 C 
ENDROOT
BRANCH   2   7
HETATM    7  C3  UNL     1     -32.429   7.660   2.710  1.00 20.00     0.282 C 
HETATM    8  O9  UNL     1     -32.284   8.281   3.751  1.00 20.00    -0.260 OA
BRANCH   7   9
HETATM    9  O10 UNL     1     -32.372   8.158   1.445  1.00 20.00    -0.323 OA
HETATM   10  C8  UNL     1     -32.116   9.562   1.348  1.00 20.00     0.213 C 
ENDBRANCH   7   9
ENDBRANCH   2   7
TORSDOF 2
