REMARK  0 active torsions:
REMARK  status: ('A' for Active; 'I' for Inactive)
ROOT
HETATM    1  C1  UNL     1     -34.138   4.772   4.193  1.00 20.00     0.219 C 
HETATM    2  C2  UNL     1     -35.120   5.677   4.918  1.00 20.00     0.103 C 
HETATM    3  C3  UNL     1     -34.456   6.566   5.963  1.00 20.00     0.009 C 
HETATM    4  C4  UNL     1     -33.796   7.842   5.431  1.00 20.00     0.001 C 
HETATM    5  C5  UNL     1     -32.477   7.609   4.692  1.00 20.00     0.002 C 
HETATM    6  C6  UNL     1     -32.590   7.611   3.167  1.00 20.00     0.020 C 
HETATM    7  C7  UNL     1     -33.630   6.658   2.585  1.00 20.00     0.125 C 
HETATM    8  C8  UNL     1     -32.500   4.462   2.379  1.00 20.00     0.152 C 
HETATM    9  N9  UNL     1     -33.480   5.287   3.076  1.00 20.00    -0.356 N 
HETATM   10  O10 UNL     1     -33.954   3.630   4.629  1.00 20.00    -0.273 OA
ENDROOT
TORSDOF 0
