REMARK  2 active torsions:
REMARK  status: ('A' for Active; 'I' for Inactive)
REMARK    1  A    between atoms: C4_4  and  C8_8 
REMARK    2  A    between atoms: C8_8  and  N9_9 
ROOT
HETATM    1  C1  UNL     1     -34.700   4.913   5.810  1.00 20.00    -0.003 A 
HETATM    2  C2  UNL     1     -34.681   6.282   5.367  1.00 20.00     0.004 A 
HETATM    3  C3  UNL     1     -34.082   4.139   4.907  1.00 20.00    -0.022 A 
HETATM    4  C4  UNL     1     -34.050   6.361   4.185  1.00 20.00    -0.049 A 
HETATM    5  C5  UNL     1     -33.599   4.988   3.766  1.00 20.00     0.063 A 
ENDROOT
BRANCH   4   6
HETATM    6  C8  UNL     1     -33.795   7.566   3.359  1.00 20.00     0.306 C 
BRANCH   6   7
HETATM    7  N9  UNL     1     -32.371   7.707   3.206  1.00 20.00     0.083 N 
HETATM    8  C6  UNL     1     -31.763   8.319   4.397  1.00 20.00     0.309 C 
HETATM    9  C7  UNL     1     -32.038   8.506   2.017  1.00 20.00     0.309 C 
ENDBRANCH   6   7
ENDBRANCH   4   6
TORSDOF 2
