REMARK  0 active torsions:
REMARK  status: ('A' for Active; 'I' for Inactive)
ROOT
HETATM    1  C1  UNL     1     -32.821   4.965   2.758  1.00 20.00     0.006 C 
HETATM    2  C2  UNL     1     -33.113   4.670   4.235  1.00 20.00     0.006 C 
HETATM    3  C3  UNL     1     -34.983   6.172   2.480  1.00 20.00     0.021 C 
HETATM    4  C4  UNL     1     -33.474   6.259   2.219  1.00 20.00     0.005 C 
HETATM    5  C5  UNL     1     -34.573   4.962   4.629  1.00 20.00    -0.005 C 
HETATM    6  C6  UNL     1     -35.106   6.266   3.998  1.00 20.00     0.052 C 
HETATM    7  C7  UNL     1     -33.014   7.588   2.881  1.00 20.00     0.005 C 
HETATM    8  C8  UNL     1     -34.740   4.934   6.149  1.00 20.00     0.011 C 
HETATM    9  C9  UNL     1     -33.341   8.795   1.982  1.00 20.00     0.027 C 
HETATM   10  C10 UNL     1     -31.528   7.645   3.243  1.00 20.00     0.027 C 
HETATM   11  S11 UNL     1     -34.058   7.718   4.391  1.00 20.00    -0.154 SA
ENDROOT
TORSDOF 0
