REMARK  2 active torsions:
REMARK  status: ('A' for Active; 'I' for Inactive)
REMARK    1  A    between atoms: C3_3  and  C5_5 
REMARK    2  A    between atoms: C5_5  and  C6_6 
ROOT
HETATM    1  C1  UNL     1     -33.859   5.331   3.642  1.00 20.00     0.202 C 
HETATM    2  C2  UNL     1     -34.656   6.178   4.605  1.00 20.00     0.144 C 
HETATM    3  C3  UNL     1     -33.557   7.526   3.164  1.00 20.00     0.261 C 
HETATM    4  C4  UNL     1     -34.651   5.662   6.028  1.00 20.00     0.042 C 
HETATM    5  O7  UNL     1     -33.595   6.226   2.560  1.00 20.00    -0.359 OA
HETATM    6  O8  UNL     1     -34.000   7.446   4.526  1.00 20.00    -0.354 OA
ENDROOT
BRANCH   3   7
HETATM    7  C5  UNL     1     -32.143   8.072   3.127  1.00 20.00     0.075 C 
BRANCH   7   8
HETATM    8  C6  UNL     1     -31.575   8.205   1.717  1.00 20.00     0.119 C 
HETATM    9 CL9  UNL     1     -32.537   9.316   0.714  1.00 20.00    -0.130 Cl
ENDBRANCH   7   8
ENDBRANCH   3   7
TORSDOF 2
