REMARK  0 active torsions:
REMARK  status: ('A' for Active; 'I' for Inactive)
ROOT
HETATM    1  C1  UNL     1     -33.984   5.725   4.157  1.00 20.00     0.130 C 
HETATM    2  C2  UNL     1     -33.393   5.559   2.775  1.00 20.00     0.079 C 
HETATM    3  C3  UNL     1     -33.482   6.864   1.992  1.00 20.00     0.016 C 
HETATM    4  C4  UNL     1     -33.561   8.188   4.137  1.00 20.00     0.020 C 
HETATM    5  C5  UNL     1     -33.470   6.905   4.973  1.00 20.00     0.052 C 
HETATM    6  C6  UNL     1     -32.893   8.077   2.746  1.00 20.00    -0.047 C 
HETATM    7  C7  UNL     1     -34.243   7.062   6.280  1.00 20.00     0.018 C 
HETATM    8  C8  UNL     1     -31.364   7.954   2.877  1.00 20.00     0.015 C 
HETATM    9  C9  UNL     1     -33.198   9.357   1.944  1.00 20.00     0.015 C 
HETATM   10  O10 UNL     1     -34.764   4.890   4.613  1.00 20.00    -0.298 OA
ENDROOT
TORSDOF 0
