REMARK  1 active torsions:
REMARK  status: ('A' for Active; 'I' for Inactive)
REMARK    1  A    between atoms: C3_3  and  C6_6 
ROOT
HETATM    1  C1  UNL     1     -34.110   4.960   5.643  1.00 20.00    -0.024 C 
HETATM    2  C2  UNL     1     -33.972   6.246   5.273  1.00 20.00    -0.076 C 
HETATM    3  C4  UNL     1     -33.998   3.797   4.703  1.00 20.00     0.028 C 
HETATM    4  C5  UNL     1     -33.449   4.160   3.322  1.00 20.00     0.009 C 
HETATM    5  C6  UNL     1     -33.698   6.638   3.838  1.00 20.00     0.079 C 
HETATM    6  C7  UNL     1     -34.006   5.504   2.834  1.00 20.00    -0.004 C 
HETATM    7  C8  UNL     1     -34.125   7.364   6.266  1.00 20.00     0.044 C 
HETATM    8  C9  UNL     1     -33.524   5.820   1.418  1.00 20.00     0.011 C 
ENDROOT
BRANCH   5   9
HETATM    9  C3  UNL     1     -32.260   7.072   3.792  1.00 20.00     0.240 C 
HETATM   10  O10 UNL     1     -31.906   8.210   3.502  1.00 20.00    -0.306 OA
ENDBRANCH   5   9
TORSDOF 1
