REMARK  1 active torsions:
REMARK  status: ('A' for Active; 'I' for Inactive)
REMARK    1  A    between atoms: C3_3  and  C4_4 
ROOT
HETATM    1  C1  UNL     1     -34.144   6.559   5.140  1.00 20.00     0.086 C 
HETATM    2  C2  UNL     1     -35.679   5.910   3.316  1.00 20.00     0.050 C 
HETATM    3  C4  UNL     1     -34.313   5.682   3.966  1.00 20.00     0.134 C 
HETATM    4  N5  UNL     1     -34.011   7.252   6.061  1.00 20.00    -0.195 NA
HETATM    5 CL7  UNL     1     -34.275   3.993   4.598  1.00 20.00    -0.102 Cl
ENDROOT
BRANCH   3   6
HETATM    6  C3  UNL     1     -33.149   5.835   2.977  1.00 20.00     0.155 C 
HETATM    7 CL6  UNL     1     -32.973   7.497   2.346  1.00 20.00    -0.127 Cl
ENDBRANCH   3   6
TORSDOF 1
