REMARK  3 active torsions:
REMARK  status: ('A' for Active; 'I' for Inactive)
REMARK    1  A    between atoms: C1_1  and  C4_4 
REMARK    2  A    between atoms: C2_2  and  C7_7 
REMARK    3  A    between atoms: C7_7  and  O8_8 
ROOT
HETATM    1  C1  UNL     1     -32.851   7.239   3.128  1.00 20.00    -0.070 C 
HETATM    2  C2  UNL     1     -33.573   6.492   3.731  1.00 20.00    -0.070 C 
ENDROOT
BRANCH   2   3
HETATM    3  C7  UNL     1     -34.454   5.579   4.469  1.00 20.00     0.193 C 
HETATM    4  C6  UNL     1     -33.999   4.136   4.319  1.00 20.00     0.053 C 
BRANCH   3   5
HETATM    5  O8  UNL     1     -35.785   5.676   3.970  1.00 20.00    -0.384 OA
HETATM    6  H18 UNL     1     -36.321   5.056   4.489  1.00 20.00     0.211 HD
ENDBRANCH   3   5
ENDBRANCH   2   3
BRANCH   1   7
HETATM    7  C4  UNL     1     -31.997   8.126   2.407  1.00 20.00    -0.018 C 
HETATM    8  C3  UNL     1     -30.821   8.485   2.941  1.00 20.00     0.028 C 
HETATM    9  C5  UNL     1     -32.444   8.632   1.066  1.00 20.00     0.057 C 
ENDBRANCH   1   7
TORSDOF 3
