REMARK  0 active torsions:
REMARK  status: ('A' for Active; 'I' for Inactive)
ROOT
HETATM    1  C1  UNL     1     -33.268   5.380   2.835  1.00 20.00     0.047 C 
HETATM    2  C2  UNL     1     -32.470   6.352   2.380  1.00 20.00    -0.014 C 
HETATM    3  C3  UNL     1     -34.251   5.640   3.911  1.00 20.00     0.152 C 
HETATM    4  C4  UNL     1     -33.784   8.100   3.635  1.00 20.00     0.025 C 
HETATM    5  C5  UNL     1     -34.256   6.998   4.591  1.00 20.00     0.056 C 
HETATM    6  C6  UNL     1     -32.499   7.794   2.831  1.00 20.00    -0.029 C 
HETATM    7  C7  UNL     1     -33.481   6.921   5.900  1.00 20.00     0.018 C 
HETATM    8  C8  UNL     1     -31.230   8.097   3.645  1.00 20.00     0.019 C 
HETATM    9  C9  UNL     1     -32.487   8.704   1.585  1.00 20.00     0.019 C 
HETATM   10  O10 UNL     1     -35.002   4.736   4.275  1.00 20.00    -0.293 OA
ENDROOT
TORSDOF 0
