REMARK  2 active torsions:
REMARK  status: ('A' for Active; 'I' for Inactive)
REMARK    1  A    between atoms: C6_6  and  C11_11 
REMARK    2  A    between atoms: C11_11  and  O12_12 
ROOT
HETATM    1  C1  UNL     1     -34.531   6.193   1.798  1.00 20.00     0.005 C 
HETATM    2  C2  UNL     1     -34.729   6.208   3.319  1.00 20.00     0.006 C 
HETATM    3  C3  UNL     1     -32.460   5.772   2.876  1.00 20.00     0.010 C 
HETATM    4  C4  UNL     1     -33.026   6.472   1.638  1.00 20.00    -0.007 C 
HETATM    5  C5  UNL     1     -33.331   6.586   3.843  1.00 20.00    -0.006 C 
HETATM    6  C6  UNL     1     -32.670   7.950   1.947  1.00 20.00     0.026 C 
HETATM    7  C7  UNL     1     -32.960   8.065   3.484  1.00 20.00    -0.038 C 
HETATM    8  C8  UNL     1     -34.050   9.076   3.872  1.00 20.00     0.015 C 
HETATM    9  C9  UNL     1     -31.676   8.482   4.233  1.00 20.00     0.015 C 
ENDROOT
BRANCH   6  10
HETATM   10  C11 UNL     1     -33.334   8.967   1.028  1.00 20.00     0.119 C 
HETATM   11  C10 UNL     1     -32.915   8.776  -0.421  1.00 20.00     0.040 C 
BRANCH  10  12
HETATM   12  O12 UNL     1     -32.979  10.280   1.449  1.00 20.00    -0.396 OA
HETATM   13  H32 UNL     1     -33.419  10.895   0.841  1.00 20.00     0.210 HD
ENDBRANCH  10  12
ENDBRANCH   6  10
TORSDOF 2
