REMARK  2 active torsions:
REMARK  status: ('A' for Active; 'I' for Inactive)
REMARK    1  A    between atoms: C3_3  and  S9_9 
REMARK    2  A    between atoms: C6_6  and  S9_9 
ROOT
HETATM    1  C1  UNL     1     -32.415  10.085   0.442  1.00 20.00     0.013 C 
HETATM    2  C2  UNL     1     -32.717   9.191   1.185  1.00 20.00    -0.107 C 
HETATM    3  C6  UNL     1     -33.091   8.097   2.084  1.00 20.00     0.174 C 
ENDROOT
BRANCH   3   4
HETATM    4  S9  UNL     1     -32.155   8.140   3.630  1.00 20.00    -0.092 SA
BRANCH   4   5
HETATM    5  C3  UNL     1     -33.198   7.176   4.623  1.00 20.00     0.125 C 
HETATM    6  N7  UNL     1     -33.300   7.344   5.899  1.00 20.00    -0.275 NA
HETATM    7  C4  UNL     1     -34.315   6.405   6.425  1.00 20.00     0.161 C 
HETATM    8  C5  UNL     1     -34.435   5.199   5.506  1.00 20.00     0.103 C 
HETATM    9  S8  UNL     1     -34.127   5.908   3.878  1.00 20.00    -0.102 SA
ENDBRANCH   4   5
ENDBRANCH   3   4
TORSDOF 2
