REMARK  2 active torsions:
REMARK  status: ('A' for Active; 'I' for Inactive)
REMARK    1  A    between atoms: C3_3  and  C4_4 
REMARK    2  A    between atoms: C4_4  and  S8_8 
ROOT
HETATM    1  C1  UNL     1     -32.715   7.440   3.089  1.00 20.00     0.109 C 
HETATM    2  C3  UNL     1     -33.517   6.275   3.385  1.00 20.00     0.116 C 
HETATM    3  N5  UNL     1     -32.077   8.382   2.859  1.00 20.00    -0.191 NA
HETATM    4  S7  UNL     1     -33.065   4.860   2.622  1.00 20.00    -0.071 SA
ENDROOT
BRANCH   2   5
HETATM    5  C4  UNL     1     -34.691   6.373   4.332  1.00 20.00     0.206 C 
HETATM    6  C2  UNL     1     -35.948   5.990   3.673  1.00 20.00     0.080 C 
HETATM    7  N6  UNL     1     -36.941   5.691   3.151  1.00 20.00    -0.196 NA
BRANCH   5   8
HETATM    8  S8  UNL     1     -34.359   5.324   5.787  1.00 20.00    -0.157 SA
HETATM    9  H10 UNL     1     -35.476   5.654   6.447  1.00 20.00     0.103 HD
ENDBRANCH   5   8
ENDBRANCH   2   5
TORSDOF 2
