REMARK  0 active torsions:
REMARK  status: ('A' for Active; 'I' for Inactive)
ROOT
HETATM    1  C1  UNL     1     -33.938   3.739   4.755  1.00 20.00     0.061 A 
HETATM    2  C2  UNL     1     -34.290   4.518   5.782  1.00 20.00     0.061 A 
HETATM    3  C3  UNL     1     -33.841   6.159   3.821  1.00 20.00     0.254 A 
HETATM    4  O4  UNL     1     -33.708   7.148   3.116  1.00 20.00    -0.272 OA
HETATM    5  S5  UNL     1     -33.561   4.515   3.254  1.00 20.00    -0.052 SA
HETATM    6  S6  UNL     1     -34.333   6.227   5.510  1.00 20.00    -0.052 SA
ENDROOT
TORSDOF 0
