REMARK  2 active torsions:
REMARK  status: ('A' for Active; 'I' for Inactive)
REMARK    1  A    between atoms: C4_4  and  C6_6 
REMARK    2  A    between atoms: C5_5  and  C6_6 
ROOT
HETATM    1  C1  UNL     1     -32.228  10.064   0.919  1.00 20.00     0.012 C 
HETATM    2  C2  UNL     1     -32.219   9.174   1.725  1.00 20.00    -0.117 C 
HETATM    3  C5  UNL     1     -32.204   8.088   2.714  1.00 20.00     0.095 C 
ENDROOT
BRANCH   3   4
HETATM    4  C6  UNL     1     -33.333   7.092   2.458  1.00 20.00     0.046 C 
BRANCH   4   5
HETATM    5  C4  UNL     1     -33.312   5.962   3.441  1.00 20.00     0.146 A 
HETATM    6  C3  UNL     1     -34.578   5.457   4.074  1.00 20.00     0.200 A 
HETATM    7  O7  UNL     1     -33.677   6.327   4.776  1.00 20.00    -0.381 OA
ENDBRANCH   4   5
ENDBRANCH   3   4
TORSDOF 2
