REMARK  0 active torsions:
REMARK  status: ('A' for Active; 'I' for Inactive)
ROOT
HETATM    1  C1  UNL     1     -32.886   6.166   3.016  1.00 20.00    -0.021 C 
HETATM    2  C2  UNL     1     -33.206   4.863   3.073  1.00 20.00    -0.025 C 
HETATM    3  C3  UNL     1     -33.929   6.566   5.198  1.00 20.00    -0.081 C 
HETATM    4  C4  UNL     1     -33.649   7.388   6.212  1.00 20.00     0.015 C 
HETATM    5  C5  UNL     1     -34.301   5.091   5.304  1.00 20.00     0.042 C 
HETATM    6  C6  UNL     1     -35.175   6.054   3.309  1.00 20.00     0.022 C 
HETATM    7  C7  UNL     1     -33.984   6.926   3.724  1.00 20.00     0.036 C 
HETATM    8  C8  UNL     1     -34.527   4.756   3.809  1.00 20.00     0.013 C 
ENDROOT
TORSDOF 0
