REMARK  0 active torsions:
REMARK  status: ('A' for Active; 'I' for Inactive)
ROOT
HETATM    1  C1  UNL     1     -33.873   5.232   4.069  1.00 20.00     0.017 A 
HETATM    2  C2  UNL     1     -33.843   6.412   4.940  1.00 20.00     0.296 A 
HETATM    3  C3  UNL     1     -33.149   7.047   2.891  1.00 20.00     0.270 A 
HETATM    4  C4  UNL     1     -34.259   4.032   4.506  1.00 20.00     0.025 C 
HETATM    5  C5  UNL     1     -33.426   5.588   2.707  1.00 20.00     0.155 A 
HETATM    6  O6  UNL     1     -34.147   6.472   6.117  1.00 20.00    -0.259 OA
HETATM    7  O7  UNL     1     -32.744   7.795   2.012  1.00 20.00    -0.264 OA
HETATM    8  O8  UNL     1     -33.406   7.442   4.171  1.00 20.00    -0.241 OA
ENDROOT
TORSDOF 0
