REMARK  1 active torsions:
REMARK  status: ('A' for Active; 'I' for Inactive)
REMARK    1  A    between atoms: C1_1  and  C2_2 
ROOT
HETATM    1  C2  UNL     1     -34.233   6.106   3.969  1.00 20.00     0.412 C 
HETATM    2  F4  UNL     1     -34.056   7.412   3.676  1.00 20.00    -0.168 F 
HETATM    3  F5  UNL     1     -35.458   5.747   3.533  1.00 20.00    -0.168 F 
HETATM    4  F6  UNL     1     -33.317   5.399   3.275  1.00 20.00    -0.168 F 
ENDROOT
BRANCH   1   5
HETATM    5  C1  UNL     1     -34.094   5.867   5.446  1.00 20.00     0.339 C 
HETATM    6  F3  UNL     1     -34.300   4.547   5.697  1.00 20.00    -0.246 F 
ENDBRANCH   1   5
TORSDOF 1
