REMARK  3 active torsions:
REMARK  status: ('A' for Active; 'I' for Inactive)
REMARK    1  A    between atoms: C1_1  and  C7_7 
REMARK    2  A    between atoms: C4_4  and  C6_6 
REMARK    3  A    between atoms: C6_6  and  C7_7 
ROOT
HETATM    1  C6  UNL     1     -32.548   7.470   2.397  1.00 20.00     0.015 C 
ENDROOT
BRANCH   1   2
HETATM    2  C4  UNL     1     -32.886   8.821   1.779  1.00 20.00    -0.014 A 
HETATM    3  C2  UNL     1     -31.974   9.435   0.754  1.00 20.00     0.005 A 
HETATM    4  C3  UNL     1     -33.321   8.908   0.343  1.00 20.00     0.005 A 
ENDBRANCH   1   2
BRANCH   1   5
HETATM    5  C7  UNL     1     -33.768   6.787   3.028  1.00 20.00     0.043 C 
HETATM    6  C5  UNL     1     -33.536   5.284   3.164  1.00 20.00     0.017 C 
BRANCH   5   7
HETATM    7  C1  UNL     1     -34.105   7.329   4.406  1.00 20.00     0.235 C 
HETATM    8  O8  UNL     1     -34.118   6.668   5.439  1.00 20.00    -0.306 OA
ENDBRANCH   5   7
ENDBRANCH   1   5
TORSDOF 3
