REMARK  0 active torsions:
REMARK  status: ('A' for Active; 'I' for Inactive)
ROOT
HETATM    1  C1  UNL     1     -33.887   3.740   4.646  1.00 20.00     0.050 C 
HETATM    2  C2  UNL     1     -34.249   5.042   4.582  1.00 20.00     0.094 C 
HETATM    3 CL3  UNL     1     -34.301   5.895   3.075  1.00 20.00    -0.072 Cl
HETATM    4 CL4  UNL     1     -34.683   5.933   6.002  1.00 20.00    -0.072 Cl
ENDROOT
TORSDOF 0
