REMARK  0 active torsions:
REMARK  status: ('A' for Active; 'I' for Inactive)
ROOT
HETATM    1  C1  UNL     1     -35.530   6.130   3.500  1.00 20.00     0.068 C 
HETATM    2  C2  UNL     1     -34.198   5.791   4.156  1.00 20.00     0.184 C 
HETATM    3 CL3  UNL     1     -33.658   7.161   5.165  1.00 20.00    -0.084 Cl
HETATM    4 CL4  UNL     1     -34.385   4.342   5.184  1.00 20.00    -0.084 Cl
HETATM    5 CL5  UNL     1     -32.972   5.465   2.901  1.00 20.00    -0.084 Cl
ENDROOT
TORSDOF 0
