REMARK  1 active torsions:
REMARK  status: ('A' for Active; 'I' for Inactive)
REMARK    1  A    between atoms: C2_2  and  C5_5 
ROOT
HETATM    1  C1  UNL     1     -32.938   7.421   4.685  1.00 20.00     0.088 A 
HETATM    2  C2  UNL     1     -33.635   6.629   3.796  1.00 20.00     0.147 A 
HETATM    3  C3  UNL     1     -32.441   7.771   2.354  1.00 20.00     0.071 A 
HETATM    4  C4  UNL     1     -31.885   8.258   1.073  1.00 20.00     0.078 C 
HETATM    5  N6  UNL     1     -33.351   6.828   2.459  1.00 20.00    -0.241 NA
HETATM    6  S10 UNL     1     -31.881   8.460   3.822  1.00 20.00    -0.085 SA
ENDROOT
BRANCH   2   7
HETATM    7  C5  UNL     1     -34.638   5.607   4.155  1.00 20.00     0.435 C 
HETATM    8  F7  UNL     1     -34.854   5.480   5.504  1.00 20.00    -0.165 F 
HETATM    9  F8  UNL     1     -35.885   5.835   3.629  1.00 20.00    -0.165 F 
HETATM   10  F9  UNL     1     -34.302   4.347   3.732  1.00 20.00    -0.165 F 
ENDBRANCH   2   7
TORSDOF 1
