REMARK  0 active torsions:
REMARK  status: ('A' for Active; 'I' for Inactive)
ROOT
HETATM    1  C1  UNL     1     -33.793   6.643   4.356  1.00 20.00     0.409 C 
HETATM    2  C2  UNL     1     -34.675   5.260   5.896  1.00 20.00     0.247 C 
HETATM    3  C3  UNL     1     -34.760   4.635   4.542  1.00 20.00     0.343 C 
HETATM    4  O4  UNL     1     -33.255   7.620   3.859  1.00 20.00    -0.229 OA
HETATM    5  O5  UNL     1     -33.757   6.327   5.687  1.00 20.00    -0.293 OA
HETATM    6  O6  UNL     1     -34.519   5.715   3.660  1.00 20.00    -0.260 OA
HETATM    7  F7  UNL     1     -33.755   3.738   4.380  1.00 20.00    -0.217 F 
ENDROOT
TORSDOF 0
