REMARK  1 active torsions:
REMARK  status: ('A' for Active; 'I' for Inactive)
REMARK    1  A    between atoms: C3_3  and  C5_5 
ROOT
HETATM    1  C1  UNL     1     -33.887   7.718   4.106  1.00 20.00     0.032 A 
HETATM    2  C2  UNL     1     -34.181   6.396   4.494  1.00 20.00    -0.044 A 
HETATM    3  C3  UNL     1     -33.264   7.735   2.868  1.00 20.00     0.068 A 
HETATM    4  C4  UNL     1     -33.782   5.480   3.560  1.00 20.00    -0.010 A 
HETATM    5  C6  UNL     1     -34.819   5.733   5.657  1.00 20.00     0.040 C 
HETATM    6  C7  UNL     1     -34.074   4.076   3.928  1.00 20.00     0.047 C 
HETATM    7  C8  UNL     1     -34.428   4.236   5.439  1.00 20.00     0.010 C 
HETATM    8  S10 UNL     1     -33.055   6.148   2.210  1.00 20.00    -0.089 SA
ENDROOT
BRANCH   3   9
HETATM    9  C5  UNL     1     -32.801   8.856   2.115  1.00 20.00     0.259 C 
HETATM   10  O9  UNL     1     -32.941  10.025   2.570  1.00 20.00    -0.273 OA
HETATM   11 CL11 UNL     1     -32.016   8.668   0.521  1.00 20.00    -0.038 Cl
ENDBRANCH   3   9
TORSDOF 1
