REMARK  0 active torsions:
REMARK  status: ('A' for Active; 'I' for Inactive)
ROOT
HETATM    1  C1  UNL     1     -34.340   7.085   5.294  1.00 20.00     0.064 C 
HETATM    2  C2  UNL     1     -31.856   7.152   3.436  1.00 20.00     0.011 C 
HETATM    3  C3  UNL     1     -32.744   7.555   1.275  1.00 20.00     0.010 C 
HETATM    4  C4  UNL     1     -34.206   7.379   3.858  1.00 20.00     0.101 C 
HETATM    5  C5  UNL     1     -32.596   6.426   2.314  1.00 20.00    -0.009 C 
HETATM    6  C6  UNL     1     -32.937   8.229   3.582  1.00 20.00     0.007 C 
HETATM    7  C7  UNL     1     -33.037   8.796   2.144  1.00 20.00    -0.013 C 
HETATM    8  C8  UNL     1     -33.982   6.136   2.950  1.00 20.00     0.003 C 
HETATM    9  C9  UNL     1     -32.050   9.930   1.884  1.00 20.00     0.010 C 
HETATM   10  C10 UNL     1     -34.016   4.774   3.641  1.00 20.00     0.011 C 
HETATM   11  N11 UNL     1     -34.446   6.854   6.426  1.00 20.00    -0.197 NA
ENDROOT
TORSDOF 0
