REMARK  0 active torsions:
REMARK  status: ('A' for Active; 'I' for Inactive)
ROOT
HETATM    1  C1  UNL     1     -33.138   7.369   4.505  1.00 20.00     0.055 C 
HETATM    2  C2  UNL     1     -33.951   6.324   4.634  1.00 20.00    -0.046 C 
HETATM    3  C3  UNL     1     -32.539   7.178   3.170  1.00 20.00     0.150 C 
HETATM    4  C4  UNL     1     -34.599   5.695   5.801  1.00 20.00     0.202 C 
HETATM    5  C5  UNL     1     -32.943   5.860   2.549  1.00 20.00     0.094 C 
HETATM    6  C6  UNL     1     -33.910   4.102   4.227  1.00 20.00     0.177 C 
HETATM    7  C7  UNL     1     -34.053   5.406   3.475  1.00 20.00     0.048 C 
HETATM    8  O8  UNL     1     -31.767   7.980   2.665  1.00 20.00    -0.293 OA
HETATM    9  O9  UNL     1     -34.648   4.288   5.459  1.00 20.00    -0.386 OA
ENDROOT
TORSDOF 0
