REMARK  0 active torsions:
REMARK  status: ('A' for Active; 'I' for Inactive)
ROOT
HETATM    1  C1  UNL     1     -32.340   8.048   4.786  1.00 20.00     0.015 A 
HETATM    2  C2  UNL     1     -31.785   8.540   3.675  1.00 20.00     0.083 A 
HETATM    3  C3  UNL     1     -33.172   6.874   4.744  1.00 20.00    -0.028 A 
HETATM    4  C4  UNL     1     -33.377   6.277   3.560  1.00 20.00     0.063 A 
HETATM    5  C5  UNL     1     -32.014   7.886   2.372  1.00 20.00     0.287 A 
HETATM    6  C6  UNL     1     -33.779   6.378   6.027  1.00 20.00     0.041 C 
HETATM    7  C7  UNL     1     -34.204   5.036   3.393  1.00 20.00     0.066 C 
HETATM    8  C8  UNL     1     -34.891   5.347   5.801  1.00 20.00     0.005 C 
HETATM    9  C9  UNL     1     -34.503   4.339   4.723  1.00 20.00     0.007 C 
HETATM   10  O10 UNL     1     -31.510   8.336   1.348  1.00 20.00    -0.260 OA
HETATM   11  O11 UNL     1     -32.806   6.770   2.364  1.00 20.00    -0.279 OA
ENDROOT
TORSDOF 0
