REMARK  0 active torsions:
REMARK  status: ('A' for Active; 'I' for Inactive)
ROOT
HETATM    1  C1  UNL     1     -33.614   6.466   5.953  1.00 20.00     0.087 A 
HETATM    2  C2  UNL     1     -34.233   5.413   3.859  1.00 20.00     0.063 A 
HETATM    3  C3  UNL     1     -32.863   7.444   3.860  1.00 20.00     0.114 A 
HETATM    4  C4  UNL     1     -34.266   5.455   5.255  1.00 20.00     0.120 A 
HETATM    5  C5  UNL     1     -32.912   7.463   5.270  1.00 20.00     0.149 A 
HETATM    6  C6  UNL     1     -33.525   6.417   3.179  1.00 20.00     0.042 A 
HETATM    7  C7  UNL     1     -32.373   8.034   1.791  1.00 20.00     0.145 A 
HETATM    8  N8  UNL     1     -32.208   8.361   3.051  1.00 20.00    -0.230 NA
HETATM    9  F9  UNL     1     -34.934   4.508   5.928  1.00 20.00    -0.206 F 
HETATM   10  F10 UNL     1     -32.289   8.429   5.960  1.00 20.00    -0.203 F 
HETATM   11  S11 UNL     1     -33.305   6.633   1.483  1.00 20.00    -0.060 SA
HETATM   12 BR12 UNL     1     -31.613   9.069   0.379  1.00 20.00    -0.021 Br
ENDROOT
TORSDOF 0
