REMARK  0 active torsions:
REMARK  status: ('A' for Active; 'I' for Inactive)
ROOT
HETATM    1  C1  UNL     1     -33.804   6.511   3.415  1.00 20.00     0.050 A 
HETATM    2  C2  UNL     1     -33.263   7.282   4.425  1.00 20.00     0.010 A 
HETATM    3  C3  UNL     1     -32.684   7.943   2.196  1.00 20.00     0.168 A 
HETATM    4  C4  UNL     1     -34.712   5.359   3.674  1.00 20.00     0.060 C 
HETATM    5  C5  UNL     1     -33.459   7.051   5.885  1.00 20.00     0.048 C 
HETATM    6  C6  UNL     1     -34.633   4.907   5.143  1.00 20.00     0.006 C 
HETATM    7  C7  UNL     1     -34.649   6.101   6.115  1.00 20.00     0.006 C 
HETATM    8  N8  UNL     1     -33.476   6.894   2.132  1.00 20.00    -0.233 NA
HETATM    9  S9  UNL     1     -32.299   8.521   3.770  1.00 20.00    -0.061 SA
HETATM   10 CL10 UNL     1     -32.046   8.725   0.810  1.00 20.00    -0.054 Cl
ENDROOT
TORSDOF 0
