REMARK  2 active torsions:
REMARK  status: ('A' for Active; 'I' for Inactive)
REMARK    1  A    between atoms: C2_2  and  C7_7 
REMARK    2  A    between atoms: C3_3  and  C6_6 
ROOT
HETATM    1  C1  UNL     1     -33.929   6.702   2.067  1.00 20.00     0.066 A 
HETATM    2  C2  UNL     1     -33.101   7.834   1.985  1.00 20.00     0.068 A 
HETATM    3  C3  UNL     1     -33.809   6.304   3.372  1.00 20.00     0.094 A 
HETATM    4  N8  UNL     1     -32.512   8.116   3.150  1.00 20.00    -0.133 NA
HETATM    5  O9  UNL     1     -32.966   7.140   4.029  1.00 20.00    -0.216 OA
ENDROOT
BRANCH   2   6
HETATM    6  C7  UNL     1     -32.833   8.705   0.771  1.00 20.00     0.032 C 
HETATM    7  C4  UNL     1     -31.356   8.672   0.370  1.00 20.00     0.016 C 
HETATM    8  C5  UNL     1     -33.305  10.143   0.995  1.00 20.00     0.016 C 
ENDBRANCH   2   6
BRANCH   3   9
HETATM    9  C6  UNL     1     -34.385   5.204   4.156  1.00 20.00     0.181 C 
HETATM   10 CL10 UNL     1     -34.573   5.658   5.874  1.00 20.00    -0.123 Cl
ENDBRANCH   3   9
TORSDOF 2
