REMARK  0 active torsions:
REMARK  status: ('A' for Active; 'I' for Inactive)
ROOT
HETATM    1  C1  UNL     1     -35.819   4.984   4.133  1.00 20.00     0.135 C 
HETATM    2  C2  UNL     1     -34.285   5.519   2.284  1.00 20.00     0.017 C 
HETATM    3  C3  UNL     1     -33.576   3.969   4.126  1.00 20.00     0.017 C 
HETATM    4  C4  UNL     1     -34.908   7.267   3.990  1.00 20.00     0.037 C 
HETATM    5  C5  UNL     1     -34.197   5.714   5.837  1.00 20.00     0.037 C 
HETATM    6  C6  UNL     1     -32.591   6.278   3.980  1.00 20.00     0.030 C 
HETATM    7  C7  UNL     1     -35.413   6.080   3.159  1.00 20.00     0.058 C 
HETATM    8  C8  UNL     1     -34.692   4.502   5.034  1.00 20.00     0.058 C 
HETATM    9  C9  UNL     1     -33.099   5.076   3.164  1.00 20.00    -0.011 C 
HETATM   10  C10 UNL     1     -33.721   6.824   4.874  1.00 20.00     0.039 C 
HETATM   11  O11 UNL     1     -36.958   4.529   4.188  1.00 20.00    -0.297 OA
HETATM   12 CL12 UNL     1     -33.122   8.219   5.818  1.00 20.00    -0.119 Cl
ENDROOT
TORSDOF 0
