REMARK  0 active torsions:
REMARK  status: ('A' for Active; 'I' for Inactive)
ROOT
HETATM    1  C1  UNL     1     -32.026   8.015   1.670  1.00 20.00     0.105 C 
HETATM    2  C2  UNL     1     -33.086   7.089   5.116  1.00 20.00     0.068 A 
HETATM    3  C3  UNL     1     -34.396   5.826   3.528  1.00 20.00     0.068 A 
HETATM    4  C4  UNL     1     -32.722   7.383   2.746  1.00 20.00     0.121 A 
HETATM    5  C5  UNL     1     -32.407   7.706   4.066  1.00 20.00     0.141 A 
HETATM    6  C6  UNL     1     -33.717   6.442   2.477  1.00 20.00     0.141 A 
HETATM    7  C7  UNL     1     -34.081   6.149   4.847  1.00 20.00     0.040 A 
HETATM    8  N8  UNL     1     -31.461   8.528   0.796  1.00 20.00    -0.191 NA
HETATM    9  F9  UNL     1     -31.454   8.608   4.341  1.00 20.00    -0.204 F 
HETATM   10  F10 UNL     1     -34.032   6.122   1.214  1.00 20.00    -0.204 F 
HETATM   11 CL11 UNL     1     -34.920   5.388   6.143  1.00 20.00    -0.084 Cl
ENDROOT
TORSDOF 0
