REMARK  1 active torsions:
REMARK  status: ('A' for Active; 'I' for Inactive)
REMARK    1  A    between atoms: C3_3  and  C8_8 
ROOT
HETATM    1  C1  UNL     1     -33.346   4.965   4.025  1.00 20.00    -0.026 C 
HETATM    2  C2  UNL     1     -32.933   5.411   2.830  1.00 20.00    -0.025 C 
HETATM    3  C4  UNL     1     -35.201   5.824   2.944  1.00 20.00     0.018 C 
HETATM    4  C5  UNL     1     -34.253   7.173   4.663  1.00 20.00     0.022 C 
HETATM    5  C6  UNL     1     -34.621   5.703   4.358  1.00 20.00     0.009 C 
HETATM    6  C7  UNL     1     -33.927   6.456   2.371  1.00 20.00     0.021 C 
HETATM    7  C8  UNL     1     -33.808   7.709   3.271  1.00 20.00     0.080 C 
ENDROOT
BRANCH   7   8
HETATM    8  C3  UNL     1     -32.435   8.306   3.283  1.00 20.00     0.223 C 
HETATM    9  O9  UNL     1     -31.768   8.368   4.312  1.00 20.00    -0.279 OA
HETATM   10 CL10 UNL     1     -31.952   8.867   1.712  1.00 20.00    -0.043 Cl
ENDBRANCH   7   8
TORSDOF 1
