REMARK  3 active torsions:
REMARK  status: ('A' for Active; 'I' for Inactive)
REMARK    1  A    between atoms: C2_2  and  O6_6 
REMARK    2  A    between atoms: C3_3  and  C4_4 
REMARK    3  A    between atoms: C3_3  and  O6_6 
ROOT
HETATM    1  C1  UNL     1     -32.631   8.767   2.004  1.00 20.00     0.085 C 
HETATM    2  C2  UNL     1     -32.875   7.688   2.961  1.00 20.00     0.291 C 
HETATM    3  N5  UNL     1     -32.438   9.624   1.246  1.00 20.00    -0.195 NA
ENDROOT
BRANCH   2   4
HETATM    4  O6  UNL     1     -33.605   6.635   2.347  1.00 20.00    -0.369 OA
BRANCH   4   5
HETATM    5  C3  UNL     1     -33.468   5.417   3.066  1.00 20.00     0.286 C 
BRANCH   5   6
HETATM    6  C4  UNL     1     -34.410   5.430   4.242  1.00 20.00     0.408 C 
HETATM    7  F7  UNL     1     -34.134   6.469   5.060  1.00 20.00    -0.169 F 
HETATM    8  F8  UNL     1     -34.304   4.296   4.966  1.00 20.00    -0.169 F 
HETATM    9  F9  UNL     1     -35.693   5.553   3.841  1.00 20.00    -0.169 F 
ENDBRANCH   5   6
ENDBRANCH   4   5
ENDBRANCH   2   4
TORSDOF 3
