REMARK  0 active torsions:
REMARK  status: ('A' for Active; 'I' for Inactive)
ROOT
HETATM    1  C1  UNL     1     -32.495   7.542   4.375  1.00 20.00     0.042 C 
HETATM    2  C2  UNL     1     -34.186   8.649   2.835  1.00 20.00     0.042 C 
HETATM    3  C3  UNL     1     -32.078   7.205   1.582  1.00 20.00     0.174 C 
HETATM    4  C4  UNL     1     -31.757   8.571   2.208  1.00 20.00     0.017 C 
HETATM    5  C5  UNL     1     -31.381   8.362   3.696  1.00 20.00    -0.009 C 
HETATM    6  C6  UNL     1     -33.036   9.444   2.186  1.00 20.00    -0.009 C 
HETATM    7  C7  UNL     1     -33.653   7.311   3.385  1.00 20.00     0.058 C 
HETATM    8  C8  UNL     1     -30.008   7.715   3.883  1.00 20.00     0.010 C 
HETATM    9  C9  UNL     1     -33.406   9.931   0.785  1.00 20.00     0.010 C 
HETATM   10  C10 UNL     1     -34.773   6.502   4.032  1.00 20.00     0.046 C 
HETATM   11  O11 UNL     1     -33.146   6.545   2.275  1.00 20.00    -0.380 OA
ENDROOT
TORSDOF 0
