REMARK  1 active torsions:
REMARK  status: ('A' for Active; 'I' for Inactive)
REMARK    1  A    between atoms: C1_1  and  C2_2 
ROOT
HETATM    1  C1  UNL     1     -33.636   6.645   4.255  1.00 20.00     0.208 C 
HETATM    2  O3  UNL     1     -33.365   7.706   3.713  1.00 20.00    -0.284 OA
HETATM    3 BR5  UNL     1     -33.411   5.077   3.188  1.00 20.00    -0.008 Br
ENDROOT
BRANCH   1   4
HETATM    4  C2  UNL     1     -34.124   6.453   5.662  1.00 20.00     0.205 C 
HETATM    5 CL4  UNL     1     -34.400   4.734   5.983  1.00 20.00    -0.122 Cl
ENDBRANCH   1   4
TORSDOF 1
