REMARK  0 active torsions:
REMARK  status: ('A' for Active; 'I' for Inactive)
ROOT
HETATM    1  C1  UNL     1     -33.621   6.479   3.181  1.00 20.00     0.345 C 
HETATM    2  C2  UNL     1     -34.643   6.450   5.387  1.00 20.00     0.345 C 
HETATM    3  C3  UNL     1     -34.454   4.023   4.102  1.00 20.00     0.151 C 
HETATM    4  N4  UNL     1     -33.585   7.000   4.544  1.00 20.00     0.101 N 
HETATM    5  S5  UNL     1     -33.155   4.727   3.054  1.00 20.00    -0.129 SA
HETATM    6  S6  UNL     1     -34.422   4.691   5.786  1.00 20.00    -0.129 SA
HETATM    7  H13 UNL     1     -32.679   6.794   4.961  1.00 20.00     0.317 HD
ENDROOT
TORSDOF 0
