REMARK  4 active torsions:
REMARK  status: ('A' for Active; 'I' for Inactive)
REMARK    1  A    between atoms: C1_1  and  N8_8 
REMARK    2  A    between atoms: C1_1  and  N9_9 
REMARK    3  A    between atoms: C6_6  and  N8_8 
REMARK    4  A    between atoms: C7_7  and  N9_9 
ROOT
HETATM    1  N9  UNL     1     -33.102   5.415   3.718  1.00 20.00    -0.220 NA
ENDROOT
BRANCH   1   2
HETATM    2  C1  UNL     1     -32.765   6.315   3.047  1.00 20.00     0.091 C 
BRANCH   2   3
HETATM    3  N8  UNL     1     -32.412   7.204   2.366  1.00 20.00    -0.231 NA
BRANCH   3   4
HETATM    4  C6  UNL     1     -33.191   8.435   2.522  1.00 20.00     0.156 C 
HETATM    5  C2  UNL     1     -32.622   9.500   1.607  1.00 20.00     0.029 C 
ENDBRANCH   3   4
ENDBRANCH   2   3
ENDBRANCH   1   2
BRANCH   1   6
HETATM    6  C7  UNL     1     -34.249   5.707   4.590  1.00 20.00     0.053 C 
HETATM    7  C3  UNL     1     -35.436   6.097   3.710  1.00 20.00     0.041 C 
HETATM    8  C4  UNL     1     -34.565   4.443   5.389  1.00 20.00     0.041 C 
HETATM    9  C5  UNL     1     -33.865   6.853   5.525  1.00 20.00     0.041 C 
ENDBRANCH   1   6
TORSDOF 4
