REMARK  0 active torsions:
REMARK  status: ('A' for Active; 'I' for Inactive)
ROOT
HETATM    1  C1  UNL     1     -33.110   7.549   4.030  1.00 20.00     0.129 C 
HETATM    2  C2  UNL     1     -34.266   7.221   4.963  1.00 20.00     0.093 C 
HETATM    3  C3  UNL     1     -33.283   7.296   2.539  1.00 20.00     0.093 C 
HETATM    4  C4  UNL     1     -34.127   4.755   4.363  1.00 20.00     0.017 C 
HETATM    5  C5  UNL     1     -33.547   4.799   2.937  1.00 20.00     0.017 C 
HETATM    6  C6  UNL     1     -35.044   5.963   4.575  1.00 20.00     0.054 C 
HETATM    7  C7  UNL     1     -34.084   6.036   2.210  1.00 20.00     0.054 C 
HETATM    8  O8  UNL     1     -32.097   8.107   4.457  1.00 20.00    -0.298 OA
HETATM    9  S9  UNL     1     -35.735   6.195   2.923  1.00 20.00    -0.159 SA
ENDROOT
TORSDOF 0
