REMARK  2 active torsions:
REMARK  status: ('A' for Active; 'I' for Inactive)
REMARK    1  A    between atoms: C1_1  and  C3_3 
REMARK    2  A    between atoms: C2_2  and  C5_5 
ROOT
HETATM    1  C1  UNL     1     -33.187   6.464   2.764  1.00 20.00     0.003 C 
HETATM    2  C2  UNL     1     -33.878   5.858   3.737  1.00 20.00     0.041 C 
ENDROOT
BRANCH   1   3
HETATM    3  C3  UNL     1     -33.077   7.903   2.666  1.00 20.00    -0.004 C 
HETATM    4  C4  UNL     1     -32.387   8.521   1.696  1.00 20.00    -0.031 C 
HETATM    5  C6  UNL     1     -32.266  10.006   1.584  1.00 20.00     0.036 C 
ENDBRANCH   1   3
BRANCH   2   6
HETATM    6  C5  UNL     1     -34.559   6.683   4.753  1.00 20.00     0.258 C 
HETATM    7  O7  UNL     1     -33.944   7.455   5.479  1.00 20.00    -0.302 OA
ENDBRANCH   2   6
TORSDOF 2
