REMARK  1 active torsions:
REMARK  status: ('A' for Active; 'I' for Inactive)
REMARK    1  A    between atoms: C6_6  and  C10_10 
ROOT
HETATM    1  C1  UNL     1     -32.403   8.372   3.316  1.00 20.00     0.053 C 
HETATM    2  C2  UNL     1     -32.595   8.161   2.005  1.00 20.00    -0.080 C 
HETATM    3  C3  UNL     1     -32.945   7.427   4.326  1.00 20.00     0.154 C 
HETATM    4  C4  UNL     1     -33.303   6.945   1.466  1.00 20.00     0.034 C 
HETATM    5  C5  UNL     1     -33.375   5.805   2.480  1.00 20.00     0.017 C 
HETATM    6  C6  UNL     1     -33.853   6.303   3.842  1.00 20.00     0.063 C 
HETATM    7  C7  UNL     1     -32.109   9.142   0.978  1.00 20.00     0.043 C 
HETATM    8  O11 UNL     1     -32.699   7.619   5.516  1.00 20.00    -0.293 OA
ENDROOT
BRANCH   6   9
HETATM    9  C10 UNL     1     -33.895   5.156   4.848  1.00 20.00    -0.011 C 
HETATM   10  C8  UNL     1     -34.820   5.497   6.015  1.00 20.00     0.010 C 
HETATM   11  C9  UNL     1     -34.340   3.862   4.170  1.00 20.00     0.010 C 
ENDBRANCH   6   9
TORSDOF 1
