REMARK  2 active torsions:
REMARK  status: ('A' for Active; 'I' for Inactive)
REMARK    1  A    between atoms: C4_4  and  C10_10 
REMARK    2  A    between atoms: C10_10  and  O11_11 
ROOT
HETATM    1  C1  UNL     1     -32.701   8.225   1.471  1.00 20.00    -0.069 C 
HETATM    2  C2  UNL     1     -32.800   9.301   0.686  1.00 20.00    -0.085 C 
HETATM    3  C3  UNL     1     -32.459   6.767   1.161  1.00 20.00     0.043 C 
HETATM    4  C4  UNL     1     -32.879   6.501   2.629  1.00 20.00     0.025 C 
HETATM    5  C5  UNL     1     -32.773   8.031   2.983  1.00 20.00    -0.018 C 
HETATM    6  C6  UNL     1     -33.050  10.675   1.241  1.00 20.00     0.043 C 
HETATM    7  C7  UNL     1     -32.670   9.214  -0.809  1.00 20.00     0.043 C 
HETATM    8  C8  UNL     1     -33.984   8.670   3.661  1.00 20.00     0.020 C 
HETATM    9  C9  UNL     1     -31.479   8.389   3.720  1.00 20.00     0.020 C 
ENDROOT
BRANCH   4  10
HETATM   10  C10 UNL     1     -34.220   5.787   2.777  1.00 20.00     0.170 C 
BRANCH  10  11
HETATM   11  O11 UNL     1     -34.484   5.594   4.156  1.00 20.00    -0.400 OA
HETATM   12  H29 UNL     1     -35.340   5.140   4.220  1.00 20.00     0.209 HD
ENDBRANCH  10  11
ENDBRANCH   4  10
TORSDOF 2
