REMARK  2 active torsions:
REMARK  status: ('A' for Active; 'I' for Inactive)
REMARK    1  A    between atoms: C4_4  and  C10_10 
REMARK    2  A    between atoms: C10_10  and  O11_11 
ROOT
HETATM    1  C1  UNL     1     -32.733   8.154   2.929  1.00 20.00    -0.069 C 
HETATM    2  C2  UNL     1     -32.890   8.815   1.779  1.00 20.00    -0.085 C 
HETATM    3  C3  UNL     1     -31.873   8.423   4.140  1.00 20.00     0.043 C 
HETATM    4  C4  UNL     1     -32.722   7.336   4.845  1.00 20.00     0.025 C 
HETATM    5  C5  UNL     1     -33.336   6.863   3.476  1.00 20.00    -0.018 C 
HETATM    6  C6  UNL     1     -33.826   8.338   0.703  1.00 20.00     0.043 C 
HETATM    7  C7  UNL     1     -32.142  10.084   1.477  1.00 20.00     0.043 C 
HETATM    8  C8  UNL     1     -32.683   5.589   2.932  1.00 20.00     0.020 C 
HETATM    9  C9  UNL     1     -34.859   6.775   3.394  1.00 20.00     0.020 C 
ENDROOT
BRANCH   4  10
HETATM   10  C10 UNL     1     -33.644   7.873   5.937  1.00 20.00     0.170 C 
BRANCH  10  11
HETATM   11  O11 UNL     1     -34.369   6.790   6.494  1.00 20.00    -0.400 OA
HETATM   12  H29 UNL     1     -34.946   7.160   7.183  1.00 20.00     0.209 HD
ENDBRANCH  10  11
ENDBRANCH   4  10
TORSDOF 2
