REMARK  1 active torsions:
REMARK  status: ('A' for Active; 'I' for Inactive)
REMARK    1  A    between atoms: C2_2  and  C3_3 
ROOT
HETATM    1  C1  UNL     1     -33.530   6.573   4.118  1.00 20.00     0.010 C 
HETATM    2  C2  UNL     1     -33.034   6.766   2.890  1.00 20.00     0.074 C 
HETATM    3  C4  UNL     1     -33.458   7.624   5.199  1.00 20.00     0.058 C 
HETATM    4  C5  UNL     1     -34.528   7.159   6.190  1.00 20.00     0.026 C 
HETATM    5  C6  UNL     1     -34.581   5.640   6.019  1.00 20.00     0.122 C 
HETATM    6  C8  UNL     1     -34.333   4.176   3.994  1.00 20.00     0.149 C 
HETATM    7  N9  UNL     1     -34.181   5.465   4.631  1.00 20.00    -0.388 N 
ENDROOT
BRANCH   2   8
HETATM    8  C3  UNL     1     -32.377   8.051   2.531  1.00 20.00     0.147 C 
HETATM    9  C7  UNL     1     -32.475   8.479   1.091  1.00 20.00     0.096 C 
HETATM   10  O10 UNL     1     -31.803   8.748   3.364  1.00 20.00    -0.294 OA
ENDBRANCH   2   8
TORSDOF 1
