REMARK  0 active torsions:
REMARK  status: ('A' for Active; 'I' for Inactive)
ROOT
HETATM    1  C1  UNL     1     -34.633   5.157   5.191  1.00 20.00     0.027 A 
HETATM    2  C2  UNL     1     -34.326   4.154   4.285  1.00 20.00     0.116 A 
HETATM    3  C3  UNL     1     -32.901   5.509   3.065  1.00 20.00     0.124 A 
HETATM    4  C4  UNL     1     -34.030   6.380   4.975  1.00 20.00    -0.049 A 
HETATM    5  C5  UNL     1     -33.154   6.569   3.905  1.00 20.00    -0.030 A 
HETATM    6  C6  UNL     1     -34.145   7.624   5.798  1.00 20.00     0.040 C 
HETATM    7  C7  UNL     1     -33.618   8.677   4.811  1.00 20.00     0.014 C 
HETATM    8  C8  UNL     1     -32.589   7.957   3.912  1.00 20.00     0.017 C 
HETATM    9  C9  UNL     1     -32.460   8.608   2.544  1.00 20.00     0.015 C 
HETATM   10  N10 UNL     1     -33.479   4.297   3.230  1.00 20.00    -0.273 NA
ENDROOT
TORSDOF 0
