REMARK  1 active torsions:
REMARK  status: ('A' for Active; 'I' for Inactive)
REMARK    1  A    between atoms: C1_1  and  C2_2 
ROOT
HETATM    1  C1  UNL     1     -32.452   7.475   2.843  1.00 20.00     0.028 C 
HETATM    2  C4  UNL     1     -33.655   6.628   2.483  1.00 20.00     0.059 C 
HETATM    3  C5  UNL     1     -34.269   5.941   3.686  1.00 20.00     0.008 C 
HETATM    4  C6  UNL     1     -34.304   6.912   4.849  1.00 20.00     0.022 C 
HETATM    5  C7  UNL     1     -32.885   7.334   5.191  1.00 20.00     0.149 C 
HETATM    6  N9  UNL     1     -32.122   7.816   4.041  1.00 20.00    -0.294 NA
ENDROOT
BRANCH   1   7
HETATM    7  C2  UNL     1     -31.641   7.965   1.707  1.00 20.00     0.022 C 
HETATM    8  C3  UNL     1     -31.892   9.116   1.119  1.00 20.00    -0.029 C 
HETATM    9  C8  UNL     1     -33.010  10.003   1.558  1.00 20.00     0.036 C 
ENDBRANCH   1   7
TORSDOF 1
