REMARK  4 active torsions:
REMARK  status: ('A' for Active; 'I' for Inactive)
REMARK    1  A    between atoms: C6_6  and  C8_8 
REMARK    2  A    between atoms: C7_7  and  C9_9 
REMARK    3  A    between atoms: C10_10  and  C11_11 
REMARK    4  A    between atoms: C11_11  and  O12_12 
ROOT
HETATM    1  C4  UNL     1     -32.185   7.678   4.200  1.00 20.00     0.012 C 
HETATM    2  C5  UNL     1     -32.528   6.556   2.102  1.00 20.00     0.012 C 
HETATM    3  C8  UNL     1     -33.666   7.315   4.144  1.00 20.00    -0.006 C 
HETATM    4  C9  UNL     1     -33.886   6.594   2.796  1.00 20.00    -0.006 C 
HETATM    5  C10 UNL     1     -31.745   7.716   2.730  1.00 20.00     0.010 C 
ENDROOT
BRANCH   5   6
HETATM    6  C11 UNL     1     -32.062   9.055   2.066  1.00 20.00     0.168 C 
BRANCH   6   7
HETATM    7  O12 UNL     1     -31.616   9.011   0.721  1.00 20.00    -0.400 OA
HETATM    8  H30 UNL     1     -31.829   9.872   0.323  1.00 20.00     0.209 HD
ENDBRANCH   6   7
ENDBRANCH   5   6
BRANCH   3   9
HETATM    9  C6  UNL     1     -34.266   6.329   5.168  1.00 20.00    -0.010 C 
HETATM   10  C1  UNL     1     -33.438   5.042   5.317  1.00 20.00     0.005 C 
HETATM   11  C2  UNL     1     -33.657   4.325   3.978  1.00 20.00     0.005 C 
HETATM   12  C7  UNL     1     -34.585   5.284   3.213  1.00 20.00    -0.010 C 
HETATM   13  C3  UNL     1     -35.465   5.795   4.366  1.00 20.00     0.010 C 
ENDBRANCH   3   9
TORSDOF 4
