REMARK  0 active torsions:
REMARK  status: ('A' for Active; 'I' for Inactive)
ROOT
HETATM    1  C1  UNL     1     -32.981   8.003   2.743  1.00 20.00     0.064 C 
HETATM    2  C2  UNL     1     -34.064   6.901   4.673  1.00 20.00     0.045 C 
HETATM    3  C3  UNL     1     -33.314   5.554   2.694  1.00 20.00     0.045 C 
HETATM    4  C4  UNL     1     -34.203   5.584   5.427  1.00 20.00     0.169 C 
HETATM    5  C5  UNL     1     -33.495   4.312   3.559  1.00 20.00     0.169 C 
HETATM    6  C6  UNL     1     -33.016   6.780   3.562  1.00 20.00     0.097 C 
HETATM    7  N7  UNL     1     -32.953   8.967   2.098  1.00 20.00    -0.197 NA
HETATM    8  O8  UNL     1     -34.518   4.518   4.532  1.00 20.00    -0.391 OA
ENDROOT
TORSDOF 0
