REMARK  5 active torsions:
REMARK  status: ('A' for Active; 'I' for Inactive)
REMARK    1  A    between atoms: C3_3  and  C6_6 
REMARK    2  A    between atoms: C5_5  and  C7_7 
REMARK    3  A    between atoms: C6_6  and  C8_8 
REMARK    4  A    between atoms: C7_7  and  C9_9 
REMARK    5  A    between atoms: C8_8  and  C9_9 
ROOT
HETATM    1  C1  UNL     1     -34.166   5.796   5.023  1.00 20.00     0.059 C 
HETATM    2  C5  UNL     1     -34.436   5.236   3.692  1.00 20.00     0.124 C 
HETATM    3  N10 UNL     1     -33.955   6.238   6.075  1.00 20.00    -0.197 NA
ENDROOT
BRANCH   2   4
HETATM    4  C7  UNL     1     -33.152   4.855   2.953  1.00 20.00     0.014 C 
BRANCH   4   5
HETATM    5  C9  UNL     1     -32.185   6.034   2.796  1.00 20.00     0.001 C 
BRANCH   5   6
HETATM    6  C8  UNL     1     -32.839   7.187   2.028  1.00 20.00     0.004 C 
BRANCH   6   7
HETATM    7  C6  UNL     1     -31.919   8.403   1.866  1.00 20.00     0.033 C 
BRANCH   7   8
HETATM    8  C3  UNL     1     -32.539   9.569   1.132  1.00 20.00    -0.093 C 
HETATM    9  C2  UNL     1     -32.617  10.787   1.691  1.00 20.00     0.014 C 
HETATM   10  C4  UNL     1     -33.031   9.317  -0.264  1.00 20.00     0.042 C 
ENDBRANCH   7   8
ENDBRANCH   6   7
ENDBRANCH   5   6
ENDBRANCH   4   5
ENDBRANCH   2   4
TORSDOF 5
