REMARK  0 active torsions:
REMARK  status: ('A' for Active; 'I' for Inactive)
ROOT
HETATM    1  C1  UNL     1     -34.137   5.067   5.792  1.00 20.00     0.011 C 
HETATM    2  C2  UNL     1     -34.770   4.871   4.413  1.00 20.00     0.011 C 
HETATM    3  C3  UNL     1     -34.270   6.488   6.336  1.00 20.00     0.075 C 
HETATM    4  C4  UNL     1     -33.809   4.890   3.227  1.00 20.00     0.075 C 
HETATM    5  C5  UNL     1     -33.487   7.601   3.893  1.00 20.00     0.147 C 
HETATM    6  S6  UNL     1     -33.097   7.700   5.659  1.00 20.00    -0.159 SA
HETATM    7  S7  UNL     1     -32.597   6.241   3.096  1.00 20.00    -0.159 SA
ENDROOT
TORSDOF 0
