REMARK  0 active torsions:
REMARK  status: ('A' for Active; 'I' for Inactive)
ROOT
HETATM    1  C1  UNL     1     -33.378   6.939   2.254  1.00 20.00     0.029 A 
HETATM    2  C2  UNL     1     -32.114   8.367   3.707  1.00 20.00     0.136 A 
HETATM    3  C3  UNL     1     -33.880   6.338   3.390  1.00 20.00    -0.032 A 
HETATM    4  C4  UNL     1     -32.465   7.979   2.414  1.00 20.00     0.029 A 
HETATM    5  C5  UNL     1     -33.470   6.799   4.636  1.00 20.00     0.040 A 
HETATM    6  C6  UNL     1     -34.882   5.240   3.518  1.00 20.00     0.041 C 
HETATM    7  C7  UNL     1     -34.170   6.053   5.735  1.00 20.00     0.060 C 
HETATM    8  C8  UNL     1     -34.661   4.810   4.978  1.00 20.00     0.011 C 
HETATM    9  N9  UNL     1     -32.601   7.803   4.839  1.00 20.00    -0.264 NA
HETATM   10 BR10 UNL     1     -31.723   8.846   0.914  1.00 20.00    -0.050 Br
ENDROOT
TORSDOF 0
