REMARK  1 active torsions:
REMARK  status: ('A' for Active; 'I' for Inactive)
REMARK    1  A    between atoms: C3_3  and  C4_4 
ROOT
HETATM    1  C1  UNL     1     -33.816   6.079   4.512  1.00 20.00     0.087 C 
HETATM    2  C2  UNL     1     -33.302   5.796   3.218  1.00 20.00     0.093 C 
HETATM    3  C3  UNL     1     -32.954   6.777   2.373  1.00 20.00     0.011 C 
HETATM    4  N7  UNL     1     -34.236   6.306   5.570  1.00 20.00    -0.192 NA
ENDROOT
BRANCH   3   5
HETATM    5  C4  UNL     1     -33.073   8.180   2.704  1.00 20.00    -0.004 C 
HETATM    6  C5  UNL     1     -32.727   9.164   1.862  1.00 20.00    -0.031 C 
HETATM    7  C6  UNL     1     -32.181   8.928   0.491  1.00 20.00     0.036 C 
ENDBRANCH   3   5
TORSDOF 1
