REMARK  1 active torsions:
REMARK  status: ('A' for Active; 'I' for Inactive)
REMARK    1  A    between atoms: C3_3  and  C5_5 
ROOT
HETATM    1  C1  UNL     1     -32.559   7.746   3.978  1.00 20.00     0.025 A 
HETATM    2  C2  UNL     1     -31.899   8.626   3.072  1.00 20.00     0.028 A 
HETATM    3  C3  UNL     1     -33.260   6.758   3.323  1.00 20.00     0.089 A 
HETATM    4  C4  UNL     1     -32.121   8.276   1.758  1.00 20.00     0.052 A 
HETATM    5  S9  UNL     1     -33.121   6.893   1.622  1.00 20.00    -0.078 SA
HETATM    6 BR10 UNL     1     -31.410   9.208   0.263  1.00 20.00    -0.043 Br
ENDROOT
BRANCH   3   7
HETATM    7  C5  UNL     1     -34.067   5.663   3.903  1.00 20.00     0.423 C 
HETATM    8  F6  UNL     1     -34.103   5.659   5.273  1.00 20.00    -0.166 F 
HETATM    9  F7  UNL     1     -35.385   5.679   3.523  1.00 20.00    -0.166 F 
HETATM   10  F8  UNL     1     -33.613   4.418   3.556  1.00 20.00    -0.166 F 
ENDBRANCH   3   7
TORSDOF 1
