REMARK  2 active torsions:
REMARK  status: ('A' for Active; 'I' for Inactive)
REMARK    1  A    between atoms: C1_1  and  C6_6 
REMARK    2  A    between atoms: C5_5  and  N7_7 
ROOT
HETATM    1  C1  UNL     1     -33.609   6.907   3.857  1.00 20.00     0.108 C 
HETATM    2  C2  UNL     1     -32.999   7.588   5.057  1.00 20.00     0.075 C 
HETATM    3  N7  UNL     1     -33.427   7.273   2.634  1.00 20.00    -0.285 NA
ENDROOT
BRANCH   1   4
HETATM    4  C6  UNL     1     -34.479   5.709   4.118  1.00 20.00     0.430 C 
HETATM    5  F8  UNL     1     -34.570   5.437   5.445  1.00 20.00    -0.165 F 
HETATM    6  F9  UNL     1     -34.018   4.582   3.518  1.00 20.00    -0.165 F 
HETATM    7  F10 UNL     1     -35.745   5.903   3.668  1.00 20.00    -0.165 F 
ENDBRANCH   1   4
BRANCH   3   8
HETATM    8  C5  UNL     1     -32.576   8.425   2.375  1.00 20.00     0.100 C 
HETATM    9  C3  UNL     1     -31.138   7.953   2.225  1.00 20.00     0.034 C 
HETATM   10  C4  UNL     1     -33.071   9.132   1.123  1.00 20.00     0.034 C 
ENDBRANCH   3   8
TORSDOF 2
