REMARK  2 active torsions:
REMARK  status: ('A' for Active; 'I' for Inactive)
REMARK    1  A    between atoms: C1_1  and  N7_7 
REMARK    2  A    between atoms: N6_6  and  N8_8 
ROOT
HETATM    1  C1  UNL     1     -32.566   7.810   2.255  1.00 20.00     0.220 C 
HETATM    2  N6  UNL     1     -33.554   7.773   3.093  1.00 20.00    -0.195 NA
ENDROOT
BRANCH   1   3
HETATM    3  N7  UNL     1     -32.297   8.772   1.298  1.00 20.00    -0.383 N 
HETATM    4  C2  UNL     1     -33.166   9.928   1.130  1.00 20.00     0.150 C 
HETATM    5  C3  UNL     1     -31.301   8.545   0.260  1.00 20.00     0.150 C 
ENDBRANCH   1   3
BRANCH   2   6
HETATM    6  N8  UNL     1     -33.514   6.685   3.907  1.00 20.00    -0.216 NA
HETATM    7  C4  UNL     1     -34.102   6.884   5.238  1.00 20.00     0.138 C 
HETATM    8  C5  UNL     1     -34.099   5.484   3.305  1.00 20.00     0.138 C 
ENDBRANCH   2   6
TORSDOF 2
