REMARK  3 active torsions:
REMARK  status: ('A' for Active; 'I' for Inactive)
REMARK    1  A    between atoms: C1_1  and  C5_5 
REMARK    2  A    between atoms: C5_5  and  C6_6 
REMARK    3  A    between atoms: C5_5  and  O8_8 
ROOT
HETATM    1  C5  UNL     1     -33.873   7.635   4.626  1.00 20.00     0.186 C 
ENDROOT
BRANCH   1   2
HETATM    2  C1  UNL     1     -34.725   6.389   4.465  1.00 20.00     0.263 C 
HETATM    3  O7  UNL     1     -34.627   5.390   5.170  1.00 20.00    -0.304 OA
ENDBRANCH   1   2
BRANCH   1   4
HETATM    4  C6  UNL     1     -32.998   7.949   3.384  1.00 20.00    -0.019 C 
HETATM    5  C2  UNL     1     -33.337   9.336   2.807  1.00 20.00     0.017 C 
HETATM    6  C3  UNL     1     -33.275   6.895   2.291  1.00 20.00     0.017 C 
HETATM    7  C4  UNL     1     -31.496   7.898   3.726  1.00 20.00     0.017 C 
ENDBRANCH   1   4
BRANCH   1   8
HETATM    8  O8  UNL     1     -33.051   7.451   5.772  1.00 20.00    -0.388 OA
HETATM    9  H20 UNL     1     -33.648   7.326   6.527  1.00 20.00     0.210 HD
ENDBRANCH   1   8
TORSDOF 3
