REMARK  1 active torsions:
REMARK  status: ('A' for Active; 'I' for Inactive)
REMARK    1  A    between atoms: C2_2  and  C4_4 
ROOT
HETATM    1  C1  UNL     1     -32.451   6.955   2.433  1.00 20.00     0.146 C 
HETATM    2  C4  UNL     1     -33.334   5.890   2.906  1.00 20.00     0.388 C 
HETATM    3  N5  UNL     1     -31.750   7.798   2.053  1.00 20.00    -0.190 NA
HETATM    4  F9  UNL     1     -34.465   5.905   2.150  1.00 20.00    -0.181 F 
HETATM    5  F10 UNL     1     -32.733   4.696   2.659  1.00 20.00    -0.181 F 
ENDROOT
BRANCH   2   6
HETATM    6  C2  UNL     1     -33.673   6.078   4.349  1.00 20.00     0.247 C 
HETATM    7  C3  UNL     1     -33.235   7.080   5.118  1.00 20.00     0.308 C 
HETATM    8  F7  UNL     1     -33.596   7.167   6.416  1.00 20.00    -0.170 F 
HETATM    9  F8  UNL     1     -32.418   8.016   4.591  1.00 20.00    -0.170 F 
HETATM   10  F6  UNL     1     -34.464   5.147   4.933  1.00 20.00    -0.197 F 
ENDBRANCH   2   6
TORSDOF 1
