REMARK  0 active torsions:
REMARK  status: ('A' for Active; 'I' for Inactive)
ROOT
HETATM    1  C1  UNL     1     -32.967   7.027   1.151  1.00 20.00     0.013 A 
HETATM    2  C2  UNL     1     -32.790   8.322   0.663  1.00 20.00     0.043 A 
HETATM    3  C3  UNL     1     -32.474   9.124   2.914  1.00 20.00     0.050 A 
HETATM    4  C4  UNL     1     -32.904   6.749   2.527  1.00 20.00    -0.020 A 
HETATM    5  C5  UNL     1     -32.646   7.824   3.412  1.00 20.00    -0.046 A 
HETATM    6  C6  UNL     1     -32.546   9.370   1.545  1.00 20.00     0.117 A 
HETATM    7  C7  UNL     1     -32.554   7.570   4.900  1.00 20.00     0.039 C 
HETATM    8  C8  UNL     1     -33.891   7.234   5.576  1.00 20.00     0.007 C 
HETATM    9  C9  UNL     1     -34.792   6.244   4.831  1.00 20.00     0.035 C 
HETATM   10  C10 UNL     1     -33.115   5.343   3.036  1.00 20.00     0.184 A 
HETATM   11  C11 UNL     1     -34.027   5.110   4.226  1.00 20.00     0.156 A 
HETATM   12  O12 UNL     1     -34.427   4.766   2.898  1.00 20.00    -0.370 OA
HETATM   13  F13 UNL     1     -32.377  10.614   1.078  1.00 20.00    -0.206 F 
ENDROOT
TORSDOF 0
