REMARK  0 active torsions:
REMARK  status: ('A' for Active; 'I' for Inactive)
ROOT
HETATM    1  C1  UNL     1     -32.330   7.715   4.635  1.00 20.00     0.009 A 
HETATM    2  C2  UNL     1     -31.829   8.290   3.467  1.00 20.00     0.024 A 
HETATM    3  C3  UNL     1     -33.277   6.879   2.146  1.00 20.00     0.033 A 
HETATM    4  C4  UNL     1     -33.305   6.711   4.566  1.00 20.00    -0.048 A 
HETATM    5  C5  UNL     1     -33.796   6.302   3.313  1.00 20.00    -0.022 A 
HETATM    6  C6  UNL     1     -32.299   7.871   2.225  1.00 20.00     0.034 A 
HETATM    7  C7  UNL     1     -33.869   6.118   5.832  1.00 20.00     0.069 C 
HETATM    8  C8  UNL     1     -34.825   5.203   3.216  1.00 20.00     0.308 C 
HETATM    9  C9  UNL     1     -34.625   4.811   5.583  1.00 20.00     0.274 C 
HETATM   10  N10 UNL     1     -35.556   4.971   4.467  1.00 20.00     0.087 N 
HETATM   11 CL11 UNL     1     -31.675   8.580   0.785  1.00 20.00    -0.084 Cl
HETATM   12  H21 UNL     1     -36.170   5.765   4.651  1.00 20.00     0.316 HD
ENDROOT
TORSDOF 0
