REMARK  0 active torsions:
REMARK  status: ('A' for Active; 'I' for Inactive)
ROOT
HETATM    1  C1  UNL     1     -34.387   5.539   3.941  1.00 20.00     0.184 C 
HETATM    2  C2  UNL     1     -34.042   6.543   5.703  1.00 20.00     0.184 C 
HETATM    3  C3  UNL     1     -34.658   5.179   5.400  1.00 20.00     0.101 C 
HETATM    4  O4  UNL     1     -33.603   6.692   4.331  1.00 20.00    -0.389 OA
HETATM    5  I5  UNL     1     -36.902   4.960   5.964  1.00 20.00    -0.080 I 
ENDROOT
TORSDOF 0
