REMARK  0 active torsions:
REMARK  status: ('A' for Active; 'I' for Inactive)
ROOT
HETATM    1  C1  UNL     1     -32.023   7.447   3.315  1.00 20.00     0.064 C 
HETATM    2  C2  UNL     1     -35.266   5.624   3.307  1.00 20.00     0.011 C 
HETATM    3  C3  UNL     1     -34.259   5.233   5.428  1.00 20.00     0.010 C 
HETATM    4  C4  UNL     1     -33.143   6.573   2.966  1.00 20.00     0.101 C 
HETATM    5  C5  UNL     1     -34.258   4.690   3.986  1.00 20.00    -0.009 C 
HETATM    6  C6  UNL     1     -34.478   6.892   3.676  1.00 20.00     0.007 C 
HETATM    7  C7  UNL     1     -34.466   6.747   5.222  1.00 20.00    -0.013 C 
HETATM    8  C8  UNL     1     -32.912   5.085   3.324  1.00 20.00     0.003 C 
HETATM    9  C9  UNL     1     -33.488   7.604   6.006  1.00 20.00     0.010 C 
HETATM   10  C10 UNL     1     -32.605   4.240   2.090  1.00 20.00     0.011 C 
HETATM   11  N11 UNL     1     -31.135   8.140   3.592  1.00 20.00    -0.197 NA
ENDROOT
TORSDOF 0
