REMARK  1 active torsions:
REMARK  status: ('A' for Active; 'I' for Inactive)
REMARK    1  A    between atoms: C3_3  and  C4_4 
ROOT
HETATM    1  C1  UNL     1     -33.898   6.763   4.680  1.00 20.00     0.087 A 
HETATM    2  C2  UNL     1     -33.841   4.959   3.085  1.00 20.00     0.166 A 
HETATM    3  C3  UNL     1     -33.121   6.976   3.560  1.00 20.00     0.125 A 
HETATM    4  N5  UNL     1     -33.087   5.942   2.645  1.00 20.00    -0.249 NA
HETATM    5  S7  UNL     1     -34.621   5.210   4.593  1.00 20.00    -0.092 SA
ENDROOT
BRANCH   3   6
HETATM    6  C4  UNL     1     -32.378   8.180   3.321  1.00 20.00     0.271 C 
HETATM    7  O6  UNL     1     -31.489   8.538   4.136  1.00 20.00    -0.272 OA
HETATM    8 CL8  UNL     1     -32.676   9.199   1.889  1.00 20.00    -0.037 Cl
ENDBRANCH   3   6
TORSDOF 1
