REMARK  1 active torsions:
REMARK  status: ('A' for Active; 'I' for Inactive)
REMARK    1  A    between atoms: C1_1  and  C2_2 
ROOT
HETATM    1  C1  UNL     1     -33.291   6.567   4.163  1.00 20.00     0.346 C 
HETATM    2  O3  UNL     1     -33.417   7.296   5.136  1.00 20.00    -0.255 OA
HETATM    3  F4  UNL     1     -32.304   6.862   3.304  1.00 20.00    -0.160 F 
ENDROOT
BRANCH   1   4
HETATM    4  C2  UNL     1     -34.182   5.413   3.839  1.00 20.00     0.369 C 
HETATM    5  F5  UNL     1     -35.470   5.810   3.671  1.00 20.00    -0.222 F 
HETATM    6 CL6  UNL     1     -34.090   4.255   5.170  1.00 20.00    -0.078 Cl
ENDBRANCH   1   4
TORSDOF 1
