REMARK  1 active torsions:
REMARK  status: ('A' for Active; 'I' for Inactive)
REMARK    1  A    between atoms: C10_10  and  O11_11 
ROOT
HETATM    1  C1  UNL     1     -32.793   9.994   0.225  1.00 20.00    -0.030 C 
HETATM    2  C2  UNL     1     -33.326  10.342   1.418  1.00 20.00    -0.025 C 
HETATM    3  C3  UNL     1     -31.942   8.726   0.337  1.00 20.00     0.032 C 
HETATM    4  C4  UNL     1     -31.799   7.916   3.866  1.00 20.00     0.013 C 
HETATM    5  C5  UNL     1     -34.195   7.818   3.782  1.00 20.00     0.037 C 
HETATM    6  C6  UNL     1     -32.710   9.462   2.440  1.00 20.00     0.017 C 
HETATM    7  C7  UNL     1     -32.612   8.191   1.580  1.00 20.00     0.003 C 
HETATM    8  C8  UNL     1     -33.042   8.849   3.804  1.00 20.00    -0.004 C 
HETATM    9  C9  UNL     1     -32.201   7.120   2.609  1.00 20.00     0.020 C 
HETATM   10  C10 UNL     1     -33.530   6.549   3.182  1.00 20.00     0.123 C 
ENDROOT
BRANCH  10  11
HETATM   11  O11 UNL     1     -34.353   5.929   2.214  1.00 20.00    -0.395 OA
HETATM   12  H25 UNL     1     -35.182   5.680   2.659  1.00 20.00     0.210 HD
ENDBRANCH  10  11
TORSDOF 1
