REMARK  0 active torsions:
REMARK  status: ('A' for Active; 'I' for Inactive)
ROOT
HETATM    1  C1  UNL     1     -33.342   7.001   3.413  1.00 20.00     0.101 C 
HETATM    2  C2  UNL     1     -35.611   6.020   3.418  1.00 20.00     0.067 C 
HETATM    3  C3  UNL     1     -34.164   5.875   3.869  1.00 20.00     0.197 C 
HETATM    4  N4  UNL     1     -32.694   7.893   3.051  1.00 20.00    -0.194 NA
HETATM    5 CL5  UNL     1     -33.470   4.375   3.199  1.00 20.00    -0.085 Cl
HETATM    6 CL6  UNL     1     -34.088   5.819   5.650  1.00 20.00    -0.085 Cl
ENDROOT
TORSDOF 0
