REMARK  0 active torsions:
REMARK  status: ('A' for Active; 'I' for Inactive)
ROOT
HETATM    1  C1  UNL     1     -33.453   5.287   2.151  1.00 20.00     0.015 A 
HETATM    2  C2  UNL     1     -33.097   6.429   1.424  1.00 20.00     0.025 A 
HETATM    3  C3  UNL     1     -34.125   4.491   4.543  1.00 20.00     0.031 A 
HETATM    4  C4  UNL     1     -33.306   7.820   3.405  1.00 20.00     0.054 A 
HETATM    5  C5  UNL     1     -34.267   5.200   5.713  1.00 20.00     0.091 A 
HETATM    6  C6  UNL     1     -33.741   5.409   3.525  1.00 20.00    -0.008 A 
HETATM    7  C7  UNL     1     -33.661   6.670   4.119  1.00 20.00     0.045 A 
HETATM    8  C8  UNL     1     -33.025   7.675   2.044  1.00 20.00     0.036 A 
HETATM    9  C9  UNL     1     -34.029   7.571   6.434  1.00 20.00     0.155 C 
HETATM   10  N10 UNL     1     -33.986   6.513   5.448  1.00 20.00    -0.360 N 
HETATM   11 CL11 UNL     1     -32.584   9.061   1.119  1.00 20.00    -0.084 Cl
ENDROOT
TORSDOF 0
