REMARK  3 active torsions:
REMARK  status: ('A' for Active; 'I' for Inactive)
REMARK    1  A    between atoms: C1_1  and  C3_3 
REMARK    2  A    between atoms: C3_3  and  O9_9 
REMARK    3  A    between atoms: C7_7  and  O9_9 
ROOT
HETATM    1  C3  UNL     1     -33.044   7.280   3.262  1.00 20.00     0.282 C 
HETATM    2  O8  UNL     1     -32.663   7.917   4.232  1.00 20.00    -0.260 OA
ENDROOT
BRANCH   1   3
HETATM    3  C1  UNL     1     -33.898   6.074   3.311  1.00 20.00     0.077 C 
HETATM    4  C2  UNL     1     -34.316   5.597   4.491  1.00 20.00    -0.025 C 
HETATM    5  C4  UNL     1     -33.966   6.224   5.800  1.00 20.00     0.036 C 
ENDBRANCH   1   3
BRANCH   1   6
HETATM    6  O9  UNL     1     -32.771   7.538   1.955  1.00 20.00    -0.314 OA
BRANCH   6   7
HETATM    7  C7  UNL     1     -31.946   8.683   1.714  1.00 20.00     0.124 C 
HETATM    8  C5  UNL     1     -31.111   8.445   0.465  1.00 20.00     0.040 C 
HETATM    9  C6  UNL     1     -32.827   9.916   1.580  1.00 20.00     0.040 C 
ENDBRANCH   6   7
ENDBRANCH   1   6
TORSDOF 3
