REMARK  3 active torsions:
REMARK  status: ('A' for Active; 'I' for Inactive)
REMARK    1  A    between atoms: C3_3  and  C5_5 
REMARK    2  A    between atoms: C4_4  and  C6_6 
REMARK    3  A    between atoms: C5_5  and  C6_6 
ROOT
HETATM    1  C1  UNL     1     -33.349   7.203   4.190  1.00 20.00     0.087 C 
HETATM    2  C3  UNL     1     -32.830   7.320   2.872  1.00 20.00     0.093 C 
HETATM    3  N7  UNL     1     -33.772   7.103   5.266  1.00 20.00    -0.192 NA
ENDROOT
BRANCH   2   4
HETATM    4  C5  UNL     1     -32.671   8.515   2.286  1.00 20.00     0.011 C 
BRANCH   4   5
HETATM    5  C6  UNL     1     -32.146   8.671   0.947  1.00 20.00     0.011 C 
BRANCH   5   6
HETATM    6  C4  UNL     1     -31.987   9.866   0.361  1.00 20.00     0.093 C 
HETATM    7  C2  UNL     1     -32.329  11.072   1.029  1.00 20.00     0.087 C 
HETATM    8  N8  UNL     1     -32.608  12.059   1.571  1.00 20.00    -0.192 NA
ENDBRANCH   5   6
ENDBRANCH   4   5
ENDBRANCH   2   4
TORSDOF 3
