REMARK  0 active torsions:
REMARK  status: ('A' for Active; 'I' for Inactive)
ROOT
HETATM    1  C1  UNL     1     -31.976   8.112   4.200  1.00 20.00     0.179 A 
HETATM    2  C2  UNL     1     -32.991   7.262   4.547  1.00 20.00    -0.007 A 
HETATM    3  C3  UNL     1     -33.297   6.591   3.343  1.00 20.00     0.070 A 
HETATM    4  C4  UNL     1     -33.701   7.028   5.827  1.00 20.00     0.043 C 
HETATM    5  C5  UNL     1     -34.334   5.536   3.226  1.00 20.00     0.062 C 
HETATM    6  C6  UNL     1     -34.506   5.715   5.774  1.00 20.00     0.005 C 
HETATM    7  C7  UNL     1     -35.275   5.557   4.448  1.00 20.00     0.006 C 
HETATM    8  N8  UNL     1     -32.525   6.989   2.329  1.00 20.00    -0.133 NA
HETATM    9  O9  UNL     1     -31.688   7.958   2.879  1.00 20.00    -0.225 OA
ENDROOT
TORSDOF 0
