REMARK  3 active torsions:
REMARK  status: ('A' for Active; 'I' for Inactive)
REMARK    1  A    between atoms: C3_3  and  C7_7 
REMARK    2  A    between atoms: C4_4  and  C5_5 
REMARK    3  A    between atoms: C7_7  and  O9_9 
ROOT
HETATM    1  C1  UNL     1     -33.005   7.190   2.357  1.00 20.00     0.031 A 
HETATM    2  C2  UNL     1     -31.587   8.694   3.418  1.00 20.00     0.060 A 
HETATM    3  C3  UNL     1     -32.019   8.206   2.205  1.00 20.00    -0.027 A 
HETATM    4  C4  UNL     1     -33.289   6.939   3.682  1.00 20.00     0.043 A 
HETATM    5  S10 UNL     1     -32.369   7.927   4.734  1.00 20.00    -0.098 SA
ENDROOT
BRANCH   3   6
HETATM    6  C7  UNL     1     -31.518   8.682   0.894  1.00 20.00     0.206 C 
BRANCH   6   7
HETATM    7  O9  UNL     1     -32.598   9.209   0.128  1.00 20.00    -0.391 OA
HETATM    8  C6  UNL     1     -32.922  10.532   0.530  1.00 20.00     0.201 C 
ENDBRANCH   6   7
ENDBRANCH   3   6
BRANCH   4   9
HETATM    9  C5  UNL     1     -34.211   6.002   4.238  1.00 20.00     0.277 C 
HETATM   10  O8  UNL     1     -34.929   5.237   3.559  1.00 20.00    -0.301 OA
ENDBRANCH   4   9
TORSDOF 3
