REMARK  3 active torsions:
REMARK  status: ('A' for Active; 'I' for Inactive)
REMARK    1  A    between atoms: C3_3  and  C8_8 
REMARK    2  A    between atoms: C7_7  and  C8_8 
REMARK    3  A    between atoms: N9_9  and  O10_10 
ROOT
HETATM    1  C1  UNL     1     -33.776   6.688   4.777  1.00 20.00     0.043 C 
HETATM    2  C4  UNL     1     -34.604   5.446   4.621  1.00 20.00     0.057 C 
HETATM    3  C5  UNL     1     -35.528   5.848   3.480  1.00 20.00     0.006 C 
HETATM    4  C6  UNL     1     -34.677   6.769   2.612  1.00 20.00     0.011 C 
HETATM    5  C7  UNL     1     -33.904   7.639   3.610  1.00 20.00     0.039 C 
HETATM    6  N9  UNL     1     -33.058   6.905   5.826  1.00 20.00    -0.145 NA
ENDROOT
BRANCH   5   7
HETATM    7  C8  UNL     1     -32.573   8.110   3.055  1.00 20.00     0.036 C 
BRANCH   7   8
HETATM    8  C3  UNL     1     -32.729   8.700   1.685  1.00 20.00    -0.036 C 
HETATM    9  C2  UNL     1     -33.010   9.987   1.453  1.00 20.00     0.007 C 
ENDBRANCH   7   8
ENDBRANCH   5   7
BRANCH   6  10
HETATM   10  O10 UNL     1     -32.412   8.133   5.672  1.00 20.00    -0.266 OA
HETATM   11  H23 UNL     1     -31.910   8.194   6.502  1.00 20.00     0.247 HD
ENDBRANCH   6  10
TORSDOF 3
