REMARK  3 active torsions:
REMARK  status: ('A' for Active; 'I' for Inactive)
REMARK    1  A    between atoms: C3_3  and  C6_6 
REMARK    2  A    between atoms: C4_4  and  C7_7 
REMARK    3  A    between atoms: C5_5  and  C8_8 
ROOT
HETATM    1  C1  UNL     1     -35.521   5.793   4.136  1.00 20.00     0.012 C 
HETATM    2  C2  UNL     1     -33.799   4.276   3.631  1.00 20.00     0.012 C 
HETATM    3  C3  UNL     1     -34.170   5.325   4.681  1.00 20.00    -0.005 C 
HETATM    4  C4  UNL     1     -34.915   6.307   2.835  1.00 20.00     0.022 C 
HETATM    5  C5  UNL     1     -33.768   5.296   2.498  1.00 20.00     0.022 C 
ENDROOT
BRANCH   3   6
HETATM    6  C6  UNL     1     -33.231   6.511   4.321  1.00 20.00     0.048 C 
HETATM    7  C7  UNL     1     -34.033   7.433   3.359  1.00 20.00     0.133 C 
HETATM    8  O9  UNL     1     -32.850   7.548   2.507  1.00 20.00    -0.379 OA
HETATM    9  C8  UNL     1     -32.601   6.173   2.940  1.00 20.00     0.133 C 
ENDBRANCH   3   6
TORSDOF 3
