REMARK  0 active torsions:
REMARK  status: ('A' for Active; 'I' for Inactive)
ROOT
HETATM    1  C1  UNL     1     -32.943  10.040   1.691  1.00 20.00     0.086 C 
HETATM    2  C2  UNL     1     -31.782   6.782   3.078  1.00 20.00     0.017 C 
HETATM    3  C3  UNL     1     -33.502   7.580   1.630  1.00 20.00     0.049 C 
HETATM    4  C4  UNL     1     -33.314   6.742   2.923  1.00 20.00     0.020 C 
HETATM    5  C5  UNL     1     -31.747   8.327   3.133  1.00 20.00     0.055 C 
HETATM    6  C6  UNL     1     -33.801   7.588   4.088  1.00 20.00     0.155 A 
HETATM    7  C7  UNL     1     -32.753   8.638   4.243  1.00 20.00     0.158 A 
HETATM    8  C8  UNL     1     -32.403   8.677   1.763  1.00 20.00     0.132 C 
HETATM    9  N9  UNL     1     -33.369  11.117   1.633  1.00 20.00    -0.195 NA
HETATM   10  O10 UNL     1     -32.974   7.648   5.254  1.00 20.00    -0.374 OA
HETATM   11 CL11 UNL     1     -31.205   8.541   0.435  1.00 20.00    -0.102 Cl
ENDROOT
TORSDOF 0
