REMARK  3 active torsions:
REMARK  status: ('A' for Active; 'I' for Inactive)
REMARK    1  A    between atoms: C2_2  and  C7_7 
REMARK    2  A    between atoms: C3_3  and  C8_8 
REMARK    3  A    between atoms: C8_8  and  C9_9 
ROOT
HETATM    1  C1  UNL     1     -33.097   5.688   3.213  1.00 20.00     0.095 C 
HETATM    2  C2  UNL     1     -33.212   6.713   4.209  1.00 20.00     0.024 C 
HETATM    3  C3  UNL     1     -32.676   7.941   3.995  1.00 20.00    -0.067 C 
HETATM    4  C4  UNL     1     -32.751   9.080   4.990  1.00 20.00     0.044 C 
HETATM    5  N10 UNL     1     -33.012   4.849   2.416  1.00 20.00    -0.192 NA
ENDROOT
BRANCH   2   6
HETATM    6  C7  UNL     1     -33.916   6.311   5.492  1.00 20.00     0.046 C 
HETATM    7  C5  UNL     1     -34.414   4.873   5.446  1.00 20.00     0.011 C 
ENDBRANCH   2   6
BRANCH   3   8
HETATM    8  C8  UNL     1     -31.902   8.303   2.738  1.00 20.00     0.034 C 
BRANCH   8   9
HETATM    9  C9  UNL     1     -32.797   8.934   1.669  1.00 20.00    -0.000 C 
HETATM   10  C6  UNL     1     -32.009   9.266   0.412  1.00 20.00     0.005 C 
ENDBRANCH   8   9
ENDBRANCH   3   8
TORSDOF 3
