REMARK  1 active torsions:
REMARK  status: ('A' for Active; 'I' for Inactive)
REMARK    1  A    between atoms: C10_10  and  O12_12 
ROOT
HETATM    1  C1  UNL     1     -35.513   6.258   3.632  1.00 20.00     0.005 C 
HETATM    2  C2  UNL     1     -34.852   6.173   2.250  1.00 20.00     0.005 C 
HETATM    3  C3  UNL     1     -33.721   8.439   4.839  1.00 20.00     0.008 C 
HETATM    4  C4  UNL     1     -33.695   9.057   3.445  1.00 20.00     0.033 C 
HETATM    5  C5  UNL     1     -33.639   4.820   3.761  1.00 20.00     0.010 C 
HETATM    6  C6  UNL     1     -34.367   5.889   4.588  1.00 20.00    -0.010 C 
HETATM    7  C7  UNL     1     -33.405   5.770   2.578  1.00 20.00    -0.007 C 
HETATM    8  C8  UNL     1     -33.281   6.987   4.665  1.00 20.00    -0.004 C 
HETATM    9  C9  UNL     1     -32.603   6.892   3.279  1.00 20.00     0.023 C 
HETATM   10  C10 UNL     1     -32.579   8.312   2.722  1.00 20.00     0.125 C 
ENDROOT
BRANCH  10  11
HETATM   11  O12 UNL     1     -32.724   8.347   1.318  1.00 20.00    -0.390 OA
HETATM   12  C11 UNL     1     -33.168   9.621   0.861  1.00 20.00     0.202 C 
ENDBRANCH  10  11
TORSDOF 1
