REMARK  0 active torsions:
REMARK  status: ('A' for Active; 'I' for Inactive)
ROOT
HETATM    1  C1  UNL     1     -32.462   8.777   2.202  1.00 20.00     0.096 C 
HETATM    2  C2  UNL     1     -32.821   9.135   0.972  1.00 20.00     0.096 C 
HETATM    3 CL3  UNL     1     -32.723   7.201   2.820  1.00 20.00    -0.096 Cl
HETATM    4 CL4  UNL     1     -32.561  10.711   0.355  1.00 20.00    -0.096 Cl
ENDROOT
TORSDOF 0
