REMARK  0 active torsions:
REMARK  status: ('A' for Active; 'I' for Inactive)
ROOT
HETATM    1  C1  UNL     1     -35.795   5.760   3.580  1.00 20.00     0.086 C 
HETATM    2  C2  UNL     1     -33.782   8.626   3.509  1.00 20.00    -0.025 C 
HETATM    3  C3  UNL     1     -34.105   7.885   2.439  1.00 20.00    -0.023 C 
HETATM    4  C4  UNL     1     -32.257   6.898   3.396  1.00 20.00     0.020 C 
HETATM    5  C5  UNL     1     -33.966   6.696   5.053  1.00 20.00     0.050 C 
HETATM    6  C6  UNL     1     -32.994   7.739   4.443  1.00 20.00     0.011 C 
HETATM    7  C7  UNL     1     -33.550   6.493   2.671  1.00 20.00     0.046 C 
HETATM    8  C8  UNL     1     -34.348   5.815   3.820  1.00 20.00     0.133 C 
HETATM    9  N9  UNL     1     -36.939   5.716   3.391  1.00 20.00    -0.195 NA
HETATM   10 CL10 UNL     1     -33.805   4.124   4.055  1.00 20.00    -0.102 Cl
ENDROOT
TORSDOF 0
