REMARK  0 active torsions:
REMARK  status: ('A' for Active; 'I' for Inactive)
ROOT
HETATM    1  C1  UNL     1     -32.421   7.898   4.680  1.00 20.00     0.014 A 
HETATM    2  C2  UNL     1     -31.875   8.425   3.577  1.00 20.00     0.075 A 
HETATM    3  C3  UNL     1     -33.208   6.683   4.630  1.00 20.00    -0.035 A 
HETATM    4  C4  UNL     1     -33.387   6.065   3.447  1.00 20.00     0.018 A 
HETATM    5  C5  UNL     1     -32.076   7.750   2.265  1.00 20.00     0.245 A 
HETATM    6  C6  UNL     1     -33.800   6.175   5.916  1.00 20.00     0.040 C 
HETATM    7  C7  UNL     1     -34.171   4.790   3.299  1.00 20.00     0.057 C 
HETATM    8  C8  UNL     1     -34.876   5.107   5.699  1.00 20.00     0.005 C 
HETATM    9  C9  UNL     1     -34.448   4.100   4.636  1.00 20.00     0.006 C 
HETATM   10  N10 UNL     1     -32.833   6.591   2.299  1.00 20.00    -0.327 N 
HETATM   11  O11 UNL     1     -31.584   8.222   1.243  1.00 20.00    -0.268 OA
HETATM   12  H22 UNL     1     -32.990   6.098   1.424  1.00 20.00     0.169 HD
ENDROOT
TORSDOF 0
