REMARK  1 active torsions:
REMARK  status: ('A' for Active; 'I' for Inactive)
REMARK    1  A    between atoms: C1_1  and  C3_3 
ROOT
HETATM    1  C2  UNL     1     -34.285   5.851   4.178  1.00 20.00     0.019 C 
HETATM    2  C3  UNL     1     -32.601   7.102   3.573  1.00 20.00     0.070 C 
HETATM    3  C4  UNL     1     -33.313   5.844   2.967  1.00 20.00    -0.036 C 
HETATM    4  C5  UNL     1     -33.796   7.271   4.572  1.00 20.00    -0.036 C 
HETATM    5  C7  UNL     1     -32.410   4.608   2.934  1.00 20.00     0.015 C 
HETATM    6  C8  UNL     1     -34.021   6.024   1.623  1.00 20.00     0.015 C 
HETATM    7  C9  UNL     1     -33.342   7.361   6.031  1.00 20.00     0.015 C 
HETATM    8  C10 UNL     1     -34.814   8.369   4.260  1.00 20.00     0.015 C 
ENDROOT
BRANCH   2   9
HETATM    9  C1  UNL     1     -32.230   8.267   2.649  1.00 20.00     0.128 C 
HETATM   10  C6  UNL     1     -30.795   8.722   2.677  1.00 20.00     0.091 C 
HETATM   11  O11 UNL     1     -33.062   8.802   1.920  1.00 20.00    -0.298 OA
ENDBRANCH   2   9
TORSDOF 1
