REMARK  4 active torsions:
REMARK  status: ('A' for Active; 'I' for Inactive)
REMARK    1  A    between atoms: C1_1  and  O10_10 
REMARK    2  A    between atoms: C1_1  and  O11_11 
REMARK    3  A    between atoms: C7_7  and  O10_10 
REMARK    4  A    between atoms: C8_8  and  O11_11 
ROOT
HETATM    1  C1  UNL     1     -32.715   7.051   3.405  1.00 20.00     0.407 C 
HETATM    2  O9  UNL     1     -32.584   7.799   4.364  1.00 20.00    -0.229 OA
ENDROOT
BRANCH   1   3
HETATM    3  O10 UNL     1     -32.610   7.405   2.093  1.00 20.00    -0.293 OA
BRANCH   3   4
HETATM    4  C7  UNL     1     -32.321   8.786   1.847  1.00 20.00     0.126 C 
HETATM    5  C2  UNL     1     -31.503   8.906   0.571  1.00 20.00     0.040 C 
HETATM    6  C3  UNL     1     -33.625   9.563   1.760  1.00 20.00     0.040 C 
ENDBRANCH   3   4
ENDBRANCH   1   3
BRANCH   1   7
HETATM    7  O11 UNL     1     -32.989   5.716   3.463  1.00 20.00    -0.288 OA
BRANCH   7   8
HETATM    8  C8  UNL     1     -34.214   5.364   4.107  1.00 20.00     0.062 C 
HETATM    9  C4  UNL     1     -35.368   6.019   3.348  1.00 20.00     0.046 C 
HETATM   10  C5  UNL     1     -34.337   3.842   4.060  1.00 20.00     0.046 C 
HETATM   11  C6  UNL     1     -34.164   5.855   5.552  1.00 20.00     0.046 C 
ENDBRANCH   7   8
ENDBRANCH   1   7
TORSDOF 4
