REMARK  5 active torsions:
REMARK  status: ('A' for Active; 'I' for Inactive)
REMARK    1  A    between atoms: C2_2  and  C4_4 
REMARK    2  A    between atoms: C4_4  and  C6_6 
REMARK    3  A    between atoms: C5_5  and  C6_6 
REMARK    4  A    between atoms: C5_5  and  C7_7 
REMARK    5  A    between atoms: C6_6  and  O8_8 
ROOT
HETATM    1  C6  UNL     1     -32.339   6.910   3.231  1.00 20.00     0.130 C 
ENDROOT
BRANCH   1   2
HETATM    2  C4  UNL     1     -33.212   7.519   2.123  1.00 20.00     0.065 C 
BRANCH   2   3
HETATM    3  C2  UNL     1     -32.542   8.666   1.397  1.00 20.00    -0.091 C 
HETATM    4  C1  UNL     1     -33.097   9.888   1.352  1.00 20.00     0.014 C 
HETATM    5  C3  UNL     1     -31.250   8.369   0.693  1.00 20.00     0.042 C 
ENDBRANCH   2   3
ENDBRANCH   1   2
BRANCH   1   6
HETATM    6  C5  UNL     1     -32.851   5.514   3.612  1.00 20.00     0.149 C 
BRANCH   6   7
HETATM    7  C7  UNL     1     -34.287   5.519   4.096  1.00 20.00     0.390 C 
HETATM    8  F9  UNL     1     -34.436   6.259   5.214  1.00 20.00    -0.171 F 
HETATM    9  F10 UNL     1     -35.101   6.041   3.151  1.00 20.00    -0.171 F 
HETATM   10  F11 UNL     1     -34.720   4.268   4.362  1.00 20.00    -0.171 F 
ENDBRANCH   6   7
ENDBRANCH   1   6
BRANCH   1  11
HETATM   11  O8  UNL     1     -32.401   7.769   4.369  1.00 20.00    -0.395 OA
HETATM   12  H22 UNL     1     -33.333   7.809   4.632  1.00 20.00     0.210 HD
ENDBRANCH   1  11
TORSDOF 5
