REMARK  3 active torsions:
REMARK  status: ('A' for Active; 'I' for Inactive)
REMARK    1  A    between atoms: C3_3  and  C8_8 
REMARK    2  A    between atoms: C8_8  and  C9_9 
REMARK    3  A    between atoms: C9_9  and  O11_11 
ROOT
HETATM    1  C1  UNL     1     -32.688   9.878   1.528  1.00 20.00     0.088 C 
HETATM    2  C2  UNL     1     -32.985   8.521   1.830  1.00 20.00     0.096 C 
HETATM    3  C3  UNL     1     -32.500   7.858   2.897  1.00 20.00    -0.071 C 
HETATM    4  C4  UNL     1     -31.605   8.478   3.940  1.00 20.00     0.044 C 
HETATM    5  N10 UNL     1     -32.451  10.985   1.274  1.00 20.00    -0.192 NA
ENDROOT
BRANCH   3   6
HETATM    6  C8  UNL     1     -32.891   6.406   3.130  1.00 20.00     0.071 C 
BRANCH   6   7
HETATM    7  C9  UNL     1     -34.117   6.169   4.041  1.00 20.00     0.056 C 
HETATM    8  C5  UNL     1     -34.074   7.154   5.216  1.00 20.00     0.046 C 
HETATM    9  C6  UNL     1     -35.447   6.306   3.296  1.00 20.00     0.046 C 
BRANCH   7  10
HETATM   10  O11 UNL     1     -34.032   4.853   4.592  1.00 20.00    -0.385 OA
HETATM   11  C7  UNL     1     -34.800   4.742   5.779  1.00 20.00     0.202 C 
ENDBRANCH   7  10
ENDBRANCH   6   7
ENDBRANCH   3   6
TORSDOF 3
