REMARK  4 active torsions:
REMARK  status: ('A' for Active; 'I' for Inactive)
REMARK    1  A    between atoms: C6_6  and  C7_7 
REMARK    2  A    between atoms: C7_7  and  C9_9 
REMARK    3  A    between atoms: C8_8  and  C9_9 
REMARK    4  A    between atoms: C8_8  and  C10_10 
ROOT
HETATM    1  C1  UNL     1     -33.734   6.491   5.046  1.00 20.00     0.068 C 
HETATM    2  C4  UNL     1     -33.296   4.825   3.279  1.00 20.00     0.031 C 
HETATM    3  C5  UNL     1     -35.563   5.828   3.576  1.00 20.00     0.031 C 
HETATM    4  C10 UNL     1     -34.047   6.112   3.648  1.00 20.00     0.042 C 
HETATM    5  N11 UNL     1     -33.500   6.783   6.144  1.00 20.00    -0.196 NA
ENDROOT
BRANCH   4   6
HETATM    6  C8  UNL     1     -33.725   7.277   2.668  1.00 20.00     0.028 C 
BRANCH   6   7
HETATM    7  C9  UNL     1     -32.276   7.424   2.134  1.00 20.00    -0.017 C 
HETATM    8  C3  UNL     1     -31.263   7.767   3.231  1.00 20.00     0.010 C 
BRANCH   7   9
HETATM    9  C7  UNL     1     -32.189   8.516   1.038  1.00 20.00     0.004 C 
BRANCH   9  10
HETATM   10  C6  UNL     1     -32.481   9.932   1.541  1.00 20.00    -0.004 C 
HETATM   11  C2  UNL     1     -32.353  10.955   0.421  1.00 20.00     0.005 C 
ENDBRANCH   9  10
ENDBRANCH   7   9
ENDBRANCH   6   7
ENDBRANCH   4   6
TORSDOF 4
