REMARK  4 active torsions:
REMARK  status: ('A' for Active; 'I' for Inactive)
REMARK    1  A    between atoms: C6_6  and  C7_7 
REMARK    2  A    between atoms: C7_7  and  C9_9 
REMARK    3  A    between atoms: C8_8  and  C9_9 
REMARK    4  A    between atoms: C8_8  and  C10_10 
ROOT
HETATM    1  C1  UNL     1     -33.624   6.488   5.018  1.00 20.00     0.068 C 
HETATM    2  C4  UNL     1     -33.522   4.229   4.029  1.00 20.00     0.031 C 
HETATM    3  C5  UNL     1     -35.367   5.810   3.454  1.00 20.00     0.031 C 
HETATM    4  C10 UNL     1     -33.862   5.706   3.783  1.00 20.00     0.042 C 
HETATM    5  N11 UNL     1     -33.449   7.101   5.988  1.00 20.00    -0.196 NA
ENDROOT
BRANCH   4   6
HETATM    6  C8  UNL     1     -33.063   6.296   2.585  1.00 20.00     0.028 C 
BRANCH   6   7
HETATM    7  C9  UNL     1     -32.869   7.833   2.502  1.00 20.00    -0.017 C 
HETATM    8  C3  UNL     1     -31.837   8.365   3.502  1.00 20.00     0.010 C 
BRANCH   7   9
HETATM    9  C7  UNL     1     -32.431   8.265   1.079  1.00 20.00     0.004 C 
BRANCH   9  10
HETATM   10  C6  UNL     1     -32.314   9.780   0.895  1.00 20.00    -0.004 C 
HETATM   11  C2  UNL     1     -33.649  10.472   1.130  1.00 20.00     0.005 C 
ENDBRANCH   9  10
ENDBRANCH   7   9
ENDBRANCH   6   7
ENDBRANCH   4   6
TORSDOF 4
