REMARK  3 active torsions:
REMARK  status: ('A' for Active; 'I' for Inactive)
REMARK    1  A    between atoms: C7_7  and  C9_9 
REMARK    2  A    between atoms: C8_8  and  C9_9 
REMARK    3  A    between atoms: C9_9  and  O11_11 
ROOT
HETATM    1  C1  UNL     1     -33.542   4.682   2.953  1.00 20.00     0.027 C 
HETATM    2  C2  UNL     1     -32.771   5.957   2.624  1.00 20.00     0.011 C 
HETATM    3  C5  UNL     1     -34.134   4.758   4.354  1.00 20.00     0.167 C 
HETATM    4  C6  UNL     1     -34.220   7.126   4.309  1.00 20.00     0.174 C 
HETATM    5  C8  UNL     1     -33.634   7.195   2.897  1.00 20.00     0.039 C 
HETATM    6  O10 UNL     1     -34.957   5.916   4.493  1.00 20.00    -0.391 OA
ENDROOT
BRANCH   5   7
HETATM    7  C9  UNL     1     -32.836   8.478   2.693  1.00 20.00     0.128 C 
BRANCH   7   8
HETATM    8  C7  UNL     1     -32.277   8.576   1.283  1.00 20.00     0.015 A 
HETATM    9  C3  UNL     1     -33.147   9.057   0.155  1.00 20.00     0.007 A 
HETATM   10  C4  UNL     1     -32.026   9.922   0.661  1.00 20.00     0.007 A 
ENDBRANCH   7   8
BRANCH   7  11
HETATM   11  O11 UNL     1     -31.764   8.513   3.629  1.00 20.00    -0.395 OA
HETATM   12  H27 UNL     1     -31.306   9.358   3.496  1.00 20.00     0.210 HD
ENDBRANCH   7  11
ENDBRANCH   5   7
TORSDOF 3
