REMARK  0 active torsions:
REMARK  status: ('A' for Active; 'I' for Inactive)
ROOT
HETATM    1  C1  UNL     1     -32.546   8.099   2.302  1.00 20.00     0.065 C 
HETATM    2  C2  UNL     1     -34.660   4.337   5.615  1.00 20.00     0.032 C 
HETATM    3  C3  UNL     1     -34.415   4.157   4.130  1.00 20.00     0.037 C 
HETATM    4  C4  UNL     1     -33.929   6.038   2.453  1.00 20.00     0.056 C 
HETATM    5  C5  UNL     1     -34.293   5.792   5.824  1.00 20.00     0.273 C 
HETATM    6  C6  UNL     1     -34.057   7.619   4.218  1.00 20.00     0.292 C 
HETATM    7  C7  UNL     1     -33.078   7.063   3.191  1.00 20.00     0.123 C 
HETATM    8  C8  UNL     1     -34.860   5.489   3.531  1.00 20.00     0.224 C 
HETATM    9  N9  UNL     1     -32.125   8.920   1.599  1.00 20.00    -0.197 NA
HETATM   10  N10 UNL     1     -34.860   6.466   4.648  1.00 20.00     0.094 N 
ENDROOT
TORSDOF 0
