REMARK  0 active torsions:
REMARK  status: ('A' for Active; 'I' for Inactive)
ROOT
HETATM    1  C1  UNL     1     -32.278   7.705   4.581  1.00 20.00     0.015 A 
HETATM    2  C2  UNL     1     -31.850   8.251   3.436  1.00 20.00     0.083 A 
HETATM    3  C3  UNL     1     -33.365   6.789   4.539  1.00 20.00    -0.028 A 
HETATM    4  C4  UNL     1     -33.935   6.496   3.373  1.00 20.00     0.063 A 
HETATM    5  C5  UNL     1     -32.493   7.913   2.138  1.00 20.00     0.287 A 
HETATM    6  C6  UNL     1     -34.008   6.072   5.669  1.00 20.00     0.041 C 
HETATM    7  C7  UNL     1     -35.057   5.534   3.492  1.00 20.00     0.066 C 
HETATM    8  C8  UNL     1     -34.883   5.039   4.937  1.00 20.00     0.011 C 
HETATM    9  O9  UNL     1     -32.087   8.422   1.097  1.00 20.00    -0.260 OA
HETATM   10  O10 UNL     1     -33.544   7.024   2.146  1.00 20.00    -0.279 OA
ENDROOT
TORSDOF 0
