REMARK  0 active torsions:
REMARK  status: ('A' for Active; 'I' for Inactive)
ROOT
HETATM    1  C1  UNL     1     -33.108   6.540   2.562  1.00 20.00     0.053 A 
HETATM    2  C2  UNL     1     -32.145   8.239   3.954  1.00 20.00     0.159 A 
HETATM    3  C3  UNL     1     -33.748   6.072   3.691  1.00 20.00    -0.030 A 
HETATM    4  C4  UNL     1     -32.278   7.651   2.696  1.00 20.00     0.134 A 
HETATM    5  C5  UNL     1     -33.553   6.729   4.901  1.00 20.00     0.040 A 
HETATM    6  C6  UNL     1     -34.707   4.939   3.836  1.00 20.00     0.041 C 
HETATM    7  C7  UNL     1     -34.378   6.099   5.987  1.00 20.00     0.060 C 
HETATM    8  C8  UNL     1     -34.690   4.732   5.359  1.00 20.00     0.011 C 
HETATM    9  N9  UNL     1     -32.771   7.807   5.075  1.00 20.00    -0.262 NA
HETATM   10  F10 UNL     1     -31.626   8.148   1.639  1.00 20.00    -0.205 F 
ENDROOT
TORSDOF 0
