REMARK  2 active torsions:
REMARK  status: ('A' for Active; 'I' for Inactive)
REMARK    1  A    between atoms: C1_1  and  N9_9 
REMARK    2  A    between atoms: C8_8  and  N9_9 
ROOT
HETATM    1  C2  UNL     1     -34.194   4.804   5.228  1.00 20.00     0.005 C 
HETATM    2  C3  UNL     1     -34.213   6.338   5.264  1.00 20.00     0.007 C 
HETATM    3  C4  UNL     1     -35.421   5.615   3.356  1.00 20.00     0.011 C 
HETATM    4  C5  UNL     1     -33.199   4.848   2.933  1.00 20.00     0.030 C 
HETATM    5  C6  UNL     1     -34.459   4.492   3.746  1.00 20.00    -0.012 C 
HETATM    6  C7  UNL     1     -34.453   6.719   3.789  1.00 20.00     0.009 C 
HETATM    7  C8  UNL     1     -33.225   6.387   2.916  1.00 20.00     0.088 C 
ENDROOT
BRANCH   7   8
HETATM    8  N9  UNL     1     -32.001   6.980   3.372  1.00 20.00    -0.363 N 
HETATM    9  H23 UNL     1     -31.442   6.467   4.054  1.00 20.00     0.162 HD
BRANCH   8  10
HETATM   10  C1  UNL     1     -31.537   8.209   2.939  1.00 20.00     0.348 C 
HETATM   11  O10 UNL     1     -32.064   8.964   2.133  1.00 20.00    -0.284 OA
ENDBRANCH   8  10
ENDBRANCH   7   8
TORSDOF 2
