REMARK  0 active torsions:
REMARK  status: ('A' for Active; 'I' for Inactive)
ROOT
HETATM    1  C1  UNL     1     -33.932   6.220   6.004  1.00 20.00    -0.023 C 
HETATM    2  C2  UNL     1     -34.282   5.547   4.900  1.00 20.00    -0.083 C 
HETATM    3  C3  UNL     1     -32.442   7.748   3.618  1.00 20.00     0.132 C 
HETATM    4  C4  UNL     1     -33.797   7.688   5.755  1.00 20.00     0.040 C 
HETATM    5  C5  UNL     1     -32.247   6.566   2.707  1.00 20.00     0.079 C 
HETATM    6  C6  UNL     1     -33.682   6.126   2.455  1.00 20.00     0.017 C 
HETATM    7  C7  UNL     1     -34.460   6.470   3.725  1.00 20.00     0.025 C 
HETATM    8  C8  UNL     1     -33.832   7.783   4.231  1.00 20.00     0.067 C 
HETATM    9  C9  UNL     1     -34.549   4.088   4.807  1.00 20.00     0.043 C 
HETATM   10  O10 UNL     1     -31.564   8.567   3.861  1.00 20.00    -0.298 OA
ENDROOT
TORSDOF 0
