REMARK  2 active torsions:
REMARK  status: ('A' for Active; 'I' for Inactive)
REMARK    1  A    between atoms: C7_7  and  C8_8 
REMARK    2  A    between atoms: C9_9  and  O10_10 
ROOT
HETATM    1  C1  UNL     1     -33.332   4.275   3.240  1.00 20.00     0.003 C 
HETATM    2  C2  UNL     1     -32.562   5.559   2.942  1.00 20.00     0.005 C 
HETATM    3  C5  UNL     1     -33.872   4.260   4.669  1.00 20.00     0.032 C 
HETATM    4  C6  UNL     1     -33.944   6.789   4.665  1.00 20.00     0.036 C 
HETATM    5  C8  UNL     1     -33.409   6.807   3.224  1.00 20.00    -0.008 C 
HETATM    6  C9  UNL     1     -34.707   5.501   4.983  1.00 20.00     0.118 C 
ENDROOT
BRANCH   5   7
HETATM    7  C7  UNL     1     -32.598   8.077   2.967  1.00 20.00    -0.010 A 
HETATM    8  C3  UNL     1     -32.501   8.646   1.579  1.00 20.00     0.005 A 
HETATM    9  C4  UNL     1     -33.296   9.366   2.632  1.00 20.00     0.005 A 
ENDBRANCH   5   7
BRANCH   6  10
HETATM   10  O10 UNL     1     -35.909   5.450   4.216  1.00 20.00    -0.396 OA
HETATM   11  H26 UNL     1     -36.369   4.639   4.482  1.00 20.00     0.210 HD
ENDBRANCH   6  10
TORSDOF 2
