REMARK  1 active torsions:
REMARK  status: ('A' for Active; 'I' for Inactive)
REMARK    1  A    between atoms: C2_2  and  C9_9 
ROOT
HETATM    1  C1  UNL     1     -33.084   7.237   4.471  1.00 20.00     0.053 C 
HETATM    2  C2  UNL     1     -32.877   7.010   3.164  1.00 20.00    -0.072 C 
HETATM    3  C3  UNL     1     -34.106   6.464   5.220  1.00 20.00     0.149 C 
HETATM    4  C4  UNL     1     -33.601   5.933   2.396  1.00 20.00     0.035 C 
HETATM    5  C5  UNL     1     -34.970   5.485   4.459  1.00 20.00     0.083 C 
HETATM    6  C6  UNL     1     -34.200   4.865   3.306  1.00 20.00     0.012 C 
HETATM    7  O10 UNL     1     -34.274   6.678   6.420  1.00 20.00    -0.293 OA
ENDROOT
BRANCH   2   8
HETATM    8  C9  UNL     1     -31.897   7.829   2.376  1.00 20.00     0.014 A 
HETATM    9  C7  UNL     1     -32.389   8.514   1.149  1.00 20.00     0.010 A 
HETATM   10  C8  UNL     1     -32.066   9.309   2.378  1.00 20.00     0.010 A 
ENDBRANCH   2   8
TORSDOF 1
