REMARK  2 active torsions:
REMARK  status: ('A' for Active; 'I' for Inactive)
REMARK    1  A    between atoms: C4_4  and  O10_10 
REMARK    2  A    between atoms: C5_5  and  C8_8 
ROOT
HETATM    1  C1  UNL     1     -34.698   6.328   4.391  1.00 20.00     0.040 A 
HETATM    2  C2  UNL     1     -34.006   7.412   3.862  1.00 20.00     0.030 A 
HETATM    3  C3  UNL     1     -33.411   4.892   3.000  1.00 20.00     0.153 A 
HETATM    4  C4  UNL     1     -34.401   5.041   3.958  1.00 20.00     0.083 A 
HETATM    5  C5  UNL     1     -33.033   7.156   2.909  1.00 20.00     0.038 A 
HETATM    6  N9  UNL     1     -32.717   5.920   2.463  1.00 20.00    -0.262 NA
ENDROOT
BRANCH   5   7
HETATM    7  C8  UNL     1     -32.277   8.303   2.326  1.00 20.00     0.038 A 
HETATM    8  C6  UNL     1     -33.041   9.432   1.685  1.00 20.00     0.011 A 
HETATM    9  C7  UNL     1     -32.258   8.484   0.831  1.00 20.00     0.011 A 
ENDBRANCH   5   7
BRANCH   4  10
HETATM   10  O10 UNL     1     -35.060   3.967   4.457  1.00 20.00    -0.359 OA
HETATM   11  H19 UNL     1     -35.718   4.246   5.116  1.00 20.00     0.217 HD
ENDBRANCH   4  10
TORSDOF 2
