REMARK  1 active torsions:
REMARK  status: ('A' for Active; 'I' for Inactive)
REMARK    1  A    between atoms: C7_7  and  C8_8 
ROOT
HETATM    1  C1  UNL     1     -33.298   7.093   4.734  1.00 20.00     0.131 C 
HETATM    2  C2  UNL     1     -34.033   5.848   4.298  1.00 20.00     0.104 C 
HETATM    3  C3  UNL     1     -32.423   7.738   3.685  1.00 20.00     0.110 C 
HETATM    4  C6  UNL     1     -34.677   6.089   2.943  1.00 20.00     0.175 C 
HETATM    5  C8  UNL     1     -33.196   7.845   2.371  1.00 20.00     0.132 C 
HETATM    6  O9  UNL     1     -33.321   7.490   5.897  1.00 20.00    -0.298 OA
HETATM    7  O10 UNL     1     -33.710   6.558   2.000  1.00 20.00    -0.385 OA
ENDROOT
BRANCH   5   8
HETATM    8  C7  UNL     1     -32.317   8.343   1.262  1.00 20.00     0.015 A 
HETATM    9  C4  UNL     1     -32.919   9.040   0.074  1.00 20.00     0.007 A 
HETATM   10  C5  UNL     1     -32.105   9.819   1.069  1.00 20.00     0.007 A 
ENDBRANCH   5   8
TORSDOF 1
