REMARK  2 active torsions:
REMARK  status: ('A' for Active; 'I' for Inactive)
REMARK    1  A    between atoms: C7_7  and  C8_8 
REMARK    2  A    between atoms: C9_9  and  O10_10 
ROOT
HETATM    1  C1  UNL     1     -34.208   6.209   2.759  1.00 20.00     0.003 C 
HETATM    2  C2  UNL     1     -33.514   7.313   1.964  1.00 20.00     0.005 C 
HETATM    3  C5  UNL     1     -34.343   6.579   4.232  1.00 20.00     0.032 C 
HETATM    4  C6  UNL     1     -32.301   8.053   4.053  1.00 20.00     0.036 C 
HETATM    5  C8  UNL     1     -32.154   7.683   2.572  1.00 20.00    -0.008 C 
HETATM    6  C9  UNL     1     -32.995   6.945   4.846  1.00 20.00     0.118 C 
ENDROOT
BRANCH   5   7
HETATM    7  C7  UNL     1     -31.507   8.825   1.792  1.00 20.00    -0.010 A 
HETATM    8  C3  UNL     1     -32.018   9.195   0.427  1.00 20.00     0.005 A 
HETATM    9  C4  UNL     1     -32.247  10.118   1.591  1.00 20.00     0.005 A 
ENDBRANCH   5   7
BRANCH   6  10
HETATM   10  O10 UNL     1     -33.208   7.377   6.185  1.00 20.00    -0.396 OA
HETATM   11  H26 UNL     1     -32.337   7.602   6.547  1.00 20.00     0.210 HD
ENDBRANCH   6  10
TORSDOF 2
