REMARK  0 active torsions:
REMARK  status: ('A' for Active; 'I' for Inactive)
ROOT
HETATM    1  C1  UNL     1     -33.328   7.270   3.350  1.00 20.00     0.136 C 
HETATM    2  C2  UNL     1     -32.696   4.889   2.577  1.00 20.00     0.018 A 
HETATM    3  C3  UNL     1     -34.055   7.817   5.890  1.00 20.00     0.018 A 
HETATM    4  C4  UNL     1     -33.678   4.171   5.626  1.00 20.00     0.011 A 
HETATM    5  C5  UNL     1     -33.637   6.065   2.521  1.00 20.00     0.060 A 
HETATM    6  C6  UNL     1     -33.334   7.095   4.805  1.00 20.00     0.060 A 
HETATM    7  C7  UNL     1     -34.130   4.703   3.004  1.00 20.00     0.002 A 
HETATM    8  C8  UNL     1     -34.718   6.638   5.273  1.00 20.00     0.002 A 
HETATM    9  C9  UNL     1     -34.558   4.221   4.407  1.00 20.00    -0.005 A 
HETATM   10  C10 UNL     1     -34.809   5.163   5.587  1.00 20.00    -0.005 A 
HETATM   11  O11 UNL     1     -33.047   8.343   2.835  1.00 20.00    -0.297 OA
ENDROOT
TORSDOF 0
