REMARK  0 active torsions:
REMARK  status: ('A' for Active; 'I' for Inactive)
ROOT
HETATM    1  C1  UNL     1     -35.496   5.975   4.007  1.00 20.00     0.005 C 
HETATM    2  C2  UNL     1     -33.655   5.431   5.604  1.00 20.00     0.005 C 
HETATM    3  C3  UNL     1     -35.187   7.475   4.157  1.00 20.00     0.008 C 
HETATM    4  C4  UNL     1     -33.341   6.930   5.760  1.00 20.00     0.008 C 
HETATM    5  C5  UNL     1     -33.173   5.581   3.143  1.00 20.00     0.045 C 
HETATM    6  C6  UNL     1     -31.606   7.665   2.854  1.00 20.00     0.207 A 
HETATM    7  C7  UNL     1     -34.215   5.141   4.197  1.00 20.00    -0.012 C 
HETATM    8  C8  UNL     1     -33.691   7.681   4.462  1.00 20.00     0.022 C 
HETATM    9  C9  UNL     1     -32.893   7.047   3.346  1.00 20.00     0.086 A 
HETATM   10  O10 UNL     1     -32.838   7.818   2.137  1.00 20.00    -0.375 OA
ENDROOT
TORSDOF 0
