REMARK  0 active torsions:
REMARK  status: ('A' for Active; 'I' for Inactive)
ROOT
HETATM    1  C1  UNL     1     -33.209   7.836   2.875  1.00 20.00     0.132 C 
HETATM    2  C2  UNL     1     -32.048   6.946   3.303  1.00 20.00     0.084 C 
HETATM    3  C3  UNL     1     -34.872   6.080   2.845  1.00 20.00     0.013 C 
HETATM    4  C4  UNL     1     -33.749   5.080   3.249  1.00 20.00     0.006 C 
HETATM    5  C5  UNL     1     -34.614   6.438   6.073  1.00 20.00     0.011 A 
HETATM    6  C6  UNL     1     -33.619   7.577   6.093  1.00 20.00     0.011 A 
HETATM    7  C7  UNL     1     -34.475   7.368   3.591  1.00 20.00     0.064 C 
HETATM    8  C8  UNL     1     -32.826   5.920   4.174  1.00 20.00     0.002 C 
HETATM    9  C9  UNL     1     -33.853   6.800   4.831  1.00 20.00    -0.026 A 
HETATM   10  O10 UNL     1     -33.143   8.750   2.069  1.00 20.00    -0.298 OA
ENDROOT
TORSDOF 0
