REMARK  1 active torsions:
REMARK  status: ('A' for Active; 'I' for Inactive)
REMARK    1  A    between atoms: C5_5  and  C9_9 
ROOT
HETATM    1  C1  UNL     1     -33.379   6.101   2.882  1.00 20.00     0.133 C 
HETATM    2  C2  UNL     1     -34.683   6.409   3.586  1.00 20.00     0.093 C 
HETATM    3  C3  UNL     1     -32.572   7.265   2.314  1.00 20.00     0.065 C 
HETATM    4  C4  UNL     1     -34.528   7.434   4.707  1.00 20.00     0.050 C 
HETATM    5  C5  UNL     1     -33.324   8.603   2.439  1.00 20.00     0.058 C 
HETATM    6  C6  UNL     1     -31.164   7.254   2.914  1.00 20.00     0.019 C 
HETATM    7  C7  UNL     1     -33.736   6.875   5.888  1.00 20.00     0.022 C 
HETATM    8  O10 UNL     1     -32.999   4.936   2.748  1.00 20.00    -0.298 OA
HETATM    9  S11 UNL     1     -33.768   9.012   4.168  1.00 20.00    -0.159 SA
ENDROOT
BRANCH   5  10
HETATM   10  C9  UNL     1     -32.550   9.780   1.846  1.00 20.00     0.011 C 
HETATM   11  C8  UNL     1     -32.268   9.579   0.393  1.00 20.00     0.006 C 
ENDBRANCH   5  10
TORSDOF 1
