REMARK  1 active torsions:
REMARK  status: ('A' for Active; 'I' for Inactive)
REMARK    1  A    between atoms: C11_11  and  C12_12 
ROOT
HETATM    1  C1  UNL     1     -34.913   6.206   3.745  1.00 20.00     0.009 C 
HETATM    2  C2  UNL     1     -33.277   6.961   5.489  1.00 20.00     0.009 C 
HETATM    3  C3  UNL     1     -32.552   5.362   3.698  1.00 20.00     0.009 C 
HETATM    4  C4  UNL     1     -34.072   8.568   3.736  1.00 20.00     0.017 C 
HETATM    5  C5  UNL     1     -33.346   6.966   1.941  1.00 20.00     0.017 C 
HETATM    6  C6  UNL     1     -31.706   7.723   3.688  1.00 20.00     0.017 C 
HETATM    7  C8  UNL     1     -34.480   7.386   4.631  1.00 20.00    -0.013 C 
HETATM    8  C9  UNL     1     -33.752   5.779   2.832  1.00 20.00    -0.013 C 
HETATM    9  C10 UNL     1     -32.108   6.538   4.584  1.00 20.00    -0.013 C 
HETATM   10  C12 UNL     1     -32.900   8.166   2.810  1.00 20.00    -0.011 C 
ENDROOT
BRANCH  10  11
HETATM   11  C11 UNL     1     -32.501   9.330   1.932  1.00 20.00     0.153 A 
HETATM   12  C7  UNL     1     -33.238   9.630   0.656  1.00 20.00     0.201 A 
HETATM   13  O13 UNL     1     -31.968   8.958   0.656  1.00 20.00    -0.380 OA
ENDBRANCH  10  11
TORSDOF 1
