REMARK  0 active torsions:
REMARK  status: ('A' for Active; 'I' for Inactive)
ROOT
HETATM    1  C1  UNL     1     -33.054   7.682   1.959  1.00 20.00     0.064 C 
HETATM    2  C2  UNL     1     -32.373   7.650   4.344  1.00 20.00     0.045 C 
HETATM    3  C3  UNL     1     -32.957   5.505   3.168  1.00 20.00     0.056 C 
HETATM    4  C4  UNL     1     -33.722   7.555   5.044  1.00 20.00     0.170 C 
HETATM    5  C5  UNL     1     -32.364   6.910   3.006  1.00 20.00     0.097 C 
HETATM    6  C6  UNL     1     -34.255   5.441   4.006  1.00 20.00     0.055 C 
HETATM    7  C7  UNL     1     -35.498   5.891   3.225  1.00 20.00     0.045 C 
HETATM    8  C8  UNL     1     -34.485   3.986   4.449  1.00 20.00     0.045 C 
HETATM    9  N9  UNL     1     -33.597   8.290   1.133  1.00 20.00    -0.197 NA
HETATM   10  O10 UNL     1     -34.118   6.197   5.218  1.00 20.00    -0.381 OA
ENDROOT
TORSDOF 0
