REMARK  2 active torsions:
REMARK  status: ('A' for Active; 'I' for Inactive)
REMARK    1  A    between atoms: C8_8  and  C9_9 
REMARK    2  A    between atoms: C9_9  and  N11_11 
ROOT
HETATM    1  C1  UNL     1     -32.320   8.117   3.744  1.00 20.00     0.096 C 
HETATM    2  C9  UNL     1     -33.276   7.901   2.651  1.00 20.00     0.332 C 
HETATM    3  N10 UNL     1     -31.567   8.288   4.610  1.00 20.00    -0.195 NA
ENDROOT
BRANCH   2   4
HETATM    4  C8  UNL     1     -32.672   8.297   1.310  1.00 20.00     0.033 A 
HETATM    5  C4  UNL     1     -32.114   9.679   1.109  1.00 20.00     0.008 A 
HETATM    6  C5  UNL     1     -31.187   8.497   1.178  1.00 20.00     0.008 A 
ENDBRANCH   2   4
BRANCH   2   7
HETATM    7  N11 UNL     1     -33.702   6.497   2.629  1.00 20.00     0.106 N 
HETATM    8  C6  UNL     1     -32.557   5.608   2.428  1.00 20.00     0.274 C 
HETATM    9  C2  UNL     1     -33.088   4.258   2.888  1.00 20.00     0.032 C 
HETATM   10  C3  UNL     1     -34.212   4.584   3.867  1.00 20.00     0.032 C 
HETATM   11  C7  UNL     1     -34.263   6.104   3.923  1.00 20.00     0.274 C 
ENDBRANCH   2   7
TORSDOF 2
