REMARK  0 active torsions:
REMARK  status: ('A' for Active; 'I' for Inactive)
ROOT
HETATM    1  C1  UNL     1     -34.920   5.355   5.975  1.00 20.00     0.000 C 
HETATM    2  C2  UNL     1     -34.167   6.684   5.979  1.00 20.00     0.003 C 
HETATM    3  C3  UNL     1     -34.501   4.484   4.793  1.00 20.00     0.003 C 
HETATM    4  C4  UNL     1     -34.328   7.429   4.651  1.00 20.00     0.044 C 
HETATM    5  C5  UNL     1     -34.669   5.227   3.468  1.00 20.00     0.044 C 
HETATM    6  C6  UNL     1     -31.938   8.764   2.515  1.00 20.00     0.032 C 
HETATM    7  C7  UNL     1     -33.356   8.530   2.071  1.00 20.00     0.112 C 
HETATM    8  C8  UNL     1     -31.630   7.561   3.365  1.00 20.00     0.112 C 
HETATM    9  C9  UNL     1     -33.913   6.549   3.489  1.00 20.00     0.095 A 
HETATM   10  N10 UNL     1     -33.602   7.095   2.163  1.00 20.00    -0.223 NA
HETATM   11  N11 UNL     1     -32.547   6.502   2.960  1.00 20.00    -0.223 NA
ENDROOT
TORSDOF 0
