REMARK  1 active torsions:
REMARK  status: ('A' for Active; 'I' for Inactive)
REMARK    1  A    between atoms: N5_5  and  N6_6 
ROOT
HETATM    1  C1  UNL     1     -33.663   6.862   6.248  1.00 20.00     0.130 C 
HETATM    2  C2  UNL     1     -34.153   4.659   5.378  1.00 20.00     0.130 C 
HETATM    3  N5  UNL     1     -34.129   6.093   5.098  1.00 20.00    -0.259 NA
ENDROOT
BRANCH   3   4
HETATM    4  N6  UNL     1     -33.364   6.473   3.922  1.00 20.00    -0.259 NA
HETATM    5  C3  UNL     1     -33.892   7.722   3.383  1.00 20.00     0.130 C 
HETATM    6  C4  UNL     1     -33.262   5.438   2.895  1.00 20.00     0.130 C 
ENDBRANCH   3   4
TORSDOF 1
