REMARK  3 active torsions:
REMARK  status: ('A' for Active; 'I' for Inactive)
REMARK    1  A    between atoms: C6_6  and  C9_9 
REMARK    2  A    between atoms: C7_7  and  C9_9 
REMARK    3  A    between atoms: C8_8  and  O10_10 
ROOT
HETATM    1  C1  UNL     1     -33.982   5.358   3.487  1.00 20.00     0.003 C 
HETATM    2  C2  UNL     1     -33.041   6.245   2.672  1.00 20.00     0.007 C 
HETATM    3  C5  UNL     1     -34.188   6.067   4.826  1.00 20.00     0.032 C 
HETATM    4  C7  UNL     1     -32.390   7.168   3.698  1.00 20.00     0.015 C 
HETATM    5  C8  UNL     1     -33.539   7.438   4.667  1.00 20.00     0.122 C 
ENDROOT
BRANCH   4   6
HETATM    6  C9  UNL     1     -31.811   8.434   3.085  1.00 20.00     0.011 C 
BRANCH   6   7
HETATM    7  C6  UNL     1     -32.737   9.001   2.035  1.00 20.00    -0.014 A 
HETATM    8  C3  UNL     1     -32.213   9.960   1.002  1.00 20.00     0.005 A 
HETATM    9  C4  UNL     1     -32.612   8.567   0.601  1.00 20.00     0.005 A 
ENDBRANCH   6   7
ENDBRANCH   4   6
BRANCH   5  10
HETATM   10  O10 UNL     1     -33.062   7.933   5.903  1.00 20.00    -0.395 OA
HETATM   11  H26 UNL     1     -33.828   8.001   6.499  1.00 20.00     0.210 HD
ENDBRANCH   5  10
TORSDOF 3
