REMARK  0 active torsions:
REMARK  status: ('A' for Active; 'I' for Inactive)
ROOT
HETATM    1  C1  UNL     1     -33.461   4.759   2.856  1.00 20.00     0.032 C 
HETATM    2  C2  UNL     1     -34.434   7.130   6.343  1.00 20.00     0.032 C 
HETATM    3  C3  UNL     1     -33.102   6.204   3.134  1.00 20.00     0.109 C 
HETATM    4  C4  UNL     1     -33.912   4.276   4.220  1.00 20.00     0.109 C 
HETATM    5  C5  UNL     1     -33.653   7.549   5.114  1.00 20.00     0.109 C 
HETATM    6  C6  UNL     1     -34.468   5.622   6.198  1.00 20.00     0.109 C 
HETATM    7  N7  UNL     1     -34.124   6.621   4.090  1.00 20.00    -0.250 NA
HETATM    8  N8  UNL     1     -34.625   5.431   4.759  1.00 20.00    -0.250 NA
ENDROOT
TORSDOF 0
