REMARK  0 active torsions:
REMARK  status: ('A' for Active; 'I' for Inactive)
ROOT
HETATM    1  C1  UNL     1     -34.367   5.330   6.130  1.00 20.00    -0.029 A 
HETATM    2  C2  UNL     1     -34.663   6.532   5.626  1.00 20.00    -0.018 A 
HETATM    3  C3  UNL     1     -33.592   6.818   3.373  1.00 20.00     0.135 A 
HETATM    4  C4  UNL     1     -34.307   4.241   5.102  1.00 20.00     0.033 A 
HETATM    5  C5  UNL     1     -33.380   5.374   2.888  1.00 20.00     0.084 A 
HETATM    6  C6  UNL     1     -34.852   6.442   4.170  1.00 20.00     0.082 A 
HETATM    7  C7  UNL     1     -34.590   4.957   3.773  1.00 20.00     0.011 A 
HETATM    8  O8  UNL     1     -32.987   7.854   3.196  1.00 20.00    -0.297 OA
ENDROOT
TORSDOF 0
