REMARK  2 active torsions:
REMARK  status: ('A' for Active; 'I' for Inactive)
REMARK    1  A    between atoms: C6_6  and  N9_9 
REMARK    2  A    between atoms: C7_7  and  N9_9 
ROOT
HETATM    1  C1  UNL     1     -33.614   7.003   4.764  1.00 20.00     0.100 C 
HETATM    2  C4  UNL     1     -33.222   5.647   2.746  1.00 20.00     0.065 C 
HETATM    3  C5  UNL     1     -35.553   6.291   3.428  1.00 20.00     0.065 C 
HETATM    4  C7  UNL     1     -34.086   6.731   3.394  1.00 20.00     0.237 C 
HETATM    5  N8  UNL     1     -33.242   7.216   5.843  1.00 20.00    -0.195 NA
ENDROOT
BRANCH   4   6
HETATM    6  N9  UNL     1     -33.980   7.940   2.598  1.00 20.00     0.110 N 
HETATM    7  H23 UNL     1     -34.591   7.866   1.783  1.00 20.00     0.318 HD
BRANCH   6   8
HETATM    8  C6  UNL     1     -32.610   8.153   2.144  1.00 20.00     0.214 C 
HETATM    9  C2  UNL     1     -31.696   8.262   3.356  1.00 20.00     0.042 C 
HETATM   10  C3  UNL     1     -32.564   9.410   1.288  1.00 20.00     0.042 C 
ENDBRANCH   6   8
ENDBRANCH   4   6
TORSDOF 2
