REMARK  0 active torsions:
REMARK  status: ('A' for Active; 'I' for Inactive)
ROOT
HETATM    1  C1  UNL     1     -35.095   6.048   4.549  1.00 20.00     0.086 C 
HETATM    2  C2  UNL     1     -35.040   6.367   3.082  1.00 20.00     0.055 C 
HETATM    3  C3  UNL     1     -31.988   8.641   2.306  1.00 20.00     0.030 C 
HETATM    4  C4  UNL     1     -33.116   7.675   1.916  1.00 20.00     0.010 C 
HETATM    5  C5  UNL     1     -31.223   8.180   3.559  1.00 20.00     0.272 C 
HETATM    6  C6  UNL     1     -33.948   7.405   3.155  1.00 20.00     0.045 C 
HETATM    7  C7  UNL     1     -33.071   6.827   4.262  1.00 20.00     0.345 C 
HETATM    8  N8  UNL     1     -34.047   6.336   5.264  1.00 20.00    -0.270 NA
HETATM    9  N9  UNL     1     -32.110   7.844   4.686  1.00 20.00     0.108 N 
HETATM   10  H21 UNL     1     -31.549   7.478   5.455  1.00 20.00     0.318 HD
ENDROOT
TORSDOF 0
