REMARK  2 active torsions:
REMARK  status: ('A' for Active; 'I' for Inactive)
REMARK    1  A    between atoms: C2_2  and  C3_3 
REMARK    2  A    between atoms: C2_2  and  N4_4 
ROOT
HETATM    1  C1  UNL     1     -32.795   7.866   1.907  1.00 20.00     0.157 C 
HETATM    2  N4  UNL     1     -33.426   6.968   2.329  1.00 20.00    -0.267 NA
HETATM    3  S8  UNL     1     -31.943   9.072   1.310  1.00 20.00    -0.055 SA
ENDROOT
BRANCH   2   4
HETATM    4  C2  UNL     1     -33.565   6.942   3.784  1.00 20.00     0.267 C 
BRANCH   4   5
HETATM    5  C3  UNL     1     -34.376   5.735   4.184  1.00 20.00     0.405 C 
HETATM    6  F5  UNL     1     -35.607   5.787   3.629  1.00 20.00    -0.169 F 
HETATM    7  F6  UNL     1     -34.534   5.669   5.523  1.00 20.00    -0.169 F 
HETATM    8  F7  UNL     1     -33.791   4.590   3.774  1.00 20.00    -0.169 F 
ENDBRANCH   4   5
ENDBRANCH   2   4
TORSDOF 2
