REMARK  0 active torsions:
REMARK  status: ('A' for Active; 'I' for Inactive)
ROOT
HETATM    1  C1  UNL     1     -33.193   5.768   2.551  1.00 20.00     0.061 A 
HETATM    2  C2  UNL     1     -32.925   7.952   4.331  1.00 20.00     0.053 A 
HETATM    3  C3  UNL     1     -33.536   5.675   3.887  1.00 20.00     0.019 A 
HETATM    4  C4  UNL     1     -33.412   6.735   4.777  1.00 20.00    -0.041 A 
HETATM    5  C5  UNL     1     -32.702   6.993   2.100  1.00 20.00     0.155 A 
HETATM    6  C6  UNL     1     -32.569   8.078   2.984  1.00 20.00     0.155 A 
HETATM    7  C7  UNL     1     -34.066   4.532   4.613  1.00 20.00     0.160 A 
HETATM    8  C8  UNL     1     -33.848   6.383   6.163  1.00 20.00     0.047 A 
HETATM    9  C9  UNL     1     -34.285   4.911   6.058  1.00 20.00     0.088 A 
HETATM   10  O10 UNL     1     -34.291   3.446   4.111  1.00 20.00    -0.292 OA
HETATM   11  F11 UNL     1     -32.354   7.139   0.815  1.00 20.00    -0.203 F 
HETATM   12  F12 UNL     1     -32.095   9.247   2.529  1.00 20.00    -0.203 F 
ENDROOT
TORSDOF 0
