REMARK  0 active torsions:
REMARK  status: ('A' for Active; 'I' for Inactive)
ROOT
HETATM    1  C1  UNL     1     -32.431   9.327   3.579  1.00 20.00     0.012 A 
HETATM    2  C2  UNL     1     -32.470   9.957   2.335  1.00 20.00     0.024 A 
HETATM    3  C3  UNL     1     -33.338   7.937   1.324  1.00 20.00     0.031 A 
HETATM    4  C4  UNL     1     -32.847   7.998   3.714  1.00 20.00    -0.021 A 
HETATM    5  C5  UNL     1     -33.307   7.289   2.566  1.00 20.00    -0.048 A 
HETATM    6  C6  UNL     1     -32.923   9.265   1.213  1.00 20.00     0.034 A 
HETATM    7  C7  UNL     1     -33.716   5.817   2.671  1.00 20.00     0.039 C 
HETATM    8  C8  UNL     1     -34.925   5.465   3.578  1.00 20.00     0.007 C 
HETATM    9  C9  UNL     1     -34.712   5.642   5.104  1.00 20.00     0.035 C 
HETATM   10  C10 UNL     1     -32.862   7.270   5.018  1.00 20.00     0.184 A 
HETATM   11  C11 UNL     1     -34.354   7.054   5.346  1.00 20.00     0.156 A 
HETATM   12  O12 UNL     1     -33.446   7.584   6.281  1.00 20.00    -0.370 OA
HETATM   13 CL13 UNL     1     -32.966  10.051  -0.319  1.00 20.00    -0.084 Cl
ENDROOT
TORSDOF 0
