REMARK  0 active torsions:
REMARK  status: ('A' for Active; 'I' for Inactive)
ROOT
HETATM    1  C1  UNL     1     -32.464   7.944   4.834  1.00 20.00     0.009 A 
HETATM    2  C2  UNL     1     -31.920   8.488   3.669  1.00 20.00     0.024 A 
HETATM    3  C3  UNL     1     -33.267   6.999   2.292  1.00 20.00     0.034 A 
HETATM    4  C4  UNL     1     -33.405   6.935   4.708  1.00 20.00    -0.047 A 
HETATM    5  C5  UNL     1     -33.813   6.455   3.446  1.00 20.00    -0.019 A 
HETATM    6  C6  UNL     1     -32.319   8.019   2.408  1.00 20.00     0.034 A 
HETATM    7  C7  UNL     1     -34.113   6.206   5.828  1.00 20.00     0.074 A 
HETATM    8  C8  UNL     1     -34.825   5.371   3.600  1.00 20.00     0.185 A 
HETATM    9  C9  UNL     1     -35.053   5.265   5.099  1.00 20.00     0.160 A 
HETATM   10  O10 UNL     1     -34.449   4.206   4.353  1.00 20.00    -0.370 OA
HETATM   11 CL11 UNL     1     -31.629   8.708   0.987  1.00 20.00    -0.084 Cl
ENDROOT
TORSDOF 0
