REMARK  1 active torsions:
REMARK  status: ('A' for Active; 'I' for Inactive)
REMARK    1  A    between atoms: C3_3  and  C8_8 
ROOT
HETATM    1  C1  UNL     1     -32.242   8.599   4.321  1.00 20.00     0.058 A 
HETATM    2  C2  UNL     1     -33.238   6.704   3.487  1.00 20.00    -0.037 A 
HETATM    3  C3  UNL     1     -32.404   7.803   3.198  1.00 20.00    -0.031 A 
HETATM    4  C4  UNL     1     -33.667   6.706   4.786  1.00 20.00    -0.011 A 
HETATM    5  C5  UNL     1     -33.774   5.537   2.746  1.00 20.00     0.040 C 
HETATM    6  C6  UNL     1     -34.546   5.566   5.133  1.00 20.00     0.047 C 
HETATM    7  C7  UNL     1     -34.884   5.014   3.712  1.00 20.00     0.010 C 
HETATM    8  S9  UNL     1     -33.102   7.991   5.694  1.00 20.00    -0.105 SA
ENDROOT
BRANCH   3   9
HETATM    9  C8  UNL     1     -31.785   8.075   1.882  1.00 20.00     0.154 C 
HETATM   10 CL10 UNL     1     -32.986   8.708   0.728  1.00 20.00    -0.126 Cl
ENDBRANCH   3   9
TORSDOF 1
