REMARK  0 active torsions:
REMARK  status: ('A' for Active; 'I' for Inactive)
ROOT
HETATM    1  C1  UNL     1     -33.039   5.667   1.885  1.00 20.00     0.012 A 
HETATM    2  C2  UNL     1     -32.920   6.774   1.043  1.00 20.00     0.024 A 
HETATM    3  C3  UNL     1     -32.831   8.224   2.967  1.00 20.00     0.031 A 
HETATM    4  C4  UNL     1     -33.058   5.811   3.283  1.00 20.00    -0.021 A 
HETATM    5  C5  UNL     1     -32.946   7.117   3.820  1.00 20.00    -0.048 A 
HETATM    6  C6  UNL     1     -32.818   8.052   1.584  1.00 20.00     0.034 A 
HETATM    7  C7  UNL     1     -32.946   7.318   5.318  1.00 20.00     0.039 C 
HETATM    8  C8  UNL     1     -34.303   7.074   5.996  1.00 20.00     0.007 C 
HETATM    9  C9  UNL     1     -35.072   5.831   5.536  1.00 20.00     0.035 C 
HETATM   10  C10 UNL     1     -33.205   4.602   4.176  1.00 20.00     0.184 A 
HETATM   11  C11 UNL     1     -34.184   4.645   5.334  1.00 20.00     0.156 A 
HETATM   12  O12 UNL     1     -34.458   3.893   4.150  1.00 20.00    -0.370 OA
HETATM   13 CL13 UNL     1     -32.674   9.417   0.547  1.00 20.00    -0.084 Cl
ENDROOT
TORSDOF 0
