REMARK  1 active torsions:
REMARK  status: ('A' for Active; 'I' for Inactive)
REMARK    1  A    between atoms: C1_1  and  C8_8 
ROOT
HETATM    1  C1  UNL     1     -33.289   6.700   3.735  1.00 20.00     0.014 C 
HETATM    2  C2  UNL     1     -32.670   7.494   4.842  1.00 20.00     0.057 C 
HETATM    3  C3  UNL     1     -31.670   8.288   4.037  1.00 20.00     0.027 C 
HETATM    4  C4  UNL     1     -32.339   8.389   2.678  1.00 20.00     0.149 C 
HETATM    5  N9  UNL     1     -33.130   7.151   2.528  1.00 20.00    -0.298 NA
ENDROOT
BRANCH   1   6
HETATM    6  C8  UNL     1     -34.084   5.472   4.033  1.00 20.00    -0.011 C 
HETATM    7  C5  UNL     1     -34.111   5.247   5.550  1.00 20.00     0.021 C 
HETATM    8  C6  UNL     1     -33.439   4.261   3.344  1.00 20.00     0.021 C 
HETATM    9  C7  UNL     1     -35.518   5.648   3.512  1.00 20.00     0.021 C 
ENDBRANCH   1   6
TORSDOF 1
