REMARK  3 active torsions:
REMARK  status: ('A' for Active; 'I' for Inactive)
REMARK    1  A    between atoms: C2_2  and  C6_6 
REMARK    2  A    between atoms: C6_6  and  S9_9 
REMARK    3  A    between atoms: C7_7  and  S9_9 
ROOT
HETATM    1  S9  UNL     1     -32.507   6.252   2.922  1.00 20.00    -0.158 SA
ENDROOT
BRANCH   1   2
HETATM    2  C6  UNL     1     -33.051   7.972   2.878  1.00 20.00     0.108 C 
BRANCH   2   3
HETATM    3  C2  UNL     1     -32.017   8.841   2.190  1.00 20.00     0.154 A 
HETATM    4  C1  UNL     1     -31.928   8.907   0.691  1.00 20.00     0.201 A 
HETATM    5  O8  UNL     1     -32.559   9.945   1.457  1.00 20.00    -0.380 OA
ENDBRANCH   2   3
ENDBRANCH   1   2
BRANCH   1   6
HETATM    6  C7  UNL     1     -33.963   5.553   3.793  1.00 20.00    -0.003 C 
HETATM    7  C3  UNL     1     -35.214   5.821   2.951  1.00 20.00     0.026 C 
HETATM    8  C4  UNL     1     -33.748   4.046   3.961  1.00 20.00     0.026 C 
HETATM    9  C5  UNL     1     -34.087   6.228   5.162  1.00 20.00     0.026 C 
ENDBRANCH   1   6
TORSDOF 3
