REMARK  3 active torsions:
REMARK  status: ('A' for Active; 'I' for Inactive)
REMARK    1  A    between atoms: C5_5  and  C8_8 
REMARK    2  A    between atoms: C7_7  and  N9_9 
REMARK    3  A    between atoms: C8_8  and  N9_9 
ROOT
HETATM    1  C1  UNL     1     -32.677  10.413   0.488  1.00 20.00     0.013 C 
HETATM    2  C2  UNL     1     -32.437   9.545   1.282  1.00 20.00    -0.087 C 
HETATM    3  C7  UNL     1     -32.140   8.488   2.252  1.00 20.00     0.362 C 
ENDROOT
BRANCH   3   4
HETATM    4  N9  UNL     1     -33.242   7.554   2.343  1.00 20.00     0.098 N 
HETATM    5  H22 UNL     1     -34.084   8.029   2.637  1.00 20.00     0.317 HD
BRANCH   4   6
HETATM    6  C8  UNL     1     -32.937   6.508   3.349  1.00 20.00     0.221 C 
HETATM    7  C6  UNL     1     -33.166   7.081   4.740  1.00 20.00     0.043 C 
BRANCH   6   8
HETATM    8  C5  UNL     1     -33.816   5.293   3.088  1.00 20.00     0.018 A 
HETATM    9  C3  UNL     1     -33.681   4.062   3.941  1.00 20.00     0.007 A 
HETATM   10  C4  UNL     1     -34.906   4.926   4.057  1.00 20.00     0.007 A 
ENDBRANCH   6   8
ENDBRANCH   4   6
ENDBRANCH   3   4
TORSDOF 3
