REMARK  0 active torsions:
REMARK  status: ('A' for Active; 'I' for Inactive)
ROOT
HETATM    1  C1  UNL     1     -33.604   5.269   2.444  1.00 20.00     0.010 A 
HETATM    2  C2  UNL     1     -33.995   4.022   2.944  1.00 20.00     0.019 A 
HETATM    3  C3  UNL     1     -34.303   4.956   5.168  1.00 20.00     0.034 A 
HETATM    4  C4  UNL     1     -33.913   6.175   4.643  1.00 20.00     0.018 A 
HETATM    5  C5  UNL     1     -33.561   6.352   3.310  1.00 20.00    -0.040 A 
HETATM    6  C6  UNL     1     -34.340   3.867   4.297  1.00 20.00     0.011 A 
HETATM    7  C7  UNL     1     -33.799   7.455   5.322  1.00 20.00     0.160 A 
HETATM    8  C8  UNL     1     -33.374   8.514   4.334  1.00 20.00     0.093 A 
HETATM    9  C9  UNL     1     -33.173   7.769   2.993  1.00 20.00     0.023 A 
HETATM   10  C10 UNL     1     -31.739   7.883   2.489  1.00 20.00     0.015 C 
HETATM   11  O11 UNL     1     -34.027   7.625   6.506  1.00 20.00    -0.292 OA
HETATM   12 BR12 UNL     1     -34.865   2.167   4.940  1.00 20.00    -0.051 Br
ENDROOT
TORSDOF 0
