REMARK  0 active torsions:
REMARK  status: ('A' for Active; 'I' for Inactive)
ROOT
HETATM    1  C1  UNL     1     -33.076   8.014   3.157  1.00 20.00     0.033 A 
HETATM    2  C2  UNL     1     -32.829   6.254   1.497  1.00 20.00     0.033 A 
HETATM    3  C3  UNL     1     -33.652   7.080   3.999  1.00 20.00    -0.028 A 
HETATM    4  C4  UNL     1     -33.404   5.320   2.363  1.00 20.00    -0.033 A 
HETATM    5  C5  UNL     1     -33.832   5.751   3.606  1.00 20.00     0.040 A 
HETATM    6  C6  UNL     1     -32.669   7.592   1.890  1.00 20.00     0.035 A 
HETATM    7  C7  UNL     1     -34.117   7.245   5.409  1.00 20.00     0.060 C 
HETATM    8  C8  UNL     1     -34.834   5.900   5.655  1.00 20.00     0.124 C 
HETATM    9  C9  UNL     1     -33.547   3.899   1.937  1.00 20.00     0.050 C 
HETATM   10  N10 UNL     1     -34.374   4.974   4.628  1.00 20.00    -0.389 N 
HETATM   11 CL11 UNL     1     -31.950   8.720   0.805  1.00 20.00    -0.084 Cl
HETATM   12  H21 UNL     1     -34.818   4.084   4.449  1.00 20.00     0.159 HD
ENDROOT
TORSDOF 0
