REMARK  0 active torsions:
REMARK  status: ('A' for Active; 'I' for Inactive)
ROOT
HETATM    1  C1  UNL     1     -33.888   6.360   5.839  1.00 20.00     0.010 A 
HETATM    2  C2  UNL     1     -34.198   5.006   6.005  1.00 20.00     0.019 A 
HETATM    3  C3  UNL     1     -34.053   4.629   3.609  1.00 20.00     0.034 A 
HETATM    4  C4  UNL     1     -33.749   5.972   3.477  1.00 20.00     0.018 A 
HETATM    5  C5  UNL     1     -33.658   6.840   4.558  1.00 20.00    -0.040 A 
HETATM    6  C6  UNL     1     -34.279   4.147   4.897  1.00 20.00     0.011 A 
HETATM    7  C7  UNL     1     -33.481   6.722   2.261  1.00 20.00     0.160 A 
HETATM    8  C8  UNL     1     -33.234   8.171   2.607  1.00 20.00     0.093 A 
HETATM    9  C9  UNL     1     -33.312   8.245   4.150  1.00 20.00     0.023 A 
HETATM   10  C10 UNL     1     -32.001   8.726   4.763  1.00 20.00     0.015 C 
HETATM   11  O11 UNL     1     -33.474   6.238   1.145  1.00 20.00    -0.292 OA
HETATM   12 BR12 UNL     1     -34.702   2.322   5.157  1.00 20.00    -0.051 Br
ENDROOT
TORSDOF 0
