REMARK  2 active torsions:
REMARK  status: ('A' for Active; 'I' for Inactive)
REMARK    1  A    between atoms: C2_2  and  C8_8 
REMARK    2  A    between atoms: C8_8  and  N9_9 
ROOT
HETATM    1  C3  UNL     1     -34.181   5.001   4.380  1.00 20.00     0.003 C 
HETATM    2  C4  UNL     1     -34.615   6.405   4.786  1.00 20.00     0.030 C 
HETATM    3  C5  UNL     1     -33.621   5.006   2.962  1.00 20.00     0.030 C 
HETATM    4  C6  UNL     1     -33.492   7.420   4.563  1.00 20.00     0.273 C 
HETATM    5  C7  UNL     1     -32.531   6.065   2.797  1.00 20.00     0.273 C 
HETATM    6  N9  UNL     1     -33.025   7.398   3.170  1.00 20.00     0.093 N 
ENDROOT
BRANCH   6   7
HETATM    7  C8  UNL     1     -31.986   8.406   2.963  1.00 20.00     0.317 C 
BRANCH   7   8
HETATM    8  C2  UNL     1     -31.810   8.767   1.514  1.00 20.00     0.007 C 
HETATM    9  C1  UNL     1     -32.806   9.237   0.750  1.00 20.00     0.029 C 
HETATM   10 BR10 UNL     1     -30.070   8.590   0.841  1.00 20.00    -0.055 Br
ENDBRANCH   7   8
ENDBRANCH   6   7
TORSDOF 2
