REMARK  1 active torsions:
REMARK  status: ('A' for Active; 'I' for Inactive)
REMARK    1  A    between atoms: C1_1  and  C6_6 
ROOT
HETATM    1  C2  UNL     1     -31.967   7.981   2.268  1.00 20.00     0.005 C 
HETATM    2  C3  UNL     1     -33.356   8.628   2.398  1.00 20.00     0.006 C 
HETATM    3  C4  UNL     1     -32.944   5.722   2.754  1.00 20.00     0.018 C 
HETATM    4  C5  UNL     1     -32.878   7.442   4.398  1.00 20.00     0.010 C 
HETATM    5  C6  UNL     1     -34.337   6.371   2.821  1.00 20.00     0.076 C 
HETATM    6  C7  UNL     1     -32.021   6.832   3.291  1.00 20.00    -0.013 C 
HETATM    7  C8  UNL     1     -34.046   7.748   3.455  1.00 20.00    -0.002 C 
ENDROOT
BRANCH   5   8
HETATM    8  C1  UNL     1     -35.282   5.563   3.657  1.00 20.00     0.223 C 
HETATM    9  O9  UNL     1     -34.885   4.850   4.573  1.00 20.00    -0.279 OA
HETATM   10 CL10 UNL     1     -36.935   5.774   3.163  1.00 20.00    -0.043 Cl
ENDBRANCH   5   8
TORSDOF 1
