REMARK  3 active torsions:
REMARK  status: ('A' for Active; 'I' for Inactive)
REMARK    1  A    between atoms: C5_5  and  N9_9 
REMARK    2  A    between atoms: C6_6  and  C7_7 
REMARK    3  A    between atoms: C7_7  and  N9_9 
ROOT
HETATM    1  C1  UNL     1     -32.183   9.329   1.832  1.00 20.00     0.089 C 
HETATM    2  C5  UNL     1     -31.985   8.019   2.451  1.00 20.00     0.393 C 
HETATM    3  N8  UNL     1     -32.338  10.369   1.341  1.00 20.00    -0.195 NA
ENDROOT
BRANCH   2   4
HETATM    4  N9  UNL     1     -33.256   7.453   2.890  1.00 20.00     0.100 N 
HETATM    5  H23 UNL     1     -33.870   7.350   2.079  1.00 20.00     0.317 HD
BRANCH   4   6
HETATM    6  C7  UNL     1     -33.066   6.164   3.523  1.00 20.00     0.221 C 
HETATM    7  C4  UNL     1     -32.915   5.096   2.442  1.00 20.00     0.043 C 
BRANCH   6   8
HETATM    8  C6  UNL     1     -34.211   5.861   4.517  1.00 20.00     0.010 C 
HETATM    9  C2  UNL     1     -34.054   4.530   5.259  1.00 20.00     0.011 C 
HETATM   10  C3  UNL     1     -34.384   7.000   5.529  1.00 20.00     0.011 C 
ENDBRANCH   6   8
ENDBRANCH   4   6
ENDBRANCH   2   4
TORSDOF 3
