REMARK  1 active torsions:
REMARK  status: ('A' for Active; 'I' for Inactive)
REMARK    1  A    between atoms: C1_1  and  C6_6 
ROOT
HETATM    1  C2  UNL     1     -34.473   3.970   4.655  1.00 20.00     0.027 C 
HETATM    2  C3  UNL     1     -33.709   4.669   3.535  1.00 20.00     0.015 C 
HETATM    3  C4  UNL     1     -34.156   4.607   6.002  1.00 20.00     0.167 C 
HETATM    4  C5  UNL     1     -33.631   6.695   5.012  1.00 20.00     0.179 C 
HETATM    5  C6  UNL     1     -33.921   6.176   3.612  1.00 20.00     0.071 C 
HETATM    6  O8  UNL     1     -34.430   6.008   5.977  1.00 20.00    -0.390 OA
ENDROOT
BRANCH   5   7
HETATM    7  C1  UNL     1     -32.959   6.843   2.651  1.00 20.00     0.237 C 
HETATM    8  O7  UNL     1     -32.107   7.653   3.000  1.00 20.00    -0.306 OA
ENDBRANCH   5   7
TORSDOF 1
