REMARK  1 active torsions:
REMARK  status: ('A' for Active; 'I' for Inactive)
REMARK    1  A    between atoms: C1_1  and  C5_5 
ROOT
HETATM    1  C2  UNL     1     -34.337   4.602   5.722  1.00 20.00     0.193 C 
HETATM    2  C3  UNL     1     -34.724   6.063   5.555  1.00 20.00     0.195 C 
HETATM    3  C4  UNL     1     -33.653   4.524   3.473  1.00 20.00     0.206 C 
HETATM    4  C5  UNL     1     -34.037   5.987   3.311  1.00 20.00     0.206 C 
HETATM    5  O7  UNL     1     -34.477   3.921   4.473  1.00 20.00    -0.386 OA
HETATM    6  O8  UNL     1     -33.900   6.669   4.556  1.00 20.00    -0.375 OA
ENDROOT
BRANCH   4   7
HETATM    7  C1  UNL     1     -33.107   6.689   2.380  1.00 20.00     0.265 C 
HETATM    8  O6  UNL     1     -32.372   7.608   2.725  1.00 20.00    -0.304 OA
ENDBRANCH   4   7
TORSDOF 1
