REMARK  1 active torsions:
REMARK  status: ('A' for Active; 'I' for Inactive)
REMARK    1  A    between atoms: C4_4  and  S6_6 
ROOT
HETATM    1  C1  UNL     1     -34.657   6.287   3.841  1.00 20.00     0.026 C 
HETATM    2  C2  UNL     1     -33.384   7.040   4.202  1.00 20.00     0.075 C 
HETATM    3  C3  UNL     1     -34.606   5.746   6.222  1.00 20.00     0.088 C 
HETATM    4  C4  UNL     1     -34.846   5.147   4.840  1.00 20.00     0.054 C 
HETATM    5  S5  UNL     1     -33.297   6.992   6.013  1.00 20.00    -0.168 SA
ENDROOT
BRANCH   4   6
HETATM    6  S6  UNL     1     -33.726   3.737   4.504  1.00 20.00    -0.177 SA
HETATM    7  H14 UNL     1     -34.160   2.985   5.523  1.00 20.00     0.102 HD
ENDBRANCH   4   6
TORSDOF 1
