REMARK  3 active torsions:
REMARK  status: ('A' for Active; 'I' for Inactive)
REMARK    1  A    between atoms: C5_5  and  O9_9 
REMARK    2  A    between atoms: C6_6  and  C7_7 
REMARK    3  A    between atoms: C7_7  and  O9_9 
ROOT
HETATM    1  C1  UNL     1     -32.787   9.689   1.441  1.00 20.00     0.085 C 
HETATM    2  C5  UNL     1     -32.644   8.347   2.003  1.00 20.00     0.292 C 
HETATM    3  N8  UNL     1     -32.901  10.755   0.995  1.00 20.00    -0.195 NA
ENDROOT
BRANCH   2   4
HETATM    4  O9  UNL     1     -33.797   7.995   2.749  1.00 20.00    -0.367 OA
BRANCH   4   5
HETATM    5  C7  UNL     1     -33.519   6.933   3.664  1.00 20.00     0.054 C 
HETATM    6  C3  UNL     1     -32.602   5.940   2.947  1.00 20.00     0.045 C 
HETATM    7  C4  UNL     1     -32.789   7.531   4.871  1.00 20.00     0.045 C 
BRANCH   5   8
HETATM    8  C6  UNL     1     -34.843   6.287   4.118  1.00 20.00     0.033 C 
HETATM    9  C2  UNL     1     -34.679   5.122   5.087  1.00 20.00     0.008 C 
ENDBRANCH   5   8
ENDBRANCH   4   5
ENDBRANCH   2   4
TORSDOF 3
