REMARK  3 active torsions:
REMARK  status: ('A' for Active; 'I' for Inactive)
REMARK    1  A    between atoms: C5_5  and  C6_6 
REMARK    2  A    between atoms: C5_5  and  C7_7 
REMARK    3  A    between atoms: C7_7  and  O8_8 
ROOT
HETATM    1  C2  UNL     1     -35.449   6.117   3.457  1.00 20.00     0.045 C 
HETATM    2  C3  UNL     1     -33.707   4.405   4.021  1.00 20.00     0.045 C 
HETATM    3  C7  UNL     1     -33.966   5.894   3.784  1.00 20.00     0.054 C 
ENDROOT
BRANCH   3   4
HETATM    4  C5  UNL     1     -33.101   6.476   2.640  1.00 20.00     0.057 C 
BRANCH   4   5
HETATM    5  C6  UNL     1     -32.799   7.987   2.677  1.00 20.00     0.081 C 
HETATM    6  C1  UNL     1     -32.308   8.470   1.315  1.00 20.00     0.026 C 
HETATM    7 CL9  UNL     1     -31.562   8.395   3.900  1.00 20.00    -0.125 Cl
ENDBRANCH   4   5
ENDBRANCH   3   4
BRANCH   3   8
HETATM    8  O8  UNL     1     -33.690   6.601   4.992  1.00 20.00    -0.386 OA
HETATM    9  C4  UNL     1     -34.119   5.868   6.129  1.00 20.00     0.202 C 
ENDBRANCH   3   8
TORSDOF 3
