REMARK  4 active torsions:
REMARK  status: ('A' for Active; 'I' for Inactive)
REMARK    1  A    between atoms: C5_5  and  C6_6 
REMARK    2  A    between atoms: C5_5  and  C7_7 
REMARK    3  A    between atoms: C6_6  and  S9_9 
REMARK    4  A    between atoms: C7_7  and  O8_8 
ROOT
HETATM    1  C5  UNL     1     -33.657   7.006   2.675  1.00 20.00     0.051 C 
ENDROOT
BRANCH   1   2
HETATM    2  C6  UNL     1     -32.225   7.530   2.439  1.00 20.00     0.043 C 
HETATM    3  C1  UNL     1     -31.615   8.262   3.629  1.00 20.00     0.021 C 
BRANCH   2   4
HETATM    4  S9  UNL     1     -32.262   8.682   1.012  1.00 20.00    -0.178 SA
HETATM    5  H25 UNL     1     -30.938   8.875   0.976  1.00 20.00     0.102 HD
ENDBRANCH   2   4
ENDBRANCH   1   2
BRANCH   1   6
HETATM    6  C7  UNL     1     -33.800   5.715   3.516  1.00 20.00     0.054 C 
HETATM    7  C2  UNL     1     -35.260   5.319   3.746  1.00 20.00     0.045 C 
HETATM    8  C3  UNL     1     -33.054   4.570   2.819  1.00 20.00     0.045 C 
BRANCH   6   9
HETATM    9  O8  UNL     1     -33.174   5.915   4.784  1.00 20.00    -0.386 OA
HETATM   10  C4  UNL     1     -34.042   6.578   5.689  1.00 20.00     0.202 C 
ENDBRANCH   6   9
ENDBRANCH   1   6
TORSDOF 4
