REMARK  3 active torsions:
REMARK  status: ('A' for Active; 'I' for Inactive)
REMARK    1  A    between atoms: C1_1  and  C7_7 
REMARK    2  A    between atoms: C1_1  and  C9_9 
REMARK    3  A    between atoms: C8_8  and  C9_9 
ROOT
HETATM    1  C1  UNL     1     -33.233   6.178   3.308  1.00 20.00     0.131 C 
HETATM    2  O10 UNL     1     -32.452   5.343   2.854  1.00 20.00    -0.298 OA
ENDROOT
BRANCH   1   3
HETATM    3  C7  UNL     1     -34.508   5.758   3.992  1.00 20.00     0.055 A 
HETATM    4  C3  UNL     1     -34.556   4.409   4.614  1.00 20.00     0.013 A 
HETATM    5  C4  UNL     1     -34.497   5.636   5.473  1.00 20.00     0.013 A 
ENDBRANCH   1   3
BRANCH   1   6
HETATM    6  C9  UNL     1     -32.980   7.673   3.217  1.00 20.00     0.083 C 
BRANCH   6   7
HETATM    7  C8  UNL     1     -32.828   8.156   1.790  1.00 20.00    -0.008 C 
HETATM    8  C5  UNL     1     -31.393   8.146   1.202  1.00 20.00     0.005 C 
HETATM    9  C2  UNL     1     -31.764   9.452   0.469  1.00 20.00     0.001 C 
HETATM   10  C6  UNL     1     -32.812   9.692   1.575  1.00 20.00     0.005 C 
ENDBRANCH   6   7
ENDBRANCH   1   6
TORSDOF 3
