REMARK  2 active torsions:
REMARK  status: ('A' for Active; 'I' for Inactive)
REMARK    1  A    between atoms: C1_1  and  C2_2 
REMARK    2  A    between atoms: C2_2  and  O3_3 
ROOT
HETATM    1  C2  UNL     1     -34.524   5.898   4.186  1.00 20.00     0.226 C 
HETATM    2 CL5  UNL     1     -33.632   4.414   3.762  1.00 20.00    -0.070 Cl
HETATM    3 CL6  UNL     1     -34.334   6.202   5.937  1.00 20.00    -0.070 Cl
ENDROOT
BRANCH   1   4
HETATM    4  C1  UNL     1     -34.021   7.112   3.409  1.00 20.00     0.187 C 
HETATM    5 CL4  UNL     1     -32.251   7.084   3.162  1.00 20.00    -0.125 Cl
ENDBRANCH   1   4
BRANCH   1   6
HETATM    6  O3  UNL     1     -35.906   5.696   3.928  1.00 20.00    -0.361 OA
HETATM    7  H9  UNL     1     -36.171   4.916   4.444  1.00 20.00     0.213 HD
ENDBRANCH   1   6
TORSDOF 2
