REMARK  5 active torsions:
REMARK  status: ('A' for Active; 'I' for Inactive)
REMARK    1  A    between atoms: C3_3  and  C8_8 
REMARK    2  A    between atoms: C6_6  and  C7_7 
REMARK    3  A    between atoms: C7_7  and  C9_9 
REMARK    4  A    between atoms: C8_8  and  C9_9 
REMARK    5  A    between atoms: C8_8  and  O10_10 
ROOT
HETATM    1  C8  UNL     1     -32.726   6.888   4.528  1.00 20.00     0.126 C 
ENDROOT
BRANCH   1   2
HETATM    2  C3  UNL     1     -34.186   6.716   4.835  1.00 20.00     0.015 A 
HETATM    3  C1  UNL     1     -34.844   5.375   4.662  1.00 20.00     0.007 A 
HETATM    4  C2  UNL     1     -34.618   5.929   6.041  1.00 20.00     0.007 A 
ENDBRANCH   1   2
BRANCH   1   5
HETATM    5  C9  UNL     1     -32.399   7.095   3.030  1.00 20.00     0.011 C 
HETATM    6  C5  UNL     1     -32.763   5.877   2.170  1.00 20.00     0.012 C 
BRANCH   5   7
HETATM    7  C7  UNL     1     -33.044   8.392   2.498  1.00 20.00     0.006 C 
BRANCH   7   8
HETATM    8  C6  UNL     1     -32.602   8.751   1.076  1.00 20.00    -0.004 C 
HETATM    9  C4  UNL     1     -33.243  10.049   0.608  1.00 20.00     0.005 C 
ENDBRANCH   7   8
ENDBRANCH   5   7
ENDBRANCH   1   5
BRANCH   1  10
HETATM   10  O10 UNL     1     -32.222   8.005   5.263  1.00 20.00    -0.395 OA
HETATM   11  H28 UNL     1     -32.362   7.800   6.199  1.00 20.00     0.210 HD
ENDBRANCH   1  10
TORSDOF 5
