REMARK  2 active torsions:
REMARK  status: ('A' for Active; 'I' for Inactive)
REMARK    1  A    between atoms: C1_1  and  C3_3 
REMARK    2  A    between atoms: C2_2  and  C7_7 
ROOT
HETATM    1  C1  UNL     1     -33.183   7.792   2.638  1.00 20.00     0.038 C 
HETATM    2  C2  UNL     1     -32.942   6.786   3.489  1.00 20.00    -0.015 C 
ENDROOT
BRANCH   2   3
HETATM    3  C7  UNL     1     -33.910   5.686   3.904  1.00 20.00    -0.034 C 
HETATM    4  C4  UNL     1     -34.105   5.766   5.428  1.00 20.00     0.018 C 
HETATM    5  C5  UNL     1     -35.292   5.774   3.229  1.00 20.00     0.018 C 
HETATM    6  C6  UNL     1     -33.279   4.328   3.548  1.00 20.00     0.018 C 
ENDBRANCH   2   3
BRANCH   1   7
HETATM    7  C3  UNL     1     -32.111   8.768   2.360  1.00 20.00     0.258 C 
HETATM    8  O8  UNL     1     -32.273   9.708   1.591  1.00 20.00    -0.302 OA
ENDBRANCH   1   7
TORSDOF 2
