REMARK  3 active torsions:
REMARK  status: ('A' for Active; 'I' for Inactive)
REMARK    1  A    between atoms: C2_2  and  C5_5 
REMARK    2  A    between atoms: C2_2  and  C8_8 
REMARK    3  A    between atoms: C7_7  and  C8_8 
ROOT
HETATM    1  C1  UNL     1     -33.327   5.940   3.010  1.00 20.00     0.071 C 
HETATM    2  C8  UNL     1     -33.461   7.332   3.477  1.00 20.00     0.162 C 
HETATM    3  N9  UNL     1     -33.225   4.845   2.641  1.00 20.00    -0.196 NA
ENDROOT
BRANCH   2   4
HETATM    4  C2  UNL     1     -32.442   8.240   2.806  1.00 20.00     0.148 C 
HETATM    5  O10 UNL     1     -31.634   8.937   3.409  1.00 20.00    -0.296 OA
BRANCH   4   6
HETATM    6  C5  UNL     1     -32.464   8.260   1.313  1.00 20.00     0.057 A 
HETATM    7  C3  UNL     1     -32.153   9.542   0.614  1.00 20.00     0.013 A 
HETATM    8  C4  UNL     1     -31.170   8.410   0.585  1.00 20.00     0.013 A 
ENDBRANCH   4   6
ENDBRANCH   2   4
BRANCH   2   9
HETATM    9  C7  UNL     1     -33.376   7.428   5.008  1.00 20.00     0.022 C 
HETATM   10  C6  UNL     1     -34.413   6.595   5.756  1.00 20.00     0.007 C 
ENDBRANCH   2   9
TORSDOF 3
