REMARK  3 active torsions:
REMARK  status: ('A' for Active; 'I' for Inactive)
REMARK    1  A    between atoms: C4_4  and  C8_8 
REMARK    2  A    between atoms: C7_7  and  N10_10 
REMARK    3  A    between atoms: C8_8  and  N10_10 
ROOT
HETATM    1  C1  UNL     1     -34.231   5.460   4.347  1.00 20.00     0.089 C 
HETATM    2  C7  UNL     1     -33.704   6.798   4.612  1.00 20.00     0.395 C 
HETATM    3  N9  UNL     1     -34.652   4.399   4.140  1.00 20.00    -0.195 NA
ENDROOT
BRANCH   2   4
HETATM    4  N10 UNL     1     -32.659   7.141   3.659  1.00 20.00     0.101 N 
HETATM    5  C6  UNL     1     -31.818   8.217   4.162  1.00 20.00     0.311 C 
BRANCH   4   6
HETATM    6  C8  UNL     1     -33.271   7.547   2.370  1.00 20.00     0.223 C 
HETATM    7  C5  UNL     1     -33.768   6.302   1.649  1.00 20.00     0.043 C 
BRANCH   6   8
HETATM    8  C4  UNL     1     -32.240   8.303   1.544  1.00 20.00     0.018 A 
HETATM    9  C2  UNL     1     -32.682   9.238   0.453  1.00 20.00     0.007 A 
HETATM   10  C3  UNL     1     -32.077   9.788   1.714  1.00 20.00     0.007 A 
ENDBRANCH   6   8
ENDBRANCH   4   6
ENDBRANCH   2   4
TORSDOF 3
