REMARK  3 active torsions:
REMARK  status: ('A' for Active; 'I' for Inactive)
REMARK    1  A    between atoms: C5_5  and  C9_9 
REMARK    2  A    between atoms: C8_8  and  N10_10 
REMARK    3  A    between atoms: C9_9  and  N10_10 
ROOT
HETATM    1  C1  UNL     1     -32.487   9.366   0.568  1.00 20.00     0.013 C 
HETATM    2  C2  UNL     1     -32.361   8.582   1.468  1.00 20.00    -0.087 C 
HETATM    3  C8  UNL     1     -32.201   7.626   2.567  1.00 20.00     0.364 C 
ENDROOT
BRANCH   3   4
HETATM    4  N10 UNL     1     -33.496   7.127   3.006  1.00 20.00     0.099 N 
HETATM    5  C7  UNL     1     -33.987   6.081   2.121  1.00 20.00     0.311 C 
BRANCH   4   6
HETATM    6  C9  UNL     1     -33.387   6.602   4.389  1.00 20.00     0.223 C 
HETATM    7  C6  UNL     1     -33.310   7.774   5.356  1.00 20.00     0.043 C 
BRANCH   6   8
HETATM    8  C5  UNL     1     -34.585   5.709   4.679  1.00 20.00     0.018 A 
HETATM    9  C3  UNL     1     -34.631   4.305   4.142  1.00 20.00     0.007 A 
HETATM   10  C4  UNL     1     -34.449   4.541   5.616  1.00 20.00     0.007 A 
ENDBRANCH   6   8
ENDBRANCH   4   6
ENDBRANCH   3   4
TORSDOF 3
