REMARK  1 active torsions:
REMARK  status: ('A' for Active; 'I' for Inactive)
REMARK    1  A    between atoms: C1_1  and  C3_3 
ROOT
HETATM    1  C2  UNL     1     -34.053   4.295   5.452  1.00 20.00     0.054 A 
HETATM    2  C3  UNL     1     -34.321   4.854   4.077  1.00 20.00     0.109 A 
HETATM    3  C4  UNL     1     -34.787   5.588   5.299  1.00 20.00     0.183 A 
HETATM    4  F6  UNL     1     -34.122   6.746   5.662  1.00 20.00    -0.249 F 
ENDROOT
BRANCH   2   5
HETATM    5  C1  UNL     1     -33.207   5.391   3.290  1.00 20.00     0.225 C 
HETATM    6  O5  UNL     1     -32.497   4.666   2.599  1.00 20.00    -0.279 OA
HETATM    7 CL7  UNL     1     -33.047   7.112   3.470  1.00 20.00    -0.043 Cl
ENDBRANCH   2   5
TORSDOF 1
