REMARK  0 active torsions:
REMARK  status: ('A' for Active; 'I' for Inactive)
ROOT
HETATM    1  C1  UNL     1     -34.709   4.660   4.740  1.00 20.00    -0.030 C 
HETATM    2  C2  UNL     1     -34.700   5.352   3.592  1.00 20.00    -0.020 C 
HETATM    3  C3  UNL     1     -33.294   7.341   5.603  1.00 20.00    -0.021 C 
HETATM    4  C4  UNL     1     -33.273   7.391   4.266  1.00 20.00    -0.050 C 
HETATM    5  C5  UNL     1     -34.321   5.102   6.121  1.00 20.00     0.030 C 
HETATM    6  C6  UNL     1     -34.335   6.607   6.383  1.00 20.00     0.031 C 
HETATM    7  C7  UNL     1     -32.237   8.128   3.482  1.00 20.00     0.202 C 
HETATM    8  C8  UNL     1     -33.427   6.821   2.022  1.00 20.00     0.180 C 
HETATM    9  C9  UNL     1     -34.241   6.755   3.313  1.00 20.00     0.062 C 
HETATM   10  O10 UNL     1     -32.649   8.021   2.112  1.00 20.00    -0.386 OA
ENDROOT
TORSDOF 0
