REMARK  2 active torsions:
REMARK  status: ('A' for Active; 'I' for Inactive)
REMARK    1  A    between atoms: C1_1  and  C3_3 
REMARK    2  A    between atoms: C1_1  and  C8_8 
ROOT
HETATM    1  C2  UNL     1     -33.060   5.426   2.865  1.00 20.00     0.022 A 
HETATM    2  C3  UNL     1     -33.472   6.815   2.450  1.00 20.00     0.064 A 
HETATM    3  C4  UNL     1     -34.089   6.171   3.679  1.00 20.00    -0.037 A 
HETATM    4  C5  UNL     1     -35.525   5.725   3.580  1.00 20.00     0.015 C 
HETATM    5  C6  UNL     1     -33.688   6.642   5.053  1.00 20.00     0.015 C 
ENDROOT
BRANCH   2   6
HETATM    6  C1  UNL     1     -32.514   7.920   2.576  1.00 20.00     0.131 C 
HETATM    7  O9  UNL     1     -31.739   7.982   3.530  1.00 20.00    -0.298 OA
BRANCH   6   8
HETATM    8  C8  UNL     1     -32.544   8.960   1.472  1.00 20.00     0.074 C 
HETATM    9  C7  UNL     1     -31.587   8.637   0.339  1.00 20.00     0.013 C 
ENDBRANCH   6   8
ENDBRANCH   2   6
TORSDOF 2
