REMARK  3 active torsions:
REMARK  status: ('A' for Active; 'I' for Inactive)
REMARK    1  A    between atoms: C4_4  and  C6_6 
REMARK    2  A    between atoms: C5_5  and  C7_7 
REMARK    3  A    between atoms: C6_6  and  C7_7 
ROOT
HETATM    1  C1  UNL     1     -33.939   6.899   4.683  1.00 20.00     0.064 C 
HETATM    2  C7  UNL     1     -33.554   7.336   3.326  1.00 20.00     0.092 C 
HETATM    3  N8  UNL     1     -34.243   6.558   5.750  1.00 20.00    -0.197 NA
ENDROOT
BRANCH   2   4
HETATM    4  C5  UNL     1     -33.889   6.243   2.291  1.00 20.00     0.014 C 
HETATM    5  C3  UNL     1     -33.137   4.929   2.469  1.00 20.00     0.006 C 
ENDBRANCH   2   4
BRANCH   2   6
HETATM    6  C6  UNL     1     -32.073   7.754   3.273  1.00 20.00     0.019 C 
BRANCH   6   7
HETATM    7  C4  UNL     1     -31.624   8.167   1.866  1.00 20.00    -0.003 C 
HETATM    8  C2  UNL     1     -32.384   9.392   1.379  1.00 20.00     0.005 C 
ENDBRANCH   6   7
ENDBRANCH   2   6
TORSDOF 3
