REMARK  1 active torsions:
REMARK  status: ('A' for Active; 'I' for Inactive)
REMARK    1  A    between atoms: C6_6  and  N7_7 
ROOT
HETATM    1  C1  UNL     1     -34.113   5.480   5.238  1.00 20.00     0.003 C 
HETATM    2  C2  UNL     1     -33.810   6.964   5.410  1.00 20.00     0.030 C 
HETATM    3  C3  UNL     1     -34.627   5.201   3.831  1.00 20.00     0.030 C 
HETATM    4  C4  UNL     1     -32.891   7.476   4.299  1.00 20.00     0.274 C 
HETATM    5  C5  UNL     1     -33.683   5.768   2.770  1.00 20.00     0.274 C 
HETATM    6  N7  UNL     1     -33.462   7.207   2.972  1.00 20.00     0.101 N 
ENDROOT
BRANCH   6   7
HETATM    7  C6  UNL     1     -32.596   7.744   1.923  1.00 20.00     0.386 C 
HETATM    8 CL8  UNL     1     -32.907   9.474   1.780  1.00 20.00    -0.098 Cl
ENDBRANCH   6   7
TORSDOF 1
