REMARK  0 active torsions:
REMARK  status: ('A' for Active; 'I' for Inactive)
ROOT
HETATM    1  C1  UNL     1     -33.108   8.215   2.672  1.00 20.00    -0.071 C 
HETATM    2  C2  UNL     1     -33.886   6.576   5.510  1.00 20.00     0.220 C 
HETATM    3  C3  UNL     1     -31.942   8.877   2.662  1.00 20.00     0.016 C 
HETATM    4  C4  UNL     1     -33.507   7.264   1.569  1.00 20.00     0.037 C 
HETATM    5  C5  UNL     1     -34.100   8.343   3.799  1.00 20.00     0.159 C 
HETATM    6  C6  UNL     1     -34.223   5.169   5.957  1.00 20.00     0.103 C 
HETATM    7  C7  UNL     1     -33.947   5.909   2.141  1.00 20.00     0.030 C 
HETATM    8  C8  UNL     1     -34.471   4.192   4.826  1.00 20.00     0.015 C 
HETATM    9  C9  UNL     1     -35.479   4.747   3.825  1.00 20.00     0.005 C 
HETATM   10  C10 UNL     1     -34.985   6.092   3.269  1.00 20.00     0.091 C 
HETATM   11  C11 UNL     1     -36.876   4.888   4.440  1.00 20.00     0.012 C 
HETATM   12  N12 UNL     1     -34.402   6.993   4.284  1.00 20.00    -0.343 N 
HETATM   13  O13 UNL     1     -33.241   7.303   6.270  1.00 20.00    -0.273 OA
ENDROOT
TORSDOF 0
