REMARK  1 active torsions:
REMARK  status: ('A' for Active; 'I' for Inactive)
REMARK    1  A    between atoms: C4_4  and  C8_8 
ROOT
HETATM    1  C1  UNL     1     -33.948   6.963   5.079  1.00 20.00    -0.057 C 
HETATM    2  C2  UNL     1     -33.265   7.707   5.963  1.00 20.00     0.017 C 
HETATM    3  C5  UNL     1     -34.834   5.834   5.535  1.00 20.00     0.038 C 
HETATM    4  C6  UNL     1     -34.426   4.527   4.858  1.00 20.00     0.030 C 
HETATM    5  C7  UNL     1     -33.783   4.743   3.490  1.00 20.00     0.169 C 
HETATM    6  C8  UNL     1     -33.907   7.143   3.571  1.00 20.00     0.171 C 
HETATM    7  O9  UNL     1     -34.280   5.933   2.879  1.00 20.00    -0.378 OA
ENDROOT
BRANCH   6   8
HETATM    8  C4  UNL     1     -32.602   7.629   3.019  1.00 20.00    -0.001 C 
HETATM    9  C3  UNL     1     -32.381   7.868   1.722  1.00 20.00     0.010 C 
ENDBRANCH   6   8
TORSDOF 1
