REMARK  1 active torsions:
REMARK  status: ('A' for Active; 'I' for Inactive)
REMARK    1  A    between atoms: C7_7  and  O11_11 
ROOT
HETATM    1  C1  UNL     1     -33.457   4.285   3.022  1.00 20.00    -0.027 C 
HETATM    2  C2  UNL     1     -34.509   4.306   3.861  1.00 20.00     0.001 C 
HETATM    3  C3  UNL     1     -32.517   5.454   2.824  1.00 20.00     0.036 C 
HETATM    4  C4  UNL     1     -32.779   8.701   4.808  1.00 20.00     0.001 C 
HETATM    5  C5  UNL     1     -33.919   7.844   5.383  1.00 20.00     0.008 C 
HETATM    6  C6  UNL     1     -32.089   7.854   3.723  1.00 20.00     0.010 C 
HETATM    7  C7  UNL     1     -34.856   5.493   4.730  1.00 20.00     0.145 C 
HETATM    8  C8  UNL     1     -33.681   6.467   4.777  1.00 20.00     0.026 C 
HETATM    9  C9  UNL     1     -33.111   6.763   3.378  1.00 20.00    -0.035 C 
HETATM   10  C10 UNL     1     -34.146   7.330   2.377  1.00 20.00     0.016 C 
ENDROOT
BRANCH   7  11
HETATM   11  O11 UNL     1     -35.137   5.025   6.045  1.00 20.00    -0.391 OA
HETATM   12  H27 UNL     1     -35.886   4.414   5.968  1.00 20.00     0.210 HD
ENDBRANCH   7  11
TORSDOF 1
