REMARK  4 active torsions:
REMARK  status: ('A' for Active; 'I' for Inactive)
REMARK    1  A    between atoms: C2_2  and  C5_5 
REMARK    2  A    between atoms: C2_2  and  C6_6 
REMARK    3  A    between atoms: C5_5  and  C7_7 
REMARK    4  A    between atoms: C6_6  and  C8_8 
ROOT
HETATM    1  C1  UNL     1     -34.121   6.184   5.798  1.00 20.00     0.207 A 
HETATM    2  C2  UNL     1     -33.623   6.132   4.373  1.00 20.00     0.082 A 
HETATM    3  O9  UNL     1     -34.946   6.584   4.693  1.00 20.00    -0.375 OA
ENDROOT
BRANCH   2   4
HETATM    4  C5  UNL     1     -32.709   7.231   3.858  1.00 20.00     0.040 C 
BRANCH   4   5
HETATM    5  C7  UNL     1     -33.125   7.697   2.464  1.00 20.00    -0.002 C 
HETATM    6  C3  UNL     1     -32.227   8.816   1.960  1.00 20.00     0.005 C 
ENDBRANCH   4   5
ENDBRANCH   2   4
BRANCH   2   7
HETATM    7  C6  UNL     1     -33.593   4.824   3.651  1.00 20.00     0.040 C 
BRANCH   7   8
HETATM    8  C8  UNL     1     -34.004   3.648   4.552  1.00 20.00    -0.002 C 
HETATM    9  C4  UNL     1     -34.007   2.322   3.808  1.00 20.00     0.005 C 
ENDBRANCH   7   8
ENDBRANCH   2   7
TORSDOF 4
