REMARK  2 active torsions:
REMARK  status: ('A' for Active; 'I' for Inactive)
REMARK    1  A    between atoms: C1_1  and  C3_3 
REMARK    2  A    between atoms: C3_3  and  C4_4 
ROOT
HETATM    1  C2  UNL     1     -32.854   5.540   2.581  1.00 20.00     0.069 C 
HETATM    2  C3  UNL     1     -33.847   5.888   3.701  1.00 20.00     0.264 C 
HETATM    3  O5  UNL     1     -35.036   6.135   3.187  1.00 20.00    -0.210 OA
ENDROOT
BRANCH   2   4
HETATM    4  C1  UNL     1     -33.426   7.152   4.480  1.00 20.00     0.265 C 
HETATM    5  O6  UNL     1     -34.095   7.590   5.415  1.00 20.00    -0.276 OA
HETATM    6 CL10 UNL     1     -31.950   7.919   3.915  1.00 20.00    -0.040 Cl
ENDBRANCH   2   4
BRANCH   2   7
HETATM    7  C4  UNL     1     -33.960   4.690   4.657  1.00 20.00     0.429 C 
HETATM    8  F7  UNL     1     -34.878   4.903   5.630  1.00 20.00    -0.167 F 
HETATM    9  F8  UNL     1     -32.788   4.400   5.268  1.00 20.00    -0.167 F 
HETATM   10  F9  UNL     1     -34.347   3.577   3.987  1.00 20.00    -0.167 F 
ENDBRANCH   2   7
TORSDOF 2
