REMARK  2 active torsions:
REMARK  status: ('A' for Active; 'I' for Inactive)
REMARK    1  A    between atoms: C1_1  and  C3_3 
REMARK    2  A    between atoms: C3_3  and  C4_4 
ROOT
HETATM    1  C2  UNL     1     -32.784   4.993   3.243  1.00 20.00     0.069 C 
HETATM    2  C3  UNL     1     -33.683   6.110   3.796  1.00 20.00     0.264 C 
HETATM    3  O5  UNL     1     -34.908   5.973   3.331  1.00 20.00    -0.210 OA
ENDROOT
BRANCH   2   4
HETATM    4  C1  UNL     1     -33.781   6.070   5.335  1.00 20.00     0.265 C 
HETATM    5  O6  UNL     1     -33.420   7.017   6.032  1.00 20.00    -0.276 OA
HETATM    6 CL10 UNL     1     -34.414   4.575   6.004  1.00 20.00    -0.040 Cl
ENDBRANCH   2   4
BRANCH   2   7
HETATM    7  C4  UNL     1     -33.130   7.468   3.335  1.00 20.00     0.429 C 
HETATM    8  F7  UNL     1     -31.894   7.708   3.836  1.00 20.00    -0.167 F 
HETATM    9  F8  UNL     1     -33.920   8.503   3.704  1.00 20.00    -0.167 F 
HETATM   10  F9  UNL     1     -33.021   7.510   1.985  1.00 20.00    -0.167 F 
ENDBRANCH   2   7
TORSDOF 2
