REMARK  0 active torsions:
REMARK  status: ('A' for Active; 'I' for Inactive)
ROOT
HETATM    1  C1  UNL     1     -33.279   5.328   3.074  1.00 20.00    -0.057 C 
HETATM    2  C2  UNL     1     -32.574   4.420   2.391  1.00 20.00     0.017 C 
HETATM    3  C3  UNL     1     -32.890   6.755   3.248  1.00 20.00     0.205 C 
HETATM    4  C4  UNL     1     -34.597   4.108   4.892  1.00 20.00     0.040 C 
HETATM    5  C5  UNL     1     -34.021   4.917   6.035  1.00 20.00     0.172 C 
HETATM    6  C6  UNL     1     -34.597   5.092   3.745  1.00 20.00     0.073 C 
HETATM    7  C7  UNL     1     -34.833   6.421   4.449  1.00 20.00     0.268 C 
HETATM    8  O8  UNL     1     -34.062   7.408   3.755  1.00 20.00    -0.356 OA
HETATM    9  O9  UNL     1     -34.440   6.270   5.824  1.00 20.00    -0.361 OA
ENDROOT
TORSDOF 0
