REMARK  1 active torsions:
REMARK  status: ('A' for Active; 'I' for Inactive)
REMARK    1  A    between atoms: C4_4  and  C6_6 
ROOT
HETATM    1  C1  UNL     1     -33.973   6.019   5.574  1.00 20.00     0.089 A 
HETATM    2  C2  UNL     1     -33.286   5.714   3.288  1.00 20.00     0.044 A 
HETATM    3  C3  UNL     1     -33.940   5.242   4.483  1.00 20.00    -0.053 A 
HETATM    4  C4  UNL     1     -32.722   6.925   3.295  1.00 20.00     0.080 A 
HETATM    5  C5  UNL     1     -33.346   7.358   5.575  1.00 20.00     0.288 A 
HETATM    6  C8  UNL     1     -34.562   3.881   4.434  1.00 20.00     0.048 C 
HETATM    7  O11 UNL     1     -33.380   8.063   6.579  1.00 20.00    -0.260 OA
HETATM    8  O12 UNL     1     -32.735   7.768   4.420  1.00 20.00    -0.276 OA
ENDROOT
BRANCH   4   9
HETATM    9  C6  UNL     1     -32.046   7.487   2.159  1.00 20.00     0.039 C 
HETATM   10  C7  UNL     1     -32.385   8.640   1.522  1.00 20.00    -0.085 C 
HETATM   11  C9  UNL     1     -31.671   9.220   0.333  1.00 20.00     0.043 C 
HETATM   12  C10 UNL     1     -33.561   9.459   1.989  1.00 20.00     0.043 C 
ENDBRANCH   4   9
TORSDOF 1
