REMARK  1 active torsions:
REMARK  status: ('A' for Active; 'I' for Inactive)
REMARK    1  A    between atoms: C5_5  and  C6_6 
ROOT
HETATM    1  C1  UNL     1     -34.272   6.099   4.918  1.00 20.00     0.139 C 
HETATM    2  C2  UNL     1     -34.161   4.647   5.312  1.00 20.00     0.079 C 
HETATM    3  C3  UNL     1     -34.204   3.948   3.959  1.00 20.00     0.008 C 
HETATM    4  C4  UNL     1     -33.555   4.937   3.000  1.00 20.00     0.021 C 
HETATM    5  C5  UNL     1     -34.123   6.294   3.422  1.00 20.00     0.163 C 
HETATM    6  O7  UNL     1     -34.460   7.006   5.719  1.00 20.00    -0.297 OA
ENDROOT
BRANCH   5   7
HETATM    7  C6  UNL     1     -33.216   7.453   3.064  1.00 20.00     0.398 C 
HETATM    8  F8  UNL     1     -33.716   8.608   3.540  1.00 20.00    -0.170 F 
HETATM    9  F9  UNL     1     -31.990   7.272   3.588  1.00 20.00    -0.170 F 
HETATM   10  F10 UNL     1     -33.096   7.562   1.728  1.00 20.00    -0.170 F 
ENDBRANCH   5   7
TORSDOF 1
