REMARK  1 active torsions:
REMARK  status: ('A' for Active; 'I' for Inactive)
REMARK    1  A    between atoms: C2_2  and  C3_3 
ROOT
HETATM    1  C1  UNL     1     -32.959   7.009   2.651  1.00 20.00     0.112 C 
HETATM    2  C2  UNL     1     -33.513   6.776   3.846  1.00 20.00     0.090 C 
HETATM    3 CL6  UNL     1     -31.818   8.245   2.308  1.00 20.00    -0.095 Cl
HETATM    4 CL7  UNL     1     -33.137   7.724   5.245  1.00 20.00    -0.080 Cl
ENDROOT
BRANCH   2   5
HETATM    5  C3  UNL     1     -34.504   5.672   4.057  1.00 20.00     0.167 C 
HETATM    6  C4  UNL     1     -34.009   4.302   4.456  1.00 20.00     0.097 C 
HETATM    7  O5  UNL     1     -35.710   5.873   3.908  1.00 20.00    -0.292 OA
ENDBRANCH   2   5
TORSDOF 1
