REMARK  1 active torsions:
REMARK  status: ('A' for Active; 'I' for Inactive)
REMARK    1  A    between atoms: C4_4  and  C10_10 
ROOT
HETATM    1  C1  UNL     1     -34.166   7.512   2.145  1.00 20.00     0.008 C 
HETATM    2  C2  UNL     1     -34.247   6.371   3.161  1.00 20.00     0.035 C 
HETATM    3  C3  UNL     1     -32.057   8.479   3.148  1.00 20.00     0.039 C 
HETATM    4  C4  UNL     1     -32.708   7.913   1.876  1.00 20.00    -0.005 C 
HETATM    5  C5  UNL     1     -33.398   6.594   4.369  1.00 20.00     0.151 A 
HETATM    6  C6  UNL     1     -32.288   7.610   4.344  1.00 20.00     0.151 A 
HETATM    7  O11 UNL     1     -33.545   7.865   5.003  1.00 20.00    -0.375 OA
ENDROOT
BRANCH   4   8
HETATM    8  C10 UNL     1     -32.628   8.931   0.739  1.00 20.00    -0.048 C 
HETATM    9  C7  UNL     1     -33.252   8.337  -0.535  1.00 20.00     0.015 C 
HETATM   10  C8  UNL     1     -31.158   9.288   0.464  1.00 20.00     0.015 C 
HETATM   11  C9  UNL     1     -33.394  10.207   1.130  1.00 20.00     0.015 C 
ENDBRANCH   4   8
TORSDOF 1
