REMARK  2 active torsions:
REMARK  status: ('A' for Active; 'I' for Inactive)
REMARK    1  A    between atoms: C1_1  and  C5_5 
REMARK    2  A    between atoms: C4_4  and  C5_5 
ROOT
HETATM    1  C5  UNL     1     -33.100   7.224   2.170  1.00 20.00     0.101 C 
ENDROOT
BRANCH   1   2
HETATM    2  C1  UNL     1     -33.331   7.051   3.661  1.00 20.00     0.219 C 
HETATM    3  O6  UNL     1     -32.735   7.714   4.505  1.00 20.00    -0.280 OA
HETATM    4 CL7  UNL     1     -34.520   5.822   3.994  1.00 20.00    -0.044 Cl
ENDBRANCH   1   2
BRANCH   1   5
HETATM    5  C4  UNL     1     -32.064   8.241   1.836  1.00 20.00    -0.006 A 
HETATM    6  C2  UNL     1     -32.017   8.852   0.463  1.00 20.00     0.005 A 
HETATM    7  C3  UNL     1     -32.452   9.680   1.639  1.00 20.00     0.005 A 
ENDBRANCH   1   5
TORSDOF 2
