REMARK  1 active torsions:
REMARK  status: ('A' for Active; 'I' for Inactive)
REMARK    1  A    between atoms: C2_2  and  C4_4 
REMARK       I    between atoms: C2_2  and  N7_7 
ROOT
HETATM    1  C1  UNL     1     -32.127   8.237   2.976  1.00 20.00     0.166 C 
HETATM    2  C2  UNL     1     -33.432   7.238   4.422  1.00 20.00     0.249 C 
HETATM    3  N7  UNL     1     -32.199   7.704   4.020  1.00 20.00    -0.199 NA
HETATM    4  O8  UNL     1     -34.065   7.563   5.422  1.00 20.00    -0.271 OA
HETATM    5  S9  UNL     1     -31.991   8.966   1.566  1.00 20.00    -0.055 SA
ENDROOT
BRANCH   2   6
HETATM    6  C4  UNL     1     -34.010   6.241   3.514  1.00 20.00     0.084 A 
HETATM    7  C3  UNL     1     -33.205   5.020   3.146  1.00 20.00     0.019 A 
HETATM    8  C5  UNL     1     -34.421   4.878   4.018  1.00 20.00    -0.005 A 
HETATM    9  C6  UNL     1     -34.271   4.482   5.447  1.00 20.00     0.011 C 
ENDBRANCH   2   6
TORSDOF 1
