REMARK  2 active torsions:
REMARK  status: ('A' for Active; 'I' for Inactive)
REMARK    1  A    between atoms: C4_4  and  C11_11 
REMARK    2  A    between atoms: C10_10  and  C11_11 
ROOT
HETATM    1  C1  UNL     1     -33.548   7.225   4.934  1.00 20.00     0.008 C 
HETATM    2  C2  UNL     1     -34.695   6.359   5.456  1.00 20.00     0.035 C 
HETATM    3  C3  UNL     1     -33.395   5.990   2.734  1.00 20.00     0.040 C 
HETATM    4  C4  UNL     1     -33.603   7.357   3.405  1.00 20.00    -0.004 C 
HETATM    5  C5  UNL     1     -34.868   5.085   4.697  1.00 20.00     0.151 A 
HETATM    6  C6  UNL     1     -34.256   4.922   3.332  1.00 20.00     0.151 A 
HETATM    7  O12 UNL     1     -33.681   4.313   4.505  1.00 20.00    -0.375 OA
ENDROOT
BRANCH   4   8
HETATM    8  C11 UNL     1     -32.559   8.357   2.910  1.00 20.00    -0.044 C 
HETATM    9  C8  UNL     1     -32.819   9.724   3.574  1.00 20.00     0.015 C 
HETATM   10  C9  UNL     1     -31.157   7.864   3.321  1.00 20.00     0.015 C 
BRANCH   8  11
HETATM   11  C10 UNL     1     -32.671   8.468   1.363  1.00 20.00     0.004 C 
HETATM   12  C7  UNL     1     -31.701   9.427   0.683  1.00 20.00     0.006 C 
ENDBRANCH   8  11
ENDBRANCH   4   8
TORSDOF 2
