REMARK  2 active torsions:
REMARK  status: ('A' for Active; 'I' for Inactive)
REMARK    1  A    between atoms: C3_3  and  C5_5 
REMARK    2  A    between atoms: C4_4  and  C8_8 
ROOT
HETATM    1  C1  UNL     1     -32.770   7.307   4.718  1.00 20.00     0.023 A 
HETATM    2  C2  UNL     1     -32.110   8.194   3.820  1.00 20.00     0.016 A 
HETATM    3  C3  UNL     1     -33.393   6.271   4.057  1.00 20.00     0.043 A 
HETATM    4  C4  UNL     1     -32.254   7.803   2.507  1.00 20.00    -0.013 A 
HETATM    5  S10 UNL     1     -33.182   6.371   2.361  1.00 20.00    -0.091 SA
ENDROOT
BRANCH   4   6
HETATM    6  C8  UNL     1     -31.658   8.556   1.313  1.00 20.00     0.026 A 
HETATM    7  C6  UNL     1     -31.995  10.021   1.133  1.00 20.00     0.010 A 
HETATM    8  C7  UNL     1     -32.581   9.007   0.200  1.00 20.00     0.010 A 
ENDBRANCH   4   6
BRANCH   3   9
HETATM    9  C5  UNL     1     -34.150   5.190   4.600  1.00 20.00     0.277 C 
HETATM   10  O9  UNL     1     -34.362   5.026   5.820  1.00 20.00    -0.301 OA
ENDBRANCH   3   9
TORSDOF 2
