REMARK  0 active torsions:
REMARK  status: ('A' for Active; 'I' for Inactive)
ROOT
HETATM    1  C1  UNL     1     -33.824   5.245   2.944  1.00 20.00     0.030 A 
HETATM    2  C2  UNL     1     -34.560   4.568   3.894  1.00 20.00     0.141 A 
HETATM    3  C3  UNL     1     -33.198   6.431   3.314  1.00 20.00    -0.030 A 
HETATM    4  C4  UNL     1     -33.336   6.852   4.634  1.00 20.00     0.063 A 
HETATM    5  C5  UNL     1     -32.349   7.178   2.321  1.00 20.00     0.041 C 
HETATM    6  C6  UNL     1     -32.722   8.135   5.120  1.00 20.00     0.062 C 
HETATM    7  C7  UNL     1     -32.032   8.608   2.758  1.00 20.00     0.005 C 
HETATM    8  C8  UNL     1     -31.595   8.638   4.219  1.00 20.00     0.006 C 
HETATM    9  N9  UNL     1     -34.693   5.004   5.162  1.00 20.00    -0.162 NA
HETATM   10  N10 UNL     1     -34.076   6.160   5.534  1.00 20.00    -0.155 NA
ENDROOT
TORSDOF 0
