REMARK  0 active torsions:
REMARK  status: ('A' for Active; 'I' for Inactive)
ROOT
HETATM    1  C1  UNL     1     -34.526   4.671   4.428  1.00 20.00    -0.026 C 
HETATM    2  C2  UNL     1     -31.770   8.068   4.207  1.00 20.00    -0.027 C 
HETATM    3  C3  UNL     1     -33.736   4.404   3.384  1.00 20.00    -0.001 C 
HETATM    4  C4  UNL     1     -32.863   7.611   4.835  1.00 20.00     0.005 C 
HETATM    5  C5  UNL     1     -31.693   8.168   2.711  1.00 20.00     0.057 C 
HETATM    6  C6  UNL     1     -34.901   6.071   4.798  1.00 20.00     0.066 C 
HETATM    7  C7  UNL     1     -33.176   5.483   2.508  1.00 20.00     0.300 C 
HETATM    8  C8  UNL     1     -33.028   7.861   2.008  1.00 20.00     0.277 C 
HETATM    9  C9  UNL     1     -34.091   7.169   4.070  1.00 20.00     0.249 C 
HETATM   10  N10 UNL     1     -33.815   6.802   2.663  1.00 20.00     0.100 N 
ENDROOT
TORSDOF 0
