REMARK  0 active torsions:
REMARK  status: ('A' for Active; 'I' for Inactive)
ROOT
HETATM    1  C1  UNL     1     -31.837   8.282   2.801  1.00 20.00    -0.027 C 
HETATM    2  C2  UNL     1     -33.361   4.094   3.657  1.00 20.00    -0.027 C 
HETATM    3  C3  UNL     1     -31.901   8.180   4.135  1.00 20.00    -0.001 C 
HETATM    4  C4  UNL     1     -34.345   4.437   4.498  1.00 20.00    -0.001 C 
HETATM    5  C5  UNL     1     -32.768   7.520   1.906  1.00 20.00     0.063 C 
HETATM    6  C6  UNL     1     -32.725   5.094   2.736  1.00 20.00     0.063 C 
HETATM    7  C7  UNL     1     -32.919   7.317   4.825  1.00 20.00     0.300 C 
HETATM    8  C8  UNL     1     -34.856   5.848   4.601  1.00 20.00     0.300 C 
HETATM    9  C9  UNL     1     -33.545   6.402   2.633  1.00 20.00     0.230 C 
HETATM   10  N10 UNL     1     -34.019   6.871   3.950  1.00 20.00     0.100 N 
ENDROOT
TORSDOF 0
