REMARK  0 active torsions:
REMARK  status: ('A' for Active; 'I' for Inactive)
ROOT
HETATM    1  C1  UNL     1     -32.894   7.323   3.492  1.00 20.00     0.066 C 
HETATM    2  C2  UNL     1     -34.946   4.613   5.906  1.00 20.00     0.032 C 
HETATM    3  C3  UNL     1     -34.875   5.976   5.234  1.00 20.00     0.039 C 
HETATM    4  C4  UNL     1     -33.204   5.427   1.943  1.00 20.00     0.051 C 
HETATM    5  C5  UNL     1     -33.952   3.795   5.097  1.00 20.00     0.273 C 
HETATM    6  C6  UNL     1     -32.962   4.268   2.901  1.00 20.00     0.274 C 
HETATM    7  C7  UNL     1     -33.891   6.476   2.819  1.00 20.00     0.128 C 
HETATM    8  C8  UNL     1     -34.734   5.612   3.761  1.00 20.00     0.240 C 
HETATM    9  N9  UNL     1     -32.108   7.992   4.023  1.00 20.00    -0.197 NA
HETATM   10  N10 UNL     1     -34.173   4.243   3.720  1.00 20.00     0.094 N 
ENDROOT
TORSDOF 0
