REMARK  1 active torsions:
REMARK  status: ('A' for Active; 'I' for Inactive)
REMARK    1  A    between atoms: C3_3  and  C5_5 
ROOT
HETATM    1  C1  UNL     1     -32.667   8.482   4.807  1.00 20.00     0.034 A 
HETATM    2  C2  UNL     1     -33.181   7.853   5.920  1.00 20.00     0.092 A 
HETATM    3  C3  UNL     1     -32.868   7.621   3.700  1.00 20.00     0.025 A 
HETATM    4  C4  UNL     1     -33.500   6.484   4.164  1.00 20.00     0.024 A 
HETATM    5  C6  UNL     1     -33.926   5.242   3.456  1.00 20.00     0.058 C 
HETATM    6  C7  UNL     1     -34.939   4.436   4.271  1.00 20.00     0.008 C 
HETATM    7  C8  UNL     1     -34.489   4.310   5.727  1.00 20.00     0.021 C 
HETATM    8  C9  UNL     1     -34.361   5.689   6.372  1.00 20.00     0.128 C 
HETATM    9  N10 UNL     1     -33.680   6.644   5.517  1.00 20.00    -0.359 N 
ENDROOT
BRANCH   3  10
HETATM   10  C5  UNL     1     -32.489   7.854   2.335  1.00 20.00     0.272 C 
HETATM   11  O11 UNL     1     -31.913   8.885   1.942  1.00 20.00    -0.301 OA
ENDBRANCH   3  10
TORSDOF 1
