REMARK  0 active torsions:
REMARK  status: ('A' for Active; 'I' for Inactive)
ROOT
HETATM    1  C1  UNL     1     -32.852   8.624   2.124  1.00 20.00     0.101 C 
HETATM    2  C2  UNL     1     -33.076   6.116   1.788  1.00 20.00     0.042 A 
HETATM    3  C3  UNL     1     -33.484   5.072   2.590  1.00 20.00     0.092 A 
HETATM    4  C4  UNL     1     -33.168   7.304   2.556  1.00 20.00     0.068 A 
HETATM    5  C5  UNL     1     -33.631   6.956   3.810  1.00 20.00     0.032 A 
HETATM    6  C6  UNL     1     -33.945   7.792   5.005  1.00 20.00     0.059 C 
HETATM    7  C7  UNL     1     -34.036   6.956   6.282  1.00 20.00     0.008 C 
HETATM    8  C8  UNL     1     -34.876   5.699   6.049  1.00 20.00     0.021 C 
HETATM    9  C9  UNL     1     -34.249   4.826   4.963  1.00 20.00     0.128 C 
HETATM   10  N10 UNL     1     -32.594   9.699   1.771  1.00 20.00    -0.191 NA
HETATM   11  N11 UNL     1     -33.819   5.594   3.809  1.00 20.00    -0.359 N 
ENDROOT
TORSDOF 0
