REMARK  0 active torsions:
REMARK  status: ('A' for Active; 'I' for Inactive)
ROOT
HETATM    1  C1  UNL     1     -33.589   7.277   5.558  1.00 20.00     0.027 A 
HETATM    2  C2  UNL     1     -34.245   6.319   6.317  1.00 20.00     0.116 A 
HETATM    3  C3  UNL     1     -34.734   5.003   4.479  1.00 20.00     0.123 A 
HETATM    4  C4  UNL     1     -33.515   7.040   4.199  1.00 20.00    -0.045 A 
HETATM    5  C5  UNL     1     -34.092   5.893   3.650  1.00 20.00    -0.034 A 
HETATM    6  C6  UNL     1     -33.939   5.858   2.167  1.00 20.00     0.041 C 
HETATM    7  C7  UNL     1     -32.794   6.865   1.972  1.00 20.00     0.014 C 
HETATM    8  C8  UNL     1     -32.919   7.895   3.116  1.00 20.00     0.015 C 
HETATM    9  C9  UNL     1     -31.584   8.537   3.461  1.00 20.00     0.015 C 
HETATM   10  N10 UNL     1     -34.818   5.191   5.816  1.00 20.00    -0.273 NA
ENDROOT
TORSDOF 0
