REMARK  2 active torsions:
REMARK  status: ('A' for Active; 'I' for Inactive)
REMARK    1  A    between atoms: C1_1  and  C8_8 
REMARK    2  A    between atoms: C5_5  and  C8_8 
ROOT
HETATM    1  C2  UNL     1     -34.065   6.575   5.682  1.00 20.00     0.003 C 
HETATM    2  C3  UNL     1     -33.080   7.574   5.043  1.00 20.00     0.007 C 
HETATM    3  C4  UNL     1     -34.771   5.643   4.693  1.00 20.00     0.034 C 
HETATM    4  C5  UNL     1     -33.026   7.521   3.506  1.00 20.00     0.023 C 
HETATM    5  C6  UNL     1     -33.797   5.099   3.700  1.00 20.00     0.151 A 
HETATM    6  C7  UNL     1     -32.867   6.092   3.065  1.00 20.00     0.155 A 
HETATM    7  O10 UNL     1     -33.979   5.541   2.351  1.00 20.00    -0.375 OA
ENDROOT
BRANCH   4   8
HETATM    8  C8  UNL     1     -31.901   8.397   2.964  1.00 20.00     0.076 C 
BRANCH   8   9
HETATM    9  C1  UNL     1     -32.113   8.773   1.523  1.00 20.00     0.231 C 
HETATM   10  O9  UNL     1     -32.200   9.919   1.097  1.00 20.00    -0.307 OA
ENDBRANCH   8   9
ENDBRANCH   4   8
TORSDOF 2
