REMARK  1 active torsions:
REMARK  status: ('A' for Active; 'I' for Inactive)
REMARK    1  A    between atoms: C4_4  and  C6_6 
ROOT
HETATM    1  C1  UNL     1     -34.660   5.915   2.953  1.00 20.00     0.280 C 
HETATM    2  C2  UNL     1     -34.396   5.485   4.391  1.00 20.00     0.104 C 
HETATM    3  C3  UNL     1     -32.730   7.655   4.437  1.00 20.00     0.109 C 
HETATM    4  C4  UNL     1     -33.182   7.850   2.986  1.00 20.00     0.229 C 
HETATM    5  N7  UNL     1     -33.508   6.574   2.336  1.00 20.00     0.089 N 
HETATM    6  S8  UNL     1     -34.038   6.910   5.454  1.00 20.00    -0.165 SA
HETATM    7  H21 UNL     1     -32.700   5.953   2.380  1.00 20.00     0.316 HD
ENDROOT
BRANCH   4   8
HETATM    8  C6  UNL     1     -32.064   8.524   2.186  1.00 20.00     0.032 C 
HETATM    9  C5  UNL     1     -32.464   8.748   0.765  1.00 20.00     0.007 C 
ENDBRANCH   4   8
TORSDOF 1
