REMARK  1 active torsions:
REMARK  status: ('A' for Active; 'I' for Inactive)
REMARK    1  A    between atoms: C1_1  and  C5_5 
ROOT
HETATM    1  C2  UNL     1     -33.761   6.277   2.109  1.00 20.00     0.022 C 
HETATM    2  C3  UNL     1     -34.426   5.214   3.000  1.00 20.00     0.011 C 
HETATM    3  C4  UNL     1     -32.322   5.832   3.974  1.00 20.00     0.031 C 
HETATM    4  C5  UNL     1     -32.958   7.014   3.184  1.00 20.00     0.057 C 
HETATM    5  C6  UNL     1     -33.826   5.617   4.365  1.00 20.00    -0.035 C 
HETATM    6  C7  UNL     1     -33.889   7.216   4.454  1.00 20.00    -0.023 C 
HETATM    7  C8  UNL     1     -34.193   4.744   5.530  1.00 20.00     0.016 C 
HETATM    8  C9  UNL     1     -35.262   7.865   4.214  1.00 20.00     0.017 C 
HETATM    9  C10 UNL     1     -33.283   7.895   5.697  1.00 20.00     0.017 C 
ENDROOT
BRANCH   4  10
HETATM   10  C1  UNL     1     -32.101   8.117   2.730  1.00 20.00     0.182 C 
HETATM   11  O11 UNL     1     -31.451   8.705   3.639  1.00 20.00    -0.647 OA
HETATM   12  O12 UNL     1     -32.128   8.331   1.486  1.00 20.00    -0.647 OA
ENDBRANCH   4  10
TORSDOF 1
