REMARK  0 active torsions:
REMARK  status: ('A' for Active; 'I' for Inactive)
ROOT
HETATM    1  C1  UNL     1     -33.120   8.008   2.061  1.00 20.00     0.147 C 
HETATM    2  C2  UNL     1     -34.327   7.278   1.500  1.00 20.00     0.085 C 
HETATM    3  C3  UNL     1     -33.229   5.201   2.354  1.00 20.00     0.008 C 
HETATM    4  C4  UNL     1     -32.027   6.020   2.877  1.00 20.00     0.030 C 
HETATM    5  C5  UNL     1     -34.431   6.160   2.572  1.00 20.00     0.002 C 
HETATM    6  C6  UNL     1     -32.698   7.317   3.348  1.00 20.00     0.086 C 
HETATM    7  C7  UNL     1     -34.067   6.878   3.905  1.00 20.00    -0.019 C 
HETATM    8  C8  UNL     1     -35.031   8.023   4.280  1.00 20.00     0.017 C 
HETATM    9  C9  UNL     1     -34.015   5.927   5.118  1.00 20.00     0.017 C 
HETATM   10  O10 UNL     1     -32.583   8.966   1.527  1.00 20.00    -0.296 OA
HETATM   11 BR11 UNL     1     -31.621   8.419   4.447  1.00 20.00    -0.076 Br
ENDROOT
TORSDOF 0
