REMARK  1 active torsions:
REMARK  status: ('A' for Active; 'I' for Inactive)
REMARK    1  A    between atoms: C3_3  and  O10_10 
ROOT
HETATM    1  C1  UNL     1     -34.672   6.626   4.191  1.00 20.00     0.041 C 
HETATM    2  C2  UNL     1     -32.699   5.856   2.925  1.00 20.00     0.020 C 
HETATM    3  C3  UNL     1     -33.571   7.687   4.228  1.00 20.00     0.126 C 
HETATM    4  C4  UNL     1     -34.005   5.360   3.601  1.00 20.00    -0.045 C 
HETATM    5  C5  UNL     1     -32.731   7.399   2.969  1.00 20.00    -0.021 C 
HETATM    6  C6  UNL     1     -34.934   4.679   2.588  1.00 20.00     0.015 C 
HETATM    7  C7  UNL     1     -33.676   4.350   4.713  1.00 20.00     0.015 C 
HETATM    8  C8  UNL     1     -31.310   7.972   3.041  1.00 20.00     0.017 C 
HETATM    9  C9  UNL     1     -33.418   7.967   1.713  1.00 20.00     0.017 C 
ENDROOT
BRANCH   3  10
HETATM   10  O10 UNL     1     -32.822   7.507   5.425  1.00 20.00    -0.395 OA
HETATM   11  H28 UNL     1     -33.439   7.614   6.169  1.00 20.00     0.210 HD
ENDBRANCH   3  10
TORSDOF 1
