REMARK  1 active torsions:
REMARK  status: ('A' for Active; 'I' for Inactive)
REMARK    1  A    between atoms: C8_8  and  N10_10 
ROOT
HETATM    1  C1  UNL     1     -32.653   8.925  -0.022  1.00 20.00     0.013 C 
HETATM    2  C2  UNL     1     -32.325   8.412   1.013  1.00 20.00    -0.087 C 
HETATM    3  C8  UNL     1     -31.919   7.787   2.274  1.00 20.00     0.365 C 
ENDROOT
BRANCH   3   4
HETATM    4  N10 UNL     1     -33.081   7.541   3.125  1.00 20.00     0.102 N 
HETATM    5  C5  UNL     1     -32.677   7.371   4.525  1.00 20.00     0.303 C 
HETATM    6  C3  UNL     1     -33.896   7.106   5.418  1.00 20.00     0.302 C 
HETATM    7  N9  UNL     1     -34.723   5.977   4.976  1.00 20.00     0.087 N 
HETATM    8  C4  UNL     1     -35.050   6.109   3.550  1.00 20.00     0.302 C 
HETATM    9  C7  UNL     1     -34.104   4.689   5.281  1.00 20.00     0.310 C 
HETATM   10  C6  UNL     1     -33.833   6.371   2.655  1.00 20.00     0.303 C 
ENDBRANCH   3   4
TORSDOF 1
