REMARK  0 active torsions:
REMARK  status: ('A' for Active; 'I' for Inactive)
ROOT
HETATM    1  C1  UNL     1     -33.177   7.688   2.454  1.00 20.00     0.124 C 
HETATM    2  C2  UNL     1     -33.414   5.330   2.808  1.00 20.00     0.021 C 
HETATM    3  C3  UNL     1     -33.612   6.587   3.240  1.00 20.00     0.145 C 
HETATM    4  C4  UNL     1     -33.904   4.135   3.565  1.00 20.00     0.033 C 
HETATM    5  C5  UNL     1     -34.865   4.546   4.675  1.00 20.00     0.031 C 
HETATM    6  C6  UNL     1     -34.359   5.811   5.353  1.00 20.00     0.176 C 
HETATM    7  N7  UNL     1     -32.821   8.587   1.813  1.00 20.00    -0.189 NA
HETATM    8  O8  UNL     1     -34.237   6.902   4.431  1.00 20.00    -0.341 OA
ENDROOT
TORSDOF 0
