REMARK  3 active torsions:
REMARK  status: ('A' for Active; 'I' for Inactive)
REMARK    1  A    between atoms: C1_1  and  C4_4 
REMARK    2  A    between atoms: C2_2  and  C9_9 
REMARK    3  A    between atoms: C9_9  and  N10_10 
ROOT
HETATM    1  C5  UNL     1     -34.293   4.796   5.603  1.00 20.00     0.032 C 
HETATM    2  C6  UNL     1     -34.408   4.401   4.138  1.00 20.00     0.032 C 
HETATM    3  C7  UNL     1     -34.529   6.299   5.633  1.00 20.00     0.273 C 
HETATM    4  C8  UNL     1     -34.702   5.696   3.395  1.00 20.00     0.273 C 
HETATM    5  N10 UNL     1     -34.259   6.787   4.274  1.00 20.00     0.099 N 
ENDROOT
BRANCH   5   6
HETATM    6  C9  UNL     1     -32.816   7.031   4.097  1.00 20.00     0.366 C 
BRANCH   6   7
HETATM    7  C2  UNL     1     -32.572   7.935   2.970  1.00 20.00    -0.072 C 
HETATM    8  C1  UNL     1     -32.367   8.675   2.046  1.00 20.00    -0.078 C 
BRANCH   8   9
HETATM    9  C4  UNL     1     -32.117   9.549   0.955  1.00 20.00     0.054 C 
HETATM   10  C3  UNL     1     -33.110  10.129   0.275  1.00 20.00     0.020 C 
ENDBRANCH   8   9
ENDBRANCH   6   7
ENDBRANCH   5   6
TORSDOF 3
