REMARK  0 active torsions:
REMARK  status: ('A' for Active; 'I' for Inactive)
ROOT
HETATM    1  C1  UNL     1     -32.071   8.092   4.576  1.00 20.00     0.011 A 
HETATM    2  C2  UNL     1     -31.683   8.581   3.328  1.00 20.00     0.024 A 
HETATM    3  C3  UNL     1     -33.253   7.093   2.254  1.00 20.00     0.031 A 
HETATM    4  C4  UNL     1     -33.049   7.093   4.672  1.00 20.00    -0.024 A 
HETATM    5  C5  UNL     1     -33.657   6.603   3.502  1.00 20.00    -0.047 A 
HETATM    6  C6  UNL     1     -32.271   8.080   2.169  1.00 20.00     0.034 A 
HETATM    7  C7  UNL     1     -34.693   5.512   3.586  1.00 20.00     0.069 C 
HETATM    8  C8  UNL     1     -33.489   6.599   6.028  1.00 20.00     0.308 C 
HETATM    9  C9  UNL     1     -35.276   5.361   4.993  1.00 20.00     0.274 C 
HETATM   10  N10 UNL     1     -34.201   5.316   5.983  1.00 20.00     0.087 N 
HETATM   11 CL11 UNL     1     -31.785   8.679   0.630  1.00 20.00    -0.084 Cl
HETATM   12  H21 UNL     1     -33.545   4.576   5.735  1.00 20.00     0.316 HD
ENDROOT
TORSDOF 0
