REMARK  2 active torsions:
REMARK  status: ('A' for Active; 'I' for Inactive)
REMARK    1  A    between atoms: C2_2  and  C3_3 
REMARK    2  A    between atoms: C3_3  and  O10_10 
ROOT
HETATM    1  C1  UNL     1     -33.060   6.697   3.929  1.00 20.00    -0.067 C 
HETATM    2  C2  UNL     1     -33.686   5.571   3.573  1.00 20.00     0.014 C 
HETATM    3  C4  UNL     1     -32.035   7.406   3.089  1.00 20.00     0.035 C 
HETATM    4  C5  UNL     1     -33.284   7.427   5.223  1.00 20.00     0.035 C 
HETATM    5  C6  UNL     1     -31.432   8.413   4.060  1.00 20.00     0.005 C 
HETATM    6  C7  UNL     1     -32.586   8.762   4.990  1.00 20.00     0.005 C 
HETATM    7  C8  UNL     1     -33.428   4.879   2.269  1.00 20.00     0.056 C 
ENDROOT
BRANCH   2   8
HETATM    8  C3  UNL     1     -34.673   5.006   4.531  1.00 20.00     0.171 C 
HETATM    9  O9  UNL     1     -34.427   4.647   5.672  1.00 20.00    -0.646 OA
BRANCH   8  10
HETATM   10  O10 UNL     1     -35.903   4.939   3.970  1.00 20.00    -0.773 OA
HETATM   11  H22 UNL     1     -36.569   4.569   4.588  1.00 20.00     0.167 HD
ENDBRANCH   8  10
ENDBRANCH   2   8
TORSDOF 2
