REMARK  1 active torsions:
REMARK  status: ('A' for Active; 'I' for Inactive)
REMARK    1  A    between atoms: C6_6  and  N8_8 
ROOT
HETATM    1  C1  UNL     1     -33.624   7.465   6.241  1.00 20.00     0.137 A 
HETATM    2  C2  UNL     1     -33.964   6.225   5.754  1.00 20.00     0.113 A 
HETATM    3  C3  UNL     1     -33.335   7.582   4.136  1.00 20.00     0.203 A 
HETATM    4  N7  UNL     1     -33.234   8.305   5.229  1.00 20.00    -0.231 NA
HETATM    5  N8  UNL     1     -33.774   6.315   4.404  1.00 20.00    -0.327 N 
HETATM    6 CL9  UNL     1     -32.989   8.083   2.550  1.00 20.00    -0.043 Cl
ENDROOT
BRANCH   5   7
HETATM    7  C6  UNL     1     -34.009   5.228   3.445  1.00 20.00     0.083 C 
HETATM    8  C4  UNL     1     -34.573   3.978   4.123  1.00 20.00     0.032 C 
HETATM    9  C5  UNL     1     -32.758   4.909   2.624  1.00 20.00     0.032 C 
ENDBRANCH   5   7
TORSDOF 1
