REMARK  1 active torsions:
REMARK  status: ('A' for Active; 'I' for Inactive)
REMARK    1  A    between atoms: C5_5  and  O7_7 
ROOT
HETATM    1  C1  UNL     1     -33.663   6.405   5.218  1.00 20.00     0.037 C 
HETATM    2  C2  UNL     1     -35.160   5.786   3.277  1.00 20.00     0.037 C 
HETATM    3  C3  UNL     1     -33.279   7.701   4.512  1.00 20.00     0.081 C 
HETATM    4  C4  UNL     1     -34.779   7.080   2.567  1.00 20.00     0.081 C 
HETATM    5  C5  UNL     1     -35.051   5.924   4.796  1.00 20.00     0.118 C 
HETATM    6  C6  UNL     1     -33.409   7.571   3.003  1.00 20.00     0.243 C 
HETATM    7  F8  UNL     1     -33.152   8.770   2.423  1.00 20.00    -0.206 F 
HETATM    8  F9  UNL     1     -32.460   6.712   2.547  1.00 20.00    -0.206 F 
ENDROOT
BRANCH   5   9
HETATM    9  O7  UNL     1     -35.301   4.665   5.410  1.00 20.00    -0.396 OA
HETATM   10  H19 UNL     1     -36.185   4.387   5.125  1.00 20.00     0.210 HD
ENDBRANCH   5   9
TORSDOF 1
