REMARK  3 active torsions:
REMARK  status: ('A' for Active; 'I' for Inactive)
REMARK    1  A    between atoms: C1_1  and  C3_3 
REMARK    2  A    between atoms: C2_2  and  C5_5 
REMARK    3  A    between atoms: C4_4  and  C7_7 
ROOT
HETATM    1  C1  UNL     1     -33.183   7.637   2.746  1.00 20.00     0.000 C 
HETATM    2  C2  UNL     1     -33.444   6.683   3.653  1.00 20.00    -0.000 C 
ENDROOT
BRANCH   1   3
HETATM    3  C3  UNL     1     -31.984   7.651   1.936  1.00 20.00     0.004 C 
HETATM    4  C4  UNL     1     -31.733   8.608   1.033  1.00 20.00     0.049 C 
BRANCH   4   5
HETATM    5  C7  UNL     1     -32.699   9.721   0.820  1.00 20.00     0.145 C 
HETATM    6  C9  UNL     1     -32.995  10.592   2.012  1.00 20.00     0.096 C 
HETATM    7  O10 UNL     1     -33.212   9.944  -0.274  1.00 20.00    -0.294 OA
ENDBRANCH   4   5
ENDBRANCH   1   3
BRANCH   2   8
HETATM    8  C5  UNL     1     -34.645   6.677   4.459  1.00 20.00    -0.004 C 
HETATM    9  C6  UNL     1     -34.989   5.769   5.386  1.00 20.00    -0.031 C 
HETATM   10  C8  UNL     1     -34.236   4.554   5.822  1.00 20.00     0.036 C 
ENDBRANCH   2   8
TORSDOF 3
