REMARK  3 active torsions:
REMARK  status: ('A' for Active; 'I' for Inactive)
REMARK    1  A    between atoms: C1_1  and  C3_3 
REMARK    2  A    between atoms: C2_2  and  C5_5 
REMARK    3  A    between atoms: C4_4  and  C7_7 
ROOT
HETATM    1  C1  UNL     1     -32.753   6.126   2.504  1.00 20.00     0.000 C 
HETATM    2  C2  UNL     1     -33.010   7.404   2.188  1.00 20.00    -0.000 C 
ENDROOT
BRANCH   1   3
HETATM    3  C3  UNL     1     -33.614   5.335   3.357  1.00 20.00     0.003 C 
HETATM    4  C4  UNL     1     -34.201   5.834   4.452  1.00 20.00     0.041 C 
BRANCH   4   5
HETATM    5  C7  UNL     1     -33.966   7.246   4.811  1.00 20.00     0.258 C 
HETATM    6  O9  UNL     1     -32.843   7.676   5.045  1.00 20.00    -0.302 OA
ENDBRANCH   4   5
ENDBRANCH   1   3
BRANCH   2   7
HETATM    7  C5  UNL     1     -32.148   8.194   1.336  1.00 20.00    -0.004 C 
HETATM    8  C6  UNL     1     -32.402   9.472   1.019  1.00 20.00    -0.031 C 
HETATM    9  C8  UNL     1     -33.597  10.225   1.504  1.00 20.00     0.036 C 
ENDBRANCH   2   7
TORSDOF 3
