REMARK  1 active torsions:
REMARK  status: ('A' for Active; 'I' for Inactive)
REMARK    1  A    between atoms: C2_2  and  C10_10 
ROOT
HETATM    1  C1  UNL     1     -33.912   7.034   2.218  1.00 20.00    -0.022 C 
HETATM    2  C2  UNL     1     -33.023   7.866   2.789  1.00 20.00    -0.073 C 
HETATM    3  C3  UNL     1     -33.548   6.830   5.016  1.00 20.00     0.134 C 
HETATM    4  C4  UNL     1     -34.631   5.949   2.962  1.00 20.00     0.039 C 
HETATM    5  C5  UNL     1     -32.678   7.813   4.251  1.00 20.00     0.113 C 
HETATM    6  C6  UNL     1     -33.944   5.562   4.274  1.00 20.00     0.055 C 
HETATM    7  C7  UNL     1     -34.839   4.657   5.114  1.00 20.00     0.018 C 
HETATM    8  O11 UNL     1     -33.825   7.024   6.200  1.00 20.00    -0.297 OA
ENDROOT
BRANCH   2   9
HETATM    9  C10 UNL     1     -32.319   8.926   1.993  1.00 20.00     0.006 C 
HETATM   10  C8  UNL     1     -31.479   8.287   0.892  1.00 20.00     0.014 C 
HETATM   11  C9  UNL     1     -33.320   9.918   1.410  1.00 20.00     0.014 C 
ENDBRANCH   2   9
TORSDOF 1
