REMARK  1 active torsions:
REMARK  status: ('A' for Active; 'I' for Inactive)
REMARK    1  A    between atoms: C1_1  and  C2_2 
ROOT
HETATM    1  C1  UNL     1     -34.002   6.213   5.260  1.00 20.00     0.326 C 
HETATM    2  O3  UNL     1     -33.611   6.559   4.156  1.00 20.00    -0.257 OA
HETATM    3  F4  UNL     1     -34.033   7.147   6.222  1.00 20.00    -0.162 F 
ENDROOT
BRANCH   1   4
HETATM    4  C2  UNL     1     -34.446   4.836   5.625  1.00 20.00     0.338 C 
HETATM    5  F5  UNL     1     -34.358   3.990   4.565  1.00 20.00    -0.245 F 
ENDBRANCH   1   4
TORSDOF 1
