REMARK  1 active torsions:
REMARK  status: ('A' for Active; 'I' for Inactive)
REMARK    1  A    between atoms: C4_4  and  O11_11 
ROOT
HETATM    1  C1  UNL     1     -33.456   4.935   3.206  1.00 20.00    -0.021 C 
HETATM    2  C2  UNL     1     -33.927   5.262   4.421  1.00 20.00    -0.025 C 
HETATM    3  C3  UNL     1     -33.451   7.289   2.521  1.00 20.00    -0.043 C 
HETATM    4  C4  UNL     1     -32.660   8.011   1.725  1.00 20.00     0.045 C 
HETATM    5  C5  UNL     1     -33.976   7.701   3.891  1.00 20.00     0.046 C 
HETATM    6  C6  UNL     1     -35.417   6.107   2.866  1.00 20.00     0.022 C 
HETATM    7  C7  UNL     1     -34.040   5.921   2.220  1.00 20.00     0.040 C 
HETATM    8  C8  UNL     1     -34.837   6.462   4.241  1.00 20.00     0.013 C 
HETATM    9  C9  UNL     1     -32.180   7.546   0.386  1.00 20.00     0.076 C 
ENDROOT
BRANCH   4  10
HETATM   10  O11 UNL     1     -32.234   9.266   2.120  1.00 20.00    -0.360 OA
HETATM   11  C10 UNL     1     -32.645  10.278   1.234  1.00 20.00     0.209 C 
ENDBRANCH   4  10
TORSDOF 1
