REMARK  0 active torsions:
REMARK  status: ('A' for Active; 'I' for Inactive)
ROOT
HETATM    1  C1  UNL     1     -33.362   7.557   2.945  1.00 20.00     0.063 C 
HETATM    2  C2  UNL     1     -34.322   6.864   4.992  1.00 20.00     0.167 C 
HETATM    3  C3  UNL     1     -33.989   4.924   2.969  1.00 20.00     0.112 C 
HETATM    4  C4  UNL     1     -32.445   8.409   2.115  1.00 20.00     0.078 C 
HETATM    5  C5  UNL     1     -34.030   7.115   6.472  1.00 20.00     0.046 C 
HETATM    6  C6  UNL     1     -32.536   4.495   2.778  1.00 20.00     0.033 C 
HETATM    7  N7  UNL     1     -33.364   7.669   4.227  1.00 20.00    -0.272 NA
HETATM    8  S8  UNL     1     -34.354   6.437   2.030  1.00 20.00    -0.100 SA
HETATM    9  S9  UNL     1     -34.374   5.048   4.746  1.00 20.00    -0.127 SA
ENDROOT
TORSDOF 0
