REMARK  0 active torsions:
REMARK  status: ('A' for Active; 'I' for Inactive)
ROOT
HETATM    1  C1  UNL     1     -33.302   7.690   4.951  1.00 20.00     0.302 C 
HETATM    2  C2  UNL     1     -32.723   7.680   3.554  1.00 20.00     0.201 C 
HETATM    3  C3  UNL     1     -34.243   5.967   3.742  1.00 20.00     0.253 C 
HETATM    4  C4  UNL     1     -33.811   4.540   3.392  1.00 20.00     0.081 C 
HETATM    5  C5  UNL     1     -35.755   6.122   3.532  1.00 20.00     0.081 C 
HETATM    6  C6  UNL     1     -34.633   6.098   6.203  1.00 20.00     0.314 C 
HETATM    7  N7  UNL     1     -33.734   6.303   5.081  1.00 20.00     0.120 N 
HETATM    8  O8  UNL     1     -33.610   6.853   2.790  1.00 20.00    -0.351 OA
ENDROOT
TORSDOF 0
