REMARK  1 active torsions:
REMARK  status: ('A' for Active; 'I' for Inactive)
REMARK    1  A    between atoms: C8_8  and  N9_9 
ROOT
HETATM    1  C1  UNL     1     -33.113   9.928   1.554  1.00 20.00     0.013 C 
HETATM    2  C2  UNL     1     -32.861   8.806   1.899  1.00 20.00    -0.087 C 
HETATM    3  C8  UNL     1     -32.548   7.437   2.317  1.00 20.00     0.364 C 
ENDROOT
BRANCH   3   4
HETATM    4  N9  UNL     1     -33.565   6.934   3.239  1.00 20.00     0.099 N 
HETATM    5  C6  UNL     1     -33.329   7.447   4.596  1.00 20.00     0.273 C 
HETATM    6  C4  UNL     1     -34.413   6.969   5.563  1.00 20.00     0.030 C 
HETATM    7  C3  UNL     1     -34.521   5.449   5.568  1.00 20.00     0.003 C 
HETATM    8  C5  UNL     1     -34.683   4.922   4.147  1.00 20.00     0.030 C 
HETATM    9  C7  UNL     1     -33.590   5.464   3.224  1.00 20.00     0.273 C 
ENDBRANCH   3   4
TORSDOF 1
