REMARK  2 active torsions:
REMARK  status: ('A' for Active; 'I' for Inactive)
REMARK    1  A    between atoms: C8_8  and  C9_9 
REMARK    2  A    between atoms: C9_9  and  N11_11 
ROOT
HETATM    1  C1  UNL     1     -35.847   5.028   4.585  1.00 20.00     0.064 C 
HETATM    2  C2  UNL     1     -34.333   6.964   4.820  1.00 20.00     0.047 C 
HETATM    3  C3  UNL     1     -33.921   5.211   3.051  1.00 20.00     0.047 C 
HETATM    4  C4  UNL     1     -32.915   7.482   4.626  1.00 20.00     0.236 C 
HETATM    5  C5  UNL     1     -32.505   5.740   2.868  1.00 20.00     0.236 C 
HETATM    6  C6  UNL     1     -34.450   5.478   4.464  1.00 20.00     0.096 C 
HETATM    7  N10 UNL     1     -36.948   4.674   4.680  1.00 20.00    -0.197 NA
HETATM    8  N11 UNL     1     -32.424   7.203   3.226  1.00 20.00    -0.071 N 
HETATM    9  H28 UNL     1     -31.388   7.434   3.239  1.00 20.00     0.279 HD
ENDROOT
BRANCH   8  10
HETATM   10  C9  UNL     1     -33.014   8.115   2.184  1.00 20.00     0.234 C 
BRANCH  10  11
HETATM   11  C8  UNL     1     -32.252   9.431   2.187  1.00 20.00     0.023 C 
HETATM   12  C7  UNL     1     -32.838  10.408   1.180  1.00 20.00     0.007 C 
ENDBRANCH  10  11
ENDBRANCH   8  10
TORSDOF 2
