REMARK  1 active torsions:
REMARK  status: ('A' for Active; 'I' for Inactive)
REMARK    1  A    between atoms: C9_9  and  N11_11 
ROOT
HETATM    1  C1  UNL     1     -33.570   7.317   4.946  1.00 20.00     0.102 C 
HETATM    2  C2  UNL     1     -35.172   4.919   3.999  1.00 20.00     0.007 C 
HETATM    3  C5  UNL     1     -33.687   5.128   3.625  1.00 20.00     0.058 C 
HETATM    4  C6  UNL     1     -35.441   6.355   3.495  1.00 20.00     0.058 C 
HETATM    5  C9  UNL     1     -33.941   6.649   3.725  1.00 20.00     0.246 C 
HETATM    6  N10 UNL     1     -33.271   7.854   5.929  1.00 20.00    -0.194 NA
ENDROOT
BRANCH   5   7
HETATM    7  N11 UNL     1     -33.389   7.316   2.540  1.00 20.00     0.112 N 
HETATM    8  C7  UNL     1     -33.870   8.695   2.448  1.00 20.00     0.275 C 
HETATM    9  C3  UNL     1     -32.879   9.339   1.490  1.00 20.00     0.032 C 
HETATM   10  C4  UNL     1     -31.607   8.505   1.612  1.00 20.00     0.032 C 
HETATM   11  C8  UNL     1     -31.933   7.430   2.638  1.00 20.00     0.275 C 
ENDBRANCH   5   7
TORSDOF 1
