REMARK  3 active torsions:
REMARK  status: ('A' for Active; 'I' for Inactive)
REMARK    1  A    between atoms: C2_2  and  C5_5 
REMARK    2  A    between atoms: C5_5  and  C6_6 
REMARK    3  A    between atoms: C6_6  and  C7_7 
ROOT
HETATM    1  C5  UNL     1     -32.370   7.349   2.628  1.00 20.00     0.034 C 
ENDROOT
BRANCH   1   2
HETATM    2  C2  UNL     1     -31.898   8.709   2.137  1.00 20.00     0.145 A 
HETATM    3  C1  UNL     1     -31.972   9.081   0.682  1.00 20.00     0.200 A 
HETATM    4  O8  UNL     1     -32.938   9.554   1.633  1.00 20.00    -0.381 OA
ENDBRANCH   1   2
BRANCH   1   5
HETATM    5  C6  UNL     1     -33.185   7.474   3.918  1.00 20.00     0.006 C 
BRANCH   5   6
HETATM    6  C7  UNL     1     -33.748   6.131   4.420  1.00 20.00    -0.023 C 
HETATM    7  C3  UNL     1     -34.670   5.526   3.358  1.00 20.00     0.009 C 
HETATM    8  C4  UNL     1     -34.507   6.273   5.740  1.00 20.00     0.009 C 
ENDBRANCH   5   6
ENDBRANCH   1   5
TORSDOF 3
