REMARK  2 active torsions:
REMARK  status: ('A' for Active; 'I' for Inactive)
REMARK    1  A    between atoms: C3_3  and  C10_10 
REMARK    2  A    between atoms: C7_7  and  C10_10 
ROOT
HETATM    1  C1  UNL     1     -33.123   5.156   3.116  1.00 20.00    -0.024 C 
HETATM    2  C2  UNL     1     -33.982   5.161   4.150  1.00 20.00    -0.087 C 
HETATM    3  C4  UNL     1     -32.504   6.396   2.543  1.00 20.00     0.032 C 
HETATM    4  C5  UNL     1     -34.376   6.435   4.853  1.00 20.00     0.034 C 
HETATM    5  C6  UNL     1     -33.489   7.634   4.501  1.00 20.00     0.010 C 
HETATM    6  C7  UNL     1     -33.203   7.688   2.997  1.00 20.00    -0.001 C 
HETATM    7  C8  UNL     1     -34.606   3.899   4.670  1.00 20.00     0.043 C 
ENDROOT
BRANCH   6   8
HETATM    8  C10 UNL     1     -32.365   8.913   2.639  1.00 20.00     0.047 C 
HETATM    9  C9  UNL     1     -30.900   8.693   2.993  1.00 20.00     0.017 C 
BRANCH   8  10
HETATM   10  C3  UNL     1     -32.549   9.222   1.167  1.00 20.00     0.235 C 
HETATM   11  O11 UNL     1     -33.035  10.260   0.729  1.00 20.00    -0.306 OA
ENDBRANCH   8  10
ENDBRANCH   6   8
TORSDOF 2
