REMARK  0 active torsions:
REMARK  status: ('A' for Active; 'I' for Inactive)
ROOT
HETATM    1  C1  UNL     1     -33.567   7.162   5.358  1.00 20.00     0.085 C 
HETATM    2  C2  UNL     1     -35.135   6.410   3.729  1.00 20.00     0.085 C 
HETATM    3  C3  UNL     1     -32.647   5.959   3.335  1.00 20.00     0.030 A 
HETATM    4  C4  UNL     1     -33.764   6.754   3.992  1.00 20.00     0.148 A 
HETATM    5  C5  UNL     1     -32.909   7.386   2.883  1.00 20.00    -0.007 A 
HETATM    6  C6  UNL     1     -32.899   4.777   2.459  1.00 20.00     0.014 C 
HETATM    7  C7  UNL     1     -31.859   8.416   3.245  1.00 20.00     0.018 C 
HETATM    8  C8  UNL     1     -33.517   7.648   1.522  1.00 20.00     0.018 C 
HETATM    9  N9  UNL     1     -33.408   7.491   6.459  1.00 20.00    -0.195 NA
HETATM   10  N10 UNL     1     -36.241   6.133   3.516  1.00 20.00    -0.195 NA
ENDROOT
TORSDOF 0
