REMARK  3 active torsions:
REMARK  status: ('A' for Active; 'I' for Inactive)
REMARK    1  A    between atoms: C4_4  and  C6_6 
REMARK    2  A    between atoms: C6_6  and  C8_8 
REMARK    3  A    between atoms: C7_7  and  C8_8 
ROOT
HETATM    1  C1  UNL     1     -34.424   6.007   6.060  1.00 20.00     0.011 C 
HETATM    2  C2  UNL     1     -33.523   7.112   5.531  1.00 20.00     0.016 C 
HETATM    3  C3  UNL     1     -34.147   4.781   5.207  1.00 20.00     0.074 C 
HETATM    4  C4  UNL     1     -33.748   7.165   4.022  1.00 20.00     0.047 C 
HETATM    5  S9  UNL     1     -33.921   5.420   3.524  1.00 20.00    -0.164 SA
ENDROOT
BRANCH   4   6
HETATM    6  C6  UNL     1     -32.610   7.846   3.282  1.00 20.00     0.015 C 
BRANCH   6   7
HETATM    7  C8  UNL     1     -33.038   8.291   1.883  1.00 20.00     0.001 C 
BRANCH   7   8
HETATM    8  C7  UNL     1     -31.881   8.946   1.129  1.00 20.00    -0.005 C 
HETATM    9  C5  UNL     1     -32.294   9.359  -0.274  1.00 20.00     0.005 C 
ENDBRANCH   7   8
ENDBRANCH   6   7
ENDBRANCH   4   6
TORSDOF 3
