REMARK  1 active torsions:
REMARK  status: ('A' for Active; 'I' for Inactive)
REMARK    1  A    between atoms: C3_3  and  C4_4 
ROOT
HETATM    1  C1  UNL     1     -32.618   6.448   2.875  1.00 20.00    -0.018 A 
HETATM    2  C2  UNL     1     -31.522   7.187   2.634  1.00 20.00    -0.024 A 
HETATM    3  C4  UNL     1     -33.790   7.362   3.140  1.00 20.00     0.082 A 
HETATM    4  C5  UNL     1     -31.748   8.640   2.719  1.00 20.00     0.022 A 
HETATM    5  C6  UNL     1     -33.230   8.772   3.048  1.00 20.00     0.017 A 
HETATM    6  C7  UNL     1     -32.667   9.389   1.777  1.00 20.00    -0.035 A 
HETATM    7  C9  UNL     1     -32.534  10.893   1.754  1.00 20.00     0.016 C 
HETATM    8  C10 UNL     1     -33.022   8.812   0.429  1.00 20.00     0.016 C 
ENDROOT
BRANCH   3   9
HETATM    9  C3  UNL     1     -34.293   7.032   4.507  1.00 20.00     0.131 C 
HETATM   10  C8  UNL     1     -35.361   5.975   4.599  1.00 20.00     0.091 C 
HETATM   11  O11 UNL     1     -33.854   7.594   5.509  1.00 20.00    -0.298 OA
ENDBRANCH   3   9
TORSDOF 1
