REMARK  2 active torsions:
REMARK  status: ('A' for Active; 'I' for Inactive)
REMARK    1  A    between atoms: C1_1  and  O6_6 
REMARK    2  A    between atoms: C4_4  and  O6_6 
ROOT
HETATM    1  O6  UNL     1     -33.445   7.347   3.984  1.00 20.00    -0.301 OA
ENDROOT
BRANCH   1   2
HETATM    2  C1  UNL     1     -32.679   6.910   2.944  1.00 20.00     0.256 C 
HETATM    3  C2  UNL     1     -32.069   8.087   2.246  1.00 20.00     0.126 C 
HETATM    4  O5  UNL     1     -32.500   5.747   2.609  1.00 20.00    -0.266 OA
ENDBRANCH   1   2
BRANCH   1   5
HETATM    5  C4  UNL     1     -34.113   6.348   4.771  1.00 20.00     0.223 C 
HETATM    6  C3  UNL     1     -35.421   5.947   4.108  1.00 20.00     0.057 C 
HETATM    7 CL7  UNL     1     -34.447   7.051   6.376  1.00 20.00    -0.095 Cl
ENDBRANCH   1   5
TORSDOF 2
