REMARK  3 active torsions:
REMARK  status: ('A' for Active; 'I' for Inactive)
REMARK    1  A    between atoms: C1_1  and  C6_6 
REMARK    2  A    between atoms: C1_1  and  O9_9 
REMARK    3  A    between atoms: C6_6  and  C7_7 
ROOT
HETATM    1  C2  UNL     1     -34.170   5.780   2.576  1.00 20.00     0.021 C 
HETATM    2  C6  UNL     1     -33.942   6.933   3.555  1.00 20.00     0.085 C 
ENDROOT
BRANCH   2   3
HETATM    3  C1  UNL     1     -32.778   7.785   3.069  1.00 20.00     0.262 C 
HETATM    4  O8  UNL     1     -31.789   8.057   3.738  1.00 20.00    -0.265 OA
BRANCH   3   5
HETATM    5  O9  UNL     1     -33.005   8.186   1.784  1.00 20.00    -0.326 OA
HETATM    6  C5  UNL     1     -31.978   8.992   1.198  1.00 20.00     0.213 C 
ENDBRANCH   3   5
ENDBRANCH   2   3
BRANCH   2   7
HETATM    7  C7  UNL     1     -33.760   6.445   5.012  1.00 20.00    -0.010 C 
HETATM    8  C3  UNL     1     -34.590   5.207   5.366  1.00 20.00     0.010 C 
HETATM    9  C4  UNL     1     -34.042   7.562   6.022  1.00 20.00     0.010 C 
ENDBRANCH   2   7
TORSDOF 3
