REMARK  2 active torsions:
REMARK  status: ('A' for Active; 'I' for Inactive)
REMARK    1  A    between atoms: C2_2  and  C5_5 
REMARK    2  A    between atoms: C5_5  and  C6_6 
ROOT
HETATM    1  C1  UNL     1     -33.671   4.840   3.782  1.00 20.00     0.206 A 
HETATM    2  C2  UNL     1     -34.059   6.098   4.523  1.00 20.00     0.079 A 
HETATM    3  C3  UNL     1     -34.651   5.994   5.891  1.00 20.00     0.048 C 
HETATM    4  O7  UNL     1     -34.888   5.545   3.491  1.00 20.00    -0.375 OA
ENDROOT
BRANCH   2   5
HETATM    5  C5  UNL     1     -33.411   7.420   4.145  1.00 20.00     0.039 C 
BRANCH   5   6
HETATM    6  C6  UNL     1     -32.935   7.415   2.694  1.00 20.00    -0.002 C 
HETATM    7  C4  UNL     1     -32.311   8.747   2.308  1.00 20.00     0.005 C 
ENDBRANCH   5   6
ENDBRANCH   2   5
TORSDOF 2
