REMARK  3 active torsions:
REMARK  status: ('A' for Active; 'I' for Inactive)
REMARK    1  A    between atoms: C1_1  and  C3_3 
REMARK    2  A    between atoms: C2_2  and  C7_7 
REMARK    3  A    between atoms: C3_3  and  O9_9 
ROOT
HETATM    1  C1  UNL     1     -32.225   7.671   3.948  1.00 20.00     0.078 C 
HETATM    2  C2  UNL     1     -31.865   8.549   3.002  1.00 20.00    -0.017 C 
ENDROOT
BRANCH   1   3
HETATM    3  C3  UNL     1     -33.182   6.590   3.626  1.00 20.00     0.282 C 
HETATM    4  O8  UNL     1     -33.016   5.727   2.779  1.00 20.00    -0.260 OA
BRANCH   3   5
HETATM    5  O9  UNL     1     -34.262   6.740   4.440  1.00 20.00    -0.323 OA
HETATM    6  C6  UNL     1     -35.301   5.772   4.268  1.00 20.00     0.213 C 
ENDBRANCH   3   5
ENDBRANCH   1   3
BRANCH   2   7
HETATM    7  C7  UNL     1     -32.388   8.502   1.587  1.00 20.00    -0.000 C 
HETATM    8  C4  UNL     1     -33.146   9.789   1.263  1.00 20.00     0.013 C 
HETATM    9  C5  UNL     1     -31.236   8.294   0.605  1.00 20.00     0.013 C 
ENDBRANCH   2   7
TORSDOF 3
