REMARK  2 active torsions:
REMARK  status: ('A' for Active; 'I' for Inactive)
REMARK    1  A    between atoms: C2_2  and  C5_5 
REMARK    2  A    between atoms: C5_5  and  C6_6 
ROOT
HETATM    1  C1  UNL     1     -32.314   6.966   3.357  1.00 20.00     0.206 A 
HETATM    2  C2  UNL     1     -33.637   6.874   4.079  1.00 20.00     0.079 A 
HETATM    3  C3  UNL     1     -33.720   7.274   5.517  1.00 20.00     0.048 C 
HETATM    4  O7  UNL     1     -33.336   7.961   3.194  1.00 20.00    -0.375 OA
ENDROOT
BRANCH   2   5
HETATM    5  C5  UNL     1     -34.713   5.937   3.556  1.00 20.00     0.039 C 
BRANCH   5   6
HETATM    6  C6  UNL     1     -34.509   4.511   4.064  1.00 20.00    -0.002 C 
HETATM    7  C4  UNL     1     -34.525   4.453   5.583  1.00 20.00     0.005 C 
ENDBRANCH   5   6
ENDBRANCH   2   5
TORSDOF 2
