REMARK  1 active torsions:
REMARK  status: ('A' for Active; 'I' for Inactive)
REMARK    1  A    between atoms: C5_5  and  C10_10 
ROOT
HETATM    1  C1  UNL     1     -32.277   7.680   3.879  1.00 20.00    -0.018 C 
HETATM    2  C2  UNL     1     -32.011   8.534   2.881  1.00 20.00    -0.025 C 
HETATM    3  C3  UNL     1     -33.597   6.264   2.307  1.00 20.00     0.135 C 
HETATM    4  C4  UNL     1     -32.742   6.817   1.189  1.00 20.00     0.087 C 
HETATM    5  C5  UNL     1     -33.033   6.389   3.722  1.00 20.00     0.081 C 
HETATM    6  C6  UNL     1     -32.413   8.290   1.450  1.00 20.00     0.010 C 
HETATM    7  C7  UNL     1     -31.316   8.755   0.491  1.00 20.00     0.014 C 
HETATM    8  O11 UNL     1     -34.644   5.664   2.063  1.00 20.00    -0.297 OA
ENDROOT
BRANCH   5   9
HETATM    9  C10 UNL     1     -34.149   6.296   4.759  1.00 20.00    -0.008 C 
HETATM   10  C8  UNL     1     -34.615   4.850   4.923  1.00 20.00     0.010 C 
HETATM   11  C9  UNL     1     -33.689   6.864   6.101  1.00 20.00     0.010 C 
ENDBRANCH   5   9
TORSDOF 1
