REMARK  2 active torsions:
REMARK  status: ('A' for Active; 'I' for Inactive)
REMARK    1  A    between atoms: C3_3  and  C8_8 
REMARK    2  A    between atoms: C4_4  and  O9_9 
ROOT
HETATM    1  C1  UNL     1     -33.831   6.464   5.213  1.00 20.00     0.037 C 
HETATM    2  C2  UNL     1     -35.133   6.335   3.527  1.00 20.00     0.037 C 
HETATM    3  C3  UNL     1     -34.175   7.431   4.053  1.00 20.00    -0.002 C 
HETATM    4  C4  UNL     1     -35.200   5.787   4.973  1.00 20.00     0.118 C 
ENDROOT
BRANCH   3   5
HETATM    5  C8  UNL     1     -33.033   7.827   3.139  1.00 20.00    -0.048 C 
HETATM    6  C5  UNL     1     -32.058   8.735   3.903  1.00 20.00     0.015 C 
HETATM    7  C6  UNL     1     -33.589   8.581   1.923  1.00 20.00     0.015 C 
HETATM    8  C7  UNL     1     -32.295   6.567   2.666  1.00 20.00     0.015 C 
ENDBRANCH   3   5
BRANCH   4   9
HETATM    9  O9  UNL     1     -35.225   4.357   5.108  1.00 20.00    -0.396 OA
HETATM   10  H25 UNL     1     -36.136   4.090   4.930  1.00 20.00     0.210 HD
ENDBRANCH   4   9
TORSDOF 2
