REMARK  2 active torsions:
REMARK  status: ('A' for Active; 'I' for Inactive)
REMARK    1  A    between atoms: C2_2  and  C5_5 
REMARK    2  A    between atoms: C5_5  and  C6_6 
ROOT
HETATM    1  C1  UNL     1     -32.922   7.096   3.595  1.00 20.00     0.223 C 
HETATM    2  C2  UNL     1     -33.687   6.806   4.613  1.00 20.00    -0.030 C 
HETATM    3  C3  UNL     1     -33.315   7.179   6.020  1.00 20.00     0.048 C 
HETATM    4  O7  UNL     1     -32.233   7.357   2.679  1.00 20.00    -0.284 OA
ENDROOT
BRANCH   2   5
HETATM    5  C5  UNL     1     -34.996   6.070   4.443  1.00 20.00     0.037 C 
BRANCH   5   6
HETATM    6  C6  UNL     1     -34.828   4.555   4.576  1.00 20.00    -0.000 C 
HETATM    7  C4  UNL     1     -33.890   4.006   3.511  1.00 20.00     0.005 C 
ENDBRANCH   5   6
ENDBRANCH   2   5
TORSDOF 2
