REMARK  0 active torsions:
REMARK  status: ('A' for Active; 'I' for Inactive)
ROOT
HETATM    1  C1  UNL     1     -33.815   6.073   3.866  1.00 20.00     0.048 C 
HETATM    2  C2  UNL     1     -34.446   4.697   3.830  1.00 20.00     0.169 C 
HETATM    3  C3  UNL     1     -34.232   5.342   6.061  1.00 20.00     0.187 C 
HETATM    4  C4  UNL     1     -34.301   6.587   5.200  1.00 20.00     0.108 C 
HETATM    5  O5  UNL     1     -34.491   4.231   5.187  1.00 20.00    -0.390 OA
HETATM    6 CL6  UNL     1     -33.316   7.912   5.824  1.00 20.00    -0.123 Cl
ENDROOT
TORSDOF 0
