REMARK  0 active torsions:
REMARK  status: ('A' for Active; 'I' for Inactive)
ROOT
HETATM    1  C1  UNL     1     -33.569   4.901   2.664  1.00 20.00     0.166 A 
HETATM    2  C2  UNL     1     -33.907   6.465   4.109  1.00 20.00     0.048 A 
HETATM    3  C3  UNL     1     -34.143   5.382   4.907  1.00 20.00     0.008 A 
HETATM    4  C4  UNL     1     -34.068   7.739   4.836  1.00 20.00     0.061 C 
HETATM    5  C5  UNL     1     -34.499   5.725   6.297  1.00 20.00     0.048 C 
HETATM    6  C6  UNL     1     -34.130   7.248   6.323  1.00 20.00     0.011 C 
HETATM    7  N7  UNL     1     -33.575   6.216   2.812  1.00 20.00    -0.257 NA
HETATM    8  S8  UNL     1     -33.961   3.949   4.068  1.00 20.00    -0.085 SA
ENDROOT
TORSDOF 0
