REMARK  1 active torsions:
REMARK  status: ('A' for Active; 'I' for Inactive)
REMARK    1  A    between atoms: C3_3  and  C8_8 
ROOT
HETATM    1  C1  UNL     1     -33.231   7.388   4.801  1.00 20.00     0.017 C 
HETATM    2  C2  UNL     1     -33.585   6.179   3.950  1.00 20.00     0.092 C 
HETATM    3  C3  UNL     1     -32.131   8.071   2.940  1.00 20.00     0.173 C 
HETATM    4  C4  UNL     1     -33.738   7.455   6.214  1.00 20.00     0.066 C 
HETATM    5  C5  UNL     1     -35.069   6.146   3.623  1.00 20.00     0.028 C 
HETATM    6  N9  UNL     1     -32.528   8.370   4.325  1.00 20.00    -0.282 NA
HETATM    7  S10 UNL     1     -32.611   6.398   2.445  1.00 20.00    -0.131 SA
ENDROOT
BRANCH   3   8
HETATM    8  C8  UNL     1     -32.774   9.098   2.017  1.00 20.00     0.012 C 
HETATM    9  C6  UNL     1     -32.349  10.514   2.403  1.00 20.00     0.012 C 
HETATM   10  C7  UNL     1     -32.417   8.813   0.558  1.00 20.00     0.012 C 
ENDBRANCH   3   8
TORSDOF 1
