REMARK  2 active torsions:
REMARK  status: ('A' for Active; 'I' for Inactive)
REMARK    1  A    between atoms: C1_1  and  C8_8 
REMARK    2  A    between atoms: C9_9  and  N10_10 
ROOT
HETATM    1  C1  UNL     1     -33.287   7.295   2.105  1.00 20.00     0.092 C 
HETATM    2  N10 UNL     1     -33.381   7.275   3.391  1.00 20.00    -0.295 NA
ENDROOT
BRANCH   1   3
HETATM    3  C8  UNL     1     -32.549   8.398   1.358  1.00 20.00    -0.018 C 
HETATM    4  C2  UNL     1     -32.650   8.092  -0.141  1.00 20.00     0.020 C 
HETATM    5  C3  UNL     1     -33.257   9.722   1.669  1.00 20.00     0.020 C 
HETATM    6  C4  UNL     1     -31.075   8.490   1.769  1.00 20.00     0.020 C 
ENDBRANCH   1   3
BRANCH   2   7
HETATM    7  C9  UNL     1     -34.133   6.127   3.888  1.00 20.00     0.042 C 
HETATM    8  C5  UNL     1     -33.421   4.851   3.439  1.00 20.00     0.039 C 
HETATM    9  C6  UNL     1     -34.168   6.215   5.414  1.00 20.00     0.039 C 
HETATM   10  C7  UNL     1     -35.548   6.191   3.314  1.00 20.00     0.039 C 
ENDBRANCH   2   7
TORSDOF 2
