REMARK  2 active torsions:
REMARK  status: ('A' for Active; 'I' for Inactive)
REMARK    1  A    between atoms: C3_3  and  C10_10 
REMARK    2  A    between atoms: C7_7  and  C10_10 
ROOT
HETATM    1  C1  UNL     1     -32.907   7.760   4.077  1.00 20.00    -0.024 C 
HETATM    2  C2  UNL     1     -33.685   6.706   3.774  1.00 20.00    -0.087 C 
HETATM    3  C4  UNL     1     -32.124   8.536   3.058  1.00 20.00     0.032 C 
HETATM    4  C5  UNL     1     -33.865   6.229   2.355  1.00 20.00     0.034 C 
HETATM    5  C6  UNL     1     -33.357   7.219   1.302  1.00 20.00     0.010 C 
HETATM    6  C7  UNL     1     -32.004   7.813   1.707  1.00 20.00    -0.001 C 
HETATM    7  C8  UNL     1     -34.423   5.936   4.829  1.00 20.00     0.043 C 
ENDROOT
BRANCH   6   8
HETATM    8  C10 UNL     1     -31.472   8.758   0.632  1.00 20.00     0.047 C 
HETATM    9  C9  UNL     1     -30.073   9.247   0.982  1.00 20.00     0.017 C 
BRANCH   8  10
HETATM   10  C3  UNL     1     -32.446   9.907   0.461  1.00 20.00     0.235 C 
HETATM   11  O11 UNL     1     -32.374  10.976   1.058  1.00 20.00    -0.306 OA
ENDBRANCH   8  10
ENDBRANCH   6   8
TORSDOF 2
