REMARK  1 active torsions:
REMARK  status: ('A' for Active; 'I' for Inactive)
REMARK    1  A    between atoms: C3_3  and  C8_8 
ROOT
HETATM    1  C1  UNL     1     -33.903   6.592   4.787  1.00 20.00     0.017 C 
HETATM    2  C2  UNL     1     -34.755   5.703   3.895  1.00 20.00     0.092 C 
HETATM    3  C3  UNL     1     -32.685   6.905   2.901  1.00 20.00     0.173 C 
HETATM    4  C4  UNL     1     -34.288   6.754   6.231  1.00 20.00     0.066 C 
HETATM    5  C5  UNL     1     -34.640   4.242   4.297  1.00 20.00     0.028 C 
HETATM    6  N9  UNL     1     -32.846   7.195   4.334  1.00 20.00    -0.282 NA
HETATM    7  S10 UNL     1     -34.077   5.955   2.241  1.00 20.00    -0.131 SA
ENDROOT
BRANCH   3   8
HETATM    8  C8  UNL     1     -32.552   8.223   2.152  1.00 20.00     0.012 C 
HETATM    9  C6  UNL     1     -31.361   9.026   2.676  1.00 20.00     0.012 C 
HETATM   10  C7  UNL     1     -32.411   7.981   0.649  1.00 20.00     0.012 C 
ENDBRANCH   3   8
TORSDOF 1
