REMARK  0 active torsions:
REMARK  status: ('A' for Active; 'I' for Inactive)
ROOT
HETATM    1  C1  UNL     1     -34.665   4.361   4.199  1.00 20.00     0.003 C 
HETATM    2  C2  UNL     1     -34.575   4.771   5.668  1.00 20.00     0.003 C 
HETATM    3  C3  UNL     1     -33.572   5.193   3.524  1.00 20.00     0.040 C 
HETATM    4  C4  UNL     1     -34.319   6.279   5.610  1.00 20.00     0.040 C 
HETATM    5  C5  UNL     1     -32.517   7.532   4.139  1.00 20.00     0.207 A 
HETATM    6  C6  UNL     1     -33.544   6.448   4.339  1.00 20.00     0.082 A 
HETATM    7  O7  UNL     1     -33.845   7.647   3.612  1.00 20.00    -0.375 OA
ENDROOT
TORSDOF 0
