REMARK  0 active torsions:
REMARK  status: ('A' for Active; 'I' for Inactive)
ROOT
HETATM    1  C1  UNL     1     -33.031   5.393   2.888  1.00 20.00     0.033 A 
HETATM    2  C2  UNL     1     -33.409   4.138   3.337  1.00 20.00     0.117 A 
HETATM    3  C3  UNL     1     -34.138   4.918   5.398  1.00 20.00     0.136 A 
HETATM    4  C4  UNL     1     -33.284   8.620   4.709  1.00 20.00     0.070 A 
HETATM    5  C5  UNL     1     -33.226   6.477   3.766  1.00 20.00     0.002 A 
HETATM    6  C6  UNL     1     -33.783   6.215   5.021  1.00 20.00     0.034 A 
HETATM    7  C7  UNL     1     -32.944   7.875   3.605  1.00 20.00     0.029 A 
HETATM    8  N8  UNL     1     -33.946   3.887   4.547  1.00 20.00    -0.272 NA
HETATM    9  S9  UNL     1     -33.944   7.656   5.951  1.00 20.00    -0.098 SA
HETATM   10 BR10 UNL     1     -32.187   8.613   2.039  1.00 20.00    -0.050 Br
ENDROOT
TORSDOF 0
