REMARK  2 active torsions:
REMARK  status: ('A' for Active; 'I' for Inactive)
REMARK    1  A    between atoms: C3_3  and  C8_8 
REMARK       I    between atoms: C3_3  and  N10_10 
REMARK    2  A    between atoms: C9_9  and  N10_10 
ROOT
HETATM    1  C1  UNL     1     -32.070   9.123  -0.267  1.00 20.00     0.015 C 
HETATM    2  C2  UNL     1     -32.283   8.963   0.904  1.00 20.00    -0.086 C 
HETATM    3  C6  UNL     1     -31.214   8.665   3.098  1.00 20.00     0.052 C 
HETATM    4  C7  UNL     1     -33.363   9.941   2.888  1.00 20.00     0.052 C 
HETATM    5  C9  UNL     1     -32.545   8.766   2.344  1.00 20.00     0.088 C 
ENDROOT
BRANCH   5   6
HETATM    6  N10 UNL     1     -33.293   7.543   2.524  1.00 20.00    -0.341 N 
HETATM    7  C3  UNL     1     -33.692   7.084   3.771  1.00 20.00     0.222 C 
HETATM    8  O11 UNL     1     -33.458   7.653   4.835  1.00 20.00    -0.273 OA
HETATM    9  H26 UNL     1     -33.537   6.997   1.703  1.00 20.00     0.164 HD
BRANCH   7  10
HETATM   10  C8  UNL     1     -34.465   5.769   3.688  1.00 20.00     0.070 C 
HETATM   11  C4  UNL     1     -34.219   4.935   4.944  1.00 20.00     0.019 C 
HETATM   12  C5  UNL     1     -35.959   6.021   3.499  1.00 20.00     0.019 C 
ENDBRANCH   7  10
ENDBRANCH   5   6
TORSDOF 2
