REMARK  0 active torsions:
REMARK  status: ('A' for Active; 'I' for Inactive)
ROOT
HETATM    1  C1  UNL     1     -34.062   5.490   2.266  1.00 20.00     0.014 A 
HETATM    2  C2  UNL     1     -33.422   6.380   1.401  1.00 20.00     0.024 A 
HETATM    3  C3  UNL     1     -34.826   4.919   4.524  1.00 20.00     0.031 A 
HETATM    4  C4  UNL     1     -33.023   7.892   3.241  1.00 20.00     0.039 A 
HETATM    5  C5  UNL     1     -34.913   5.287   5.858  1.00 20.00     0.119 A 
HETATM    6  C6  UNL     1     -34.190   5.790   3.632  1.00 20.00    -0.021 A 
HETATM    7  C7  UNL     1     -33.665   7.004   4.120  1.00 20.00     0.016 A 
HETATM    8  C8  UNL     1     -32.904   7.578   1.887  1.00 20.00     0.035 A 
HETATM    9  C9  UNL     1     -33.812   7.268   5.484  1.00 20.00     0.136 A 
HETATM   10  N10 UNL     1     -34.422   6.440   6.361  1.00 20.00    -0.248 NA
HETATM   11 CL11 UNL     1     -32.117   8.671   0.815  1.00 20.00    -0.084 Cl
HETATM   12 CL12 UNL     1     -33.232   8.700   6.254  1.00 20.00    -0.061 Cl
ENDROOT
TORSDOF 0
