REMARK  1 active torsions:
REMARK  status: ('A' for Active; 'I' for Inactive)
REMARK    1  A    between atoms: C2_2  and  C4_4 
ROOT
HETATM    1  C1  UNL     1     -31.801   7.937   2.932  1.00 20.00     0.236 A 
HETATM    2  C2  UNL     1     -33.346   6.816   3.947  1.00 20.00     0.199 A 
HETATM    3  C3  UNL     1     -32.709   7.622   4.868  1.00 20.00     0.245 A 
HETATM    4  N5  UNL     1     -32.772   7.019   2.741  1.00 20.00    -0.233 NA
HETATM    5  N6  UNL     1     -31.747   8.318   4.226  1.00 20.00    -0.212 NA
HETATM    6  F7  UNL     1     -32.989   7.705   6.168  1.00 20.00    -0.182 F 
ENDROOT
BRANCH   2   7
HETATM    7  C4  UNL     1     -34.454   5.868   4.114  1.00 20.00     0.439 C 
HETATM    8  F8  UNL     1     -34.933   5.770   5.400  1.00 20.00    -0.164 F 
HETATM    9  F9  UNL     1     -35.570   6.157   3.363  1.00 20.00    -0.164 F 
HETATM   10  F10 UNL     1     -34.130   4.578   3.768  1.00 20.00    -0.164 F 
ENDBRANCH   2   7
TORSDOF 1
