REMARK  3 active torsions:
REMARK  status: ('A' for Active; 'I' for Inactive)
REMARK    1  A    between atoms: C2_2  and  C6_6 
REMARK    2  A    between atoms: C2_2  and  O9_9 
REMARK    3  A    between atoms: C5_5  and  C6_6 
ROOT
HETATM    1  C1  UNL     1     -33.588   5.712   3.122  1.00 20.00     0.074 C 
HETATM    2  C6  UNL     1     -33.599   7.027   3.791  1.00 20.00     0.192 C 
HETATM    3  N7  UNL     1     -33.583   4.680   2.592  1.00 20.00    -0.196 NA
ENDROOT
BRANCH   2   4
HETATM    4  C2  UNL     1     -32.566   7.964   3.188  1.00 20.00     0.276 C 
HETATM    5  O8  UNL     1     -31.673   8.521   3.813  1.00 20.00    -0.264 OA
BRANCH   4   6
HETATM    6  O9  UNL     1     -32.799   8.097   1.847  1.00 20.00    -0.325 OA
HETATM    7  C4  UNL     1     -31.904   8.968   1.148  1.00 20.00     0.213 C 
ENDBRANCH   4   6
ENDBRANCH   2   4
BRANCH   2   8
HETATM    8  C5  UNL     1     -33.415   6.885   5.310  1.00 20.00     0.025 C 
HETATM    9  C3  UNL     1     -34.460   6.008   5.995  1.00 20.00     0.007 C 
ENDBRANCH   2   8
TORSDOF 3
