REMARK  1 active torsions:
REMARK  status: ('A' for Active; 'I' for Inactive)
REMARK    1  A    between atoms: C3_3  and  C6_6 
ROOT
HETATM    1  C1  UNL     1     -34.440   4.555   5.798  1.00 20.00     0.282 C 
HETATM    2  C2  UNL     1     -33.921   3.544   4.788  1.00 20.00     0.106 C 
HETATM    3  C3  UNL     1     -34.795   5.848   3.833  1.00 20.00     0.201 C 
HETATM    4  C4  UNL     1     -35.907   6.013   2.797  1.00 20.00     0.061 C 
HETATM    5  N7  UNL     1     -35.395   5.421   5.105  1.00 20.00     0.103 N 
HETATM    6  S8  UNL     1     -33.653   4.523   3.295  1.00 20.00    -0.127 SA
HETATM    7  H21 UNL     1     -36.231   4.868   4.908  1.00 20.00     0.318 HD
ENDROOT
BRANCH   3   8
HETATM    8  C6  UNL     1     -34.013   7.156   3.996  1.00 20.00     0.048 C 
HETATM    9  C5  UNL     1     -33.383   7.581   2.712  1.00 20.00     0.009 C 
ENDBRANCH   3   8
TORSDOF 1
