REMARK  1 active torsions:
REMARK  status: ('A' for Active; 'I' for Inactive)
REMARK    1  A    between atoms: C5_5  and  O12_12 
ROOT
HETATM    1  C1  UNL     1     -33.008   4.218   2.654  1.00 20.00     0.006 C 
HETATM    2  C2  UNL     1     -33.221   4.061   4.165  1.00 20.00     0.012 C 
HETATM    3  C3  UNL     1     -34.862   5.540   3.265  1.00 20.00     0.017 C 
HETATM    4  C4  UNL     1     -33.624   5.596   2.358  1.00 20.00    -0.003 C 
HETATM    5  C5  UNL     1     -33.080   6.550   4.519  1.00 20.00     0.137 C 
HETATM    6  C6  UNL     1     -34.036   5.323   4.538  1.00 20.00    -0.017 C 
HETATM    7  C7  UNL     1     -32.794   6.758   2.996  1.00 20.00    -0.017 C 
HETATM    8  C8  UNL     1     -34.853   5.158   5.805  1.00 20.00     0.018 C 
HETATM    9  C9  UNL     1     -31.288   6.666   2.704  1.00 20.00     0.018 C 
HETATM   10  C10 UNL     1     -33.287   8.113   2.448  1.00 20.00     0.018 C 
ENDROOT
BRANCH   5  11
HETATM   11  O12 UNL     1     -33.708   7.679   5.111  1.00 20.00    -0.389 OA
HETATM   12  C11 UNL     1     -32.755   8.651   5.522  1.00 20.00     0.202 C 
ENDBRANCH   5  11
TORSDOF 1
