REMARK  2 active torsions:
REMARK  status: ('A' for Active; 'I' for Inactive)
REMARK    1  A    between atoms: C1_1  and  C3_3 
REMARK    2  A    between atoms: C2_2  and  C9_9 
ROOT
HETATM    1  C1  UNL     1     -32.645   7.675   3.680  1.00 20.00    -0.071 C 
HETATM    2  C2  UNL     1     -33.452   6.820   3.924  1.00 20.00    -0.095 C 
ENDROOT
BRANCH   1   3
HETATM    3  C3  UNL     1     -31.662   8.716   3.383  1.00 20.00     0.229 A 
HETATM    4  C4  UNL     1     -31.887   9.668   2.257  1.00 20.00     0.160 A 
HETATM    5  C5  UNL     1     -33.089   9.668   1.381  1.00 20.00     0.043 C 
HETATM    6  O10 UNL     1     -31.046   8.519   2.114  1.00 20.00    -0.363 OA
ENDBRANCH   1   3
BRANCH   2   7
HETATM    7  C9  UNL     1     -34.446   5.765   4.223  1.00 20.00     0.013 C 
HETATM    8  C6  UNL     1     -33.825   4.387   3.956  1.00 20.00     0.028 C 
HETATM    9  C7  UNL     1     -35.678   5.956   3.327  1.00 20.00     0.028 C 
HETATM   10  C8  UNL     1     -34.864   5.862   5.698  1.00 20.00     0.028 C 
ENDBRANCH   2   7
TORSDOF 2
