REMARK  0 active torsions:
REMARK  status: ('A' for Active; 'I' for Inactive)
ROOT
HETATM    1  C1  UNL     1     -33.229   6.928   4.326  1.00 20.00     0.139 C 
HETATM    2  C2  UNL     1     -32.478   6.744   2.991  1.00 20.00     0.057 C 
HETATM    3  C3  UNL     1     -33.529   5.644   2.636  1.00 20.00     0.007 C 
HETATM    4  C4  UNL     1     -34.023   5.599   4.136  1.00 20.00     0.018 C 
HETATM    5  C5  UNL     1     -32.448   7.955   2.079  1.00 20.00     0.018 C 
HETATM    6  C6  UNL     1     -32.968   4.381   2.002  1.00 20.00     0.012 C 
HETATM    7  C7  UNL     1     -33.501   4.469   5.021  1.00 20.00     0.023 C 
HETATM    8  C8  UNL     1     -35.535   5.763   4.274  1.00 20.00     0.023 C 
HETATM    9  O9  UNL     1     -33.200   7.776   5.193  1.00 20.00    -0.297 OA
ENDROOT
TORSDOF 0
