REMARK  0 active torsions:
REMARK  status: ('A' for Active; 'I' for Inactive)
ROOT
HETATM    1  C1  UNL     1     -34.040   6.044   5.472  1.00 20.00     0.116 C 
HETATM    2  C2  UNL     1     -32.951   7.606   3.662  1.00 20.00     0.344 C 
HETATM    3  C3  UNL     1     -34.276   5.654   4.003  1.00 20.00     0.159 C 
HETATM    4  C4  UNL     1     -34.245   4.124   3.857  1.00 20.00     0.049 C 
HETATM    5  C5  UNL     1     -35.630   6.165   3.477  1.00 20.00     0.049 C 
HETATM    6  N6  UNL     1     -33.161   6.227   3.215  1.00 20.00     0.102 N 
HETATM    7  S7  UNL     1     -33.340   7.712   5.423  1.00 20.00    -0.137 SA
HETATM    8  H18 UNL     1     -33.439   6.254   2.238  1.00 20.00     0.317 HD
ENDROOT
TORSDOF 0
