REMARK  0 active torsions:
REMARK  status: ('A' for Active; 'I' for Inactive)
ROOT
HETATM    1  C1  UNL     1     -32.247   7.570   2.514  1.00 20.00     0.094 C 
HETATM    2  C2  UNL     1     -34.925   5.756   5.715  1.00 20.00     0.003 C 
HETATM    3  C3  UNL     1     -34.192   4.425   5.576  1.00 20.00     0.003 C 
HETATM    4  C4  UNL     1     -34.134   6.699   4.805  1.00 20.00     0.042 C 
HETATM    5  C5  UNL     1     -33.839   4.357   4.088  1.00 20.00     0.042 C 
HETATM    6  C6  UNL     1     -32.729   6.227   2.588  1.00 20.00     0.263 A 
HETATM    7  C7  UNL     1     -33.652   5.797   3.707  1.00 20.00     0.101 A 
HETATM    8  N8  UNL     1     -31.855   8.661   2.454  1.00 20.00    -0.194 NA
HETATM    9  O9  UNL     1     -34.147   6.129   2.403  1.00 20.00    -0.354 OA
ENDROOT
TORSDOF 0
