REMARK  2 active torsions:
REMARK  status: ('A' for Active; 'I' for Inactive)
REMARK    1  A    between atoms: C1_1  and  C6_6 
REMARK    2  A    between atoms: C1_1  and  O9_9 
ROOT
HETATM    1  C2  UNL     1     -32.622  10.234   1.591  1.00 20.00     0.024 C 
HETATM    2  C3  UNL     1     -31.545   8.710   0.583  1.00 20.00     0.024 C 
HETATM    3  C4  UNL     1     -33.665   8.728   0.522  1.00 20.00     0.024 C 
HETATM    4  C5  UNL     1     -32.583   9.778   0.091  1.00 20.00    -0.011 C 
HETATM    5  C6  UNL     1     -32.638   8.678   1.695  1.00 20.00     0.049 C 
ENDROOT
BRANCH   5   6
HETATM    6  C1  UNL     1     -32.678   7.840   2.921  1.00 20.00     0.267 C 
HETATM    7  O8  UNL     1     -31.823   7.865   3.796  1.00 20.00    -0.264 OA
BRANCH   6   8
HETATM    8  O9  UNL     1     -33.797   7.062   2.904  1.00 20.00    -0.326 OA
HETATM    9  C7  UNL     1     -33.962   6.199   4.034  1.00 20.00     0.213 C 
ENDBRANCH   6   8
ENDBRANCH   5   6
TORSDOF 2
