REMARK  0 active torsions:
REMARK  status: ('A' for Active; 'I' for Inactive)
ROOT
HETATM    1  C1  UNL     1     -31.686   8.986   2.687  1.00 20.00     0.045 C 
HETATM    2  C2  UNL     1     -32.692   8.670   1.848  1.00 20.00     0.011 C 
HETATM    3  C3  UNL     1     -31.662   8.515   4.095  1.00 20.00     0.028 C 
HETATM    4  C4  UNL     1     -33.837   7.779   2.319  1.00 20.00     0.059 C 
HETATM    5  C5  UNL     1     -32.835   7.723   4.625  1.00 20.00     0.067 C 
HETATM    6  C6  UNL     1     -33.499   6.876   3.530  1.00 20.00    -0.038 C 
HETATM    7  C7  UNL     1     -34.801   6.267   4.084  1.00 20.00     0.015 C 
HETATM    8  C8  UNL     1     -32.573   5.717   3.106  1.00 20.00     0.015 C 
HETATM    9  N9  UNL     1     -30.687   8.787   4.901  1.00 20.00    -0.305 NA
HETATM   10  S10 UNL     1     -32.835   9.204   0.185  1.00 20.00    -0.085 SA
HETATM   11  H22 UNL     1     -30.881   8.364   5.812  1.00 20.00     0.186 HD
ENDROOT
TORSDOF 0
