REMARK  1 active torsions:
REMARK  status: ('A' for Active; 'I' for Inactive)
REMARK    1  A    between atoms: C4_4  and  C5_5 
ROOT
HETATM    1  C1  UNL     1     -33.079   7.548   3.864  1.00 20.00     0.127 C 
HETATM    2  C2  UNL     1     -33.285   7.525   2.340  1.00 20.00     0.084 C 
HETATM    3  C3  UNL     1     -31.701   8.218   3.727  1.00 20.00     0.084 C 
HETATM    4  C4  UNL     1     -32.044   8.455   2.229  1.00 20.00     0.013 C 
HETATM    5  O6  UNL     1     -33.748   7.187   4.808  1.00 20.00    -0.298 OA
ENDROOT
BRANCH   4   6
HETATM    6  C5  UNL     1     -32.353   9.898   1.861  1.00 20.00     0.120 C 
HETATM    7 CL7  UNL     1     -32.612  10.050   0.111  1.00 20.00    -0.130 Cl
ENDBRANCH   4   6
TORSDOF 1
