REMARK  4 active torsions:
REMARK  status: ('A' for Active; 'I' for Inactive)
REMARK    1  A    between atoms: C1_1  and  C6_6 
REMARK    2  A    between atoms: C1_1  and  C9_9 
REMARK    3  A    between atoms: C7_7  and  C8_8 
REMARK    4  A    between atoms: C8_8  and  N10_10 
ROOT
HETATM    1  C1  UNL     1     -33.534   6.962   3.545  1.00 20.00     0.009 C 
HETATM    2  N10 UNL     1     -32.571   7.821   3.567  1.00 20.00    -0.298 NA
ENDROOT
BRANCH   1   3
HETATM    3  C6  UNL     1     -33.916   6.107   2.347  1.00 20.00     0.050 C 
HETATM    4  C2  UNL     1     -33.136   4.805   2.351  1.00 20.00     0.011 C 
ENDBRANCH   1   3
BRANCH   1   5
HETATM    5  C9  UNL     1     -34.357   6.768   4.821  1.00 20.00     0.025 C 
HETATM    6  C4  UNL     1     -33.876   7.732   5.901  1.00 20.00     0.016 C 
HETATM    7  C5  UNL     1     -34.291   5.320   5.295  1.00 20.00     0.016 C 
ENDBRANCH   1   5
BRANCH   2   8
HETATM    8  C8  UNL     1     -31.758   8.022   2.380  1.00 20.00     0.148 C 
BRANCH   8   9
HETATM    9  C7  UNL     1     -32.368   9.118   1.515  1.00 20.00     0.017 C 
HETATM   10  C3  UNL     1     -31.570   9.372   0.244  1.00 20.00     0.007 C 
ENDBRANCH   8   9
ENDBRANCH   2   8
TORSDOF 4
