REMARK  2 active torsions:
REMARK  status: ('A' for Active; 'I' for Inactive)
REMARK    1  A    between atoms: C1_1  and  C7_7 
REMARK    2  A    between atoms: C6_6  and  N8_8 
ROOT
HETATM    1  C1  UNL     1     -33.489   6.904   2.848  1.00 20.00     0.108 C 
HETATM    2  N8  UNL     1     -32.918   8.059   2.899  1.00 20.00    -0.299 NA
ENDROOT
BRANCH   1   3
HETATM    3  C7  UNL     1     -33.874   6.136   4.098  1.00 20.00     0.063 C 
HETATM    4  C4  UNL     1     -35.383   5.905   4.094  1.00 20.00     0.038 C 
HETATM    5  C5  UNL     1     -33.432   6.822   5.389  1.00 20.00     0.038 C 
HETATM    6 CL9  UNL     1     -33.037   4.557   3.962  1.00 20.00    -0.114 Cl
ENDBRANCH   1   3
BRANCH   2   7
HETATM    7  C6  UNL     1     -32.633   8.613   1.579  1.00 20.00     0.099 C 
HETATM    8  C2  UNL     1     -32.712  10.131   1.653  1.00 20.00     0.034 C 
HETATM    9  C3  UNL     1     -31.258   8.141   1.131  1.00 20.00     0.034 C 
ENDBRANCH   2   7
TORSDOF 2
