REMARK  2 active torsions:
REMARK  status: ('A' for Active; 'I' for Inactive)
REMARK    1  A    between atoms: C2_2  and  C4_4 
REMARK    2  A    between atoms: C4_4  and  S5_5 
ROOT
HETATM    1  C1  UNL     1     -34.651   5.775   2.997  1.00 20.00     0.051 A 
HETATM    2  C2  UNL     1     -34.377   6.822   4.042  1.00 20.00     0.036 A 
HETATM    3  C3  UNL     1     -35.154   5.577   4.406  1.00 20.00     0.118 A 
HETATM    4 CL6  UNL     1     -36.886   5.749   4.691  1.00 20.00    -0.101 Cl
HETATM    5 CL7  UNL     1     -34.413   4.313   5.378  1.00 20.00    -0.101 Cl
ENDROOT
BRANCH   2   6
HETATM    6  C4  UNL     1     -32.980   7.065   4.503  1.00 20.00     0.078 C 
BRANCH   6   7
HETATM    7  S5  UNL     1     -32.069   8.120   3.328  1.00 20.00    -0.182 SA
HETATM    8  H13 UNL     1     -30.921   8.130   4.018  1.00 20.00     0.101 HD
ENDBRANCH   6   7
ENDBRANCH   2   6
TORSDOF 2
