REMARK  1 active torsions:
REMARK  status: ('A' for Active; 'I' for Inactive)
REMARK    1  A    between atoms: C2_2  and  C5_5 
ROOT
HETATM    1  C1  UNL     1     -32.456   5.841   1.554  1.00 20.00     0.065 A 
HETATM    2  C2  UNL     1     -32.949   6.870   2.328  1.00 20.00     0.015 A 
HETATM    3  C3  UNL     1     -33.539   6.397   3.539  1.00 20.00    -0.031 A 
HETATM    4  C4  UNL     1     -33.471   5.019   3.627  1.00 20.00    -0.010 A 
HETATM    5  C6  UNL     1     -34.186   7.232   4.600  1.00 20.00     0.040 C 
HETATM    6  C7  UNL     1     -33.973   4.206   4.779  1.00 20.00     0.046 C 
HETATM    7  C8  UNL     1     -34.363   6.451   5.911  1.00 20.00     0.005 C 
HETATM    8  C9  UNL     1     -34.917   5.041   5.659  1.00 20.00     0.005 C 
HETATM    9  S11 UNL     1     -32.704   4.312   2.282  1.00 20.00    -0.105 SA
ENDROOT
BRANCH   2  10
HETATM   10  C5  UNL     1     -32.856   8.246   1.914  1.00 20.00     0.271 C 
HETATM   11  O10 UNL     1     -32.335   8.610   0.847  1.00 20.00    -0.301 OA
ENDBRANCH   2  10
TORSDOF 1
