REMARK  3 active torsions:
REMARK  status: ('A' for Active; 'I' for Inactive)
REMARK    1  A    between atoms: C1_1  and  C3_3 
REMARK       I    between atoms: C1_1  and  N10_10 
REMARK    2  A    between atoms: C8_8  and  C9_9 
REMARK    3  A    between atoms: C8_8  and  N10_10 
ROOT
HETATM    1  C1  UNL     1     -32.771   7.875   3.210  1.00 20.00     0.222 C 
HETATM    2  N10 UNL     1     -32.828   8.139   1.874  1.00 20.00    -0.360 N 
HETATM    3  O11 UNL     1     -31.805   7.991   3.955  1.00 20.00    -0.273 OA
HETATM    4  H28 UNL     1     -33.691   7.997   1.388  1.00 20.00     0.162 HD
ENDROOT
BRANCH   1   5
HETATM    5  C3  UNL     1     -34.072   7.394   3.761  1.00 20.00     0.082 A 
HETATM    6  C2  UNL     1     -34.059   6.577   5.014  1.00 20.00     0.019 A 
HETATM    7  C4  UNL     1     -34.421   5.939   3.703  1.00 20.00    -0.005 A 
HETATM    8  C5  UNL     1     -33.524   4.912   3.101  1.00 20.00     0.011 C 
ENDBRANCH   1   5
BRANCH   2   9
HETATM    9  C8  UNL     1     -31.652   8.630   1.122  1.00 20.00     0.126 C 
BRANCH   9  10
HETATM   10  C9  UNL     1     -31.916   9.997   0.480  1.00 20.00    -0.005 C 
HETATM   11  C6  UNL     1     -33.085   9.960  -0.505  1.00 20.00     0.011 C 
HETATM   12  C7  UNL     1     -32.128  11.091   1.527  1.00 20.00     0.011 C 
ENDBRANCH   9  10
ENDBRANCH   2   9
TORSDOF 3
