REMARK  3 active torsions:
REMARK  status: ('A' for Active; 'I' for Inactive)
REMARK    1  A    between atoms: C1_1  and  C3_3 
REMARK       I    between atoms: C1_1  and  N10_10 
REMARK    2  A    between atoms: C8_8  and  C9_9 
REMARK    3  A    between atoms: C8_8  and  N10_10 
ROOT
HETATM    1  C1  UNL     1     -32.132   7.864   3.511  1.00 20.00     0.222 C 
HETATM    2  N10 UNL     1     -32.414   7.887   2.177  1.00 20.00    -0.360 N 
HETATM    3  O11 UNL     1     -31.294   8.527   4.110  1.00 20.00    -0.273 OA
HETATM    4  H28 UNL     1     -33.131   7.287   1.822  1.00 20.00     0.162 HD
ENDROOT
BRANCH   1   5
HETATM    5  C3  UNL     1     -32.985   6.899   4.266  1.00 20.00     0.082 A 
HETATM    6  C2  UNL     1     -33.760   7.402   5.441  1.00 20.00     0.019 A 
HETATM    7  C4  UNL     1     -34.471   7.038   4.169  1.00 20.00    -0.005 A 
HETATM    8  C5  UNL     1     -35.320   5.815   4.109  1.00 20.00     0.011 C 
ENDBRANCH   1   5
BRANCH   2   9
HETATM    9  C8  UNL     1     -31.690   8.774   1.239  1.00 20.00     0.126 C 
BRANCH   9  10
HETATM   10  C9  UNL     1     -32.638   9.749   0.531  1.00 20.00    -0.005 C 
HETATM   11  C6  UNL     1     -33.711   9.026  -0.285  1.00 20.00     0.011 C 
HETATM   12  C7  UNL     1     -33.278  10.738   1.506  1.00 20.00     0.011 C 
ENDBRANCH   9  10
ENDBRANCH   2   9
TORSDOF 3
