REMARK  0 active torsions:
REMARK  status: ('A' for Active; 'I' for Inactive)
ROOT
HETATM    1  C1  UNL     1     -34.829   4.873   5.786  1.00 20.00     0.137 A 
HETATM    2  C2  UNL     1     -34.147   6.052   6.038  1.00 20.00     0.118 A 
HETATM    3  C3  UNL     1     -34.215   5.570   3.901  1.00 20.00     0.177 A 
HETATM    4  C4  UNL     1     -33.067   7.546   4.282  1.00 20.00     0.112 A 
HETATM    5  C5  UNL     1     -32.974   7.469   2.941  1.00 20.00    -0.002 A 
HETATM    6  C6  UNL     1     -32.293   8.447   2.050  1.00 20.00     0.058 C 
HETATM    7  N7  UNL     1     -34.868   4.576   4.436  1.00 20.00    -0.235 NA
HETATM    8  N8  UNL     1     -33.761   6.481   4.805  1.00 20.00    -0.309 N 
HETATM    9  S9  UNL     1     -33.777   6.019   2.283  1.00 20.00    -0.055 SA
ENDROOT
TORSDOF 0
