REMARK  1 active torsions:
REMARK  status: ('A' for Active; 'I' for Inactive)
REMARK    1  A    between atoms: C1_1  and  C4_4 
ROOT
HETATM    1  C2  UNL     1     -33.835   7.665   5.164  1.00 20.00     0.023 C 
HETATM    2  C3  UNL     1     -34.263   6.975   6.447  1.00 20.00     0.075 C 
HETATM    3  C4  UNL     1     -33.335   6.567   4.231  1.00 20.00     0.066 C 
HETATM    4  C5  UNL     1     -34.418   5.471   4.189  1.00 20.00     0.010 C 
HETATM    5  C6  UNL     1     -35.619   5.796   3.289  1.00 20.00     0.027 C 
HETATM    6  C7  UNL     1     -33.829   4.111   3.808  1.00 20.00     0.027 C 
HETATM    7  S9  UNL     1     -35.021   5.411   5.927  1.00 20.00    -0.159 SA
ENDROOT
BRANCH   3   8
HETATM    8  C1  UNL     1     -33.010   7.124   2.878  1.00 20.00     0.237 C 
HETATM    9  O8  UNL     1     -33.168   8.302   2.576  1.00 20.00    -0.306 OA
ENDBRANCH   3   8
TORSDOF 1
