REMARK  2 active torsions:
REMARK  status: ('A' for Active; 'I' for Inactive)
REMARK    1  A    between atoms: C5_5  and  C6_6 
REMARK    2  A    between atoms: C7_7  and  N9_9 
ROOT
HETATM    1  C1  UNL     1     -33.177   7.518   2.450  1.00 20.00     0.079 C 
HETATM    2  C7  UNL     1     -33.854   6.242   2.202  1.00 20.00     0.252 C 
HETATM    3  N8  UNL     1     -32.641   8.528   2.644  1.00 20.00    -0.196 NA
ENDROOT
BRANCH   2   4
HETATM    4  N9  UNL     1     -34.003   5.465   3.413  1.00 20.00    -0.341 N 
HETATM    5  C4  UNL     1     -33.984   4.096   3.466  1.00 20.00     0.092 A 
HETATM    6  C2  UNL     1     -34.155   3.722   4.781  1.00 20.00     0.020 A 
HETATM    7  C3  UNL     1     -34.281   4.909   5.545  1.00 20.00     0.034 A 
HETATM    8  C5  UNL     1     -34.183   5.971   4.674  1.00 20.00     0.073 A 
BRANCH   8   9
HETATM    9  C6  UNL     1     -34.254   7.366   4.987  1.00 20.00     0.288 C 
HETATM   10  O10 UNL     1     -33.890   7.855   6.075  1.00 20.00    -0.300 OA
ENDBRANCH   8   9
ENDBRANCH   2   4
TORSDOF 2
