REMARK  3 active torsions:
REMARK  status: ('A' for Active; 'I' for Inactive)
REMARK    1  A    between atoms: C1_1  and  N8_8 
REMARK    2  A    between atoms: C6_6  and  C7_7 
REMARK    3  A    between atoms: C6_6  and  N8_8 
ROOT
HETATM    1  C2  UNL     1     -33.619   6.900   5.681  1.00 20.00     0.033 C 
HETATM    2  C6  UNL     1     -33.584   6.976   4.153  1.00 20.00     0.087 C 
ENDROOT
BRANCH   2   3
HETATM    3  C7  UNL     1     -33.891   5.630   3.418  1.00 20.00    -0.031 C 
HETATM    4  C3  UNL     1     -35.128   5.735   2.506  1.00 20.00     0.016 C 
HETATM    5  C4  UNL     1     -32.685   5.201   2.558  1.00 20.00     0.016 C 
HETATM    6  C5  UNL     1     -34.144   4.514   4.456  1.00 20.00     0.016 C 
ENDBRANCH   2   3
BRANCH   2   7
HETATM    7  N8  UNL     1     -32.314   7.540   3.742  1.00 20.00    -0.363 N 
HETATM    8  H24 UNL     1     -31.488   7.310   4.282  1.00 20.00     0.162 HD
BRANCH   7   9
HETATM    9  C1  UNL     1     -32.175   8.370   2.655  1.00 20.00     0.348 C 
HETATM   10  O9  UNL     1     -33.046   8.759   1.887  1.00 20.00    -0.284 OA
ENDBRANCH   7   9
ENDBRANCH   2   7
TORSDOF 3
