REMARK  1 active torsions:
REMARK  status: ('A' for Active; 'I' for Inactive)
REMARK    1  A    between atoms: C3_3  and  C7_7 
ROOT
HETATM    1  C1  UNL     1     -34.516   4.492   5.409  1.00 20.00    -0.030 C 
HETATM    2  C2  UNL     1     -34.124   5.613   6.030  1.00 20.00    -0.025 C 
HETATM    3  C4  UNL     1     -34.274   4.229   3.955  1.00 20.00     0.028 C 
HETATM    4  C5  UNL     1     -33.284   5.214   3.327  1.00 20.00     0.021 C 
HETATM    5  C6  UNL     1     -33.420   6.755   5.333  1.00 20.00     0.018 C 
HETATM    6  C7  UNL     1     -33.527   6.671   3.777  1.00 20.00     0.016 C 
HETATM    7  C8  UNL     1     -33.913   8.093   5.899  1.00 20.00     0.015 C 
HETATM    8  C9  UNL     1     -34.870   7.185   3.227  1.00 20.00     0.023 C 
ENDROOT
BRANCH   6   9
HETATM    9  C3  UNL     1     -32.431   7.504   3.157  1.00 20.00     0.241 C 
HETATM   10  O10 UNL     1     -32.642   8.432   2.384  1.00 20.00    -0.306 OA
ENDBRANCH   6   9
TORSDOF 1
