REMARK  1 active torsions:
REMARK  status: ('A' for Active; 'I' for Inactive)
REMARK    1  A    between atoms: C3_3  and  C7_7 
ROOT
HETATM    1  C1  UNL     1     -34.555   5.377   3.212  1.00 20.00    -0.030 C 
HETATM    2  C2  UNL     1     -34.840   6.254   4.184  1.00 20.00    -0.025 C 
HETATM    3  C4  UNL     1     -33.243   5.337   2.494  1.00 20.00     0.028 C 
HETATM    4  C5  UNL     1     -32.161   6.217   3.131  1.00 20.00     0.021 C 
HETATM    5  C6  UNL     1     -33.882   7.319   4.666  1.00 20.00     0.018 C 
HETATM    6  C7  UNL     1     -32.711   7.556   3.662  1.00 20.00     0.016 C 
HETATM    7  C8  UNL     1     -33.427   6.945   6.083  1.00 20.00     0.015 C 
HETATM    8  C9  UNL     1     -31.566   8.383   4.267  1.00 20.00     0.023 C 
ENDROOT
BRANCH   6   9
HETATM    9  C3  UNL     1     -33.217   8.376   2.494  1.00 20.00     0.241 C 
HETATM   10  O10 UNL     1     -32.506   8.733   1.560  1.00 20.00    -0.306 OA
ENDBRANCH   6   9
TORSDOF 1
