REMARK  3 active torsions:
REMARK  status: ('A' for Active; 'I' for Inactive)
REMARK    1  A    between atoms: C1_1  and  C3_3 
REMARK    2  A    between atoms: C2_2  and  C8_8 
REMARK    3  A    between atoms: C3_3  and  O10_10 
ROOT
HETATM    1  C1  UNL     1     -32.405   6.756   2.294  1.00 20.00     0.079 C 
HETATM    2  C2  UNL     1     -32.987   7.934   2.022  1.00 20.00    -0.012 C 
ENDROOT
BRANCH   1   3
HETATM    3  C3  UNL     1     -33.147   5.727   3.056  1.00 20.00     0.282 C 
HETATM    4  O9  UNL     1     -33.003   4.520   2.943  1.00 20.00    -0.260 OA
BRANCH   3   5
HETATM    5  O10 UNL     1     -34.005   6.372   3.892  1.00 20.00    -0.323 OA
HETATM    6  C7  UNL     1     -34.814   5.527   4.717  1.00 20.00     0.213 C 
ENDBRANCH   3   5
ENDBRANCH   1   3
BRANCH   2   7
HETATM    7  C8  UNL     1     -32.379   9.101   1.254  1.00 20.00    -0.034 C 
HETATM    8  C4  UNL     1     -32.282  10.408   2.062  1.00 20.00     0.018 C 
HETATM    9  C5  UNL     1     -30.962   8.697   0.808  1.00 20.00     0.018 C 
HETATM   10  C6  UNL     1     -33.244   9.360   0.008  1.00 20.00     0.018 C 
ENDBRANCH   2   7
TORSDOF 3
