REMARK  2 active torsions:
REMARK  status: ('A' for Active; 'I' for Inactive)
REMARK    1  A    between atoms: C2_2  and  C6_6 
REMARK    2  A    between atoms: C3_3  and  C7_7 
ROOT
HETATM    1  C1  UNL     1     -33.007   6.592   1.751  1.00 20.00     0.100 A 
HETATM    2  C2  UNL     1     -32.241   7.553   2.628  1.00 20.00     0.089 A 
HETATM    3  C3  UNL     1     -34.194   6.172   3.626  1.00 20.00     0.168 A 
HETATM    4  N8  UNL     1     -33.994   5.880   2.196  1.00 20.00    -0.289 NA
HETATM    5  S9  UNL     1     -32.956   7.330   4.266  1.00 20.00    -0.132 SA
ENDROOT
BRANCH   2   6
HETATM    6  C6  UNL     1     -32.426   8.977   2.133  1.00 20.00     0.016 C 
HETATM    7  C4  UNL     1     -31.918   9.156   0.737  1.00 20.00     0.006 C 
ENDBRANCH   2   6
BRANCH   3   8
HETATM    8  C7  UNL     1     -34.133   4.863   4.401  1.00 20.00     0.033 C 
HETATM    9  C5  UNL     1     -34.368   5.069   5.863  1.00 20.00     0.008 C 
ENDBRANCH   3   8
TORSDOF 2
