REMARK  0 active torsions:
REMARK  status: ('A' for Active; 'I' for Inactive)
ROOT
HETATM    1  C1  UNL     1     -32.904   7.606   2.408  1.00 20.00     0.037 C 
HETATM    2  C2  UNL     1     -33.484   5.717   3.241  1.00 20.00     0.017 C 
HETATM    3  C3  UNL     1     -32.319   8.455   1.557  1.00 20.00    -0.063 C 
HETATM    4  C4  UNL     1     -34.009   7.988   3.349  1.00 20.00     0.074 C 
HETATM    5  C5  UNL     1     -34.596   6.623   3.735  1.00 20.00    -0.002 C 
HETATM    6  C6  UNL     1     -33.448   4.255   3.562  1.00 20.00     0.066 C 
HETATM    7  C7  UNL     1     -31.216   8.024   0.633  1.00 20.00     0.045 C 
HETATM    8  C8  UNL     1     -32.723   9.899   1.467  1.00 20.00     0.045 C 
HETATM    9  C9  UNL     1     -34.817   6.512   5.240  1.00 20.00     0.021 C 
HETATM   10  C10 UNL     1     -35.887   6.330   2.966  1.00 20.00     0.021 C 
HETATM   11  N11 UNL     1     -32.580   6.276   2.497  1.00 20.00    -0.262 NA
ENDROOT
TORSDOF 0
