REMARK  3 active torsions:
REMARK  status: ('A' for Active; 'I' for Inactive)
REMARK    1  A    between atoms: C1_1  and  C5_5 
REMARK    2  A    between atoms: C6_6  and  C8_8 
REMARK    3  A    between atoms: C8_8  and  C9_9 
ROOT
HETATM    1  C2  UNL     1     -34.202   7.719   2.937  1.00 20.00     0.028 C 
HETATM    2  C3  UNL     1     -32.713   6.588   1.923  1.00 20.00     0.028 C 
HETATM    3  C4  UNL     1     -32.283   7.458   3.815  1.00 20.00     0.028 C 
HETATM    4  C5  UNL     1     -33.369   6.471   3.321  1.00 20.00     0.038 C 
HETATM    5  C6  UNL     1     -32.745   8.086   2.437  1.00 20.00    -0.037 C 
ENDROOT
BRANCH   4   6
HETATM    6  C1  UNL     1     -33.848   5.235   3.995  1.00 20.00     0.227 C 
HETATM    7  O10 UNL     1     -33.754   4.132   3.463  1.00 20.00    -0.279 OA
HETATM    8 CL11 UNL     1     -34.525   5.564   5.561  1.00 20.00    -0.043 Cl
ENDBRANCH   4   6
BRANCH   5   9
HETATM    9  C8  UNL     1     -32.270   9.314   1.764  1.00 20.00     0.009 C 
BRANCH   9  10
HETATM   10  C9  UNL     1     -33.251   9.830   0.691  1.00 20.00    -0.004 C 
HETATM   11  C7  UNL     1     -33.470   8.836  -0.438  1.00 20.00     0.005 C 
ENDBRANCH   9  10
ENDBRANCH   5   9
TORSDOF 3
