REMARK  2 active torsions:
REMARK  status: ('A' for Active; 'I' for Inactive)
REMARK    1  A    between atoms: C2_2  and  C7_7 
REMARK    2  A    between atoms: C3_3  and  C7_7 
ROOT
HETATM    1  C6  UNL     1     -33.494   7.587   5.824  1.00 20.00     0.022 C 
HETATM    2  C7  UNL     1     -33.848   7.112   4.418  1.00 20.00     0.073 C 
ENDROOT
BRANCH   2   3
HETATM    3  C2  UNL     1     -32.703   7.315   3.467  1.00 20.00    -0.019 C 
HETATM    4  C1  UNL     1     -32.782   8.073   2.363  1.00 20.00    -0.034 C 
HETATM    5  C4  UNL     1     -31.647   8.281   1.415  1.00 20.00     0.036 C 
ENDBRANCH   2   3
BRANCH   2   6
HETATM    6  C3  UNL     1     -34.180   5.624   4.414  1.00 20.00     0.130 C 
HETATM    7  C5  UNL     1     -34.742   5.050   5.691  1.00 20.00     0.091 C 
HETATM    8  O8  UNL     1     -33.967   4.904   3.438  1.00 20.00    -0.298 OA
ENDBRANCH   2   6
TORSDOF 2
