REMARK  0 active torsions:
REMARK  status: ('A' for Active; 'I' for Inactive)
ROOT
HETATM    1  C1  UNL     1     -33.668   4.162   3.435  1.00 20.00     0.149 C 
HETATM    2  C2  UNL     1     -34.302   4.000   4.604  1.00 20.00     0.010 C 
HETATM    3  C3  UNL     1     -34.780   5.171   5.407  1.00 20.00     0.050 C 
HETATM    4  C4  UNL     1     -34.754   6.443   4.560  1.00 20.00     0.032 C 
HETATM    5  C5  UNL     1     -33.476   6.494   3.732  1.00 20.00     0.174 C 
HETATM    6  O6  UNL     1     -33.339   5.364   2.860  1.00 20.00    -0.362 OA
HETATM    7 BR7  UNL     1     -34.690   2.318   5.306  1.00 20.00    -0.054 Br
ENDROOT
TORSDOF 0
