REMARK  0 active torsions:
REMARK  status: ('A' for Active; 'I' for Inactive)
ROOT
HETATM    1  C1  UNL     1     -32.962   7.250   2.207  1.00 20.00     0.099 C 
HETATM    2  C2  UNL     1     -33.966   4.093   3.711  1.00 20.00    -0.026 C 
HETATM    3  C3  UNL     1     -33.623   4.961   2.749  1.00 20.00     0.019 C 
HETATM    4  C4  UNL     1     -34.783   4.509   4.898  1.00 20.00     0.057 C 
HETATM    5  C5  UNL     1     -35.376   5.919   4.747  1.00 20.00     0.277 C 
HETATM    6  C6  UNL     1     -34.020   6.418   2.809  1.00 20.00     0.350 C 
HETATM    7  C7  UNL     1     -33.333   7.183   5.066  1.00 20.00     0.312 C 
HETATM    8  N8  UNL     1     -32.130   7.905   1.733  1.00 20.00    -0.195 NA
HETATM    9  N9  UNL     1     -34.441   6.891   4.151  1.00 20.00     0.106 N 
ENDROOT
TORSDOF 0
