REMARK  1 active torsions:
REMARK  status: ('A' for Active; 'I' for Inactive)
REMARK    1  A    between atoms: C3_3  and  C6_6 
ROOT
HETATM    1  C1  UNL     1     -34.490   5.332   5.700  1.00 20.00    -0.030 C 
HETATM    2  C2  UNL     1     -34.250   4.380   4.795  1.00 20.00    -0.030 C 
HETATM    3  C4  UNL     1     -34.650   6.676   5.070  1.00 20.00     0.038 C 
HETATM    4  C5  UNL     1     -34.208   4.923   3.405  1.00 20.00     0.038 C 
HETATM    5  C6  UNL     1     -34.240   6.437   3.617  1.00 20.00     0.054 C 
ENDROOT
BRANCH   5   6
HETATM    6  C3  UNL     1     -32.886   7.034   3.360  1.00 20.00     0.236 C 
HETATM    7  O7  UNL     1     -32.677   7.899   2.515  1.00 20.00    -0.306 OA
ENDBRANCH   5   6
TORSDOF 1
