REMARK  2 active torsions:
REMARK  status: ('A' for Active; 'I' for Inactive)
REMARK    1  A    between atoms: C2_2  and  C3_3 
REMARK    2  A    between atoms: C4_4  and  C5_5 
ROOT
HETATM    1  C1  UNL     1     -33.761   4.976   3.076  1.00 20.00    -0.020 C 
HETATM    2  C2  UNL     1     -33.706   6.306   3.207  1.00 20.00    -0.062 C 
HETATM    3  C6  UNL     1     -34.393   4.330   4.263  1.00 20.00     0.028 C 
HETATM    4  C7  UNL     1     -34.294   6.761   4.504  1.00 20.00     0.038 C 
HETATM    5  C8  UNL     1     -34.405   5.456   5.295  1.00 20.00     0.008 C 
ENDROOT
BRANCH   2   6
HETATM    6  C3  UNL     1     -33.182   7.229   2.250  1.00 20.00     0.010 C 
HETATM    7  C4  UNL     1     -33.158   8.557   2.446  1.00 20.00     0.050 C 
BRANCH   7   8
HETATM    8  C5  UNL     1     -32.597   9.469   1.410  1.00 20.00     0.145 C 
HETATM    9  C9  UNL     1     -31.499   8.912   0.542  1.00 20.00     0.096 C 
HETATM   10  O10 UNL     1     -33.020  10.611   1.245  1.00 20.00    -0.294 OA
ENDBRANCH   7   8
ENDBRANCH   2   6
TORSDOF 2
