REMARK  2 active torsions:
REMARK  status: ('A' for Active; 'I' for Inactive)
REMARK    1  A    between atoms: C2_2  and  C6_6 
REMARK    2  A    between atoms: C3_3  and  C7_7 
ROOT
HETATM    1  C1  UNL     1     -31.685   8.738   3.268  1.00 20.00     0.100 C 
HETATM    2  C2  UNL     1     -32.264   8.410   1.913  1.00 20.00     0.089 C 
HETATM    3  C3  UNL     1     -32.858   6.937   3.961  1.00 20.00     0.168 C 
HETATM    4  N8  UNL     1     -31.956   8.043   4.327  1.00 20.00    -0.289 NA
HETATM    5  S9  UNL     1     -33.156   6.866   2.174  1.00 20.00    -0.132 SA
ENDROOT
BRANCH   2   6
HETATM    6  C6  UNL     1     -33.197   9.518   1.459  1.00 20.00     0.016 C 
HETATM    7  C4  UNL     1     -32.487  10.830   1.325  1.00 20.00     0.006 C 
ENDBRANCH   2   6
BRANCH   3   8
HETATM    8  C7  UNL     1     -34.174   7.117   4.704  1.00 20.00     0.033 C 
HETATM    9  C5  UNL     1     -33.977   7.147   6.186  1.00 20.00     0.008 C 
ENDBRANCH   3   8
TORSDOF 2
