REMARK  2 active torsions:
REMARK  status: ('A' for Active; 'I' for Inactive)
REMARK    1  A    between atoms: C1_1  and  C6_6 
REMARK    2  A    between atoms: C7_7  and  N8_8 
ROOT
HETATM    1  C3  UNL     1     -33.524   4.500   3.198  1.00 20.00     0.039 C 
HETATM    2  C4  UNL     1     -34.073   5.443   5.462  1.00 20.00     0.039 C 
HETATM    3  C5  UNL     1     -35.432   6.119   3.459  1.00 20.00     0.039 C 
HETATM    4  C7  UNL     1     -34.045   5.719   3.959  1.00 20.00     0.042 C 
ENDROOT
BRANCH   4   5
HETATM    5  N8  UNL     1     -33.125   6.840   3.724  1.00 20.00    -0.296 NA
HETATM    6  C1  UNL     1     -33.031   7.145   2.480  1.00 20.00     0.084 C 
BRANCH   6   7
HETATM    7  C6  UNL     1     -32.130   8.265   2.040  1.00 20.00     0.042 C 
HETATM    8  C2  UNL     1     -32.948   9.353   1.372  1.00 20.00     0.010 C 
ENDBRANCH   6   7
ENDBRANCH   4   5
TORSDOF 2
