REMARK  0 active torsions:
REMARK  status: ('A' for Active; 'I' for Inactive)
ROOT
HETATM    1  C1  UNL     1     -34.106   7.555   3.745  1.00 20.00     0.292 C 
HETATM    2  C2  UNL     1     -33.972   5.223   4.090  1.00 20.00     0.346 C 
HETATM    3  C3  UNL     1     -32.798   7.329   2.959  1.00 20.00     0.029 C 
HETATM    4  C4  UNL     1     -31.568   7.950   3.627  1.00 20.00     0.028 C 
HETATM    5  C5  UNL     1     -32.926   7.863   1.528  1.00 20.00     0.028 C 
HETATM    6  C6  UNL     1     -33.722   6.687   6.012  1.00 20.00     0.310 C 
HETATM    7  N7  UNL     1     -34.364   6.484   4.720  1.00 20.00     0.094 N 
HETATM    8  S8  UNL     1     -32.621   5.514   2.917  1.00 20.00    -0.128 SA
ENDROOT
TORSDOF 0
