REMARK  2 active torsions:
REMARK  status: ('A' for Active; 'I' for Inactive)
REMARK       I    between atoms: C1_1  and  N9_9 
REMARK    1  A    between atoms: C7_7  and  C8_8 
REMARK    2  A    between atoms: C7_7  and  N9_9 
ROOT
HETATM    1  C3  UNL     1     -33.072   5.115   2.426  1.00 20.00     0.033 C 
HETATM    2  C7  UNL     1     -33.215   6.220   3.474  1.00 20.00     0.087 C 
ENDROOT
BRANCH   2   3
HETATM    3  C8  UNL     1     -34.347   5.988   4.527  1.00 20.00    -0.031 C 
HETATM    4  C4  UNL     1     -34.431   7.135   5.552  1.00 20.00     0.016 C 
HETATM    5  C5  UNL     1     -35.715   5.860   3.825  1.00 20.00     0.016 C 
HETATM    6  C6  UNL     1     -34.089   4.670   5.290  1.00 20.00     0.016 C 
ENDBRANCH   2   3
BRANCH   2   7
HETATM    7  N9  UNL     1     -33.359   7.492   2.795  1.00 20.00    -0.356 N 
HETATM    8  C1  UNL     1     -32.420   8.500   2.878  1.00 20.00     0.213 C 
HETATM    9  C2  UNL     1     -32.774   9.722   2.096  1.00 20.00     0.117 C 
HETATM   10  O10 UNL     1     -31.371   8.470   3.510  1.00 20.00    -0.274 OA
HETATM   11  H27 UNL     1     -34.188   7.648   2.233  1.00 20.00     0.162 HD
ENDBRANCH   2   7
TORSDOF 2
