REMARK  0 active torsions:
REMARK  status: ('A' for Active; 'I' for Inactive)
ROOT
HETATM    1  C1  UNL     1     -33.577   6.887   4.440  1.00 20.00     0.131 C 
HETATM    2  C2  UNL     1     -34.752   6.096   3.929  1.00 20.00     0.079 C 
HETATM    3  C3  UNL     1     -34.227   5.557   2.605  1.00 20.00     0.013 C 
HETATM    4  C4  UNL     1     -32.355   8.662   3.106  1.00 20.00     0.021 C 
HETATM    5  C5  UNL     1     -33.824   7.797   1.401  1.00 20.00     0.014 C 
HETATM    6  C6  UNL     1     -32.549   7.165   3.361  1.00 20.00     0.060 C 
HETATM    7  C7  UNL     1     -33.218   6.584   2.109  1.00 20.00    -0.002 C 
HETATM    8  C8  UNL     1     -32.801   8.915   1.651  1.00 20.00    -0.047 C 
HETATM    9  C9  UNL     1     -33.439  10.297   1.490  1.00 20.00     0.015 C 
HETATM   10  C10 UNL     1     -31.604   8.802   0.690  1.00 20.00     0.015 C 
HETATM   11  O11 UNL     1     -33.481   7.286   5.594  1.00 20.00    -0.298 OA
ENDROOT
TORSDOF 0
