REMARK  3 active torsions:
REMARK  status: ('A' for Active; 'I' for Inactive)
REMARK    1  A    between atoms: C2_2  and  C7_7 
REMARK    2  A    between atoms: C5_5  and  C8_8 
REMARK    3  A    between atoms: C7_7  and  C8_8 
ROOT
HETATM    1  C3  UNL     1     -33.860   6.448   5.790  1.00 20.00     0.281 C 
HETATM    2  C4  UNL     1     -34.627   5.136   5.748  1.00 20.00     0.106 C 
HETATM    3  C5  UNL     1     -33.931   6.201   3.438  1.00 20.00     0.282 C 
HETATM    4  N9  UNL     1     -34.112   7.167   4.532  1.00 20.00     0.098 N 
HETATM    5  S10 UNL     1     -34.392   4.552   4.055  1.00 20.00    -0.132 SA
HETATM    6  H25 UNL     1     -35.056   7.546   4.519  1.00 20.00     0.317 HD
ENDROOT
BRANCH   3   7
HETATM    7  C8  UNL     1     -32.488   6.199   2.944  1.00 20.00     0.050 C 
BRANCH   7   8
HETATM    8  C7  UNL     1     -31.928   7.619   2.852  1.00 20.00     0.030 C 
BRANCH   8   9
HETATM    9  C2  UNL     1     -32.713   8.452   1.882  1.00 20.00    -0.031 C 
HETATM   10  C1  UNL     1     -32.200   9.486   1.200  1.00 20.00    -0.035 C 
HETATM   11  C6  UNL     1     -32.982  10.319   0.239  1.00 20.00     0.036 C 
ENDBRANCH   8   9
ENDBRANCH   7   8
ENDBRANCH   3   7
TORSDOF 3
