REMARK  1 active torsions:
REMARK  status: ('A' for Active; 'I' for Inactive)
REMARK    1  A    between atoms: C1_1  and  C6_6 
ROOT
HETATM    1  C2  UNL     1     -32.879   7.334   5.351  1.00 20.00     0.001 C 
HETATM    2  C3  UNL     1     -32.398   7.926   4.030  1.00 20.00     0.011 C 
HETATM    3  C4  UNL     1     -33.112   5.827   5.244  1.00 20.00     0.009 C 
HETATM    4  C5  UNL     1     -33.572   6.074   2.768  1.00 20.00     0.020 C 
HETATM    5  C6  UNL     1     -33.343   7.585   2.879  1.00 20.00     0.048 C 
HETATM    6  C7  UNL     1     -34.058   5.431   4.088  1.00 20.00    -0.047 C 
HETATM    7  C8  UNL     1     -34.044   3.899   3.933  1.00 20.00     0.015 C 
HETATM    8  C9  UNL     1     -35.505   5.862   4.400  1.00 20.00     0.015 C 
ENDROOT
BRANCH   5   9
HETATM    9  C1  UNL     1     -32.760   8.103   1.599  1.00 20.00     0.235 C 
HETATM   10  O10 UNL     1     -32.018   9.078   1.540  1.00 20.00    -0.306 OA
ENDBRANCH   5   9
TORSDOF 1
