REMARK  1 active torsions:
REMARK  status: ('A' for Active; 'I' for Inactive)
REMARK    1  A    between atoms: C1_1  and  C5_5 
ROOT
HETATM    1  C2  UNL     1     -33.328   7.040   6.177  1.00 20.00     0.006 C 
HETATM    2  C3  UNL     1     -34.514   6.085   5.973  1.00 20.00     0.006 C 
HETATM    3  C4  UNL     1     -34.624   7.762   4.323  1.00 20.00     0.011 C 
HETATM    4  C5  UNL     1     -32.545   6.653   3.828  1.00 20.00     0.059 C 
HETATM    5  C6  UNL     1     -33.169   7.692   4.791  1.00 20.00    -0.003 C 
HETATM    6  C7  UNL     1     -34.842   6.252   4.476  1.00 20.00    -0.006 C 
HETATM    7  C8  UNL     1     -33.721   5.663   3.557  1.00 20.00    -0.034 C 
HETATM    8  C9  UNL     1     -34.207   5.636   2.092  1.00 20.00     0.016 C 
HETATM    9  C10 UNL     1     -33.323   4.224   3.924  1.00 20.00     0.016 C 
ENDROOT
BRANCH   4  10
HETATM   10  C1  UNL     1     -31.989   7.328   2.609  1.00 20.00     0.236 C 
HETATM   11  O11 UNL     1     -32.041   8.539   2.423  1.00 20.00    -0.306 OA
ENDBRANCH   4  10
TORSDOF 1
