REMARK  0 active torsions:
REMARK  status: ('A' for Active; 'I' for Inactive)
ROOT
HETATM    1  C1  UNL     1     -32.605   5.695   1.829  1.00 20.00     0.143 A 
HETATM    2  C2  UNL     1     -33.722   5.025   3.677  1.00 20.00     0.059 A 
HETATM    3  C3  UNL     1     -33.872   6.343   4.069  1.00 20.00     0.063 A 
HETATM    4  C4  UNL     1     -32.760   7.018   2.219  1.00 20.00     0.048 A 
HETATM    5  C5  UNL     1     -34.392   4.089   4.637  1.00 20.00     0.062 C 
HETATM    6  C6  UNL     1     -34.529   4.997   5.871  1.00 20.00     0.016 C 
HETATM    7  C7  UNL     1     -34.673   6.441   5.340  1.00 20.00     0.036 C 
HETATM    8  C8  UNL     1     -32.205   8.114   1.375  1.00 20.00     0.072 C 
HETATM    9  C9  UNL     1     -34.159   7.480   6.321  1.00 20.00     0.016 C 
HETATM   10  N10 UNL     1     -33.091   4.662   2.552  1.00 20.00    -0.261 NA
HETATM   11  N11 UNL     1     -33.407   7.374   3.351  1.00 20.00    -0.254 NA
ENDROOT
TORSDOF 0
