REMARK  0 active torsions:
REMARK  status: ('A' for Active; 'I' for Inactive)
ROOT
HETATM    1  C1  UNL     1     -33.623   6.592   4.797  1.00 20.00     0.011 C 
HETATM    2  C2  UNL     1     -34.362   6.235   6.057  1.00 20.00     0.054 C 
HETATM    3  C3  UNL     1     -34.708   4.765   5.817  1.00 20.00     0.006 C 
HETATM    4  C4  UNL     1     -32.349   6.929   2.340  1.00 20.00     0.022 C 
HETATM    5  C5  UNL     1     -34.688   4.591   4.296  1.00 20.00     0.011 C 
HETATM    6  C6  UNL     1     -33.449   5.880   2.433  1.00 20.00     0.012 C 
HETATM    7  C7  UNL     1     -32.640   8.116   3.255  1.00 20.00     0.148 C 
HETATM    8  C8  UNL     1     -33.485   5.420   3.870  1.00 20.00     0.033 C 
HETATM    9  N9  UNL     1     -33.206   7.785   4.570  1.00 20.00    -0.298 NA
ENDROOT
TORSDOF 0
