REMARK  0 active torsions:
REMARK  status: ('A' for Active; 'I' for Inactive)
ROOT
HETATM    1  C1  UNL     1     -32.890   7.154   2.706  1.00 20.00     0.135 C 
HETATM    2  C2  UNL     1     -34.561   6.716   4.394  1.00 20.00     0.092 C 
HETATM    3  C3  UNL     1     -34.594   5.405   3.596  1.00 20.00     0.073 C 
HETATM    4  C4  UNL     1     -33.951   6.618   5.792  1.00 20.00     0.033 C 
HETATM    5  C5  UNL     1     -34.777   4.126   4.393  1.00 20.00     0.024 C 
HETATM    6  N6  UNL     1     -33.806   7.666   3.594  1.00 20.00    -0.370 N 
HETATM    7  S7  UNL     1     -31.849   8.068   1.790  1.00 20.00    -0.053 SA
HETATM    8  S8  UNL     1     -33.007   5.404   2.687  1.00 20.00    -0.094 SA
HETATM    9  H17 UNL     1     -33.897   8.667   3.741  1.00 20.00     0.161 HD
ENDROOT
TORSDOF 0
