REMARK  3 active torsions:
REMARK  status: ('A' for Active; 'I' for Inactive)
REMARK    1  A    between atoms: C1_1  and  C7_7 
REMARK    2  A    between atoms: C6_6  and  C7_7 
REMARK    3  A    between atoms: C6_6  and  C8_8 
ROOT
HETATM    1  C6  UNL     1     -33.767   6.788   2.842  1.00 20.00     0.019 C 
ENDROOT
BRANCH   1   2
HETATM    2  C7  UNL     1     -33.677   6.096   4.214  1.00 20.00     0.043 C 
HETATM    3  C2  UNL     1     -34.631   4.903   4.275  1.00 20.00     0.017 C 
BRANCH   2   4
HETATM    4  C1  UNL     1     -34.076   7.038   5.329  1.00 20.00     0.235 C 
HETATM    5  O9  UNL     1     -33.341   7.315   6.272  1.00 20.00    -0.306 OA
ENDBRANCH   2   4
ENDBRANCH   1   2
BRANCH   1   6
HETATM    6  C8  UNL     1     -32.910   8.072   2.637  1.00 20.00    -0.051 C 
HETATM    7  C3  UNL     1     -32.522   8.285   1.166  1.00 20.00     0.014 C 
HETATM    8  C4  UNL     1     -33.653   9.318   3.149  1.00 20.00     0.014 C 
HETATM    9  C5  UNL     1     -31.615   7.912   3.460  1.00 20.00     0.014 C 
ENDBRANCH   1   6
TORSDOF 3
