REMARK  2 active torsions:
REMARK  status: ('A' for Active; 'I' for Inactive)
REMARK    1  A    between atoms: C1_1  and  S9_9 
REMARK    2  A    between atoms: C2_2  and  N7_7 
ROOT
HETATM    1  C1  UNL     1     -33.082   8.108   2.179  1.00 20.00     0.102 C 
HETATM    2  C2  UNL     1     -32.762   7.799   3.450  1.00 20.00     0.011 C 
HETATM    3  C3  UNL     1     -31.532   8.422   4.064  1.00 20.00     0.068 C 
ENDROOT
BRANCH   2   4
HETATM    4  N7  UNL     1     -33.442   6.955   4.286  1.00 20.00    -0.393 N 
HETATM    5  C4  UNL     1     -33.440   7.155   5.727  1.00 20.00     0.148 C 
HETATM    6  C5  UNL     1     -34.391   5.981   3.768  1.00 20.00     0.148 C 
ENDBRANCH   2   4
BRANCH   1   7
HETATM    7  S9  UNL     1     -32.095   9.233   1.200  1.00 20.00     0.036 S 
HETATM    8  C6  UNL     1     -32.967  10.745   1.667  1.00 20.00     0.132 C 
HETATM    9  O8  UNL     1     -32.427   8.923  -0.228  1.00 20.00    -0.254 OA
ENDBRANCH   1   7
TORSDOF 2
