REMARK  2 active torsions:
REMARK  status: ('A' for Active; 'I' for Inactive)
REMARK    1  A    between atoms: C6_6  and  C10_10 
REMARK    2  A    between atoms: C7_7  and  C11_11 
ROOT
HETATM    1  C1  UNL     1     -32.096   9.436   1.259  1.00 20.00     0.059 C 
HETATM    2  C10 UNL     1     -31.203   8.326   1.563  1.00 20.00     0.128 C 
HETATM    3  N12 UNL     1     -32.784  10.335   1.000  1.00 20.00    -0.197 NA
ENDROOT
BRANCH   2   4
HETATM    4  C6  UNL     1     -32.061   7.371   2.391  1.00 20.00    -0.002 C 
HETATM    5  C2  UNL     1     -32.525   8.047   3.688  1.00 20.00     0.006 C 
HETATM    6  C4  UNL     1     -33.428   7.129   4.511  1.00 20.00     0.005 C 
HETATM    7  C7  UNL     1     -34.629   6.635   3.695  1.00 20.00    -0.011 C 
HETATM    8  C5  UNL     1     -34.164   5.959   2.398  1.00 20.00     0.005 C 
HETATM    9  C3  UNL     1     -33.262   6.876   1.575  1.00 20.00     0.006 C 
BRANCH   7  10
HETATM   10  C11 UNL     1     -35.488   5.681   4.523  1.00 20.00    -0.019 C 
HETATM   11  C8  UNL     1     -36.903   5.605   3.956  1.00 20.00     0.010 C 
HETATM   12  C9  UNL     1     -34.853   4.293   4.572  1.00 20.00     0.010 C 
ENDBRANCH   7  10
ENDBRANCH   2   4
TORSDOF 2
