REMARK  0 active torsions:
REMARK  status: ('A' for Active; 'I' for Inactive)
ROOT
HETATM    1  C1  UNL     1     -34.080   3.726   4.472  1.00 20.00     0.015 C 
HETATM    2  C2  UNL     1     -33.986   4.711   3.792  1.00 20.00    -0.071 C 
HETATM    3  C3  UNL     1     -33.433   7.558   4.808  1.00 20.00     0.039 C 
HETATM    4  C4  UNL     1     -34.375   8.329   2.657  1.00 20.00     0.039 C 
HETATM    5  C5  UNL     1     -32.033   7.799   4.219  1.00 20.00     0.273 C 
HETATM    6  C6  UNL     1     -32.951   8.482   2.101  1.00 20.00     0.273 C 
HETATM    7  C7  UNL     1     -32.423   6.161   2.497  1.00 20.00     0.329 C 
HETATM    8  C8  UNL     1     -34.402   7.174   3.675  1.00 20.00     0.043 C 
HETATM    9  C9  UNL     1     -33.872   5.917   2.960  1.00 20.00     0.195 C 
HETATM   10  N10 UNL     1     -32.000   7.560   2.759  1.00 20.00     0.092 N 
HETATM   11  F11 UNL     1     -34.644   5.699   1.856  1.00 20.00    -0.227 F 
ENDROOT
TORSDOF 0
