REMARK  2 active torsions:
REMARK  status: ('A' for Active; 'I' for Inactive)
REMARK    1  A    between atoms: C7_7  and  C10_10 
REMARK    2  A    between atoms: C7_7  and  O11_11 
ROOT
HETATM    1  C1  UNL     1     -34.023   4.955   5.592  1.00 20.00     0.000 C 
HETATM    2  C2  UNL     1     -34.450   6.342   6.063  1.00 20.00     0.000 C 
HETATM    3  C3  UNL     1     -34.255   4.666   4.109  1.00 20.00     0.003 C 
HETATM    4  C4  UNL     1     -33.849   7.512   5.285  1.00 20.00     0.003 C 
HETATM    5  C5  UNL     1     -33.279   5.420   3.204  1.00 20.00     0.038 C 
HETATM    6  C6  UNL     1     -34.440   7.645   3.884  1.00 20.00     0.038 C 
HETATM    7  C7  UNL     1     -33.736   6.828   2.786  1.00 20.00     0.061 C 
ENDROOT
BRANCH   7   8
HETATM    8  C10 UNL     1     -32.535   7.597   2.217  1.00 20.00     0.012 C 
HETATM    9  C8  UNL     1     -32.995   8.578   1.145  1.00 20.00     0.012 C 
HETATM   10  C9  UNL     1     -31.793   8.321   3.334  1.00 20.00     0.012 C 
ENDBRANCH   7   8
BRANCH   7  11
HETATM   11  O11 UNL     1     -34.675   6.666   1.712  1.00 20.00    -0.389 OA
HETATM   12  H31 UNL     1     -34.194   6.212   1.006  1.00 20.00     0.210 HD
ENDBRANCH   7  11
TORSDOF 2
