REMARK  1 active torsions:
REMARK  status: ('A' for Active; 'I' for Inactive)
REMARK    1  A    between atoms: C10_10  and  O11_11 
ROOT
HETATM    1  C1  UNL     1     -33.528   5.005   2.979  1.00 20.00    -0.025 C 
HETATM    2  C2  UNL     1     -33.819   5.137   4.281  1.00 20.00    -0.025 C 
HETATM    3  C3  UNL     1     -32.292   7.730   2.428  1.00 20.00     0.008 C 
HETATM    4  C4  UNL     1     -31.721   7.589   3.835  1.00 20.00     0.032 C 
HETATM    5  C5  UNL     1     -35.586   6.023   3.106  1.00 20.00     0.018 C 
HETATM    6  C6  UNL     1     -34.320   6.051   2.234  1.00 20.00     0.013 C 
HETATM    7  C7  UNL     1     -34.807   6.271   4.408  1.00 20.00     0.015 C 
HETATM    8  C8  UNL     1     -33.795   7.477   2.553  1.00 20.00     0.000 C 
HETATM    9  C9  UNL     1     -34.145   7.634   4.067  1.00 20.00     0.027 C 
HETATM   10  C10 UNL     1     -32.846   8.052   4.755  1.00 20.00     0.123 C 
ENDROOT
BRANCH  10  11
HETATM   11  O11 UNL     1     -32.705   7.508   6.052  1.00 20.00    -0.395 OA
HETATM   12  H25 UNL     1     -31.849   7.812   6.401  1.00 20.00     0.210 HD
ENDBRANCH  10  11
TORSDOF 1
