REMARK  5 active torsions:
REMARK  status: ('A' for Active; 'I' for Inactive)
REMARK    1  A    between atoms: C5_5  and  C6_6 
REMARK    2  A    between atoms: C5_5  and  C7_7 
REMARK    3  A    between atoms: C6_6  and  C8_8 
REMARK    4  A    between atoms: C7_7  and  C9_9 
REMARK    5  A    between atoms: C8_8  and  O10_10 
ROOT
HETATM    1  C5  UNL     1     -32.956   7.589   2.421  1.00 20.00     0.003 C 
ENDROOT
BRANCH   1   2
HETATM    2  C6  UNL     1     -31.770   7.962   1.521  1.00 20.00     0.031 C 
BRANCH   2   3
HETATM    3  C8  UNL     1     -31.974   9.314   0.829  1.00 20.00     0.114 C 
HETATM    4  C1  UNL     1     -32.627  10.326   1.761  1.00 20.00     0.039 C 
BRANCH   3   5
HETATM    5  O10 UNL     1     -32.799   9.155  -0.322  1.00 20.00    -0.396 OA
HETATM    6  H30 UNL     1     -32.862  10.028  -0.740  1.00 20.00     0.210 HD
ENDBRANCH   3   5
ENDBRANCH   2   3
ENDBRANCH   1   2
BRANCH   1   7
HETATM    7  C7  UNL     1     -32.711   6.247   3.124  1.00 20.00     0.008 C 
BRANCH   7   8
HETATM    8  C9  UNL     1     -33.872   5.731   4.015  1.00 20.00    -0.051 C 
HETATM    9  C2  UNL     1     -33.700   6.188   5.473  1.00 20.00     0.014 C 
HETATM   10  C3  UNL     1     -35.191   6.317   3.473  1.00 20.00     0.014 C 
HETATM   11  C4  UNL     1     -33.966   4.197   3.973  1.00 20.00     0.014 C 
ENDBRANCH   7   8
ENDBRANCH   1   7
TORSDOF 5
