REMARK  1 active torsions:
REMARK  status: ('A' for Active; 'I' for Inactive)
REMARK    1  A    between atoms: C1_1  and  C4_4 
ROOT
HETATM    1  C2  UNL     1     -33.239   5.589   2.941  1.00 20.00     0.035 C 
HETATM    2  C3  UNL     1     -34.215   6.880   4.320  1.00 20.00     0.035 C 
HETATM    3  C4  UNL     1     -33.681   7.073   2.879  1.00 20.00     0.089 C 
HETATM    4  C5  UNL     1     -34.369   5.378   3.979  1.00 20.00     0.084 C 
HETATM    5 CL8  UNL     1     -34.134   4.175   5.273  1.00 20.00    -0.125 Cl
ENDROOT
BRANCH   3   6
HETATM    6  C1  UNL     1     -32.592   8.073   2.735  1.00 20.00     0.177 C 
HETATM    7  O6  UNL     1     -31.628   7.941   3.539  1.00 20.00    -0.648 OA
HETATM    8  O7  UNL     1     -32.776   8.928   1.823  1.00 20.00    -0.648 OA
ENDBRANCH   3   6
TORSDOF 1
