REMARK  0 active torsions:
REMARK  status: ('A' for Active; 'I' for Inactive)
ROOT
HETATM    1  C1  UNL     1     -34.761   4.927   5.695  1.00 20.00     0.047 A 
HETATM    2  C2  UNL     1     -34.704   6.100   6.475  1.00 20.00     0.141 A 
HETATM    3  C3  UNL     1     -34.047   5.231   4.559  1.00 20.00     0.032 A 
HETATM    4  C4  UNL     1     -33.733   4.456   3.328  1.00 20.00     0.059 C 
HETATM    5  C5  UNL     1     -32.561   5.071   2.556  1.00 20.00     0.008 C 
HETATM    6  C6  UNL     1     -32.725   6.587   2.426  1.00 20.00     0.022 C 
HETATM    7  C7  UNL     1     -32.783   7.252   3.802  1.00 20.00     0.151 C 
HETATM    8  N8  UNL     1     -34.009   7.079   5.889  1.00 20.00    -0.185 NA
HETATM    9  N9  UNL     1     -33.631   6.524   4.724  1.00 20.00    -0.274 N 
ENDROOT
TORSDOF 0
