REMARK  2 active torsions:
REMARK  status: ('A' for Active; 'I' for Inactive)
REMARK    1  A    between atoms: C3_3  and  C7_7 
REMARK    2  A    between atoms: C3_3  and  O11_11 
ROOT
HETATM    1  C1  UNL     1     -32.619   8.611   1.873  1.00 20.00    -0.070 C 
HETATM    2  C2  UNL     1     -32.936   8.535   0.574  1.00 20.00    -0.027 C 
HETATM    3  C4  UNL     1     -32.929   9.794   2.747  1.00 20.00     0.034 C 
HETATM    4  C5  UNL     1     -32.711   9.254   4.154  1.00 20.00     0.005 C 
HETATM    5  C6  UNL     1     -31.601   8.220   3.991  1.00 20.00     0.019 C 
HETATM    6  C7  UNL     1     -31.899   7.546   2.654  1.00 20.00     0.114 C 
HETATM    7  C8  UNL     1     -33.636   9.616  -0.177  1.00 20.00     0.036 C 
ENDROOT
BRANCH   6   8
HETATM    8  C3  UNL     1     -32.809   6.366   2.827  1.00 20.00     0.266 C 
HETATM    9  O10 UNL     1     -32.535   5.231   2.463  1.00 20.00    -0.265 OA
BRANCH   8  10
HETATM   10  O11 UNL     1     -33.959   6.764   3.441  1.00 20.00    -0.326 OA
HETATM   11  C9  UNL     1     -34.923   5.731   3.670  1.00 20.00     0.213 C 
ENDBRANCH   8  10
ENDBRANCH   6   8
TORSDOF 2
