REMARK  3 active torsions:
REMARK  status: ('A' for Active; 'I' for Inactive)
REMARK    1  A    between atoms: C2_2  and  C9_9 
REMARK    2  A    between atoms: C7_7  and  C9_9 
REMARK    3  A    between atoms: C8_8  and  O10_10 
ROOT
HETATM    1  C3  UNL     1     -33.280   4.575   2.463  1.00 20.00     0.003 C 
HETATM    2  C4  UNL     1     -32.440   5.838   2.639  1.00 20.00     0.005 C 
HETATM    3  C5  UNL     1     -34.019   4.208   3.745  1.00 20.00     0.032 C 
HETATM    4  C6  UNL     1     -34.020   6.638   4.441  1.00 20.00     0.036 C 
HETATM    5  C7  UNL     1     -33.283   7.016   3.150  1.00 20.00    -0.009 C 
HETATM    6  C8  UNL     1     -34.860   5.374   4.260  1.00 20.00     0.118 C 
ENDROOT
BRANCH   5   7
HETATM    7  C9  UNL     1     -32.409   8.249   3.369  1.00 20.00     0.031 C 
BRANCH   7   8
HETATM    8  C2  UNL     1     -32.106   8.934   2.073  1.00 20.00    -0.037 C 
HETATM    9  C1  UNL     1     -32.474  10.188   1.788  1.00 20.00     0.007 C 
ENDBRANCH   7   8
ENDBRANCH   5   7
BRANCH   6  10
HETATM   10  O10 UNL     1     -35.460   5.017   5.501  1.00 20.00    -0.396 OA
HETATM   11  H26 UNL     1     -36.016   4.241   5.328  1.00 20.00     0.210 HD
ENDBRANCH   6  10
TORSDOF 3
