REMARK  0 active torsions:
REMARK  status: ('A' for Active; 'I' for Inactive)
ROOT
HETATM    1  C1  UNL     1     -32.334   8.213   3.263  1.00 20.00     0.124 C 
HETATM    2  C2  UNL     1     -33.122   9.884   1.688  1.00 20.00     0.024 C 
HETATM    3  C3  UNL     1     -32.376   8.826   1.991  1.00 20.00     0.145 C 
HETATM    4  C4  UNL     1     -32.859  10.262   0.283  1.00 20.00     0.057 C 
HETATM    5  C5  UNL     1     -32.032   9.073  -0.192  1.00 20.00     0.180 C 
HETATM    6  N6  UNL     1     -32.300   7.709   4.308  1.00 20.00    -0.189 NA
HETATM    7  O7  UNL     1     -31.573   8.345   0.965  1.00 20.00    -0.341 OA
ENDROOT
TORSDOF 0
