REMARK  0 active torsions:
REMARK  status: ('A' for Active; 'I' for Inactive)
ROOT
HETATM    1  C1  UNL     1     -33.367   4.937   2.282  1.00 20.00     0.004 C 
HETATM    2  C2  UNL     1     -32.417   6.117   2.436  1.00 20.00     0.027 C 
HETATM    3  C3  UNL     1     -33.701   4.376   3.658  1.00 20.00     0.027 C 
HETATM    4  C4  UNL     1     -32.973   7.218   3.364  1.00 20.00     0.037 C 
HETATM    5  C5  UNL     1     -34.286   5.438   4.613  1.00 20.00     0.037 C 
HETATM    6  C6  UNL     1     -34.032   8.062   2.631  1.00 20.00     0.034 C 
HETATM    7  C7  UNL     1     -31.805   8.161   3.730  1.00 20.00     0.034 C 
HETATM    8  C8  UNL     1     -34.239   4.862   6.046  1.00 20.00     0.034 C 
HETATM    9  C9  UNL     1     -35.763   5.716   4.278  1.00 20.00     0.034 C 
HETATM   10  N10 UNL     1     -33.471   6.663   4.633  1.00 20.00    -0.137 NA
HETATM   11  F11 UNL     1     -34.004   7.631   5.452  1.00 20.00    -0.132 F 
ENDROOT
TORSDOF 0
