REMARK  1 active torsions:
REMARK  status: ('A' for Active; 'I' for Inactive)
REMARK    1  A    between atoms: C4_4  and  C7_7 
ROOT
HETATM    1  C1  UNL     1     -32.389   7.908   4.484  1.00 20.00     0.035 A 
HETATM    2  C2  UNL     1     -31.745   8.209   3.353  1.00 20.00    -0.008 A 
HETATM    3  C3  UNL     1     -33.572   7.073   4.243  1.00 20.00     0.085 A 
HETATM    4  C4  UNL     1     -32.286   7.681   2.062  1.00 20.00     0.080 A 
HETATM    5  N8  UNL     1     -34.386   6.629   5.132  1.00 20.00    -0.293 NA
HETATM    6  S9  UNL     1     -33.769   6.726   2.539  1.00 20.00    -0.102 SA
HETATM    7  H20 UNL     1     -34.086   6.948   6.061  1.00 20.00     0.187 HD
ENDROOT
BRANCH   4   8
HETATM    8  C7  UNL     1     -32.661   8.793   1.092  1.00 20.00    -0.005 C 
HETATM    9  C5  UNL     1     -33.359   9.939   1.825  1.00 20.00     0.011 C 
HETATM   10  C6  UNL     1     -31.425   9.307   0.353  1.00 20.00     0.011 C 
ENDBRANCH   4   8
TORSDOF 1
