REMARK  0 active torsions:
REMARK  status: ('A' for Active; 'I' for Inactive)
ROOT
HETATM    1  C1  UNL     1     -32.654   7.410   3.958  1.00 20.00     0.222 C 
HETATM    2  C2  UNL     1     -34.957   4.747   3.906  1.00 20.00     0.001 C 
HETATM    3  C3  UNL     1     -34.234   5.693   2.951  1.00 20.00     0.014 C 
HETATM    4  C4  UNL     1     -34.593   5.262   5.289  1.00 20.00     0.007 C 
HETATM    5  C5  UNL     1     -33.758   7.562   6.043  1.00 20.00     0.128 C 
HETATM    6  C6  UNL     1     -34.096   7.016   3.704  1.00 20.00     0.083 C 
HETATM    7  C7  UNL     1     -34.661   6.777   5.113  1.00 20.00     0.016 C 
HETATM    8  N8  UNL     1     -32.530   7.702   5.311  1.00 20.00    -0.360 N 
HETATM    9  O9  UNL     1     -31.776   7.478   3.111  1.00 20.00    -0.273 OA
HETATM   10  H20 UNL     1     -31.656   7.987   5.740  1.00 20.00     0.162 HD
ENDROOT
TORSDOF 0
