REMARK  1 active torsions:
REMARK  status: ('A' for Active; 'I' for Inactive)
REMARK    1  A    between atoms: C3_3  and  C4_4 
ROOT
HETATM    1  C1  UNL     1     -32.596   7.540   4.831  1.00 20.00     0.065 A 
HETATM    2  C2  UNL     1     -31.864   8.291   3.950  1.00 20.00     0.172 A 
HETATM    3  C3  UNL     1     -33.224   6.583   4.014  1.00 20.00     0.169 A 
HETATM    4  N5  UNL     1     -32.906   6.731   2.725  1.00 20.00    -0.124 NA
HETATM    5  O6  UNL     1     -32.041   7.818   2.690  1.00 20.00    -0.225 OA
ENDROOT
BRANCH   3   6
HETATM    6  C4  UNL     1     -34.139   5.507   4.425  1.00 20.00     0.436 C 
HETATM    7  F7  UNL     1     -34.388   5.460   5.776  1.00 20.00    -0.164 F 
HETATM    8  F8  UNL     1     -35.387   5.575   3.854  1.00 20.00    -0.164 F 
HETATM    9  F9  UNL     1     -33.680   4.252   4.112  1.00 20.00    -0.164 F 
ENDBRANCH   3   6
TORSDOF 1
