REMARK  2 active torsions:
REMARK  status: ('A' for Active; 'I' for Inactive)
REMARK    1  A    between atoms: C1_1  and  C3_3 
REMARK    2  A    between atoms: C1_1  and  C8_8 
ROOT
HETATM    1  C1  UNL     1     -32.874   6.600   2.973  1.00 20.00     0.134 C 
HETATM    2  O9  UNL     1     -32.524   5.539   2.454  1.00 20.00    -0.297 OA
ENDROOT
BRANCH   1   3
HETATM    3  C3  UNL     1     -34.177   6.695   3.725  1.00 20.00     0.060 A 
HETATM    4  C2  UNL     1     -34.147   6.509   5.201  1.00 20.00     0.017 A 
HETATM    5  C4  UNL     1     -34.777   5.468   4.319  1.00 20.00    -0.007 A 
HETATM    6  C5  UNL     1     -34.161   4.115   4.208  1.00 20.00     0.011 C 
ENDBRANCH   1   3
BRANCH   1   7
HETATM    7  C8  UNL     1     -32.013   7.858   2.921  1.00 20.00     0.048 C 
HETATM    8  C6  UNL     1     -32.777   8.983   2.234  1.00 20.00     0.017 C 
HETATM    9  C7  UNL     1     -31.573   8.278   4.322  1.00 20.00     0.017 C 
ENDBRANCH   1   7
TORSDOF 2
