REMARK  0 active torsions:
REMARK  status: ('A' for Active; 'I' for Inactive)
ROOT
HETATM    1  C1  UNL     1     -32.876   7.224   2.930  1.00 20.00     0.134 C 
HETATM    2  C2  UNL     1     -33.023   7.389   4.431  1.00 20.00     0.109 C 
HETATM    3  C3  UNL     1     -32.940   4.735   2.998  1.00 20.00     0.044 C 
HETATM    4  C4  UNL     1     -34.348   6.798   4.935  1.00 20.00     0.280 C 
HETATM    5  C5  UNL     1     -33.839   4.518   4.220  1.00 20.00     0.273 C 
HETATM    6  C6  UNL     1     -34.967   5.951   2.774  1.00 20.00     0.284 C 
HETATM    7  C7  UNL     1     -33.516   5.980   2.334  1.00 20.00     0.085 C 
HETATM    8  N8  UNL     1     -34.838   5.608   4.205  1.00 20.00     0.089 N 
HETATM    9  O9  UNL     1     -32.218   8.008   2.250  1.00 20.00    -0.297 OA
ENDROOT
TORSDOF 0
