REMARK  0 active torsions:
REMARK  status: ('A' for Active; 'I' for Inactive)
ROOT
HETATM    1  C1  UNL     1     -33.651   6.841   5.108  1.00 20.00     0.223 A 
HETATM    2  C2  UNL     1     -34.112   6.905   3.637  1.00 20.00     0.096 A 
HETATM    3  C3  UNL     1     -32.750   7.611   3.376  1.00 20.00     0.093 A 
HETATM    4  C4  UNL     1     -34.323   5.567   2.957  1.00 20.00     0.022 C 
HETATM    5  C5  UNL     1     -32.796   9.053   2.915  1.00 20.00     0.033 C 
HETATM    6  N6  UNL     1     -32.508   7.516   4.812  1.00 20.00    -0.356 N 
HETATM    7  O7  UNL     1     -34.084   6.390   6.144  1.00 20.00    -0.273 OA
HETATM    8  H16 UNL     1     -31.734   7.780   5.406  1.00 20.00     0.162 HD
ENDROOT
TORSDOF 0
