REMARK  2 active torsions:
REMARK  status: ('A' for Active; 'I' for Inactive)
REMARK    1  A    between atoms: C2_2  and  O12_12 
REMARK    2  A    between atoms: C7_7  and  O12_12 
ROOT
HETATM    1  C3  UNL     1     -32.304   8.056   4.169  1.00 20.00     0.036 C 
HETATM    2  C4  UNL     1     -33.224   5.718   4.541  1.00 20.00     0.013 C 
HETATM    3  C5  UNL     1     -33.166   6.727   2.211  1.00 20.00     0.041 C 
HETATM    4  C6  UNL     1     -32.955   7.097   5.170  1.00 20.00    -0.015 C 
HETATM    5  C7  UNL     1     -33.038   8.117   2.832  1.00 20.00     0.128 C 
HETATM    6  C8  UNL     1     -33.865   5.705   3.131  1.00 20.00    -0.045 C 
HETATM    7  C9  UNL     1     -34.184   7.716   5.837  1.00 20.00     0.010 C 
HETATM    8  C10 UNL     1     -35.380   5.977   3.188  1.00 20.00     0.015 C 
HETATM    9  C11 UNL     1     -33.684   4.294   2.528  1.00 20.00     0.015 C 
ENDROOT
BRANCH   5  10
HETATM   10  O12 UNL     1     -32.302   8.942   1.931  1.00 20.00    -0.359 OA
BRANCH  10  11
HETATM   11  C2  UNL     1     -33.002   9.415   0.908  1.00 20.00     0.125 C 
HETATM   12  C1  UNL     1     -32.501   9.694  -0.297  1.00 20.00     0.037 C 
ENDBRANCH  10  11
ENDBRANCH   5  10
TORSDOF 2
