REMARK  0 active torsions:
REMARK  status: ('A' for Active; 'I' for Inactive)
ROOT
HETATM    1  C1  UNL     1     -33.534   7.033   4.489  1.00 20.00    -0.013 C 
HETATM    2  C2  UNL     1     -32.541   7.665   3.862  1.00 20.00    -0.066 C 
HETATM    3  C3  UNL     1     -34.199   6.257   3.418  1.00 20.00     0.156 C 
HETATM    4  C4  UNL     1     -31.700   8.827   4.265  1.00 20.00     0.036 C 
HETATM    5  C5  UNL     1     -33.636   6.581   2.055  1.00 20.00     0.093 C 
HETATM    6  C6  UNL     1     -31.267   9.406   2.907  1.00 20.00     0.009 C 
HETATM    7  C7  UNL     1     -32.379   7.355   2.408  1.00 20.00     0.026 C 
HETATM    8  C8  UNL     1     -32.203   8.767   1.861  1.00 20.00    -0.010 C 
HETATM    9  C9  UNL     1     -34.041   7.135   5.872  1.00 20.00     0.052 C 
HETATM   10  C10 UNL     1     -31.629   8.794   0.454  1.00 20.00     0.010 C 
HETATM   11  O11 UNL     1     -35.128   5.489   3.618  1.00 20.00    -0.293 OA
ENDROOT
TORSDOF 0
