REMARK  0 active torsions:
REMARK  status: ('A' for Active; 'I' for Inactive)
ROOT
HETATM    1  C1  UNL     1     -32.791   7.449   4.159  1.00 20.00     0.223 A 
HETATM    2  C2  UNL     1     -34.322   7.305   4.026  1.00 20.00     0.096 A 
HETATM    3  C3  UNL     1     -34.317   7.219   5.585  1.00 20.00     0.093 A 
HETATM    4  C4  UNL     1     -34.795   6.120   3.206  1.00 20.00     0.022 C 
HETATM    5  C5  UNL     1     -34.689   5.929   6.286  1.00 20.00     0.033 C 
HETATM    6  N6  UNL     1     -32.868   7.380   5.514  1.00 20.00    -0.356 N 
HETATM    7  O7  UNL     1     -31.854   7.571   3.404  1.00 20.00    -0.273 OA
HETATM    8  H16 UNL     1     -32.137   7.415   6.211  1.00 20.00     0.162 HD
ENDROOT
TORSDOF 0
