REMARK  0 active torsions:
REMARK  status: ('A' for Active; 'I' for Inactive)
ROOT
HETATM    1  C1  UNL     1     -34.449   4.791   5.406  1.00 20.00    -0.030 C 
HETATM    2  C2  UNL     1     -35.051   4.703   4.213  1.00 20.00    -0.023 C 
HETATM    3  C3  UNL     1     -33.191   6.916   2.972  1.00 20.00     0.150 C 
HETATM    4  C4  UNL     1     -33.752   6.018   5.909  1.00 20.00     0.027 C 
HETATM    5  C5  UNL     1     -34.312   7.303   5.304  1.00 20.00     0.016 C 
HETATM    6  C6  UNL     1     -35.025   5.840   3.249  1.00 20.00     0.045 C 
HETATM    7  C7  UNL     1     -34.464   7.194   3.796  1.00 20.00     0.067 C 
HETATM    8  C8  UNL     1     -33.888   5.797   2.168  1.00 20.00     0.160 C 
HETATM    9  O9  UNL     1     -32.078   7.398   2.960  1.00 20.00    -0.296 OA
HETATM   10 CL10 UNL     1     -32.892   4.337   1.920  1.00 20.00    -0.116 Cl
ENDROOT
TORSDOF 0
