REMARK  0 active torsions:
REMARK  status: ('A' for Active; 'I' for Inactive)
ROOT
HETATM    1  C1  UNL     1     -33.722   7.074   3.332  1.00 20.00     0.026 C 
HETATM    2  C2  UNL     1     -35.050   4.978   4.006  1.00 20.00     0.026 C 
HETATM    3  C3  UNL     1     -32.943   7.112   4.643  1.00 20.00     0.075 C 
HETATM    4  C4  UNL     1     -34.364   4.871   5.364  1.00 20.00     0.075 C 
HETATM    5  C5  UNL     1     -34.246   5.699   2.926  1.00 20.00     0.059 C 
HETATM    6  S6  UNL     1     -33.928   6.497   6.036  1.00 20.00    -0.169 SA
HETATM    7 BR7  UNL     1     -32.764   4.564   2.321  1.00 20.00    -0.091 Br
ENDROOT
TORSDOF 0
