REMARK  5 active torsions:
REMARK  status: ('A' for Active; 'I' for Inactive)
REMARK    1  A    between atoms: C1_1  and  C8_8 
REMARK    2  A    between atoms: C5_5  and  C6_6 
REMARK    3  A    between atoms: C5_5  and  C7_7 
REMARK    4  A    between atoms: C6_6  and  C8_8 
REMARK    5  A    between atoms: C7_7  and  C9_9 
ROOT
HETATM    1  C5  UNL     1     -33.217   7.910   2.294  1.00 20.00     0.001 C 
ENDROOT
BRANCH   1   2
HETATM    2  C6  UNL     1     -33.319   7.314   3.704  1.00 20.00     0.011 C 
BRANCH   2   3
HETATM    3  C8  UNL     1     -34.352   6.181   3.790  1.00 20.00     0.043 C 
HETATM    4  C2  UNL     1     -33.797   4.898   3.175  1.00 20.00     0.017 C 
BRANCH   3   5
HETATM    5  C1  UNL     1     -34.771   5.868   5.216  1.00 20.00     0.235 C 
HETATM    6  O10 UNL     1     -34.356   6.448   6.213  1.00 20.00    -0.306 OA
ENDBRANCH   3   5
ENDBRANCH   2   3
ENDBRANCH   1   2
BRANCH   1   7
HETATM    7  C7  UNL     1     -32.127   8.986   2.227  1.00 20.00     0.004 C 
BRANCH   7   8
HETATM    8  C9  UNL     1     -32.026   9.672   0.853  1.00 20.00    -0.023 C 
HETATM    9  C3  UNL     1     -33.325  10.373   0.451  1.00 20.00     0.009 C 
HETATM   10  C4  UNL     1     -31.644   8.643  -0.214  1.00 20.00     0.009 C 
ENDBRANCH   7   8
ENDBRANCH   1   7
TORSDOF 5
