REMARK  0 active torsions:
REMARK  status: ('A' for Active; 'I' for Inactive)
ROOT
HETATM    1  C1  UNL     1     -33.694   6.959   5.005  1.00 20.00     0.223 A 
HETATM    2  C2  UNL     1     -33.875   7.448   3.552  1.00 20.00     0.096 A 
HETATM    3  C3  UNL     1     -32.611   8.322   3.827  1.00 20.00     0.093 A 
HETATM    4  C4  UNL     1     -33.828   6.364   2.492  1.00 20.00     0.022 C 
HETATM    5  C5  UNL     1     -31.309   8.039   3.105  1.00 20.00     0.033 C 
HETATM    6  N6  UNL     1     -32.602   7.753   5.170  1.00 20.00    -0.356 N 
HETATM    7  O7  UNL     1     -34.257   6.187   5.746  1.00 20.00    -0.273 OA
HETATM    8  H16 UNL     1     -32.002   7.875   5.974  1.00 20.00     0.162 HD
ENDROOT
TORSDOF 0
