REMARK  2 active torsions:
REMARK  status: ('A' for Active; 'I' for Inactive)
REMARK    1  A    between atoms: C1_1  and  C3_3 
REMARK    2  A    between atoms: C5_5  and  O10_10 
ROOT
HETATM    1  C2  UNL     1     -33.239   7.191   4.557  1.00 20.00     0.074 C 
HETATM    2  C3  UNL     1     -33.209   7.389   3.061  1.00 20.00     0.080 C 
HETATM    3  C4  UNL     1     -33.996   6.183   2.555  1.00 20.00     0.131 C 
HETATM    4  C5  UNL     1     -34.622   6.608   4.776  1.00 20.00     0.260 C 
HETATM    5  C6  UNL     1     -33.179   4.923   2.286  1.00 20.00     0.040 C 
HETATM    6  O9  UNL     1     -34.944   5.863   3.593  1.00 20.00    -0.356 OA
ENDROOT
BRANCH   2   7
HETATM    7  C1  UNL     1     -31.821   7.504   2.519  1.00 20.00     0.238 C 
HETATM    8  O8  UNL     1     -31.541   8.134   1.504  1.00 20.00    -0.306 OA
ENDBRANCH   2   7
BRANCH   4   9
HETATM    9  O10 UNL     1     -34.621   5.795   5.937  1.00 20.00    -0.366 OA
HETATM   10  C7  UNL     1     -34.077   4.510   5.672  1.00 20.00     0.204 C 
ENDBRANCH   4   9
TORSDOF 2
