REMARK  0 active torsions:
REMARK  status: ('A' for Active; 'I' for Inactive)
ROOT
HETATM    1  C1  UNL     1     -33.495   6.724   4.295  1.00 20.00     0.102 C 
HETATM    2  C2  UNL     1     -35.686   5.769   3.684  1.00 20.00     0.068 C 
HETATM    3  C3  UNL     1     -34.428   4.915   5.689  1.00 20.00     0.068 C 
HETATM    4  C4  UNL     1     -34.314   5.504   4.290  1.00 20.00     0.183 C 
HETATM    5  N5  UNL     1     -32.847   7.686   4.298  1.00 20.00    -0.194 NA
HETATM    6  F6  UNL     1     -33.683   4.587   3.502  1.00 20.00    -0.228 F 
ENDROOT
TORSDOF 0
