REMARK  2 active torsions:
REMARK  status: ('A' for Active; 'I' for Inactive)
REMARK    1  A    between atoms: C2_2  and  O12_12 
REMARK    2  A    between atoms: C7_7  and  O12_12 
ROOT
HETATM    1  C3  UNL     1     -33.385   5.952   1.855  1.00 20.00     0.036 C 
HETATM    2  C4  UNL     1     -33.763   4.462   3.858  1.00 20.00     0.013 C 
HETATM    3  C5  UNL     1     -34.448   6.905   3.952  1.00 20.00     0.041 C 
HETATM    4  C6  UNL     1     -32.844   4.766   2.664  1.00 20.00    -0.015 C 
HETATM    5  C7  UNL     1     -33.594   7.198   2.715  1.00 20.00     0.128 C 
HETATM    6  C8  UNL     1     -33.996   5.678   4.784  1.00 20.00    -0.045 C 
HETATM    7  C9  UNL     1     -32.705   3.531   1.773  1.00 20.00     0.010 C 
HETATM    8  C10 UNL     1     -35.114   5.330   5.788  1.00 20.00     0.015 C 
HETATM    9  C11 UNL     1     -32.726   5.987   5.601  1.00 20.00     0.015 C 
ENDROOT
BRANCH   5  10
HETATM   10  O12 UNL     1     -32.338   7.738   3.113  1.00 20.00    -0.359 OA
BRANCH  10  11
HETATM   11  C2  UNL     1     -31.712   8.443   2.182  1.00 20.00     0.125 C 
HETATM   12  C1  UNL     1     -32.314   9.142   1.217  1.00 20.00     0.037 C 
ENDBRANCH  10  11
ENDBRANCH   5  10
TORSDOF 2
