REMARK  0 active torsions:
REMARK  status: ('A' for Active; 'I' for Inactive)
ROOT
HETATM    1  C1  UNL     1     -32.764  10.087  -0.096  1.00 20.00     0.015 C 
HETATM    2  C2  UNL     1     -32.491   9.221   0.690  1.00 20.00    -0.083 C 
HETATM    3  C3  UNL     1     -31.844   8.703   3.021  1.00 20.00     0.216 C 
HETATM    4  C4  UNL     1     -32.160   8.168   1.645  1.00 20.00     0.226 C 
HETATM    5  C5  UNL     1     -33.146   6.859   3.227  1.00 20.00     0.158 C 
HETATM    6  C6  UNL     1     -34.461   7.083   3.963  1.00 20.00     0.078 C 
HETATM    7  C7  UNL     1     -32.764   5.384   3.213  1.00 20.00     0.078 C 
HETATM    8  O8  UNL     1     -32.102   7.595   3.882  1.00 20.00    -0.352 OA
HETATM    9  O9  UNL     1     -33.292   7.321   1.875  1.00 20.00    -0.336 OA
ENDROOT
TORSDOF 0
