REMARK  2 active torsions:
REMARK  status: ('A' for Active; 'I' for Inactive)
REMARK    1  A    between atoms: C2_2  and  C5_5 
REMARK    2  A    between atoms: C5_5  and  O6_6 
ROOT
HETATM    1  C1  UNL     1     -34.313   7.389   3.446  1.00 20.00     0.097 A 
HETATM    2  C2  UNL     1     -33.578   6.081   3.696  1.00 20.00     0.049 A 
HETATM    3  C3  UNL     1     -33.290   7.293   4.519  1.00 20.00     0.254 A 
HETATM    4  C4  UNL     1     -32.549   5.647   2.690  1.00 20.00     0.024 C 
HETATM    5  F7  UNL     1     -32.095   7.968   4.400  1.00 20.00    -0.205 F 
HETATM    6  F8  UNL     1     -33.666   7.363   5.843  1.00 20.00    -0.205 F 
ENDROOT
BRANCH   2   7
HETATM    7  C5  UNL     1     -34.342   4.956   4.337  1.00 20.00     0.179 C 
BRANCH   7   8
HETATM    8  O6  UNL     1     -35.176   5.476   5.367  1.00 20.00    -0.400 OA
HETATM    9  H16 UNL     1     -35.647   4.721   5.751  1.00 20.00     0.209 HD
ENDBRANCH   7   8
ENDBRANCH   2   7
TORSDOF 2
