REMARK  2 active torsions:
REMARK  status: ('A' for Active; 'I' for Inactive)
REMARK    1  A    between atoms: C2_2  and  C5_5 
REMARK    2  A    between atoms: C2_2  and  O9_9 
ROOT
HETATM    1  C1  UNL     1     -34.387   5.036   4.701  1.00 20.00     0.140 C 
HETATM    2  C3  UNL     1     -34.302   5.462   6.177  1.00 20.00     0.080 C 
HETATM    3  C4  UNL     1     -34.060   6.903   5.673  1.00 20.00     0.030 C 
HETATM    4  C5  UNL     1     -34.438   6.502   4.222  1.00 20.00     0.155 C 
HETATM    5  O7  UNL     1     -34.405   3.961   4.141  1.00 20.00    -0.297 OA
ENDROOT
BRANCH   4   6
HETATM    6  C2  UNL     1     -33.426   6.735   3.101  1.00 20.00     0.269 C 
HETATM    7  O8  UNL     1     -32.757   5.849   2.587  1.00 20.00    -0.264 OA
BRANCH   6   8
HETATM    8  O9  UNL     1     -33.396   8.060   2.782  1.00 20.00    -0.326 OA
HETATM    9  C6  UNL     1     -32.484   8.421   1.740  1.00 20.00     0.213 C 
ENDBRANCH   6   8
ENDBRANCH   4   6
TORSDOF 2
