REMARK  2 active torsions:
REMARK  status: ('A' for Active; 'I' for Inactive)
REMARK    1  A    between atoms: C7_7  and  C9_9 
REMARK    2  A    between atoms: C9_9  and  C10_10 
ROOT
HETATM    1  C1  UNL     1     -36.006   4.696   4.717  1.00 20.00     0.064 C 
HETATM    2  C2  UNL     1     -33.584   4.366   4.296  1.00 20.00     0.019 C 
HETATM    3  C3  UNL     1     -34.422   6.460   5.445  1.00 20.00     0.019 C 
HETATM    4  C4  UNL     1     -33.431   5.148   2.989  1.00 20.00     0.006 C 
HETATM    5  C5  UNL     1     -34.267   7.238   4.136  1.00 20.00     0.006 C 
HETATM    6  C6  UNL     1     -34.647   4.959   5.229  1.00 20.00     0.093 C 
HETATM    7  C7  UNL     1     -33.172   6.638   3.246  1.00 20.00    -0.014 C 
HETATM    8  N11 UNL     1     -37.074   4.489   4.315  1.00 20.00    -0.197 NA
ENDROOT
BRANCH   7   9
HETATM    9  C9  UNL     1     -33.070   7.402   1.927  1.00 20.00     0.004 C 
BRANCH   9  10
HETATM   10  C10 UNL     1     -32.381   8.748   2.121  1.00 20.00    -0.004 C 
HETATM   11  C8  UNL     1     -32.256   9.498   0.804  1.00 20.00     0.005 C 
ENDBRANCH   9  10
ENDBRANCH   7   9
TORSDOF 2
