REMARK  1 active torsions:
REMARK  status: ('A' for Active; 'I' for Inactive)
REMARK    1  A    between atoms: C1_1  and  C3_3 
ROOT
HETATM    1  C2  UNL     1     -34.955   6.424   3.441  1.00 20.00     0.084 A 
HETATM    2  C3  UNL     1     -33.505   6.029   3.247  1.00 20.00     0.087 A 
HETATM    3  C4  UNL     1     -34.114   6.103   4.641  1.00 20.00     0.195 A 
HETATM    4  C5  UNL     1     -33.238   4.687   2.612  1.00 20.00     0.029 C 
HETATM    5  F7  UNL     1     -33.740   7.199   5.416  1.00 20.00    -0.224 F 
HETATM    6 CL9  UNL     1     -34.472   4.647   5.552  1.00 20.00    -0.081 Cl
ENDROOT
BRANCH   2   7
HETATM    7  C1  UNL     1     -32.557   7.113   2.894  1.00 20.00     0.231 C 
HETATM    8  O6  UNL     1     -31.596   7.387   3.606  1.00 20.00    -0.279 OA
HETATM    9 CL8  UNL     1     -32.984   7.895   1.402  1.00 20.00    -0.043 Cl
ENDBRANCH   2   7
TORSDOF 1
