REMARK  1 active torsions:
REMARK  status: ('A' for Active; 'I' for Inactive)
REMARK    1  A    between atoms: C7_7  and  C11_11 
ROOT
HETATM    1  C1  UNL     1     -32.444   9.801   1.416  1.00 20.00     0.063 C 
HETATM    2  C11 UNL     1     -31.900   8.439   1.523  1.00 20.00     0.162 C 
HETATM    3  N12 UNL     1     -32.872  10.876   1.329  1.00 20.00    -0.197 NA
ENDROOT
BRANCH   2   4
HETATM    4  C7  UNL     1     -32.595   7.681   2.604  1.00 20.00    -0.045 A 
HETATM    5  C3  UNL     1     -33.101   8.368   3.719  1.00 20.00     0.009 A 
HETATM    6  C2  UNL     1     -33.750   7.678   4.746  1.00 20.00     0.008 A 
HETATM    7  C5  UNL     1     -33.890   6.306   4.629  1.00 20.00    -0.052 A 
HETATM    8  C6  UNL     1     -33.384   5.621   3.517  1.00 20.00    -0.051 A 
HETATM    9  C8  UNL     1     -34.506   5.355   5.605  1.00 20.00     0.039 C 
HETATM   10  C4  UNL     1     -32.729   6.294   2.500  1.00 20.00     0.015 A 
HETATM   11  C9  UNL     1     -33.615   4.149   3.648  1.00 20.00     0.039 C 
HETATM   12  C10 UNL     1     -34.712   4.115   4.723  1.00 20.00     0.009 C 
ENDBRANCH   2   4
TORSDOF 1
