REMARK  1 active torsions:
REMARK  status: ('A' for Active; 'I' for Inactive)
REMARK    1  A    between atoms: C8_8  and  C11_11 
ROOT
HETATM    1  C1  UNL     1     -35.838   5.981   4.062  1.00 20.00     0.136 C 
HETATM    2  C2  UNL     1     -34.220   4.501   5.147  1.00 20.00     0.017 C 
HETATM    3  C3  UNL     1     -34.116   7.065   5.733  1.00 20.00     0.018 C 
HETATM    4  C4  UNL     1     -33.908   5.267   2.918  1.00 20.00     0.023 C 
HETATM    5  C5  UNL     1     -35.006   4.722   3.841  1.00 20.00     0.057 C 
HETATM    6  C6  UNL     1     -34.735   7.106   4.309  1.00 20.00     0.065 C 
HETATM    7  C7  UNL     1     -33.358   5.786   5.262  1.00 20.00    -0.003 C 
HETATM    8  C8  UNL     1     -33.401   6.405   3.823  1.00 20.00    -0.023 C 
HETATM    9  O12 UNL     1     -37.057   6.030   4.060  1.00 20.00    -0.297 OA
ENDROOT
BRANCH   8  10
HETATM   10  C11 UNL     1     -32.251   7.215   3.288  1.00 20.00    -0.013 C 
HETATM   11  C9  UNL     1     -32.605   7.868   1.945  1.00 20.00     0.010 C 
HETATM   12  C10 UNL     1     -31.813   8.292   4.289  1.00 20.00     0.010 C 
ENDBRANCH   8  10
TORSDOF 1
