REMARK  1 active torsions:
REMARK  status: ('A' for Active; 'I' for Inactive)
REMARK    1  A    between atoms: C1_1  and  C7_7 
ROOT
HETATM    1  C2  UNL     1     -33.493   5.115   2.843  1.00 20.00     0.006 C 
HETATM    2  C3  UNL     1     -34.552   5.865   3.657  1.00 20.00     0.017 C 
HETATM    3  C4  UNL     1     -32.304   6.060   2.739  1.00 20.00     0.069 C 
HETATM    4  C5  UNL     1     -32.247   9.498   2.116  1.00 20.00     0.197 C 
HETATM    5  C6  UNL     1     -32.713   8.751   0.898  1.00 20.00     0.197 C 
HETATM    6  C7  UNL     1     -34.075   7.320   3.763  1.00 20.00     0.109 C 
HETATM    7  C8  UNL     1     -32.946   7.441   2.734  1.00 20.00     0.173 C 
HETATM    8  O10 UNL     1     -31.996   8.457   3.058  1.00 20.00    -0.352 OA
HETATM    9  O11 UNL     1     -33.522   7.710   1.443  1.00 20.00    -0.352 OA
ENDROOT
BRANCH   6  10
HETATM   10  C1  UNL     1     -33.616   7.609   5.162  1.00 20.00     0.241 C 
HETATM   11  O9  UNL     1     -33.135   6.759   5.905  1.00 20.00    -0.306 OA
ENDBRANCH   6  10
TORSDOF 1
