REMARK  0 active torsions:
REMARK  status: ('A' for Active; 'I' for Inactive)
ROOT
HETATM    1  C1  UNL     1     -31.933   8.351   1.373  1.00 20.00     0.015 C 
HETATM    2  C2  UNL     1     -32.174   7.550   2.234  1.00 20.00    -0.083 C 
HETATM    3  C3  UNL     1     -32.776   5.203   2.735  1.00 20.00     0.216 C 
HETATM    4  C4  UNL     1     -32.467   6.576   3.282  1.00 20.00     0.226 C 
HETATM    5  C5  UNL     1     -34.240   5.682   4.398  1.00 20.00     0.158 C 
HETATM    6  C6  UNL     1     -35.705   5.654   3.982  1.00 20.00     0.078 C 
HETATM    7  C7  UNL     1     -34.090   5.546   5.908  1.00 20.00     0.078 C 
HETATM    8  O8  UNL     1     -33.547   4.593   3.770  1.00 20.00    -0.352 OA
HETATM    9  O9  UNL     1     -33.668   6.930   3.977  1.00 20.00    -0.336 OA
ENDROOT
TORSDOF 0
