REMARK  1 active torsions:
REMARK  status: ('A' for Active; 'I' for Inactive)
REMARK    1  A    between atoms: C3_3  and  C7_7 
REMARK       I    between atoms: C3_3  and  N8_8 
ROOT
HETATM    1  C1  UNL     1     -34.082   5.238   5.560  1.00 20.00    -0.010 A 
HETATM    2  C2  UNL     1     -34.806   5.089   4.446  1.00 20.00    -0.010 A 
HETATM    3  C3  UNL     1     -32.454   7.707   3.439  1.00 20.00     0.219 C 
HETATM    4  C4  UNL     1     -33.032   6.279   5.388  1.00 20.00     0.153 A 
HETATM    5  C5  UNL     1     -34.342   6.010   3.371  1.00 20.00     0.153 A 
HETATM    6  N8  UNL     1     -33.240   6.722   4.015  1.00 20.00    -0.345 N 
HETATM    7  O9  UNL     1     -31.533   8.281   4.021  1.00 20.00    -0.273 OA
ENDROOT
BRANCH   3   8
HETATM    8  C7  UNL     1     -32.793   8.056   2.012  1.00 20.00     0.098 C 
HETATM    9  C6  UNL     1     -31.889   9.160   1.522  1.00 20.00     0.014 C 
ENDBRANCH   3   8
TORSDOF 1
