REMARK  0 active torsions:
REMARK  status: ('A' for Active; 'I' for Inactive)
ROOT
HETATM    1  C1  UNL     1     -32.834   7.394   3.317  1.00 20.00     0.280 C 
HETATM    2  C2  UNL     1     -32.428   7.863   4.708  1.00 20.00     0.104 C 
HETATM    3  C3  UNL     1     -34.053   5.850   5.572  1.00 20.00     0.114 C 
HETATM    4  C4  UNL     1     -34.272   5.524   4.080  1.00 20.00     0.159 C 
HETATM    5  C5  UNL     1     -35.609   6.090   3.560  1.00 20.00     0.049 C 
HETATM    6  C6  UNL     1     -34.331   3.988   3.938  1.00 20.00     0.049 C 
HETATM    7  N7  UNL     1     -33.138   5.966   3.249  1.00 20.00     0.093 N 
HETATM    8  S8  UNL     1     -33.764   7.613   5.905  1.00 20.00    -0.165 SA
HETATM    9  H21 UNL     1     -33.311   5.711   2.276  1.00 20.00     0.316 HD
ENDROOT
TORSDOF 0
