REMARK  0 active torsions:
REMARK  status: ('A' for Active; 'I' for Inactive)
ROOT
HETATM    1  C1  UNL     1     -32.787   7.714   4.644  1.00 20.00     0.282 C 
HETATM    2  C2  UNL     1     -33.427   5.927   3.126  1.00 20.00     0.286 C 
HETATM    3  C3  UNL     1     -33.919   7.479   5.641  1.00 20.00     0.104 C 
HETATM    4  C4  UNL     1     -34.647   5.441   3.924  1.00 20.00     0.071 C 
HETATM    5  C5  UNL     1     -35.957   6.063   3.443  1.00 20.00     0.023 C 
HETATM    6  C6  UNL     1     -32.101   7.775   2.341  1.00 20.00     0.310 C 
HETATM    7  N7  UNL     1     -33.162   7.368   3.266  1.00 20.00     0.086 N 
HETATM    8  S8  UNL     1     -34.412   5.734   5.710  1.00 20.00    -0.161 SA
ENDROOT
TORSDOF 0
