REMARK  0 active torsions:
REMARK  status: ('A' for Active; 'I' for Inactive)
ROOT
HETATM    1  C1  UNL     1     -34.881   5.612   5.056  1.00 20.00     0.282 C 
HETATM    2  C2  UNL     1     -33.915   6.513   3.007  1.00 20.00     0.286 C 
HETATM    3  C3  UNL     1     -33.780   6.124   5.983  1.00 20.00     0.104 C 
HETATM    4  C4  UNL     1     -32.681   7.143   3.672  1.00 20.00     0.071 C 
HETATM    5  C5  UNL     1     -32.200   8.356   2.878  1.00 20.00     0.023 C 
HETATM    6  C6  UNL     1     -33.600   4.162   3.574  1.00 20.00     0.310 C 
HETATM    7  N7  UNL     1     -34.470   5.330   3.677  1.00 20.00     0.086 N 
HETATM    8  S8  UNL     1     -33.062   7.675   5.376  1.00 20.00    -0.161 SA
ENDROOT
TORSDOF 0
