REMARK  1 active torsions:
REMARK  status: ('A' for Active; 'I' for Inactive)
REMARK    1  A    between atoms: C1_1  and  C9_9 
ROOT
HETATM    1  C1  UNL     1     -32.432   6.710   3.531  1.00 20.00     0.020 C 
HETATM    2  C2  UNL     1     -32.632   5.420   2.820  1.00 20.00     0.058 C 
HETATM    3  C3  UNL     1     -33.525   4.665   3.799  1.00 20.00     0.038 C 
HETATM    4  C4  UNL     1     -34.315   5.751   4.543  1.00 20.00     0.055 C 
HETATM    5  C5  UNL     1     -34.542   5.413   6.009  1.00 20.00     0.041 C 
HETATM    6  C6  UNL     1     -35.596   6.164   3.826  1.00 20.00     0.041 C 
HETATM    7  N10 UNL     1     -33.359   6.883   4.436  1.00 20.00    -0.224 N 
HETATM    8  O11 UNL     1     -33.468   7.930   5.150  1.00 20.00    -0.085 OA
ENDROOT
BRANCH   1   9
HETATM    9  C9  UNL     1     -31.421   7.740   3.210  1.00 20.00     0.025 C 
HETATM   10  C7  UNL     1     -30.002   7.181   3.358  1.00 20.00     0.016 C 
HETATM   11  C8  UNL     1     -31.621   8.304   1.798  1.00 20.00     0.016 C 
ENDBRANCH   1   9
TORSDOF 1
