REMARK  2 active torsions:
REMARK  status: ('A' for Active; 'I' for Inactive)
REMARK       I    between atoms: C1_1  and  N6_6 
REMARK    1  A    between atoms: C4_4  and  C5_5 
REMARK    2  A    between atoms: C5_5  and  N6_6 
ROOT
HETATM    1  C1  UNL     1     -33.498   5.490   3.427  1.00 20.00     0.316 C 
HETATM    2  C3  UNL     1     -33.860   7.409   5.034  1.00 20.00     0.154 C 
HETATM    3  N6  UNL     1     -33.224   6.822   3.846  1.00 20.00    -0.343 N 
HETATM    4  O7  UNL     1     -32.971   4.987   2.432  1.00 20.00    -0.254 OA
HETATM    5 CL8  UNL     1     -34.630   4.578   4.409  1.00 20.00    -0.020 Cl
ENDROOT
BRANCH   3   6
HETATM    6  C5  UNL     1     -32.311   7.671   3.134  1.00 20.00     0.126 C 
BRANCH   6   7
HETATM    7  C4  UNL     1     -33.002   8.485   2.047  1.00 20.00     0.015 C 
HETATM    8  C2  UNL     1     -32.038   9.372   1.273  1.00 20.00     0.006 C 
ENDBRANCH   6   7
ENDBRANCH   3   6
TORSDOF 2
