REMARK  3 active torsions:
REMARK  status: ('A' for Active; 'I' for Inactive)
REMARK    1  A    between atoms: C1_1  and  C4_4 
REMARK    2  A    between atoms: C2_2  and  C5_5 
REMARK    3  A    between atoms: C2_2  and  O9_9 
ROOT
HETATM    1  C3  UNL     1     -34.060   7.942   5.499  1.00 20.00     0.028 A 
HETATM    2  C4  UNL     1     -33.831   6.461   5.627  1.00 20.00     0.061 A 
HETATM    3  C5  UNL     1     -32.805   7.330   4.940  1.00 20.00     0.097 A 
ENDROOT
BRANCH   3   4
HETATM    4  C2  UNL     1     -32.622   7.269   3.485  1.00 20.00     0.263 C 
HETATM    5  O8  UNL     1     -32.886   6.289   2.802  1.00 20.00    -0.265 OA
BRANCH   4   6
HETATM    6  O9  UNL     1     -32.121   8.456   3.039  1.00 20.00    -0.326 OA
HETATM    7  C6  UNL     1     -31.892   8.535   1.628  1.00 20.00     0.213 C 
ENDBRANCH   4   6
ENDBRANCH   3   4
BRANCH   2   8
HETATM    8  C1  UNL     1     -34.669   5.536   4.855  1.00 20.00     0.236 C 
HETATM    9  O7  UNL     1     -34.321   4.398   4.556  1.00 20.00    -0.306 OA
ENDBRANCH   2   8
TORSDOF 3
