REMARK  3 active torsions:
REMARK  status: ('A' for Active; 'I' for Inactive)
REMARK    1  A    between atoms: C2_2  and  C3_3 
REMARK    2  A    between atoms: C3_3  and  N8_8 
REMARK    3  A    between atoms: C7_7  and  N8_8 
ROOT
HETATM    1  C3  UNL     1     -32.444   7.557   2.863  1.00 20.00     0.102 C 
HETATM    2  S9  UNL     1     -31.278   8.308   3.817  1.00 20.00    -0.060 SA
ENDROOT
BRANCH   1   3
HETATM    3  C2  UNL     1     -33.164   6.319   3.273  1.00 20.00    -0.034 C 
HETATM    4  C1  UNL     1     -33.027   5.237   2.494  1.00 20.00     0.021 C 
HETATM    5  C4  UNL     1     -34.001   6.367   4.510  1.00 20.00     0.050 C 
ENDBRANCH   1   3
BRANCH   1   6
HETATM    6  N8  UNL     1     -32.762   8.085   1.631  1.00 20.00    -0.377 N 
HETATM    7  H22 UNL     1     -33.467   7.589   1.094  1.00 20.00     0.160 HD
BRANCH   6   8
HETATM    8  C7  UNL     1     -32.217   9.287   1.028  1.00 20.00     0.074 C 
HETATM    9  C5  UNL     1     -33.062  10.482   1.444  1.00 20.00     0.031 C 
HETATM   10  C6  UNL     1     -32.194   9.113  -0.484  1.00 20.00     0.031 C 
ENDBRANCH   6   8
ENDBRANCH   1   6
TORSDOF 3
