REMARK  3 active torsions:
REMARK  status: ('A' for Active; 'I' for Inactive)
REMARK    1  A    between atoms: C2_2  and  N9_9 
REMARK    2  A    between atoms: C3_3  and  C8_8 
REMARK    3  A    between atoms: C7_7  and  C8_8 
ROOT
HETATM    1  C3  UNL     1     -33.013   7.738   3.078  1.00 20.00     0.099 C 
HETATM    2  N9  UNL     1     -32.914   8.092   1.838  1.00 20.00    -0.277 NA
ENDROOT
BRANCH   1   3
HETATM    3  C8  UNL     1     -33.588   6.384   3.489  1.00 20.00    -0.001 C 
HETATM    4  C5  UNL     1     -35.029   6.339   2.951  1.00 20.00     0.021 C 
HETATM    5  C6  UNL     1     -32.802   5.209   2.889  1.00 20.00     0.021 C 
BRANCH   3   6
HETATM    6  C7  UNL     1     -33.636   6.312   5.028  1.00 20.00     0.129 C 
HETATM    7 CL10 UNL     1     -34.287   4.768   5.643  1.00 20.00    -0.129 Cl
ENDBRANCH   3   6
ENDBRANCH   1   3
BRANCH   2   8
HETATM    8  C2  UNL     1     -32.382   9.327   1.625  1.00 20.00     0.111 C 
HETATM    9  C1  UNL     1     -32.704  10.095   0.577  1.00 20.00    -0.012 C 
HETATM   10  C4  UNL     1     -33.680   9.694  -0.479  1.00 20.00     0.037 C 
ENDBRANCH   2   8
TORSDOF 3
