REMARK  3 active torsions:
REMARK  status: ('A' for Active; 'I' for Inactive)
REMARK    1  A    between atoms: C4_4  and  C10_10 
REMARK    2  A    between atoms: C8_8  and  C10_10 
REMARK    3  A    between atoms: C8_8  and  O11_11 
ROOT
HETATM    1  C1  UNL     1     -34.521   5.390   4.503  1.00 20.00    -0.030 C 
HETATM    2  C2  UNL     1     -33.991   5.201   3.287  1.00 20.00    -0.028 C 
HETATM    3  C5  UNL     1     -34.258   6.608   5.333  1.00 20.00     0.030 C 
HETATM    4  C6  UNL     1     -33.099   6.203   2.610  1.00 20.00     0.065 C 
HETATM    5  C7  UNL     1     -33.088   7.452   4.813  1.00 20.00     0.042 C 
HETATM    6  C8  UNL     1     -33.109   7.590   3.283  1.00 20.00     0.068 C 
ENDROOT
BRANCH   6   7
HETATM    7  C10 UNL     1     -31.930   8.435   2.799  1.00 20.00     0.038 C 
HETATM    8  C9  UNL     1     -31.913   9.789   3.508  1.00 20.00     0.017 C 
BRANCH   7   9
HETATM    9  C4  UNL     1     -32.006   8.628   1.307  1.00 20.00    -0.030 C 
HETATM   10  C3  UNL     1     -32.623   9.658   0.718  1.00 20.00     0.007 C 
ENDBRANCH   7   9
ENDBRANCH   6   7
BRANCH   6  11
HETATM   11  O11 UNL     1     -34.312   8.277   2.918  1.00 20.00    -0.389 OA
HETATM   12  H27 UNL     1     -34.294   8.355   1.953  1.00 20.00     0.210 HD
ENDBRANCH   6  11
TORSDOF 3
