REMARK  1 active torsions:
REMARK  status: ('A' for Active; 'I' for Inactive)
REMARK    1  A    between atoms: C2_2  and  C5_5 
ROOT
HETATM    1  C1  UNL     1     -34.312   5.930   4.826  1.00 20.00     0.153 A 
HETATM    2  C2  UNL     1     -33.934   5.734   3.369  1.00 20.00     0.096 A 
HETATM    3  C3  UNL     1     -34.163   4.873   5.860  1.00 20.00     0.042 C 
HETATM    4  C4  UNL     1     -33.374   4.437   2.877  1.00 20.00     0.050 C 
HETATM    5  O6  UNL     1     -35.295   5.651   3.820  1.00 20.00    -0.369 OA
ENDROOT
BRANCH   2   6
HETATM    6  C5  UNL     1     -33.648   6.943   2.534  1.00 20.00     0.154 C 
HETATM    7 CL7  UNL     1     -32.000   7.554   2.835  1.00 20.00    -0.127 Cl
ENDBRANCH   2   6
TORSDOF 1
