REMARK  2 active torsions:
REMARK  status: ('A' for Active; 'I' for Inactive)
REMARK    1  A    between atoms: C1_1  and  C3_3 
REMARK    2  A    between atoms: C2_2  and  N9_9 
ROOT
HETATM    1  C1  UNL     1     -33.540   6.713   2.524  1.00 20.00     0.050 C 
HETATM    2  C2  UNL     1     -32.573   7.647   2.488  1.00 20.00     0.002 C 
HETATM    3  C4  UNL     1     -31.675   7.824   3.685  1.00 20.00     0.068 C 
ENDROOT
BRANCH   1   4
HETATM    4  C3  UNL     1     -33.771   5.830   3.706  1.00 20.00     0.026 C 
HETATM    5  C5  UNL     1     -33.637   4.346   3.449  1.00 20.00     0.070 C 
HETATM    6  N8  UNL     1     -34.035   6.341   4.864  1.00 20.00    -0.299 NA
HETATM    7  C6  UNL     1     -34.238   5.445   5.992  1.00 20.00     0.177 C 
ENDBRANCH   1   4
BRANCH   2   8
HETATM    8  N9  UNL     1     -32.300   8.479   1.436  1.00 20.00    -0.398 N 
HETATM    9  C7  UNL     1     -32.379   9.903   1.594  1.00 20.00     0.146 C 
HETATM   10  H23 UNL     1     -32.051   8.047   0.581  1.00 20.00     0.158 HD
ENDBRANCH   2   8
TORSDOF 2
