REMARK  2 active torsions:
REMARK  status: ('A' for Active; 'I' for Inactive)
REMARK    1  A    between atoms: C2_2  and  C4_4 
REMARK    2  A    between atoms: C3_3  and  C5_5 
ROOT
HETATM    1  C1  UNL     1     -32.105   8.373   3.621  1.00 20.00     0.133 A 
HETATM    2  C2  UNL     1     -32.300   8.243   2.261  1.00 20.00     0.016 A 
HETATM    3  C3  UNL     1     -33.380   6.589   3.640  1.00 20.00     0.181 A 
HETATM    4  N6  UNL     1     -32.723   7.426   4.412  1.00 20.00    -0.248 NA
HETATM    5  S10 UNL     1     -33.296   6.882   1.951  1.00 20.00    -0.068 SA
ENDROOT
BRANCH   3   6
HETATM    6  C5  UNL     1     -34.167   5.437   4.131  1.00 20.00     0.441 C 
HETATM    7  F7  UNL     1     -34.163   5.298   5.495  1.00 20.00    -0.164 F 
HETATM    8  F8  UNL     1     -35.494   5.482   3.793  1.00 20.00    -0.164 F 
HETATM    9  F9  UNL     1     -33.718   4.235   3.651  1.00 20.00    -0.164 F 
ENDBRANCH   3   6
BRANCH   2  10
HETATM   10  C4  UNL     1     -31.793   9.071   1.150  1.00 20.00     0.162 C 
HETATM   11 CL11 UNL     1     -33.077  10.115   0.485  1.00 20.00    -0.125 Cl
ENDBRANCH   2  10
TORSDOF 2
