REMARK  2 active torsions:
REMARK  status: ('A' for Active; 'I' for Inactive)
REMARK    1  A    between atoms: C6_6  and  C8_8 
REMARK    2  A    between atoms: C7_7  and  C8_8 
ROOT
HETATM    1  C1  UNL     1     -31.448   8.976   0.075  1.00 20.00     0.001 A 
HETATM    2  C2  UNL     1     -32.259  10.031   0.653  1.00 20.00     0.001 A 
HETATM    3  C3  UNL     1     -31.663   7.830   0.741  1.00 20.00     0.013 A 
HETATM    4  C4  UNL     1     -32.974   9.537   1.676  1.00 20.00     0.013 A 
HETATM    5  C5  UNL     1     -32.631   8.132   1.777  1.00 20.00    -0.018 A 
HETATM    6  C7  UNL     1     -33.122   7.267   2.668  1.00 20.00     0.028 C 
HETATM    7 CL10 UNL     1     -32.564   5.626   2.682  1.00 20.00    -0.088 Cl
ENDROOT
BRANCH   6   8
HETATM    8  C8  UNL     1     -34.123   7.623   3.723  1.00 20.00     0.121 C 
BRANCH   8   9
HETATM    9  C6  UNL     1     -33.597   7.371   5.120  1.00 20.00     0.236 C 
HETATM   10  O9  UNL     1     -34.120   6.638   5.952  1.00 20.00    -0.307 OA
ENDBRANCH   8   9
ENDBRANCH   6   8
TORSDOF 2
