REMARK  2 active torsions:
REMARK  status: ('A' for Active; 'I' for Inactive)
REMARK    1  A    between atoms: C4_4  and  C8_8 
REMARK    2  A    between atoms: C5_5  and  O9_9 
ROOT
HETATM    1  C1  UNL     1     -32.831   5.346   3.524  1.00 20.00     0.007 C 
HETATM    2  C2  UNL     1     -33.905   4.932   4.536  1.00 20.00     0.032 C 
HETATM    3  C3  UNL     1     -34.140   7.287   4.024  1.00 20.00     0.036 C 
HETATM    4  C4  UNL     1     -33.332   6.647   2.896  1.00 20.00    -0.009 C 
HETATM    5  C5  UNL     1     -34.885   6.101   4.623  1.00 20.00     0.118 C 
ENDROOT
BRANCH   4   6
HETATM    6  C8  UNL     1     -32.211   7.536   2.384  1.00 20.00    -0.019 C 
HETATM    7  C6  UNL     1     -32.774   8.803   1.737  1.00 20.00     0.010 C 
HETATM    8  C7  UNL     1     -31.246   7.901   3.514  1.00 20.00     0.010 C 
ENDBRANCH   4   6
BRANCH   5   9
HETATM    9  O9  UNL     1     -36.032   5.800   3.835  1.00 20.00    -0.396 OA
HETATM   10  H25 UNL     1     -36.418   4.991   4.205  1.00 20.00     0.210 HD
ENDBRANCH   5   9
TORSDOF 2
