REMARK  4 active torsions:
REMARK  status: ('A' for Active; 'I' for Inactive)
REMARK    1  A    between atoms: C1_1  and  C7_7 
REMARK    2  A    between atoms: C1_1  and  O11_11 
REMARK    3  A    between atoms: C7_7  and  C8_8 
REMARK    4  A    between atoms: C8_8  and  C9_9 
ROOT
HETATM    1  C2  UNL     1     -34.074   7.960   4.074  1.00 20.00     0.011 C 
HETATM    2  C8  UNL     1     -33.342   6.610   4.205  1.00 20.00    -0.002 C 
ENDROOT
BRANCH   2   3
HETATM    3  C7  UNL     1     -32.469   6.389   2.946  1.00 20.00     0.116 C 
BRANCH   3   4
HETATM    4  C1  UNL     1     -31.874   7.674   2.403  1.00 20.00     0.258 C 
HETATM    5  O10 UNL     1     -30.774   8.120   2.701  1.00 20.00    -0.265 OA
BRANCH   4   6
HETATM    6  O11 UNL     1     -32.743   8.223   1.504  1.00 20.00    -0.326 OA
HETATM    7  C6  UNL     1     -32.297   9.428   0.873  1.00 20.00     0.213 C 
ENDBRANCH   4   6
ENDBRANCH   3   4
ENDBRANCH   2   3
BRANCH   2   8
HETATM    8  C9  UNL     1     -34.312   5.406   4.510  1.00 20.00    -0.048 C 
HETATM    9  C3  UNL     1     -34.577   5.235   6.017  1.00 20.00     0.015 C 
HETATM   10  C4  UNL     1     -33.725   4.083   3.969  1.00 20.00     0.015 C 
HETATM   11  C5  UNL     1     -35.668   5.621   3.800  1.00 20.00     0.015 C 
ENDBRANCH   2   8
TORSDOF 4
