REMARK  2 active torsions:
REMARK  status: ('A' for Active; 'I' for Inactive)
REMARK    1  A    between atoms: C7_7  and  C8_8 
REMARK    2  A    between atoms: C8_8  and  O10_10 
ROOT
HETATM    1  C1  UNL     1     -33.255   7.328   2.230  1.00 20.00     0.071 C 
HETATM    2  C2  UNL     1     -32.873  10.320   0.106  1.00 20.00     0.000 C 
HETATM    3  C3  UNL     1     -32.216   8.976  -0.183  1.00 20.00     0.002 C 
HETATM    4  C4  UNL     1     -33.737  10.266   1.361  1.00 20.00     0.002 C 
HETATM    5  C5  UNL     1     -31.417   8.466   1.020  1.00 20.00     0.027 C 
HETATM    6  C6  UNL     1     -32.947   9.763   2.571  1.00 20.00     0.027 C 
HETATM    7  C7  UNL     1     -32.247   8.410   2.321  1.00 20.00     0.070 C 
HETATM    8  N9  UNL     1     -34.045   6.481   2.159  1.00 20.00    -0.196 NA
ENDROOT
BRANCH   7   9
HETATM    9  C8  UNL     1     -31.316   8.092   3.504  1.00 20.00     0.188 C 
BRANCH   9  10
HETATM   10  O10 UNL     1     -32.099   8.047   4.678  1.00 20.00    -0.399 OA
HETATM   11  H23 UNL     1     -31.499   7.846   5.418  1.00 20.00     0.209 HD
ENDBRANCH   9  10
ENDBRANCH   7   9
TORSDOF 2
