REMARK  2 active torsions:
REMARK  status: ('A' for Active; 'I' for Inactive)
REMARK    1  A    between atoms: C5_5  and  C8_8 
REMARK    2  A    between atoms: C6_6  and  N9_9 
ROOT
HETATM    1  C1  UNL     1     -34.435   5.927   2.882  1.00 20.00     0.006 C 
HETATM    2  C2  UNL     1     -33.150   7.283   4.582  1.00 20.00     0.006 C 
HETATM    3  C3  UNL     1     -35.485   5.582   3.940  1.00 20.00     0.024 C 
HETATM    4  C4  UNL     1     -34.192   6.947   5.649  1.00 20.00     0.024 C 
HETATM    5  C5  UNL     1     -33.754   7.269   3.173  1.00 20.00    -0.015 C 
HETATM    6  C6  UNL     1     -34.941   5.645   5.367  1.00 20.00     0.109 C 
ENDROOT
BRANCH   5   7
HETATM    7  C8  UNL     1     -32.683   7.567   2.125  1.00 20.00     0.000 C 
HETATM    8  C7  UNL     1     -32.031   8.890   2.363  1.00 20.00     0.005 C 
ENDBRANCH   5   7
BRANCH   6   9
HETATM    9  N9  UNL     1     -34.054   4.498   5.611  1.00 20.00    -0.059 NA
HETATM   10  O10 UNL     1     -33.940   3.798   4.607  1.00 20.00    -0.101 OA
ENDBRANCH   6   9
TORSDOF 2
