REMARK  2 active torsions:
REMARK  status: ('A' for Active; 'I' for Inactive)
REMARK    1  A    between atoms: C4_4  and  C7_7 
REMARK    2  A    between atoms: C5_5  and  O8_8 
ROOT
HETATM    1  C1  UNL     1     -33.206   7.101   5.694  1.00 20.00     0.007 C 
HETATM    2  C2  UNL     1     -34.019   5.827   5.946  1.00 20.00     0.032 C 
HETATM    3  C3  UNL     1     -33.490   6.021   3.583  1.00 20.00     0.036 C 
HETATM    4  C4  UNL     1     -33.384   7.411   4.209  1.00 20.00    -0.012 C 
HETATM    5  C5  UNL     1     -34.376   5.268   4.567  1.00 20.00     0.118 C 
ENDROOT
BRANCH   4   6
HETATM    6  C7  UNL     1     -32.251   8.242   3.631  1.00 20.00     0.000 C 
HETATM    7  C6  UNL     1     -32.434   8.496   2.168  1.00 20.00     0.005 C 
ENDBRANCH   4   6
BRANCH   5   8
HETATM    8  O8  UNL     1     -35.740   5.552   4.271  1.00 20.00    -0.396 OA
HETATM    9  H22 UNL     1     -36.269   5.124   4.963  1.00 20.00     0.210 HD
ENDBRANCH   5   8
TORSDOF 2
