REMARK  0 active torsions:
REMARK  status: ('A' for Active; 'I' for Inactive)
ROOT
HETATM    1  C1  UNL     1     -33.399   6.966   2.011  1.00 20.00     0.047 A 
HETATM    2  C2  UNL     1     -33.852   6.739   3.323  1.00 20.00     0.026 A 
HETATM    3  C3  UNL     1     -33.073   7.348   4.265  1.00 20.00    -0.001 A 
HETATM    4  C4  UNL     1     -32.262   7.759   2.024  1.00 20.00     0.075 A 
HETATM    5  C5  UNL     1     -34.921   6.031   3.978  1.00 20.00     0.175 A 
HETATM    6  C6  UNL     1     -33.516   7.155   5.669  1.00 20.00     0.071 A 
HETATM    7  C7  UNL     1     -34.741   6.207   5.494  1.00 20.00     0.137 A 
HETATM    8  O8  UNL     1     -35.797   5.391   3.418  1.00 20.00    -0.291 OA
HETATM    9  S9  UNL     1     -31.782   8.204   3.626  1.00 20.00    -0.082 SA
HETATM   10 CL10 UNL     1     -31.347   8.304   0.680  1.00 20.00    -0.076 Cl
HETATM   11 BR11 UNL     1     -34.364   4.442   6.205  1.00 20.00    -0.082 Br
ENDROOT
TORSDOF 0
