REMARK  1 active torsions:
REMARK  status: ('A' for Active; 'I' for Inactive)
REMARK    1  A    between atoms: C5_5  and  O10_10 
ROOT
HETATM    1  C1  UNL     1     -34.107   5.977   2.562  1.00 20.00     0.050 A 
HETATM    2  C2  UNL     1     -33.641   6.582   4.873  1.00 20.00     0.079 A 
HETATM    3  C3  UNL     1     -33.334   7.054   2.162  1.00 20.00    -0.046 A 
HETATM    4  C4  UNL     1     -32.724   7.893   3.101  1.00 20.00    -0.018 A 
HETATM    5  C5  UNL     1     -32.874   7.674   4.460  1.00 20.00     0.075 A 
HETATM    6  C6  UNL     1     -34.253   5.740   3.931  1.00 20.00     0.119 A 
HETATM    7  C7  UNL     1     -33.066   7.528   0.768  1.00 20.00     0.039 C 
HETATM    8  C8  UNL     1     -31.989   9.006   2.422  1.00 20.00     0.042 C 
HETATM    9  C9  UNL     1     -31.858   8.450   0.996  1.00 20.00     0.009 C 
HETATM   10  F11 UNL     1     -34.991   4.703   4.350  1.00 20.00    -0.206 F 
ENDROOT
BRANCH   5  11
HETATM   11  O10 UNL     1     -32.296   8.493   5.375  1.00 20.00    -0.360 OA
HETATM   12  H20 UNL     1     -32.504   8.196   6.277  1.00 20.00     0.217 HD
ENDBRANCH   5  11
TORSDOF 1
