REMARK  1 active torsions:
REMARK  status: ('A' for Active; 'I' for Inactive)
REMARK    1  A    between atoms: C1_1  and  C8_8 
ROOT
HETATM    1  C2  UNL     1     -34.737   5.659   5.063  1.00 20.00     0.000 C 
HETATM    2  C3  UNL     1     -34.329   7.077   5.446  1.00 20.00     0.001 C 
HETATM    3  C4  UNL     1     -35.087   5.576   3.581  1.00 20.00     0.006 C 
HETATM    4  C5  UNL     1     -33.044   7.489   4.733  1.00 20.00     0.019 C 
HETATM    5  C6  UNL     1     -32.636   5.914   2.729  1.00 20.00     0.025 A 
HETATM    6  C7  UNL     1     -34.095   6.248   2.684  1.00 20.00     0.004 A 
HETATM    7  C8  UNL     1     -33.110   7.271   3.233  1.00 20.00     0.040 A 
ENDROOT
BRANCH   7   8
HETATM    8  C1  UNL     1     -32.821   8.438   2.368  1.00 20.00     0.228 C 
HETATM    9  O9  UNL     1     -33.494   9.463   2.422  1.00 20.00    -0.279 OA
HETATM   10 CL10 UNL     1     -31.462   8.158   1.324  1.00 20.00    -0.043 Cl
ENDBRANCH   7   8
TORSDOF 1
