REMARK  2 active torsions:
REMARK  status: ('A' for Active; 'I' for Inactive)
REMARK    1  A    between atoms: C2_2  and  C5_5 
REMARK    2  A    between atoms: C9_9  and  N10_10 
ROOT
HETATM    1  C3  UNL     1     -33.711   4.649   2.649  1.00 20.00     0.070 C 
HETATM    2  C4  UNL     1     -32.455   5.535   2.530  1.00 20.00     0.277 C 
HETATM    3  C5  UNL     1     -34.380   5.918   3.229  1.00 20.00     0.247 C 
HETATM    4  N10 UNL     1     -33.016   6.365   3.628  1.00 20.00     0.105 N 
ENDROOT
BRANCH   4   5
HETATM    5  C9  UNL     1     -32.829   7.784   3.337  1.00 20.00     0.150 C 
HETATM    6  C6  UNL     1     -32.841   7.996   1.819  1.00 20.00     0.048 C 
HETATM    7  C7  UNL     1     -33.969   8.581   3.980  1.00 20.00     0.048 C 
HETATM    8  C8  UNL     1     -31.485   8.246   3.910  1.00 20.00     0.048 C 
ENDBRANCH   4   5
BRANCH   3   9
HETATM    9  C2  UNL     1     -35.248   5.708   4.402  1.00 20.00    -0.002 C 
HETATM   10  C1  UNL     1     -34.794   5.540   5.648  1.00 20.00     0.009 C 
ENDBRANCH   3   9
TORSDOF 2
