REMARK  0 active torsions:
REMARK  status: ('A' for Active; 'I' for Inactive)
ROOT
HETATM    1  C1  UNL     1     -33.417   7.189   6.337  1.00 20.00     0.097 A 
HETATM    2  C2  UNL     1     -32.526   9.028   5.193  1.00 20.00     0.097 A 
HETATM    3  C3  UNL     1     -33.576   6.479   5.147  1.00 20.00    -0.016 A 
HETATM    4  C4  UNL     1     -32.657   8.376   3.967  1.00 20.00    -0.016 A 
HETATM    5  C5  UNL     1     -33.168   7.063   3.932  1.00 20.00     0.045 A 
HETATM    6  C6  UNL     1     -34.133   5.081   5.190  1.00 20.00     0.044 C 
HETATM    7  C7  UNL     1     -32.201   9.067   2.710  1.00 20.00     0.044 C 
HETATM    8  C8  UNL     1     -34.669   4.660   3.827  1.00 20.00     0.025 C 
HETATM    9  C9  UNL     1     -32.838   8.441   1.476  1.00 20.00     0.025 C 
HETATM   10  C10 UNL     1     -33.644   4.957   2.740  1.00 20.00     0.123 C 
HETATM   11  C11 UNL     1     -32.691   6.925   1.516  1.00 20.00     0.123 C 
HETATM   12  N12 UNL     1     -32.904   8.423   6.323  1.00 20.00    -0.374 N 
HETATM   13  N13 UNL     1     -33.303   6.378   2.724  1.00 20.00    -0.380 N 
HETATM   14  H28 UNL     1     -32.798   8.921   7.206  1.00 20.00     0.164 HD
ENDROOT
TORSDOF 0
