REMARK  4 active torsions:
REMARK  status: ('A' for Active; 'I' for Inactive)
REMARK    1  A    between atoms: C1_1  and  C7_7 
REMARK    2  A    between atoms: C1_1  and  C8_8 
REMARK    3  A    between atoms: C7_7  and  O10_10 
REMARK    4  A    between atoms: C7_7  and  O11_11 
ROOT
HETATM    1  C1  UNL     1     -33.073   6.890   4.266  1.00 20.00     0.188 C 
HETATM    2  O9  UNL     1     -33.072   7.241   5.449  1.00 20.00    -0.292 OA
ENDROOT
BRANCH   1   3
HETATM    3  C7  UNL     1     -32.149   7.575   3.263  1.00 20.00     0.330 C 
BRANCH   3   4
HETATM    4  O10 UNL     1     -33.033   8.050   2.247  1.00 20.00    -0.359 OA
HETATM    5  C5  UNL     1     -32.355   8.309   1.025  1.00 20.00     0.205 C 
ENDBRANCH   3   4
BRANCH   3   6
HETATM    6  O11 UNL     1     -31.473   8.651   3.904  1.00 20.00    -0.359 OA
HETATM    7  C6  UNL     1     -32.280   9.816   4.009  1.00 20.00     0.205 C 
ENDBRANCH   3   6
ENDBRANCH   1   3
BRANCH   1   8
HETATM    8  C8  UNL     1     -33.960   5.724   3.776  1.00 20.00     0.015 C 
HETATM    9  C2  UNL     1     -33.237   5.009   2.626  1.00 20.00     0.023 C 
HETATM   10  C3  UNL     1     -34.170   4.725   4.929  1.00 20.00     0.023 C 
HETATM   11  C4  UNL     1     -35.335   6.218   3.310  1.00 20.00     0.023 C 
ENDBRANCH   1   8
TORSDOF 4
