REMARK  1 active torsions:
REMARK  status: ('A' for Active; 'I' for Inactive)
REMARK    1  A    between atoms: C2_2  and  C6_6 
ROOT
HETATM    1  C1  UNL     1     -32.445   7.715   4.293  1.00 20.00     0.134 A 
HETATM    2  C2  UNL     1     -33.299   6.681   3.973  1.00 20.00     0.006 A 
HETATM    3  C3  UNL     1     -32.515   8.006   2.120  1.00 20.00     0.167 A 
HETATM    4  N7  UNL     1     -31.994   8.476   3.232  1.00 20.00    -0.240 NA
HETATM    5  S8  UNL     1     -33.556   6.651   2.278  1.00 20.00    -0.061 SA
HETATM    6 CL9  UNL     1     -32.200   8.679   0.576  1.00 20.00    -0.054 Cl
ENDROOT
BRANCH   2   7
HETATM    7  C6  UNL     1     -33.973   5.663   4.874  1.00 20.00     0.019 C 
HETATM    8  C4  UNL     1     -35.290   5.165   4.273  1.00 20.00     0.015 C 
HETATM    9  C5  UNL     1     -34.192   6.216   6.284  1.00 20.00     0.015 C 
ENDBRANCH   2   7
TORSDOF 1
