REMARK  1 active torsions:
REMARK  status: ('A' for Active; 'I' for Inactive)
REMARK    1  A    between atoms: C5_5  and  C8_8 
ROOT
HETATM    1  C1  UNL     1     -32.467   7.963   3.962  1.00 20.00     0.052 C 
HETATM    2  C2  UNL     1     -33.315   7.492   4.889  1.00 20.00    -0.080 C 
HETATM    3  C3  UNL     1     -32.756   7.792   2.517  1.00 20.00     0.150 C 
HETATM    4  C6  UNL     1     -34.564   6.719   4.542  1.00 20.00     0.043 C 
HETATM    5  C7  UNL     1     -34.070   7.157   2.112  1.00 20.00     0.092 C 
HETATM    6  C8  UNL     1     -34.541   6.116   3.128  1.00 20.00     0.024 C 
HETATM    7  C9  UNL     1     -33.069   7.714   6.353  1.00 20.00     0.043 C 
HETATM    8  O11 UNL     1     -31.962   8.221   1.681  1.00 20.00    -0.293 OA
ENDROOT
BRANCH   6   9
HETATM    9  C5  UNL     1     -33.700   4.870   3.070  1.00 20.00    -0.088 C 
HETATM   10  C4  UNL     1     -32.653   4.759   2.240  1.00 20.00     0.014 C 
HETATM   11  C10 UNL     1     -34.099   3.759   3.995  1.00 20.00     0.043 C 
ENDBRANCH   6   9
TORSDOF 1
