REMARK  0 active torsions:
REMARK  status: ('A' for Active; 'I' for Inactive)
ROOT
HETATM    1  C1  UNL     1     -33.180   7.619   3.694  1.00 20.00     0.047 A 
HETATM    2  C2  UNL     1     -33.622   6.376   4.185  1.00 20.00     0.025 A 
HETATM    3  C3  UNL     1     -33.511   5.374   3.264  1.00 20.00    -0.002 A 
HETATM    4  C4  UNL     1     -32.742   7.492   2.386  1.00 20.00     0.075 A 
HETATM    5  C5  UNL     1     -34.171   5.841   5.401  1.00 20.00     0.161 A 
HETATM    6  C6  UNL     1     -33.963   4.042   3.731  1.00 20.00     0.055 A 
HETATM    7  C7  UNL     1     -34.422   4.339   5.194  1.00 20.00     0.089 A 
HETATM    8  O8  UNL     1     -34.398   6.471   6.422  1.00 20.00    -0.292 OA
HETATM    9  S9  UNL     1     -32.882   5.871   1.794  1.00 20.00    -0.082 SA
HETATM   10 CL10 UNL     1     -32.115   8.719   1.365  1.00 20.00    -0.076 Cl
ENDROOT
TORSDOF 0
