REMARK  2 active torsions:
REMARK  status: ('A' for Active; 'I' for Inactive)
REMARK    1  A    between atoms: C2_2  and  C6_6 
REMARK    2  A    between atoms: C3_3  and  C7_7 
ROOT
HETATM    1  C1  UNL     1     -32.196   7.972   3.784  1.00 20.00     0.133 A 
HETATM    2  C2  UNL     1     -32.503   7.853   2.445  1.00 20.00     0.016 A 
HETATM    3  C3  UNL     1     -33.654   6.339   3.924  1.00 20.00     0.078 A 
HETATM    4  N8  UNL     1     -32.855   7.105   4.634  1.00 20.00    -0.257 NA
HETATM    5  S9  UNL     1     -33.662   6.607   2.230  1.00 20.00    -0.076 SA
ENDROOT
BRANCH   3   6
HETATM    6  C7  UNL     1     -34.546   5.258   4.505  1.00 20.00     0.037 C 
HETATM    7  C4  UNL     1     -34.445   5.204   6.031  1.00 20.00     0.016 C 
HETATM    8  C5  UNL     1     -34.245   3.889   3.890  1.00 20.00     0.016 C 
ENDBRANCH   3   6
BRANCH   2   9
HETATM    9  C6  UNL     1     -31.991   8.610   1.287  1.00 20.00     0.162 C 
HETATM   10 CL10 UNL     1     -33.199   9.783   0.699  1.00 20.00    -0.125 Cl
ENDBRANCH   2   9
TORSDOF 2
