REMARK  2 active torsions:
REMARK  status: ('A' for Active; 'I' for Inactive)
REMARK    1  A    between atoms: C4_4  and  C7_7 
REMARK    2  A    between atoms: C5_5  and  O8_8 
ROOT
HETATM    1  C1  UNL     1     -32.963   5.311   2.972  1.00 20.00     0.007 C 
HETATM    2  C2  UNL     1     -34.188   4.921   3.787  1.00 20.00     0.032 C 
HETATM    3  C3  UNL     1     -34.035   7.359   3.671  1.00 20.00     0.036 C 
HETATM    4  C4  UNL     1     -33.320   6.709   2.479  1.00 20.00    -0.012 C 
HETATM    5  C5  UNL     1     -34.546   6.201   4.536  1.00 20.00     0.118 C 
ENDROOT
BRANCH   4   6
HETATM    6  C7  UNL     1     -32.114   7.498   1.999  1.00 20.00     0.000 C 
HETATM    7  C6  UNL     1     -32.490   8.872   1.541  1.00 20.00     0.005 C 
ENDBRANCH   4   6
BRANCH   5   8
HETATM    8  O8  UNL     1     -33.869   6.205   5.789  1.00 20.00    -0.396 OA
HETATM    9  H22 UNL     1     -34.119   7.029   6.236  1.00 20.00     0.210 HD
ENDBRANCH   5   8
TORSDOF 2
