REMARK  1 active torsions:
REMARK  status: ('A' for Active; 'I' for Inactive)
REMARK    1  A    between atoms: C2_2  and  C6_6 
ROOT
HETATM    1  C1  UNL     1     -32.880   6.200   2.599  1.00 20.00    -0.021 C 
HETATM    2  C2  UNL     1     -33.114   7.392   3.178  1.00 20.00    -0.061 C 
HETATM    3  C3  UNL     1     -33.540   4.903   2.968  1.00 20.00     0.037 C 
HETATM    4  C4  UNL     1     -34.062   7.618   4.326  1.00 20.00     0.108 C 
HETATM    5  C5  UNL     1     -34.800   5.036   3.816  1.00 20.00     0.078 C 
HETATM    6  S7  UNL     1     -34.499   6.114   5.239  1.00 20.00    -0.165 SA
ENDROOT
BRANCH   2   7
HETATM    7  C6  UNL     1     -32.409   8.629   2.690  1.00 20.00     0.149 C 
HETATM    8 CL8  UNL     1     -32.826   8.812   0.989  1.00 20.00    -0.126 Cl
ENDBRANCH   2   7
TORSDOF 1
