REMARK  0 active torsions:
REMARK  status: ('A' for Active; 'I' for Inactive)
ROOT
HETATM    1  C1  UNL     1     -33.714   7.243   4.563  1.00 20.00     0.064 C 
HETATM    2  C2  UNL     1     -32.597   6.884   3.589  1.00 20.00     0.170 C 
HETATM    3  C3  UNL     1     -33.380   4.704   3.085  1.00 20.00     0.205 C 
HETATM    4  C4  UNL     1     -34.393   6.011   5.074  1.00 20.00     0.258 A 
HETATM    5  C5  UNL     1     -34.245   4.727   4.303  1.00 20.00     0.277 A 
HETATM    6  N6  UNL     1     -35.501   5.460   4.288  1.00 20.00     0.099 N 
HETATM    7  O7  UNL     1     -33.109   6.017   2.575  1.00 20.00    -0.389 OA
HETATM    8  H16 UNL     1     -36.175   5.013   4.908  1.00 20.00     0.317 HD
ENDROOT
TORSDOF 0
