REMARK  2 active torsions:
REMARK  status: ('A' for Active; 'I' for Inactive)
REMARK    1  A    between atoms: C1_1  and  C4_4 
REMARK    2  A    between atoms: C1_1  and  C5_5 
ROOT
HETATM    1  C2  UNL     1     -35.416   5.601   3.784  1.00 20.00     0.055 A 
HETATM    2  C3  UNL     1     -34.753   5.124   5.042  1.00 20.00     0.055 A 
HETATM    3  C4  UNL     1     -33.916   5.634   3.901  1.00 20.00     0.164 A 
HETATM    4  F7  UNL     1     -33.239   4.659   3.174  1.00 20.00    -0.235 F 
ENDROOT
BRANCH   3   5
HETATM    5  C1  UNL     1     -33.222   6.919   4.024  1.00 20.00     0.179 C 
HETATM    6  O6  UNL     1     -33.462   7.673   4.966  1.00 20.00    -0.293 OA
BRANCH   5   7
HETATM    7  C5  UNL     1     -32.224   7.232   2.934  1.00 20.00     0.196 C 
HETATM    8 CL8  UNL     1     -32.682   8.708   2.070  1.00 20.00    -0.122 Cl
ENDBRANCH   5   7
ENDBRANCH   3   5
TORSDOF 2
