REMARK  2 active torsions:
REMARK  status: ('A' for Active; 'I' for Inactive)
REMARK    1  A    between atoms: C7_7  and  C9_9 
REMARK    2  A    between atoms: C8_8  and  C10_10 
ROOT
HETATM    1  C1  UNL     1     -33.169   7.315   4.799  1.00 20.00     0.131 C 
HETATM    2  C2  UNL     1     -31.887   6.872   4.131  1.00 20.00     0.083 C 
HETATM    3  C6  UNL     1     -33.210   8.215   2.677  1.00 20.00     0.018 C 
HETATM    4  C7  UNL     1     -34.186   7.688   3.737  1.00 20.00     0.060 C 
HETATM    5  C8  UNL     1     -32.361   6.933   2.665  1.00 20.00    -0.002 C 
HETATM    6  O11 UNL     1     -33.361   7.346   6.004  1.00 20.00    -0.298 OA
ENDROOT
BRANCH   4   7
HETATM    7  C9  UNL     1     -34.705   6.410   3.057  1.00 20.00     0.001 C 
HETATM    8  C4  UNL     1     -35.207   5.277   3.945  1.00 20.00     0.006 C 
HETATM    9  C3  UNL     1     -34.036   4.313   4.099  1.00 20.00     0.001 C 
HETATM   10  C5  UNL     1     -33.249   4.442   2.799  1.00 20.00     0.005 C 
HETATM   11  C10 UNL     1     -33.449   5.877   2.323  1.00 20.00    -0.005 C 
ENDBRANCH   4   7
TORSDOF 2
