REMARK  0 active torsions:
REMARK  status: ('A' for Active; 'I' for Inactive)
ROOT
HETATM    1  C1  UNL     1     -33.798   3.693   4.536  1.00 20.00     0.136 A 
HETATM    2  C2  UNL     1     -34.368   4.382   5.607  1.00 20.00     0.136 A 
HETATM    3  C3  UNL     1     -32.917   6.471   2.506  1.00 20.00     0.083 A 
HETATM    4  C4  UNL     1     -33.933   7.699   4.412  1.00 20.00     0.083 A 
HETATM    5  C5  UNL     1     -33.370   5.629   3.492  1.00 20.00     0.092 A 
HETATM    6  C6  UNL     1     -33.956   6.338   4.592  1.00 20.00     0.092 A 
HETATM    7  N7  UNL     1     -33.272   4.276   3.430  1.00 20.00    -0.257 NA
HETATM    8  N8  UNL     1     -34.477   5.732   5.690  1.00 20.00    -0.257 NA
HETATM    9  S9  UNL     1     -33.203   8.117   2.913  1.00 20.00    -0.109 SA
ENDROOT
TORSDOF 0
