REMARK  1 active torsions:
REMARK  status: ('A' for Active; 'I' for Inactive)
REMARK    1  A    between atoms: C6_6  and  O8_8 
ROOT
HETATM    1  C1  UNL     1     -32.073   8.759   1.426  1.00 20.00     0.015 C 
HETATM    2  C2  UNL     1     -32.394   8.104   2.379  1.00 20.00    -0.077 C 
HETATM    3  C3  UNL     1     -32.211   5.902   3.487  1.00 20.00     0.080 C 
HETATM    4  C4  UNL     1     -33.214   5.162   2.625  1.00 20.00     0.171 C 
HETATM    5  C5  UNL     1     -34.282   7.014   3.562  1.00 20.00     0.219 C 
HETATM    6  C6  UNL     1     -32.788   7.301   3.547  1.00 20.00     0.143 C 
HETATM    7  O7  UNL     1     -34.486   5.790   2.837  1.00 20.00    -0.387 OA
ENDROOT
BRANCH   6   8
HETATM    8  O8  UNL     1     -32.380   7.955   4.737  1.00 20.00    -0.375 OA
HETATM    9  H16 UNL     1     -32.659   7.394   5.480  1.00 20.00     0.211 HD
ENDBRANCH   6   8
TORSDOF 1
