REMARK  3 active torsions:
REMARK  status: ('A' for Active; 'I' for Inactive)
REMARK    1  A    between atoms: C2_2  and  C6_6 
REMARK    2  A    between atoms: C3_3  and  C6_6 
REMARK    3  A    between atoms: C3_3  and  C7_7 
ROOT
HETATM    1  C3  UNL     1     -33.750   6.641   3.182  1.00 20.00     0.240 C 
HETATM    2  O8  UNL     1     -33.531   5.678   2.446  1.00 20.00    -0.287 OA
ENDROOT
BRANCH   1   3
HETATM    3  C6  UNL     1     -34.851   6.626   4.239  1.00 20.00     0.088 C 
HETATM    4  C5  UNL     1     -36.021   5.814   3.680  1.00 20.00     0.023 C 
BRANCH   3   5
HETATM    5  C2  UNL     1     -34.251   6.153   5.551  1.00 20.00    -0.082 C 
HETATM    6  C1  UNL     1     -34.240   4.875   5.965  1.00 20.00     0.014 C 
HETATM    7  C4  UNL     1     -33.617   7.226   6.398  1.00 20.00     0.043 C 
ENDBRANCH   3   5
ENDBRANCH   1   3
BRANCH   1   8
HETATM    8  C7  UNL     1     -32.917   7.888   3.092  1.00 20.00     0.451 C 
HETATM    9  F9  UNL     1     -33.305   8.818   4.000  1.00 20.00    -0.163 F 
HETATM   10  F10 UNL     1     -33.001   8.472   1.870  1.00 20.00    -0.163 F 
HETATM   11  F11 UNL     1     -31.603   7.636   3.318  1.00 20.00    -0.163 F 
ENDBRANCH   1   8
TORSDOF 3
