REMARK  3 active torsions:
REMARK  status: ('A' for Active; 'I' for Inactive)
REMARK    1  A    between atoms: C1_1  and  O7_7 
REMARK    2  A    between atoms: C4_4  and  C5_5 
REMARK    3  A    between atoms: C5_5  and  O7_7 
ROOT
HETATM    1  C5  UNL     1     -32.686   7.677   2.184  1.00 20.00     0.184 C 
ENDROOT
BRANCH   1   2
HETATM    2  C4  UNL     1     -32.079   8.958   1.724  1.00 20.00     0.010 A 
HETATM    3  C2  UNL     1     -32.017   9.283   0.257  1.00 20.00     0.007 A 
HETATM    4  C3  UNL     1     -32.948  10.046   1.157  1.00 20.00     0.007 A 
ENDBRANCH   1   2
BRANCH   1   5
HETATM    5  O7  UNL     1     -33.045   7.776   3.562  1.00 20.00    -0.308 OA
BRANCH   5   6
HETATM    6  C1  UNL     1     -33.619   6.661   4.121  1.00 20.00     0.357 C 
HETATM    7  O6  UNL     1     -33.822   5.626   3.494  1.00 20.00    -0.246 OA
HETATM    8 CL8  UNL     1     -34.019   6.886   5.804  1.00 20.00    -0.012 Cl
ENDBRANCH   5   6
ENDBRANCH   1   5
TORSDOF 3
