REMARK  4 active torsions:
REMARK  status: ('A' for Active; 'I' for Inactive)
REMARK    1  A    between atoms: C1_1  and  C8_8 
REMARK    2  A    between atoms: C1_1  and  C9_9 
REMARK    3  A    between atoms: C6_6  and  C8_8 
REMARK    4  A    between atoms: C7_7  and  C9_9 
ROOT
HETATM    1  C1  UNL     1     -32.300   7.717   3.010  1.00 20.00     0.127 C 
HETATM    2  O10 UNL     1     -31.214   8.017   3.504  1.00 20.00    -0.298 OA
ENDROOT
BRANCH   1   3
HETATM    3  C8  UNL     1     -32.975   6.383   3.286  1.00 20.00     0.082 C 
BRANCH   3   4
HETATM    4  C6  UNL     1     -34.351   6.540   3.906  1.00 20.00    -0.008 A 
HETATM    5  C2  UNL     1     -34.984   5.393   4.646  1.00 20.00     0.005 A 
HETATM    6  C3  UNL     1     -34.505   6.602   5.401  1.00 20.00     0.005 A 
ENDBRANCH   3   4
ENDBRANCH   1   3
BRANCH   1   7
HETATM    7  C9  UNL     1     -33.056   8.653   2.082  1.00 20.00     0.082 C 
BRANCH   7   8
HETATM    8  C7  UNL     1     -32.134   9.537   1.262  1.00 20.00    -0.008 A 
HETATM    9  C4  UNL     1     -31.637   9.073  -0.080  1.00 20.00     0.005 A 
HETATM   10  C5  UNL     1     -32.636  10.193   0.005  1.00 20.00     0.005 A 
ENDBRANCH   7   8
ENDBRANCH   1   7
TORSDOF 4
