REMARK  2 active torsions:
REMARK  status: ('A' for Active; 'I' for Inactive)
REMARK    1  A    between atoms: C1_1  and  C9_9 
REMARK    2  A    between atoms: C9_9  and  N10_10 
ROOT
HETATM    1  C2  UNL     1     -34.296   5.472   6.131  1.00 20.00     0.003 C 
HETATM    2  C3  UNL     1     -33.514   6.751   5.851  1.00 20.00     0.030 C 
HETATM    3  C4  UNL     1     -34.344   4.582   4.894  1.00 20.00     0.030 C 
HETATM    4  C5  UNL     1     -34.029   7.454   4.593  1.00 20.00     0.273 C 
HETATM    5  C6  UNL     1     -34.831   5.360   3.668  1.00 20.00     0.273 C 
HETATM    6  N10 UNL     1     -34.081   6.594   3.403  1.00 20.00     0.099 N 
ENDROOT
BRANCH   6   7
HETATM    7  C9  UNL     1     -32.754   6.328   2.853  1.00 20.00     0.287 C 
HETATM    8  C8  UNL     1     -32.815   5.407   1.648  1.00 20.00     0.051 C 
BRANCH   7   9
HETATM    9  C1  UNL     1     -32.143   7.667   2.476  1.00 20.00     0.155 C 
HETATM   10  C7  UNL     1     -32.830   8.436   1.377  1.00 20.00     0.093 C 
HETATM   11  O11 UNL     1     -31.163   8.134   3.057  1.00 20.00    -0.296 OA
ENDBRANCH   7   9
ENDBRANCH   6   7
TORSDOF 2
