REMARK  2 active torsions:
REMARK  status: ('A' for Active; 'I' for Inactive)
REMARK    1  A    between atoms: C1_1  and  C7_7 
REMARK    2  A    between atoms: C7_7  and  N8_8 
ROOT
HETATM    1  C1  UNL     1     -33.482   6.959   2.886  1.00 20.00    -0.053 C 
HETATM    2  C2  UNL     1     -32.936   7.821   2.253  1.00 20.00    -0.021 C 
HETATM    3 BR9  UNL     1     -32.071   9.185   1.253  1.00 20.00     0.010 Br
ENDROOT
BRANCH   1   4
HETATM    4  C7  UNL     1     -34.156   5.898   3.663  1.00 20.00     0.214 C 
HETATM    5  C3  UNL     1     -33.636   4.524   3.227  1.00 20.00     0.063 C 
HETATM    6  C4  UNL     1     -35.672   5.979   3.446  1.00 20.00     0.063 C 
BRANCH   4   7
HETATM    7  N8  UNL     1     -33.883   6.066   5.093  1.00 20.00     0.100 N 
HETATM    8  C5  UNL     1     -34.548   5.018   5.864  1.00 20.00     0.311 C 
HETATM    9  C6  UNL     1     -34.316   7.388   5.541  1.00 20.00     0.311 C 
ENDBRANCH   4   7
ENDBRANCH   1   4
TORSDOF 2
