REMARK  1 active torsions:
REMARK  status: ('A' for Active; 'I' for Inactive)
REMARK    1  A    between atoms: C11_11  and  N13_13 
ROOT
HETATM    1  C1  UNL     1     -32.782   9.096   0.098  1.00 20.00     0.089 C 
HETATM    2  C11 UNL     1     -31.892   9.105   1.258  1.00 20.00     0.395 C 
HETATM    3  N12 UNL     1     -33.486   9.091  -0.824  1.00 20.00    -0.195 NA
ENDROOT
BRANCH   2   4
HETATM    4  N13 UNL     1     -32.557   8.543   2.428  1.00 20.00     0.101 N 
HETATM    5  C7  UNL     1     -31.688   8.541   3.601  1.00 20.00     0.274 C 
HETATM    6  C6  UNL     1     -32.490   8.201   4.865  1.00 20.00     0.035 C 
HETATM    7  C9  UNL     1     -33.593   7.154   4.623  1.00 20.00    -0.007 C 
HETATM    8  C4  UNL     1     -33.817   6.280   5.863  1.00 20.00     0.005 C 
HETATM    9  C10 UNL     1     -33.261   6.309   3.383  1.00 20.00     0.018 C 
HETATM   10  C2  UNL     1     -34.865   5.200   5.609  1.00 20.00     0.000 C 
HETATM   11  C3  UNL     1     -34.512   4.352   4.391  1.00 20.00     0.000 C 
HETATM   12  C5  UNL     1     -34.308   5.212   3.147  1.00 20.00     0.007 C 
HETATM   13  C8  UNL     1     -33.110   7.210   2.137  1.00 20.00     0.278 C 
ENDBRANCH   2   4
TORSDOF 1
