REMARK  2 active torsions:
REMARK  status: ('A' for Active; 'I' for Inactive)
REMARK    1  A    between atoms: C2_2  and  C4_4 
REMARK       I    between atoms: C2_2  and  N6_6 
REMARK    2  A    between atoms: C4_4  and  C5_5 
ROOT
HETATM    1  C1  UNL     1     -33.821   5.659   3.529  1.00 20.00     0.166 C 
HETATM    2  C2  UNL     1     -32.547   7.445   3.567  1.00 20.00     0.244 C 
HETATM    3  N6  UNL     1     -33.189   6.420   2.897  1.00 20.00    -0.199 NA
HETATM    4  O7  UNL     1     -32.540   7.630   4.783  1.00 20.00    -0.271 OA
HETATM    5  S8  UNL     1     -34.689   4.608   4.354  1.00 20.00    -0.055 SA
ENDROOT
BRANCH   2   6
HETATM    6  C4  UNL     1     -31.772   8.344   2.615  1.00 20.00     0.105 C 
BRANCH   6   7
HETATM    7  C5  UNL     1     -32.646   9.015   1.557  1.00 20.00     0.005 C 
HETATM    8  C3  UNL     1     -31.844   9.905   0.618  1.00 20.00     0.005 C 
ENDBRANCH   6   7
ENDBRANCH   2   6
TORSDOF 2
