REMARK  0 active torsions:
REMARK  status: ('A' for Active; 'I' for Inactive)
ROOT
HETATM    1  C1  UNL     1     -33.376   7.195   5.896  1.00 20.00     0.028 C 
HETATM    2  C2  UNL     1     -34.319   4.917   5.516  1.00 20.00     0.033 C 
HETATM    3  C3  UNL     1     -33.858   4.261   3.203  1.00 20.00     0.046 C 
HETATM    4  C4  UNL     1     -32.927   8.128   4.861  1.00 20.00     0.112 C 
HETATM    5  C5  UNL     1     -33.967   6.264   5.150  1.00 20.00    -0.025 C 
HETATM    6  C6  UNL     1     -34.282   3.963   4.567  1.00 20.00     0.036 C 
HETATM    7  C7  UNL     1     -33.731   5.537   2.790  1.00 20.00     0.042 C 
HETATM    8  C8  UNL     1     -34.076   6.675   3.709  1.00 20.00     0.185 C 
HETATM    9  N9  UNL     1     -33.202   7.867   3.616  1.00 20.00    -0.286 NA
HETATM   10 CL10 UNL     1     -34.635   2.319   4.959  1.00 20.00    -0.084 Cl
HETATM   11 CL11 UNL     1     -33.264   5.914   1.177  1.00 20.00    -0.086 Cl
ENDROOT
TORSDOF 0
