REMARK  3 active torsions:
REMARK  status: ('A' for Active; 'I' for Inactive)
REMARK    1  A    between atoms: C1_1  and  C6_6 
REMARK    2  A    between atoms: C5_5  and  C7_7 
REMARK    3  A    between atoms: C6_6  and  C7_7 
ROOT
HETATM    1  C2  UNL     1     -33.760   5.735   2.905  1.00 20.00     0.033 C 
HETATM    2  C3  UNL     1     -34.086   4.711   3.972  1.00 20.00     0.168 C 
HETATM    3  C4  UNL     1     -33.991   6.811   4.976  1.00 20.00     0.172 C 
HETATM    4  C5  UNL     1     -33.132   6.842   3.724  1.00 20.00     0.012 C 
HETATM    5  O9  UNL     1     -34.374   5.441   5.174  1.00 20.00    -0.391 OA
ENDROOT
BRANCH   4   6
HETATM    6  C7  UNL     1     -33.109   8.191   3.031  1.00 20.00     0.013 C 
BRANCH   6   7
HETATM    7  C6  UNL     1     -32.284   8.150   1.749  1.00 20.00     0.070 C 
BRANCH   7   8
HETATM    8  C1  UNL     1     -32.212   9.491   1.059  1.00 20.00     0.231 C 
HETATM    9  O8  UNL     1     -32.723  10.523   1.481  1.00 20.00    -0.307 OA
ENDBRANCH   7   8
ENDBRANCH   6   7
ENDBRANCH   4   6
TORSDOF 3
