REMARK  1 active torsions:
REMARK  status: ('A' for Active; 'I' for Inactive)
REMARK    1  A    between atoms: C2_2  and  C6_6 
REMARK       I    between atoms: C2_2  and  N7_7 
ROOT
HETATM    1  C1  UNL     1     -32.237   8.411   2.634  1.00 20.00     0.167 C 
HETATM    2  C2  UNL     1     -33.069   7.174   4.237  1.00 20.00     0.273 C 
HETATM    3  N7  UNL     1     -32.059   7.504   3.359  1.00 20.00    -0.197 NA
HETATM    4  O8  UNL     1     -33.238   7.598   5.376  1.00 20.00    -0.268 OA
HETATM    5  S10 UNL     1     -32.442   9.635   1.635  1.00 20.00    -0.055 SA
ENDROOT
BRANCH   2   6
HETATM    6  C6  UNL     1     -34.043   6.180   3.687  1.00 20.00     0.215 C 
HETATM    7  C4  UNL     1     -35.075   5.748   4.712  1.00 20.00     0.044 C 
HETATM    8  C3  UNL     1     -34.428   4.535   5.337  1.00 20.00     0.029 C 
HETATM    9  C5  UNL     1     -33.697   3.928   4.160  1.00 20.00     0.168 C 
HETATM   10  O9  UNL     1     -33.282   5.023   3.331  1.00 20.00    -0.376 OA
ENDBRANCH   2   6
TORSDOF 1
