REMARK  1 active torsions:
REMARK  status: ('A' for Active; 'I' for Inactive)
REMARK    1  A    between atoms: C4_4  and  C5_5 
ROOT
HETATM    1  C1  UNL     1     -31.723   8.730   3.042  1.00 20.00     0.135 A 
HETATM    2  C2  UNL     1     -32.402   8.016   2.080  1.00 20.00     0.136 A 
HETATM    3  C3  UNL     1     -32.677   7.440   4.672  1.00 20.00     0.152 A 
HETATM    4  C4  UNL     1     -33.357   6.727   3.710  1.00 20.00     0.157 A 
HETATM    5  N6  UNL     1     -31.848   8.455   4.356  1.00 20.00    -0.269 NA
HETATM    6  N7  UNL     1     -33.231   7.002   2.396  1.00 20.00    -0.254 NA
ENDROOT
BRANCH   4   7
HETATM    7  C5  UNL     1     -34.265   5.612   4.096  1.00 20.00     0.435 C 
HETATM    8  F8  UNL     1     -34.333   5.401   5.445  1.00 20.00    -0.165 F 
HETATM    9  F9  UNL     1     -35.560   5.797   3.701  1.00 20.00    -0.165 F 
HETATM   10  F10 UNL     1     -33.888   4.414   3.559  1.00 20.00    -0.165 F 
ENDBRANCH   4   7
TORSDOF 1
