REMARK  3 active torsions:
REMARK  status: ('A' for Active; 'I' for Inactive)
REMARK    1  A    between atoms: C4_4  and  C7_7 
REMARK    2  A    between atoms: C6_6  and  N9_9 
REMARK    3  A    between atoms: C7_7  and  N9_9 
ROOT
HETATM    1  C1  UNL     1     -32.320   9.082   1.404  1.00 20.00     0.089 C 
HETATM    2  C6  UNL     1     -32.183   7.948   2.316  1.00 20.00     0.393 C 
HETATM    3  N8  UNL     1     -32.425   9.982   0.679  1.00 20.00    -0.195 NA
ENDROOT
BRANCH   2   4
HETATM    4  N9  UNL     1     -33.403   7.740   3.067  1.00 20.00     0.100 N 
HETATM    5  H21 UNL     1     -33.457   8.390   3.839  1.00 20.00     0.317 HD
BRANCH   4   6
HETATM    6  C7  UNL     1     -33.424   6.367   3.629  1.00 20.00     0.221 C 
HETATM    7  C5  UNL     1     -33.787   5.389   2.522  1.00 20.00     0.043 C 
BRANCH   6   8
HETATM    8  C4  UNL     1     -34.421   6.314   4.778  1.00 20.00     0.018 A 
HETATM    9  C2  UNL     1     -34.309   5.244   5.828  1.00 20.00     0.007 A 
HETATM   10  C3  UNL     1     -33.987   6.671   6.172  1.00 20.00     0.007 A 
ENDBRANCH   6   8
ENDBRANCH   4   6
ENDBRANCH   2   4
TORSDOF 3
