REMARK  3 active torsions:
REMARK  status: ('A' for Active; 'I' for Inactive)
REMARK    1  A    between atoms: C4_4  and  C7_7 
REMARK    2  A    between atoms: C6_6  and  N9_9 
REMARK    3  A    between atoms: C7_7  and  N9_9 
ROOT
HETATM    1  C1  UNL     1     -32.557   8.471   1.773  1.00 20.00     0.089 C 
HETATM    2  C6  UNL     1     -32.413   7.869   3.097  1.00 20.00     0.393 C 
HETATM    3  N8  UNL     1     -32.667   8.951   0.723  1.00 20.00    -0.195 NA
ENDROOT
BRANCH   2   4
HETATM    4  N9  UNL     1     -33.644   7.226   3.507  1.00 20.00     0.100 N 
HETATM    5  H21 UNL     1     -33.896   6.497   2.853  1.00 20.00     0.317 HD
BRANCH   4   6
HETATM    6  C7  UNL     1     -33.468   6.598   4.839  1.00 20.00     0.221 C 
HETATM    7  C5  UNL     1     -33.528   7.681   5.906  1.00 20.00     0.043 C 
BRANCH   6   8
HETATM    8  C4  UNL     1     -34.550   5.547   5.042  1.00 20.00     0.018 A 
HETATM    9  C2  UNL     1     -34.430   4.200   4.384  1.00 20.00     0.007 A 
HETATM   10  C3  UNL     1     -34.273   4.326   5.874  1.00 20.00     0.007 A 
ENDBRANCH   6   8
ENDBRANCH   4   6
ENDBRANCH   2   4
TORSDOF 3
