REMARK  1 active torsions:
REMARK  status: ('A' for Active; 'I' for Inactive)
REMARK    1  A    between atoms: C7_7  and  O9_9 
ROOT
HETATM    1  C1  UNL     1     -32.715   8.158   3.064  1.00 20.00     0.097 C 
HETATM    2  C2  UNL     1     -33.388   7.149   5.121  1.00 20.00    -0.006 C 
HETATM    3  C3  UNL     1     -33.435   7.152   3.777  1.00 20.00     0.047 C 
HETATM    4  C4  UNL     1     -34.107   6.149   5.978  1.00 20.00     0.028 C 
HETATM    5  C5  UNL     1     -34.662   4.960   5.194  1.00 20.00     0.007 C 
HETATM    6  C6  UNL     1     -35.287   5.414   3.877  1.00 20.00     0.037 C 
HETATM    7  C7  UNL     1     -34.265   6.154   3.005  1.00 20.00     0.161 C 
HETATM    8  N8  UNL     1     -32.130   8.975   2.485  1.00 20.00    -0.192 NA
ENDROOT
BRANCH   7   9
HETATM    9  O9  UNL     1     -33.400   5.185   2.410  1.00 20.00    -0.390 OA
HETATM   10  H18 UNL     1     -33.971   4.568   1.928  1.00 20.00     0.210 HD
ENDBRANCH   7   9
TORSDOF 1
