REMARK  1 active torsions:
REMARK  status: ('A' for Active; 'I' for Inactive)
REMARK    1  A    between atoms: C7_7  and  N8_8 
ROOT
HETATM    1  C1  UNL     1     -32.521   9.344   0.188  1.00 20.00     0.013 C 
HETATM    2  C2  UNL     1     -32.454   8.973   1.328  1.00 20.00    -0.087 C 
HETATM    3  C7  UNL     1     -32.368   8.525   2.720  1.00 20.00     0.365 C 
ENDROOT
BRANCH   3   4
HETATM    4  N8  UNL     1     -33.404   7.545   3.009  1.00 20.00     0.106 N 
HETATM    5  C5  UNL     1     -33.667   7.416   4.443  1.00 20.00     0.351 C 
HETATM    6  C3  UNL     1     -34.259   6.032   4.511  1.00 20.00     0.156 C 
HETATM    7  C4  UNL     1     -34.072   5.297   3.216  1.00 20.00     0.110 C 
HETATM    8  O9  UNL     1     -34.822   5.569   5.494  1.00 20.00    -0.296 OA
HETATM    9  C6  UNL     1     -33.057   6.202   2.529  1.00 20.00     0.281 C 
ENDBRANCH   3   4
TORSDOF 1
