REMARK  2 active torsions:
REMARK  status: ('A' for Active; 'I' for Inactive)
REMARK    1  A    between atoms: C3_3  and  C8_8 
REMARK    2  A    between atoms: C8_8  and  N10_10 
ROOT
HETATM    1  C1  UNL     1     -33.687   7.530   5.086  1.00 20.00     0.100 C 
HETATM    2  C8  UNL     1     -33.995   7.724   3.657  1.00 20.00     0.356 C 
HETATM    3  N9  UNL     1     -33.450   7.379   6.212  1.00 20.00    -0.195 NA
ENDROOT
BRANCH   2   4
HETATM    4  C3  UNL     1     -32.819   8.408   2.968  1.00 20.00    -0.041 C 
HETATM    5  C2  UNL     1     -33.051   9.238   1.929  1.00 20.00    -0.025 C 
HETATM    6  C4  UNL     1     -32.054   9.975   1.094  1.00 20.00     0.036 C 
HETATM    7  C5  UNL     1     -31.443   8.104   3.506  1.00 20.00     0.046 C 
ENDBRANCH   2   4
BRANCH   2   8
HETATM    8  N10 UNL     1     -34.336   6.443   3.034  1.00 20.00     0.102 N 
HETATM    9  C6  UNL     1     -35.503   5.854   3.687  1.00 20.00     0.311 C 
HETATM   10  C7  UNL     1     -33.197   5.528   3.095  1.00 20.00     0.311 C 
ENDBRANCH   2   8
TORSDOF 2
