REMARK  3 active torsions:
REMARK  status: ('A' for Active; 'I' for Inactive)
REMARK    1  A    between atoms: C6_6  and  N8_8 
REMARK    2  A    between atoms: C6_6  and  O9_9 
REMARK    3  A    between atoms: C7_7  and  O9_9 
ROOT
HETATM    1  O9  UNL     1     -33.653   6.853   4.241  1.00 20.00    -0.352 OA
ENDROOT
BRANCH   1   2
HETATM    2  C6  UNL     1     -33.452   7.103   2.845  1.00 20.00     0.440 C 
BRANCH   2   3
HETATM    3  N8  UNL     1     -32.680   8.332   2.607  1.00 20.00     0.102 N 
HETATM    4  C4  UNL     1     -32.525   8.563   1.170  1.00 20.00     0.312 C 
HETATM    5  C5  UNL     1     -31.366   8.258   3.249  1.00 20.00     0.312 C 
ENDBRANCH   2   3
ENDBRANCH   1   2
BRANCH   1   6
HETATM    6  C7  UNL     1     -34.405   5.668   4.462  1.00 20.00     0.052 C 
HETATM    7  C1  UNL     1     -33.645   4.489   3.855  1.00 20.00     0.045 C 
HETATM    8  C2  UNL     1     -34.554   5.491   5.972  1.00 20.00     0.045 C 
HETATM    9  C3  UNL     1     -35.774   5.831   3.803  1.00 20.00     0.045 C 
ENDBRANCH   1   6
TORSDOF 3
