REMARK  0 active torsions:
REMARK  status: ('A' for Active; 'I' for Inactive)
ROOT
HETATM    1  C1  UNL     1     -33.056   7.636   4.727  1.00 20.00     0.047 C 
HETATM    2  C2  UNL     1     -33.665   7.564   5.915  1.00 20.00    -0.023 C 
HETATM    3  C3  UNL     1     -33.143   6.508   3.763  1.00 20.00     0.157 C 
HETATM    4  C4  UNL     1     -34.418   6.369   6.408  1.00 20.00     0.028 C 
HETATM    5  C5  UNL     1     -34.074   5.104   5.623  1.00 20.00     0.021 C 
HETATM    6  C6  UNL     1     -34.059   5.324   4.098  1.00 20.00     0.017 C 
HETATM    7  C7  UNL     1     -35.463   5.629   3.556  1.00 20.00     0.023 C 
HETATM    8  C8  UNL     1     -33.525   4.051   3.421  1.00 20.00     0.023 C 
HETATM    9  O9  UNL     1     -32.525   6.587   2.701  1.00 20.00    -0.292 OA
ENDROOT
TORSDOF 0
