REMARK  2 active torsions:
REMARK  status: ('A' for Active; 'I' for Inactive)
REMARK    1  A    between atoms: C4_4  and  C6_6 
REMARK    2  A    between atoms: C5_5  and  C7_7 
ROOT
HETATM    1  C1  UNL     1     -33.833   6.616   5.707  1.00 20.00     0.007 C 
HETATM    2  C2  UNL     1     -34.077   5.089   5.818  1.00 20.00     0.007 C 
HETATM    3  C3  UNL     1     -35.591   6.003   4.240  1.00 20.00     0.014 C 
HETATM    4  C4  UNL     1     -34.377   6.949   4.300  1.00 20.00     0.017 C 
HETATM    5  C5  UNL     1     -34.728   4.747   4.458  1.00 20.00     0.017 C 
ENDROOT
BRANCH   4   6
HETATM    6  C6  UNL     1     -33.411   6.346   3.292  1.00 20.00     0.155 A 
HETATM    7  C7  UNL     1     -33.645   4.875   3.398  1.00 20.00     0.155 A 
HETATM    8  O8  UNL     1     -33.958   5.596   2.203  1.00 20.00    -0.375 OA
ENDBRANCH   4   6
TORSDOF 2
