REMARK  0 active torsions:
REMARK  status: ('A' for Active; 'I' for Inactive)
ROOT
HETATM    1  C1  UNL     1     -33.855   7.164   6.262  1.00 20.00     0.003 C 
HETATM    2  C2  UNL     1     -34.778   5.949   6.229  1.00 20.00     0.001 C 
HETATM    3  C3  UNL     1     -33.838   7.888   4.920  1.00 20.00     0.041 C 
HETATM    4  C4  UNL     1     -34.403   4.993   5.094  1.00 20.00     0.012 C 
HETATM    5  C5  UNL     1     -32.097   7.035   3.198  1.00 20.00     0.207 A 
HETATM    6  C6  UNL     1     -33.486   6.932   3.807  1.00 20.00     0.089 A 
HETATM    7  C7  UNL     1     -34.353   5.672   3.699  1.00 20.00    -0.014 C 
HETATM    8  C8  UNL     1     -33.804   4.636   2.696  1.00 20.00     0.018 C 
HETATM    9  C9  UNL     1     -35.778   6.046   3.234  1.00 20.00     0.018 C 
HETATM   10  O10 UNL     1     -33.248   7.592   2.551  1.00 20.00    -0.374 OA
ENDROOT
TORSDOF 0
