REMARK  1 active torsions:
REMARK  status: ('A' for Active; 'I' for Inactive)
REMARK    1  A    between atoms: C5_5  and  C10_10 
ROOT
HETATM    1  C1  UNL     1     -33.316   5.583   3.428  1.00 20.00     0.166 C 
HETATM    2  C2  UNL     1     -32.308   6.604   2.940  1.00 20.00     0.086 C 
HETATM    3  C3  UNL     1     -33.835   8.509   3.652  1.00 20.00     0.009 C 
HETATM    4  C4  UNL     1     -34.262   7.499   4.719  1.00 20.00     0.052 C 
HETATM    5  C5  UNL     1     -33.012   7.891   2.508  1.00 20.00    -0.004 C 
HETATM    6  C6  UNL     1     -34.537   6.098   4.176  1.00 20.00     0.159 C 
HETATM    7  C7  UNL     1     -35.771   6.034   3.285  1.00 20.00     0.060 C 
HETATM    8  O11 UNL     1     -33.129   4.377   3.266  1.00 20.00    -0.294 OA
HETATM    9  F12 UNL     1     -34.782   5.291   5.253  1.00 20.00    -0.235 F 
ENDROOT
BRANCH   5  10
HETATM   10  C10 UNL     1     -32.013   8.901   1.946  1.00 20.00    -0.018 C 
HETATM   11  C8  UNL     1     -31.267   8.312   0.752  1.00 20.00     0.010 C 
HETATM   12  C9  UNL     1     -32.723  10.194   1.551  1.00 20.00     0.010 C 
ENDBRANCH   5  10
TORSDOF 1
