REMARK  1 active torsions:
REMARK  status: ('A' for Active; 'I' for Inactive)
REMARK    1  A    between atoms: C6_6  and  C8_8 
ROOT
HETATM    1  C1  UNL     1     -34.197   6.736   5.049  1.00 20.00     0.144 C 
HETATM    2  C2  UNL     1     -34.875   5.462   5.513  1.00 20.00     0.079 C 
HETATM    3  C3  UNL     1     -34.089   4.236   5.079  1.00 20.00     0.007 C 
HETATM    4  C4  UNL     1     -33.814   4.244   3.580  1.00 20.00     0.002 C 
HETATM    5  C5  UNL     1     -33.065   5.512   3.172  1.00 20.00     0.026 C 
HETATM    6  C6  UNL     1     -33.789   6.814   3.571  1.00 20.00     0.114 C 
HETATM    7  C7  UNL     1     -35.050   7.040   2.724  1.00 20.00     0.033 C 
HETATM    8  O9  UNL     1     -34.069   7.688   5.820  1.00 20.00    -0.297 OA
ENDROOT
BRANCH   6   9
HETATM    9  C8  UNL     1     -32.831   7.997   3.352  1.00 20.00     0.401 C 
HETATM   10  F10 UNL     1     -31.735   7.832   4.102  1.00 20.00    -0.170 F 
HETATM   11  F11 UNL     1     -32.480   8.059   2.063  1.00 20.00    -0.170 F 
HETATM   12  F12 UNL     1     -33.438   9.137   3.701  1.00 20.00    -0.170 F 
ENDBRANCH   6   9
TORSDOF 1
