REMARK  4 active torsions:
REMARK  status: ('A' for Active; 'I' for Inactive)
REMARK    1  A    between atoms: C4_4  and  C5_5 
REMARK    2  A    between atoms: C5_5  and  C6_6 
REMARK    3  A    between atoms: C6_6  and  C7_7 
REMARK    4  A    between atoms: C7_7  and  O8_8 
ROOT
HETATM    1  C1  UNL     1     -32.148  10.418   0.769  1.00 20.00     0.012 C 
HETATM    2  C2  UNL     1     -32.165   9.557   1.606  1.00 20.00    -0.117 C 
HETATM    3  C4  UNL     1     -32.184   8.507   2.633  1.00 20.00     0.093 C 
ENDROOT
BRANCH   3   4
HETATM    4  C5  UNL     1     -32.994   7.295   2.168  1.00 20.00     0.014 C 
BRANCH   4   5
HETATM    5  C6  UNL     1     -33.045   6.215   3.250  1.00 20.00     0.032 C 
BRANCH   5   6
HETATM    6  C7  UNL     1     -33.654   6.697   4.570  1.00 20.00     0.114 C 
HETATM    7  C3  UNL     1     -34.104   5.562   5.480  1.00 20.00     0.039 C 
BRANCH   6   8
HETATM    8  O8  UNL     1     -32.653   7.456   5.250  1.00 20.00    -0.396 OA
HETATM    9  H20 UNL     1     -33.068   7.793   6.058  1.00 20.00     0.210 HD
ENDBRANCH   6   8
ENDBRANCH   5   6
ENDBRANCH   4   5
ENDBRANCH   3   4
TORSDOF 4
