REMARK  1 active torsions:
REMARK  status: ('A' for Active; 'I' for Inactive)
REMARK    1  A    between atoms: C1_1  and  C3_3 
ROOT
HETATM    1  C1  UNL     1     -33.303   6.672   3.966  1.00 20.00     0.035 C 
HETATM    2  C2  UNL     1     -33.461   5.403   3.593  1.00 20.00     0.053 C 
HETATM    3  C4  UNL     1     -34.041   6.915   5.223  1.00 20.00     0.073 C 
HETATM    4  C5  UNL     1     -34.377   5.485   5.626  1.00 20.00     0.180 C 
HETATM    5  C6  UNL     1     -32.946   4.689   2.395  1.00 20.00     0.077 C 
HETATM    6  O8  UNL     1     -34.251   4.646   4.461  1.00 20.00    -0.355 OA
ENDROOT
BRANCH   1   7
HETATM    7  C3  UNL     1     -32.548   7.708   3.281  1.00 20.00     0.250 C 
HETATM    8  O7  UNL     1     -31.601   8.259   3.863  1.00 20.00    -0.274 OA
HETATM    9 CL9  UNL     1     -33.040   8.116   1.645  1.00 20.00    -0.039 Cl
ENDBRANCH   1   7
TORSDOF 1
