REMARK  3 active torsions:
REMARK  status: ('A' for Active; 'I' for Inactive)
REMARK    1  A    between atoms: C3_3  and  C6_6 
REMARK    2  A    between atoms: C3_3  and  O11_11 
REMARK    3  A    between atoms: C8_8  and  O11_11 
ROOT
HETATM    1  C1  UNL     1     -33.954   6.511   6.067  1.00 20.00    -0.025 C 
HETATM    2  C2  UNL     1     -34.639   5.580   5.389  1.00 20.00    -0.005 C 
HETATM    3  C4  UNL     1     -33.059   7.484   5.361  1.00 20.00     0.069 C 
HETATM    4  C5  UNL     1     -34.520   5.439   3.901  1.00 20.00     0.196 C 
HETATM    5  C6  UNL     1     -33.340   7.492   3.859  1.00 20.00     0.224 C 
HETATM    6  O10 UNL     1     -33.400   6.155   3.368  1.00 20.00    -0.372 OA
ENDROOT
BRANCH   5   7
HETATM    7  C3  UNL     1     -32.220   8.130   3.106  1.00 20.00     0.288 C 
HETATM    8  O9  UNL     1     -31.242   8.642   3.635  1.00 20.00    -0.262 OA
BRANCH   7   9
HETATM    9  O11 UNL     1     -32.465   8.046   1.768  1.00 20.00    -0.320 OA
BRANCH   9  10
HETATM   10  C8  UNL     1     -31.921   9.107   0.976  1.00 20.00     0.174 C 
HETATM   11  C7  UNL     1     -32.942  10.221   0.877  1.00 20.00     0.034 C 
ENDBRANCH   9  10
ENDBRANCH   7   9
ENDBRANCH   5   7
TORSDOF 3
