REMARK  0 active torsions:
REMARK  status: ('A' for Active; 'I' for Inactive)
ROOT
HETATM    1  C1  UNL     1     -32.384   8.201   3.371  1.00 20.00     0.071 C 
HETATM    2  C2  UNL     1     -33.429   5.977   3.646  1.00 20.00     0.152 C 
HETATM    3  C3  UNL     1     -33.880   7.631   5.270  1.00 20.00     0.028 C 
HETATM    4  C4  UNL     1     -34.602   6.347   5.668  1.00 20.00     0.018 C 
HETATM    5  C5  UNL     1     -32.777   7.163   4.323  1.00 20.00     0.163 C 
HETATM    6  C6  UNL     1     -34.688   5.522   4.373  1.00 20.00     0.015 C 
HETATM    7  C7  UNL     1     -35.915   5.891   3.538  1.00 20.00     0.023 C 
HETATM    8  C8  UNL     1     -34.653   4.024   4.661  1.00 20.00     0.023 C 
HETATM    9  N9  UNL     1     -32.072   9.025   2.616  1.00 20.00    -0.196 NA
HETATM   10  O10 UNL     1     -32.993   5.441   2.633  1.00 20.00    -0.296 OA
ENDROOT
TORSDOF 0
