REMARK  3 active torsions:
REMARK  status: ('A' for Active; 'I' for Inactive)
REMARK    1  A    between atoms: C6_6  and  C7_7 
REMARK    2  A    between atoms: C7_7  and  C8_8 
REMARK    3  A    between atoms: C7_7  and  O9_9 
ROOT
HETATM    1  C1  UNL     1     -32.238   9.741   1.641  1.00 20.00     0.012 C 
HETATM    2  C2  UNL     1     -33.030   8.920   2.014  1.00 20.00    -0.115 C 
HETATM    3  C6  UNL     1     -34.006   7.914   2.470  1.00 20.00     0.125 C 
ENDROOT
BRANCH   3   4
HETATM    4  C7  UNL     1     -33.347   6.884   3.404  1.00 20.00     0.136 C 
BRANCH   4   5
HETATM    5  C8  UNL     1     -34.308   5.795   3.978  1.00 20.00    -0.025 C 
HETATM    6  C3  UNL     1     -33.787   4.396   3.583  1.00 20.00     0.017 C 
HETATM    7  C4  UNL     1     -34.402   5.853   5.514  1.00 20.00     0.017 C 
HETATM    8  C5  UNL     1     -35.723   5.958   3.390  1.00 20.00     0.017 C 
ENDBRANCH   4   5
BRANCH   4   9
HETATM    9  O9  UNL     1     -32.715   7.592   4.478  1.00 20.00    -0.394 OA
HETATM   10  H23 UNL     1     -33.417   8.082   4.927  1.00 20.00     0.210 HD
ENDBRANCH   4   9
ENDBRANCH   3   4
TORSDOF 3
