REMARK  5 active torsions:
REMARK  status: ('A' for Active; 'I' for Inactive)
REMARK    1  A    between atoms: C5_5  and  C9_9 
REMARK    2  A    between atoms: C6_6  and  C9_9 
REMARK    3  A    between atoms: C7_7  and  N11_11 
REMARK    4  A    between atoms: C8_8  and  N11_11 
REMARK    5  A    between atoms: C9_9  and  N11_11 
ROOT
HETATM    1  C1  UNL     1     -33.350   7.227   5.044  1.00 20.00     0.061 C 
HETATM    2  C5  UNL     1     -32.410   7.626   3.985  1.00 20.00     0.159 C 
HETATM    3  N10 UNL     1     -34.090   6.912   5.881  1.00 20.00    -0.197 NA
ENDROOT
BRANCH   2   4
HETATM    4  C9  UNL     1     -33.132   8.201   2.754  1.00 20.00     0.235 C 
BRANCH   4   5
HETATM    5  C6  UNL     1     -34.410   7.406   2.418  1.00 20.00     0.032 C 
HETATM    6  C2  UNL     1     -34.156   5.932   2.126  1.00 20.00     0.007 C 
ENDBRANCH   4   5
BRANCH   4   7
HETATM    7  N11 UNL     1     -32.201   8.172   1.621  1.00 20.00     0.093 N 
BRANCH   7   8
HETATM    8  C7  UNL     1     -31.018   8.976   1.917  1.00 20.00     0.268 C 
HETATM    9  C3  UNL     1     -30.033   8.915   0.799  1.00 20.00     0.037 C 
ENDBRANCH   7   8
BRANCH   7  10
HETATM   10  C8  UNL     1     -32.861   8.655   0.410  1.00 20.00     0.268 C 
HETATM   11  C4  UNL     1     -33.293  10.074   0.562  1.00 20.00     0.037 C 
ENDBRANCH   7  10
ENDBRANCH   4   7
ENDBRANCH   2   4
TORSDOF 5
