REMARK  3 active torsions:
REMARK  status: ('A' for Active; 'I' for Inactive)
REMARK    1  A    between atoms: C3_3  and  C6_6 
REMARK    2  A    between atoms: C3_3  and  C7_7 
REMARK    3  A    between atoms: C5_5  and  C7_7 
ROOT
HETATM    1  C1  UNL     1     -34.825   5.228   5.465  1.00 20.00     0.012 C 
HETATM    2  C2  UNL     1     -34.141   5.137   4.482  1.00 20.00    -0.117 C 
HETATM    3  C5  UNL     1     -33.302   5.023   3.279  1.00 20.00     0.100 C 
ENDROOT
BRANCH   3   4
HETATM    4  C7  UNL     1     -33.214   6.344   2.519  1.00 20.00     0.090 C 
BRANCH   4   5
HETATM    5  C3  UNL     1     -32.603   7.482   3.328  1.00 20.00     0.127 C 
HETATM    6  O8  UNL     1     -32.687   7.538   4.553  1.00 20.00    -0.298 OA
BRANCH   5   7
HETATM    7  C6  UNL     1     -31.862   8.534   2.518  1.00 20.00     0.074 C 
HETATM    8  C4  UNL     1     -32.757   9.245   1.520  1.00 20.00     0.013 C 
ENDBRANCH   5   7
ENDBRANCH   4   5
ENDBRANCH   3   4
TORSDOF 3
