REMARK  1 active torsions:
REMARK  status: ('A' for Active; 'I' for Inactive)
REMARK    1  A    between atoms: C3_3  and  C8_8 
ROOT
HETATM    1  C1  UNL     1     -32.454   6.042   2.521  1.00 20.00     0.302 C 
HETATM    2  C2  UNL     1     -33.859   7.224   4.398  1.00 20.00     0.209 C 
HETATM    3  C3  UNL     1     -32.972   7.440   2.179  1.00 20.00     0.149 C 
HETATM    4  C4  UNL     1     -34.422   5.855   3.970  1.00 20.00     0.171 C 
HETATM    5  C5  UNL     1     -35.824   6.024   3.354  1.00 20.00     0.051 C 
HETATM    6  C6  UNL     1     -34.527   4.941   5.199  1.00 20.00     0.051 C 
HETATM    7  N9  UNL     1     -33.538   5.183   2.998  1.00 20.00     0.097 N 
HETATM    8  O10 UNL     1     -33.620   8.082   3.283  1.00 20.00    -0.382 OA
HETATM    9  H27 UNL     1     -34.095   4.893   2.193  1.00 20.00     0.317 HD
ENDROOT
BRANCH   3  10
HETATM   10  C8  UNL     1     -31.842   8.349   1.715  1.00 20.00     0.029 C 
HETATM   11  C7  UNL     1     -32.333   9.721   1.377  1.00 20.00     0.007 C 
ENDBRANCH   3  10
TORSDOF 1
