REMARK  0 active torsions:
REMARK  status: ('A' for Active; 'I' for Inactive)
ROOT
HETATM    1  C1  UNL     1     -34.211   3.945   4.557  1.00 20.00    -0.003 C 
HETATM    2  C2  UNL     1     -33.638   4.796   3.533  1.00 20.00     0.011 C 
HETATM    3  C3  UNL     1     -34.533   4.670   5.645  1.00 20.00    -0.017 C 
HETATM    4  C4  UNL     1     -33.661   6.040   4.012  1.00 20.00    -0.005 C 
HETATM    5  C5  UNL     1     -32.889   7.262   3.766  1.00 20.00     0.156 C 
HETATM    6  C6  UNL     1     -32.772   8.002   5.079  1.00 20.00     0.084 C 
HETATM    7  C7  UNL     1     -33.267   6.948   6.105  1.00 20.00     0.021 C 
HETATM    8  C8  UNL     1     -34.311   6.122   5.355  1.00 20.00     0.045 C 
HETATM    9  O9  UNL     1     -32.425   7.602   2.693  1.00 20.00    -0.293 OA
ENDROOT
TORSDOF 0
