REMARK  2 active torsions:
REMARK  status: ('A' for Active; 'I' for Inactive)
REMARK    1  A    between atoms: C6_6  and  C7_7 
REMARK    2  A    between atoms: C7_7  and  N9_9 
ROOT
HETATM    1  C1  UNL     1     -35.745   6.059   3.247  1.00 20.00     0.101 C 
HETATM    2  C4  UNL     1     -33.795   4.688   2.655  1.00 20.00     0.066 C 
HETATM    3  C7  UNL     1     -34.280   5.940   3.405  1.00 20.00     0.243 C 
HETATM    4  N8  UNL     1     -36.895   6.152   3.120  1.00 20.00    -0.195 NA
ENDROOT
BRANCH   3   5
HETATM    5  C6  UNL     1     -33.863   5.909   4.911  1.00 20.00     0.030 C 
HETATM    6  C2  UNL     1     -34.432   4.711   5.684  1.00 20.00     0.013 C 
HETATM    7  C3  UNL     1     -34.222   7.202   5.662  1.00 20.00     0.013 C 
ENDBRANCH   3   5
BRANCH   3   8
HETATM    8  N9  UNL     1     -33.644   7.084   2.767  1.00 20.00     0.102 N 
HETATM    9  C5  UNL     1     -32.195   7.018   2.905  1.00 20.00     0.309 C 
HETATM   10  H23 UNL     1     -33.886   7.094   1.777  1.00 20.00     0.317 HD
ENDBRANCH   3   8
TORSDOF 2
