REMARK  2 active torsions:
REMARK  status: ('A' for Active; 'I' for Inactive)
REMARK    1  A    between atoms: C1_1  and  C5_5 
REMARK       I    between atoms: C1_1  and  N7_7 
REMARK    2  A    between atoms: C5_5  and  C6_6 
ROOT
HETATM    1  C1  UNL     1     -32.222   7.899   3.242  1.00 20.00     0.220 C 
HETATM    2  C2  UNL     1     -34.179   6.014   5.290  1.00 20.00     0.040 C 
HETATM    3  C3  UNL     1     -33.243   7.212   5.490  1.00 20.00     0.127 C 
HETATM    4  C4  UNL     1     -34.224   6.351   3.795  1.00 20.00     0.127 C 
HETATM    5  N7  UNL     1     -33.100   7.230   4.048  1.00 20.00    -0.352 N 
HETATM    6  O8  UNL     1     -31.342   8.653   3.654  1.00 20.00    -0.273 OA
ENDROOT
BRANCH   1   7
HETATM    7  C5  UNL     1     -32.408   7.638   1.771  1.00 20.00     0.118 C 
BRANCH   7   8
HETATM    8  C6  UNL     1     -31.991   8.846   0.957  1.00 20.00     0.124 C 
HETATM    9 CL9  UNL     1     -32.978  10.275   1.355  1.00 20.00    -0.130 Cl
ENDBRANCH   7   8
ENDBRANCH   1   7
TORSDOF 2
