REMARK  1 active torsions:
REMARK  status: ('A' for Active; 'I' for Inactive)
REMARK    1  A    between atoms: C1_1  and  S9_9 
ROOT
HETATM    1  C1  UNL     1     -33.617   5.561   4.598  1.00 20.00     0.047 A 
HETATM    2  C2  UNL     1     -33.681   6.832   5.198  1.00 20.00     0.069 A 
HETATM    3  C3  UNL     1     -33.100   5.797   3.348  1.00 20.00     0.044 A 
HETATM    4  C4  UNL     1     -34.160   7.182   6.549  1.00 20.00     0.074 C 
HETATM    5  C5  UNL     1     -32.786   4.888   2.227  1.00 20.00     0.071 C 
HETATM    6  C6  UNL     1     -32.358   7.884   2.159  1.00 20.00     0.179 C 
HETATM    7  N7  UNL     1     -33.239   7.805   4.396  1.00 20.00    -0.176 NA
HETATM    8  N8  UNL     1     -32.893   7.144   3.278  1.00 20.00    -0.277 N 
ENDROOT
BRANCH   1   9
HETATM    9  S9  UNL     1     -34.091   4.041   5.293  1.00 20.00    -0.139 SA
HETATM   10  H19 UNL     1     -33.797   3.229   4.258  1.00 20.00     0.107 HD
ENDBRANCH   1   9
TORSDOF 1
