REMARK  4 active torsions:
REMARK  status: ('A' for Active; 'I' for Inactive)
REMARK    1  A    between atoms: C3_3  and  C6_6 
REMARK    2  A    between atoms: C3_3  and  C7_7 
REMARK    3  A    between atoms: C5_5  and  C6_6 
REMARK    4  A    between atoms: C7_7  and  C8_8 
ROOT
HETATM    1  C1  UNL     1     -34.404   5.595   6.028  1.00 20.00     0.012 C 
HETATM    2  C2  UNL     1     -34.691   5.624   4.863  1.00 20.00    -0.117 C 
HETATM    3  C5  UNL     1     -35.044   5.659   3.435  1.00 20.00     0.100 C 
ENDROOT
BRANCH   3   4
HETATM    4  C6  UNL     1     -33.826   5.926   2.554  1.00 20.00     0.090 C 
BRANCH   4   5
HETATM    5  C3  UNL     1     -33.106   7.229   2.876  1.00 20.00     0.127 C 
HETATM    6  O9  UNL     1     -32.651   7.472   3.993  1.00 20.00    -0.298 OA
BRANCH   5   7
HETATM    7  C7  UNL     1     -32.967   8.203   1.716  1.00 20.00     0.078 C 
BRANCH   7   8
HETATM    8  C8  UNL     1     -32.208   9.470   2.100  1.00 20.00     0.003 C 
HETATM    9  C4  UNL     1     -32.056  10.410   0.915  1.00 20.00     0.005 C 
ENDBRANCH   7   8
ENDBRANCH   5   7
ENDBRANCH   4   5
ENDBRANCH   3   4
TORSDOF 4
