REMARK  3 active torsions:
REMARK  status: ('A' for Active; 'I' for Inactive)
REMARK    1  A    between atoms: C2_2  and  C5_5 
REMARK    2  A    between atoms: C2_2  and  C7_7 
REMARK    3  A    between atoms: C5_5  and  C6_6 
ROOT
HETATM    1  C1  UNL     1     -34.295   5.577   4.293  1.00 20.00     0.071 C 
HETATM    2  C4  UNL     1     -32.632   5.399   2.481  1.00 20.00     0.033 C 
HETATM    3  C7  UNL     1     -33.585   6.318   3.236  1.00 20.00     0.158 C 
HETATM    4  N8  UNL     1     -34.858   4.994   5.123  1.00 20.00    -0.196 NA
ENDROOT
BRANCH   3   5
HETATM    5  C2  UNL     1     -32.804   7.490   3.821  1.00 20.00     0.144 C 
HETATM    6  O9  UNL     1     -32.789   7.723   5.030  1.00 20.00    -0.297 OA
BRANCH   5   7
HETATM    7  C5  UNL     1     -32.054   8.360   2.821  1.00 20.00     0.079 C 
BRANCH   7   8
HETATM    8  C6  UNL     1     -32.719   8.435   1.449  1.00 20.00     0.003 C 
HETATM    9  C3  UNL     1     -31.912   9.256   0.453  1.00 20.00     0.005 C 
ENDBRANCH   7   8
ENDBRANCH   5   7
ENDBRANCH   3   5
TORSDOF 3
