REMARK  2 active torsions:
REMARK  status: ('A' for Active; 'I' for Inactive)
REMARK    1  A    between atoms: C2_2  and  C4_4 
REMARK    2  A    between atoms: C2_2  and  C8_8 
ROOT
HETATM    1  C1  UNL     1     -34.371   5.330   5.015  1.00 20.00     0.071 C 
HETATM    2  C7  UNL     1     -33.394   5.071   2.768  1.00 20.00     0.033 C 
HETATM    3  C8  UNL     1     -34.195   5.972   3.701  1.00 20.00     0.158 C 
HETATM    4  N9  UNL     1     -34.514   4.825   6.050  1.00 20.00    -0.196 NA
ENDROOT
BRANCH   3   5
HETATM    5  C2  UNL     1     -33.489   7.310   3.841  1.00 20.00     0.148 C 
HETATM    6  O10 UNL     1     -33.108   7.783   4.905  1.00 20.00    -0.296 OA
BRANCH   5   7
HETATM    7  C4  UNL     1     -33.282   8.077   2.576  1.00 20.00     0.061 A 
HETATM    8  C3  UNL     1     -32.085   7.762   1.741  1.00 20.00     0.017 A 
HETATM    9  C5  UNL     1     -32.139   9.052   2.516  1.00 20.00    -0.007 A 
HETATM   10  C6  UNL     1     -32.319  10.348   1.805  1.00 20.00     0.011 C 
ENDBRANCH   5   7
ENDBRANCH   3   5
TORSDOF 2
