REMARK  3 active torsions:
REMARK  status: ('A' for Active; 'I' for Inactive)
REMARK    1  A    between atoms: C2_2  and  C4_4 
REMARK    2  A    between atoms: C2_2  and  C9_9 
REMARK    3  A    between atoms: C8_8  and  C9_9 
ROOT
HETATM    1  C1  UNL     1     -32.126   7.708   3.517  1.00 20.00     0.071 C 
HETATM    2  C9  UNL     1     -32.341   6.892   2.309  1.00 20.00     0.162 C 
HETATM    3  N10 UNL     1     -31.953   8.350   4.469  1.00 20.00    -0.196 NA
ENDROOT
BRANCH   2   4
HETATM    4  C2  UNL     1     -32.995   5.562   2.648  1.00 20.00     0.148 C 
HETATM    5  O11 UNL     1     -32.474   4.468   2.464  1.00 20.00    -0.296 OA
BRANCH   4   6
HETATM    6  C4  UNL     1     -34.367   5.635   3.235  1.00 20.00     0.061 A 
HETATM    7  C3  UNL     1     -34.502   5.868   4.705  1.00 20.00     0.017 A 
HETATM    8  C5  UNL     1     -34.866   4.534   4.117  1.00 20.00    -0.007 A 
HETATM    9  C6  UNL     1     -34.056   3.328   4.448  1.00 20.00     0.011 C 
ENDBRANCH   4   6
ENDBRANCH   2   4
BRANCH   2  10
HETATM   10  C8  UNL     1     -33.148   7.651   1.245  1.00 20.00     0.022 C 
HETATM   11  C7  UNL     1     -32.527   8.970   0.796  1.00 20.00     0.007 C 
ENDBRANCH   2  10
TORSDOF 3
