REMARK  3 active torsions:
REMARK  status: ('A' for Active; 'I' for Inactive)
REMARK    1  A    between atoms: C2_2  and  C7_7 
REMARK    2  A    between atoms: C2_2  and  C8_8 
REMARK    3  A    between atoms: C7_7  and  C9_9 
ROOT
HETATM    1  C1  UNL     1     -34.329   4.954   4.582  1.00 20.00     0.071 C 
HETATM    2  C3  UNL     1     -32.691   4.850   2.741  1.00 20.00     0.033 C 
HETATM    3  C8  UNL     1     -33.997   5.459   3.239  1.00 20.00     0.158 C 
HETATM    4  N10 UNL     1     -34.594   4.555   5.639  1.00 20.00    -0.196 NA
ENDROOT
BRANCH   3   5
HETATM    5  C2  UNL     1     -33.874   6.978   3.242  1.00 20.00     0.144 C 
HETATM    6  O11 UNL     1     -34.040   7.646   4.264  1.00 20.00    -0.296 OA
BRANCH   5   7
HETATM    7  C7  UNL     1     -33.564   7.654   1.913  1.00 20.00     0.088 C 
BRANCH   7   8
HETATM    8  C9  UNL     1     -32.300   8.542   1.914  1.00 20.00    -0.045 C 
HETATM    9  C4  UNL     1     -31.296   8.085   0.844  1.00 20.00     0.015 C 
HETATM   10  C5  UNL     1     -31.614   8.536   3.290  1.00 20.00     0.015 C 
HETATM   11  C6  UNL     1     -32.732   9.987   1.594  1.00 20.00     0.015 C 
ENDBRANCH   7   8
ENDBRANCH   5   7
ENDBRANCH   3   5
TORSDOF 3
