REMARK  3 active torsions:
REMARK  status: ('A' for Active; 'I' for Inactive)
REMARK    1  A    between atoms: C4_4  and  N9_9 
REMARK    2  A    between atoms: C6_6  and  N9_9 
REMARK    3  A    between atoms: C7_7  and  N9_9 
ROOT
HETATM    1  C1  UNL     1     -31.820   8.483   1.961  1.00 20.00     0.089 C 
HETATM    2  C6  UNL     1     -31.684   8.114   3.369  1.00 20.00     0.396 C 
HETATM    3  N8  UNL     1     -31.924   8.777   0.843  1.00 20.00    -0.195 NA
ENDROOT
BRANCH   2   4
HETATM    4  N9  UNL     1     -32.949   7.607   3.898  1.00 20.00     0.105 N 
BRANCH   4   5
HETATM    5  C4  UNL     1     -33.143   6.210   3.510  1.00 20.00     0.224 A 
HETATM    6  C2  UNL     1     -34.516   5.598   3.530  1.00 20.00     0.038 A 
HETATM    7  C3  UNL     1     -33.835   5.865   2.220  1.00 20.00     0.038 A 
ENDBRANCH   4   5
BRANCH   4   8
HETATM    8  C7  UNL     1     -32.985   7.741   5.354  1.00 20.00     0.269 C 
HETATM    9  C5  UNL     1     -34.292   7.284   5.905  1.00 20.00     0.037 C 
ENDBRANCH   4   8
ENDBRANCH   2   4
TORSDOF 3
