REMARK  0 active torsions:
REMARK  status: ('A' for Active; 'I' for Inactive)
ROOT
HETATM    1  C1  UNL     1     -31.706   8.554   4.141  1.00 20.00     0.039 A 
HETATM    2  C2  UNL     1     -31.452   9.092   2.878  1.00 20.00     0.022 A 
HETATM    3  C3  UNL     1     -33.345   7.885   1.937  1.00 20.00     0.029 A 
HETATM    4  C4  UNL     1     -33.590   7.366   3.195  1.00 20.00    -0.021 A 
HETATM    5  C5  UNL     1     -32.784   7.700   4.272  1.00 20.00     0.075 A 
HETATM    6  C6  UNL     1     -32.268   8.761   1.783  1.00 20.00     0.011 A 
HETATM    7  C7  UNL     1     -34.610   6.385   3.627  1.00 20.00     0.073 C 
HETATM    8  C8  UNL     1     -34.464   6.535   5.150  1.00 20.00     0.129 C 
HETATM    9  C9  UNL     1     -34.616   5.213   5.884  1.00 20.00     0.040 C 
HETATM   10  O10 UNL     1     -33.153   7.087   5.442  1.00 20.00    -0.345 OA
HETATM   11 BR11 UNL     1     -31.895   9.501   0.083  1.00 20.00    -0.051 Br
ENDROOT
TORSDOF 0
