REMARK  2 active torsions:
REMARK  status: ('A' for Active; 'I' for Inactive)
REMARK    1  A    between atoms: C7_7  and  C12_12 
REMARK    2  A    between atoms: C11_11  and  C12_12 
ROOT
HETATM    1  C1  UNL     1     -34.390   4.803   5.101  1.00 20.00     0.064 C 
HETATM    2  C2  UNL     1     -35.220   5.975   3.079  1.00 20.00     0.019 C 
HETATM    3  C3  UNL     1     -33.297   4.337   2.924  1.00 20.00     0.019 C 
HETATM    4  C4  UNL     1     -34.229   7.140   3.019  1.00 20.00     0.007 C 
HETATM    5  C5  UNL     1     -32.310   5.505   2.864  1.00 20.00     0.007 C 
HETATM    6  C6  UNL     1     -34.603   4.691   3.645  1.00 20.00     0.093 C 
HETATM    7  C7  UNL     1     -32.952   6.760   2.260  1.00 20.00    -0.007 C 
HETATM    8  N13 UNL     1     -34.222   4.892   6.245  1.00 20.00    -0.197 NA
ENDROOT
BRANCH   7   9
HETATM    9  C12 UNL     1     -31.961   7.923   2.256  1.00 20.00    -0.044 C 
HETATM   10  C9  UNL     1     -31.565   8.250   3.710  1.00 20.00     0.015 C 
HETATM   11  C10 UNL     1     -30.697   7.502   1.480  1.00 20.00     0.015 C 
BRANCH   9  12
HETATM   12  C11 UNL     1     -32.637   9.149   1.581  1.00 20.00     0.004 C 
HETATM   13  C8  UNL     1     -33.089   8.962   0.137  1.00 20.00     0.006 C 
ENDBRANCH   9  12
ENDBRANCH   7   9
TORSDOF 2
