REMARK  0 active torsions:
REMARK  status: ('A' for Active; 'I' for Inactive)
ROOT
HETATM    1  C1  UNL     1     -34.952   6.590   3.609  1.00 20.00     0.064 C 
HETATM    2  C2  UNL     1     -32.771   7.476   4.496  1.00 20.00     0.023 C 
HETATM    3  C3  UNL     1     -33.230   7.495   2.013  1.00 20.00     0.028 C 
HETATM    4  C4  UNL     1     -31.030   8.408   2.894  1.00 20.00     0.013 C 
HETATM    5  C5  UNL     1     -33.848   7.630   3.412  1.00 20.00     0.094 C 
HETATM    6  C6  UNL     1     -31.596   8.444   4.322  1.00 20.00    -0.017 C 
HETATM    7  C7  UNL     1     -32.074   8.485   1.751  1.00 20.00    -0.046 C 
HETATM    8  C8  UNL     1     -31.957   9.810   4.741  1.00 20.00     0.010 C 
HETATM    9  C9  UNL     1     -32.617   9.917   1.574  1.00 20.00     0.015 C 
HETATM   10  C10 UNL     1     -31.379   8.095   0.428  1.00 20.00     0.015 C 
HETATM   11  N11 UNL     1     -35.790   5.801   3.759  1.00 20.00    -0.197 NA
ENDROOT
TORSDOF 0
