REMARK  3 active torsions:
REMARK  status: ('A' for Active; 'I' for Inactive)
REMARK    1  A    between atoms: C5_5  and  C6_6 
REMARK    2  A    between atoms: C6_6  and  C7_7 
REMARK    3  A    between atoms: C7_7  and  N9_9 
ROOT
HETATM    1  C1  UNL     1     -33.485   7.081   5.096  1.00 20.00     0.095 C 
HETATM    2  C7  UNL     1     -33.313   6.206   3.924  1.00 20.00     0.327 C 
HETATM    3  N8  UNL     1     -33.617   7.767   6.022  1.00 20.00    -0.195 NA
ENDROOT
BRANCH   2   4
HETATM    4  C6  UNL     1     -33.313   7.011   2.612  1.00 20.00     0.050 C 
BRANCH   4   5
HETATM    5  C5  UNL     1     -31.999   7.741   2.302  1.00 20.00    -0.001 C 
HETATM    6  C2  UNL     1     -32.108   8.550   1.017  1.00 20.00     0.005 C 
ENDBRANCH   4   5
ENDBRANCH   2   4
BRANCH   2   7
HETATM    7  N9  UNL     1     -34.344   5.170   3.905  1.00 20.00     0.098 N 
HETATM    8  C3  UNL     1     -35.675   5.773   3.842  1.00 20.00     0.311 C 
HETATM    9  C4  UNL     1     -34.228   4.311   5.083  1.00 20.00     0.311 C 
ENDBRANCH   2   7
TORSDOF 3
