REMARK  4 active torsions:
REMARK  status: ('A' for Active; 'I' for Inactive)
REMARK    1  A    between atoms: C1_1  and  C8_8 
REMARK    2  A    between atoms: C7_7  and  N10_10 
REMARK    3  A    between atoms: C8_8  and  N10_10 
REMARK    4  A    between atoms: C9_9  and  N10_10 
ROOT
HETATM    1  N10 UNL     1     -33.362   7.023   2.894  1.00 20.00     0.103 N 
ENDROOT
BRANCH   1   2
HETATM    2  C7  UNL     1     -32.531   5.956   2.316  1.00 20.00     0.269 C 
HETATM    3  C3  UNL     1     -33.169   4.621   2.493  1.00 20.00     0.037 C 
ENDBRANCH   1   2
BRANCH   1   4
HETATM    4  C8  UNL     1     -33.566   6.822   4.303  1.00 20.00     0.287 C 
HETATM    5  C4  UNL     1     -33.941   8.111   5.011  1.00 20.00     0.051 C 
BRANCH   4   6
HETATM    6  C1  UNL     1     -34.666   5.785   4.458  1.00 20.00     0.155 C 
HETATM    7  C2  UNL     1     -34.543   4.842   5.628  1.00 20.00     0.093 C 
HETATM    8  O11 UNL     1     -35.637   5.732   3.702  1.00 20.00    -0.296 OA
ENDBRANCH   4   6
ENDBRANCH   1   4
BRANCH   1   9
HETATM    9  C9  UNL     1     -32.742   8.330   2.624  1.00 20.00     0.216 C 
HETATM   10  C5  UNL     1     -32.631   8.527   1.119  1.00 20.00     0.042 C 
HETATM   11  C6  UNL     1     -31.379   8.378   3.301  1.00 20.00     0.042 C 
ENDBRANCH   1   9
TORSDOF 4
