REMARK  3 active torsions:
REMARK  status: ('A' for Active; 'I' for Inactive)
REMARK    1  A    between atoms: C1_1  and  C4_4 
REMARK    2  A    between atoms: C1_1  and  C7_7 
REMARK    3  A    between atoms: C7_7  and  C8_8 
ROOT
HETATM    1  C1  UNL     1     -32.097   7.828   2.850  1.00 20.00     0.131 C 
HETATM    2  O9  UNL     1     -31.406   8.422   3.676  1.00 20.00    -0.298 OA
ENDROOT
BRANCH   1   3
HETATM    3  C4  UNL     1     -32.556   8.512   1.589  1.00 20.00     0.055 A 
HETATM    4  C2  UNL     1     -32.206   9.944   1.403  1.00 20.00     0.013 A 
HETATM    5  C3  UNL     1     -31.528   8.887   0.585  1.00 20.00     0.013 A 
ENDBRANCH   1   3
BRANCH   1   6
HETATM    6  C7  UNL     1     -32.574   6.397   3.047  1.00 20.00     0.082 C 
BRANCH   6   7
HETATM    7  C8  UNL     1     -33.892   6.284   3.826  1.00 20.00    -0.016 C 
HETATM    8  C5  UNL     1     -33.768   6.887   5.227  1.00 20.00     0.010 C 
HETATM    9  C6  UNL     1     -34.314   4.817   3.932  1.00 20.00     0.010 C 
ENDBRANCH   6   7
ENDBRANCH   1   6
TORSDOF 3
