REMARK  1 active torsions:
REMARK  status: ('A' for Active; 'I' for Inactive)
REMARK    1  A    between atoms: C2_2  and  C3_3 
ROOT
HETATM    1  C1  UNL     1     -33.910   6.568   3.467  1.00 20.00     0.064 C 
HETATM    2  C2  UNL     1     -35.106   5.903   4.000  1.00 20.00     0.194 C 
HETATM    3  N4  UNL     1     -32.966   7.095   3.044  1.00 20.00    -0.197 NA
ENDROOT
BRANCH   2   4
HETATM    4  C3  UNL     1     -34.744   4.867   5.047  1.00 20.00     0.366 C 
HETATM    5  F5  UNL     1     -34.075   5.447   6.073  1.00 20.00    -0.213 F 
HETATM    6  F6  UNL     1     -33.924   3.927   4.516  1.00 20.00    -0.213 F 
ENDBRANCH   2   4
TORSDOF 1
