REMARK  1 active torsions:
REMARK  status: ('A' for Active; 'I' for Inactive)
REMARK    1  A    between atoms: C3_3  and  C6_6 
ROOT
HETATM    1  C1  UNL     1     -34.040   7.502   3.456  1.00 20.00     0.019 A 
HETATM    2  C2  UNL     1     -34.424   6.366   4.226  1.00 20.00     0.028 A 
HETATM    3  C3  UNL     1     -33.014   7.214   2.584  1.00 20.00     0.015 A 
HETATM    4  C4  UNL     1     -33.676   5.252   3.912  1.00 20.00     0.051 A 
HETATM    5  S8  UNL     1     -32.517   5.578   2.695  1.00 20.00    -0.085 SA
HETATM    6 BR9  UNL     1     -33.896   3.548   4.722  1.00 20.00    -0.043 Br
ENDROOT
BRANCH   3   7
HETATM    7  C6  UNL     1     -32.387   8.229   1.624  1.00 20.00     0.185 A 
HETATM    8  C5  UNL     1     -32.812   9.679   1.725  1.00 20.00     0.206 A 
HETATM    9  O7  UNL     1     -33.143   8.885   0.584  1.00 20.00    -0.376 OA
ENDBRANCH   3   7
TORSDOF 1
