REMARK  2 active torsions:
REMARK  status: ('A' for Active; 'I' for Inactive)
REMARK    1  A    between atoms: C7_7  and  C10_10 
REMARK    2  A    between atoms: C8_8  and  C9_9 
ROOT
HETATM    1  C1  UNL     1     -34.334   7.623   2.290  1.00 20.00    -0.019 A 
HETATM    2  C3  UNL     1     -33.069   7.576   1.854  1.00 20.00    -0.087 A 
HETATM    3  C5  UNL     1     -32.521   6.180   1.797  1.00 20.00     0.039 A 
HETATM    4  C8  UNL     1     -34.872   6.268   2.605  1.00 20.00     0.021 A 
HETATM    5  C10 UNL     1     -33.674   5.308   2.305  1.00 20.00     0.005 A 
HETATM    6  C11 UNL     1     -32.230   8.736   1.453  1.00 20.00     0.043 C 
ENDROOT
BRANCH   4   7
HETATM    7  C9  UNL     1     -35.209   5.946   4.086  1.00 20.00     0.022 C 
HETATM    8  C4  UNL     1     -34.066   6.360   4.991  1.00 20.00    -0.082 C 
HETATM    9  C2  UNL     1     -33.034   5.543   4.733  1.00 20.00    -0.019 C 
HETATM   10  C12 UNL     1     -34.145   7.501   5.932  1.00 20.00     0.043 C 
HETATM   11  C7  UNL     1     -33.484   4.577   3.661  1.00 20.00     0.014 C 
HETATM   12  C6  UNL     1     -34.951   4.430   4.098  1.00 20.00     0.018 C 
ENDBRANCH   4   7
TORSDOF 2
