REMARK  1 active torsions:
REMARK  status: ('A' for Active; 'I' for Inactive)
REMARK    1  A    between atoms: C7_7  and  C8_8 
ROOT
HETATM    1  C1  UNL     1     -34.457   6.826   5.097  1.00 20.00     0.066 C 
HETATM    2  C4  UNL     1     -34.894   5.565   3.024  1.00 20.00     0.048 C 
HETATM    3  C5  UNL     1     -33.616   4.755   2.983  1.00 20.00     0.169 C 
HETATM    4  C6  UNL     1     -34.441   6.881   3.624  1.00 20.00     0.124 C 
HETATM    5  C8  UNL     1     -33.011   7.013   3.093  1.00 20.00     0.143 C 
HETATM    6  N9  UNL     1     -34.469   6.782   6.256  1.00 20.00    -0.197 NA
HETATM    7  O10 UNL     1     -32.546   5.685   2.784  1.00 20.00    -0.384 OA
ENDROOT
BRANCH   5   8
HETATM    8  C7  UNL     1     -32.935   7.848   1.846  1.00 20.00     0.016 A 
HETATM    9  C2  UNL     1     -32.846   9.346   1.942  1.00 20.00     0.007 A 
HETATM   10  C3  UNL     1     -31.656   8.550   1.482  1.00 20.00     0.007 A 
ENDBRANCH   5   8
TORSDOF 1
