REMARK  2 active torsions:
REMARK  status: ('A' for Active; 'I' for Inactive)
REMARK    1  A    between atoms: C1_1  and  C4_4 
REMARK    2  A    between atoms: C4_4  and  N5_5 
ROOT
HETATM    1  C4  UNL     1     -33.350   6.926   2.708  1.00 20.00     0.367 C 
ENDROOT
BRANCH   1   2
HETATM    2  C1  UNL     1     -33.669   6.792   4.182  1.00 20.00     0.247 C 
HETATM    3  O6  UNL     1     -33.000   7.308   5.072  1.00 20.00    -0.278 OA
HETATM    4 CL7  UNL     1     -35.096   5.820   4.432  1.00 20.00    -0.042 Cl
ENDBRANCH   1   2
BRANCH   1   5
HETATM    5  N5  UNL     1     -32.683   8.206   2.475  1.00 20.00     0.088 N 
HETATM    6  C2  UNL     1     -32.783   8.586   1.066  1.00 20.00     0.310 C 
HETATM    7  C3  UNL     1     -31.281   8.135   2.887  1.00 20.00     0.310 C 
ENDBRANCH   1   5
TORSDOF 2
