REMARK  1 active torsions:
REMARK  status: ('A' for Active; 'I' for Inactive)
REMARK    1  A    between atoms: C2_2  and  C7_7 
ROOT
HETATM    1  C1  UNL     1     -33.751   6.220   3.617  1.00 20.00     0.141 C 
HETATM    2  C3  UNL     1     -33.923   7.653   4.075  1.00 20.00     0.079 C 
HETATM    3  C4  UNL     1     -33.795   7.752   5.587  1.00 20.00     0.007 C 
HETATM    4  C5  UNL     1     -34.744   6.790   6.294  1.00 20.00     0.002 C 
HETATM    5  C6  UNL     1     -34.499   5.348   5.845  1.00 20.00     0.024 C 
HETATM    6  C7  UNL     1     -34.613   5.166   4.320  1.00 20.00     0.070 C 
HETATM    7  C8  UNL     1     -34.151   3.754   3.940  1.00 20.00     0.031 C 
HETATM    8  O9  UNL     1     -33.016   5.950   2.667  1.00 20.00    -0.297 OA
ENDROOT
BRANCH   6   9
HETATM    9  C2  UNL     1     -36.055   5.274   3.896  1.00 20.00     0.248 C 
HETATM   10  O10 UNL     1     -36.941   4.540   4.320  1.00 20.00    -0.306 OA
ENDBRANCH   6   9
TORSDOF 1
