REMARK  0 active torsions:
REMARK  status: ('A' for Active; 'I' for Inactive)
ROOT
HETATM    1  C1  UNL     1     -33.925   6.820   5.447  1.00 20.00     0.092 C 
HETATM    2  C2  UNL     1     -32.768   7.118   2.944  1.00 20.00     0.023 C 
HETATM    3  C3  UNL     1     -33.120   5.694   3.340  1.00 20.00     0.016 C 
HETATM    4  C4  UNL     1     -32.211   7.847   4.154  1.00 20.00     0.148 C 
HETATM    5  C5  UNL     1     -34.164   5.687   4.464  1.00 20.00    -0.014 C 
HETATM    6  C6  UNL     1     -34.101   4.359   5.228  1.00 20.00     0.020 C 
HETATM    7  C7  UNL     1     -35.580   5.874   3.896  1.00 20.00     0.020 C 
HETATM    8  N8  UNL     1     -33.090   7.790   5.319  1.00 20.00    -0.305 NA
ENDROOT
TORSDOF 0
