REMARK  3 active torsions:
REMARK  status: ('A' for Active; 'I' for Inactive)
REMARK    1  A    between atoms: C2_2  and  C8_8 
REMARK    2  A    between atoms: C6_6  and  C7_7 
REMARK    3  A    between atoms: C6_6  and  C8_8 
ROOT
HETATM    1  C1  UNL     1     -32.771   9.497   1.858  1.00 20.00     0.063 C 
HETATM    2  C4  UNL     1     -31.476   8.470   3.672  1.00 20.00     0.025 C 
HETATM    3  C7  UNL     1     -32.758   8.397   2.841  1.00 20.00     0.089 C 
HETATM    4  N9  UNL     1     -32.783  10.363   1.086  1.00 20.00    -0.197 NA
ENDROOT
BRANCH   3   5
HETATM    5  C6  UNL     1     -32.860   7.024   2.146  1.00 20.00     0.030 C 
BRANCH   5   6
HETATM    6  C8  UNL     1     -32.902   5.828   3.117  1.00 20.00     0.052 C 
HETATM    7  C5  UNL     1     -33.037   4.515   2.350  1.00 20.00     0.018 C 
BRANCH   6   8
HETATM    8  C2  UNL     1     -34.068   5.935   4.095  1.00 20.00     0.127 C 
HETATM    9  C3  UNL     1     -35.450   5.990   3.497  1.00 20.00     0.091 C 
HETATM   10  O10 UNL     1     -33.901   6.009   5.312  1.00 20.00    -0.298 OA
ENDBRANCH   6   8
ENDBRANCH   5   6
ENDBRANCH   3   5
TORSDOF 3
