REMARK  2 active torsions:
REMARK  status: ('A' for Active; 'I' for Inactive)
REMARK    1  A    between atoms: C2_2  and  C3_3 
REMARK    2  A    between atoms: C3_3  and  O11_11 
ROOT
HETATM    1  C1  UNL     1     -34.074   6.643   3.295  1.00 20.00    -0.074 C 
HETATM    2  C2  UNL     1     -33.455   6.804   2.117  1.00 20.00     0.085 C 
HETATM    3  C4  UNL     1     -34.861   5.405   3.633  1.00 20.00     0.034 C 
HETATM    4  C5  UNL     1     -34.012   7.679   4.388  1.00 20.00     0.034 C 
HETATM    5  C6  UNL     1     -34.373   4.793   4.947  1.00 20.00     0.004 C 
HETATM    6  C7  UNL     1     -33.529   7.056   5.698  1.00 20.00     0.004 C 
HETATM    7  C8  UNL     1     -34.348   5.822   6.078  1.00 20.00     0.001 C 
ENDROOT
BRANCH   2   8
HETATM    8  C3  UNL     1     -32.699   8.041   1.846  1.00 20.00     0.282 C 
HETATM    9  O10 UNL     1     -32.129   8.722   2.684  1.00 20.00    -0.260 OA
BRANCH   8  10
HETATM   10  O11 UNL     1     -32.756   8.270   0.506  1.00 20.00    -0.323 OA
HETATM   11  C9  UNL     1     -32.069   9.440   0.052  1.00 20.00     0.213 C 
ENDBRANCH   8  10
ENDBRANCH   2   8
TORSDOF 2
