REMARK  3 active torsions:
REMARK  status: ('A' for Active; 'I' for Inactive)
REMARK    1  A    between atoms: C1_1  and  C4_4 
REMARK    2  A    between atoms: C2_2  and  C9_9 
REMARK    3  A    between atoms: C9_9  and  O10_10 
ROOT
HETATM    1  C3  UNL     1     -33.815   4.753   3.235  1.00 20.00    -0.011 C 
HETATM    2  C4  UNL     1     -33.538   6.017   3.573  1.00 20.00    -0.008 C 
HETATM    3  C5  UNL     1     -34.442   4.006   4.365  1.00 20.00     0.028 C 
HETATM    4  C6  UNL     1     -33.935   6.315   4.983  1.00 20.00     0.048 C 
HETATM    5  C7  UNL     1     -34.185   4.921   5.561  1.00 20.00     0.009 C 
ENDROOT
BRANCH   2   6
HETATM    6  C1  UNL     1     -32.955   6.959   2.693  1.00 20.00    -0.069 C 
HETATM    7  C2  UNL     1     -32.461   7.759   1.946  1.00 20.00    -0.075 C 
BRANCH   7   8
HETATM    8  C9  UNL     1     -31.857   8.732   1.036  1.00 20.00     0.261 C 
BRANCH   8   9
HETATM    9  O10 UNL     1     -32.861   9.596   0.523  1.00 20.00    -0.384 OA
HETATM   10  C8  UNL     1     -33.198  10.616   1.455  1.00 20.00     0.202 C 
ENDBRANCH   8   9
ENDBRANCH   7   8
ENDBRANCH   2   6
TORSDOF 3
