REMARK  1 active torsions:
REMARK  status: ('A' for Active; 'I' for Inactive)
REMARK    1  A    between atoms: C2_2  and  C3_3 
ROOT
HETATM    1  C1  UNL     1     -33.609   6.062   3.326  1.00 20.00    -0.077 C 
HETATM    2  C2  UNL     1     -32.588   6.355   2.509  1.00 20.00     0.044 C 
HETATM    3  C4  UNL     1     -34.069   4.648   3.569  1.00 20.00     0.034 C 
HETATM    4  C5  UNL     1     -34.367   7.119   4.086  1.00 20.00     0.034 C 
HETATM    5  C6  UNL     1     -34.098   4.338   5.067  1.00 20.00     0.004 C 
HETATM    6  C7  UNL     1     -34.395   6.797   5.581  1.00 20.00     0.004 C 
HETATM    7  C8  UNL     1     -34.903   5.379   5.847  1.00 20.00     0.001 C 
ENDROOT
BRANCH   2   8
HETATM    8  C3  UNL     1     -32.229   7.775   2.349  1.00 20.00     0.259 C 
HETATM    9  O9  UNL     1     -32.732   8.479   1.482  1.00 20.00    -0.302 OA
ENDBRANCH   2   8
TORSDOF 1
