REMARK  0 active torsions:
REMARK  status: ('A' for Active; 'I' for Inactive)
ROOT
HETATM    1  C1  UNL     1     -33.243   4.909   2.420  1.00 20.00     0.015 C 
HETATM    2  C2  UNL     1     -33.431   6.044   2.763  1.00 20.00    -0.082 C 
HETATM    3  C3  UNL     1     -32.315  10.248   0.458  1.00 20.00     0.000 C 
HETATM    4  C4  UNL     1     -31.829   8.797   0.452  1.00 20.00     0.003 C 
HETATM    5  C5  UNL     1     -33.523  10.436   1.379  1.00 20.00     0.003 C 
HETATM    6  C6  UNL     1     -31.532   8.301   1.867  1.00 20.00     0.042 C 
HETATM    7  C7  UNL     1     -33.230   9.940   2.795  1.00 20.00     0.042 C 
HETATM    8  C8  UNL     1     -33.657   7.394   3.172  1.00 20.00     0.235 A 
HETATM    9  C9  UNL     1     -32.732   8.521   2.748  1.00 20.00     0.099 A 
HETATM   10  O10 UNL     1     -32.626   7.900   4.035  1.00 20.00    -0.356 OA
ENDROOT
TORSDOF 0
