REMARK  1 active torsions:
REMARK  status: ('A' for Active; 'I' for Inactive)
REMARK    1  A    between atoms: C3_3  and  C6_6 
ROOT
HETATM    1  C1  UNL     1     -32.640   8.830   1.758  1.00 20.00    -0.154 C 
HETATM    2  C5  UNL     1     -32.616  10.124   1.662  1.00 20.00     0.096 C 
HETATM    3  C6  UNL     1     -32.659   7.535   1.848  1.00 20.00     0.058 C 
ENDROOT
BRANCH   3   4
HETATM    4  C3  UNL     1     -33.364   6.854   2.896  1.00 20.00    -0.041 A 
HETATM    5  C2  UNL     1     -33.441   5.529   3.071  1.00 20.00    -0.009 A 
HETATM    6  C4  UNL     1     -34.273   5.340   4.277  1.00 20.00     0.156 A 
HETATM    7  C9  UNL     1     -32.878   4.384   2.316  1.00 20.00     0.052 C 
HETATM    8  C8  UNL     1     -34.722   6.648   4.859  1.00 20.00     0.088 A 
HETATM    9  O10 UNL     1     -34.557   4.245   4.739  1.00 20.00    -0.293 OA
HETATM   10  C7  UNL     1     -34.101   7.670   3.917  1.00 20.00     0.047 A 
ENDBRANCH   3   4
TORSDOF 1
