REMARK  4 active torsions:
REMARK  status: ('A' for Active; 'I' for Inactive)
REMARK    1  A    between atoms: C2_2  and  C6_6 
REMARK    2  A    between atoms: C3_3  and  C7_7 
REMARK    3  A    between atoms: C3_3  and  O9_9 
REMARK    4  A    between atoms: C6_6  and  C8_8 
ROOT
HETATM    1  C1  UNL     1     -32.447   6.123   3.623  1.00 20.00     0.045 A 
HETATM    2  C2  UNL     1     -33.501   6.678   4.546  1.00 20.00     0.023 A 
HETATM    3  C3  UNL     1     -32.638   7.615   3.729  1.00 20.00     0.062 A 
ENDROOT
BRANCH   3   4
HETATM    4  C7  UNL     1     -33.174   8.384   2.567  1.00 20.00     0.034 C 
HETATM    5  C4  UNL     1     -32.308   8.270   1.339  1.00 20.00     0.008 C 
ENDBRANCH   3   4
BRANCH   3   6
HETATM    6  O9  UNL     1     -31.627   8.326   4.467  1.00 20.00    -0.389 OA
HETATM    7  H25 UNL     1     -31.643   7.953   5.358  1.00 20.00     0.210 HD
ENDBRANCH   3   6
BRANCH   2   8
HETATM    8  C6  UNL     1     -34.946   6.464   4.252  1.00 20.00     0.007 C 
BRANCH   8   9
HETATM    9  C8  UNL     1     -35.423   5.053   4.638  1.00 20.00    -0.004 C 
HETATM   10  C5  UNL     1     -36.906   4.846   4.372  1.00 20.00     0.005 C 
ENDBRANCH   8   9
ENDBRANCH   2   8
TORSDOF 4
