REMARK  2 active torsions:
REMARK  status: ('A' for Active; 'I' for Inactive)
REMARK    1  A    between atoms: C6_6  and  C7_7 
REMARK    2  A    between atoms: C7_7  and  N8_8 
ROOT
HETATM    1  C7  UNL     1     -33.536   7.065   4.412  1.00 20.00     0.443 C 
HETATM    2  F9  UNL     1     -34.448   8.085   4.405  1.00 20.00    -0.172 F 
HETATM    3  F10 UNL     1     -32.979   7.099   5.657  1.00 20.00    -0.172 F 
ENDROOT
BRANCH   1   4
HETATM    4  C6  UNL     1     -34.325   5.735   4.244  1.00 20.00     0.046 C 
HETATM    5  C1  UNL     1     -33.478   4.639   3.577  1.00 20.00     0.023 C 
HETATM    6  C2  UNL     1     -34.750   5.229   5.638  1.00 20.00     0.023 C 
HETATM    7  C3  UNL     1     -35.596   5.964   3.403  1.00 20.00     0.023 C 
ENDBRANCH   1   4
BRANCH   1   8
HETATM    8  N8  UNL     1     -32.509   7.292   3.378  1.00 20.00     0.152 N 
HETATM    9  C4  UNL     1     -33.080   7.804   2.132  1.00 20.00     0.317 C 
HETATM   10  C5  UNL     1     -31.447   8.193   3.831  1.00 20.00     0.317 C 
ENDBRANCH   1   8
TORSDOF 2
