REMARK  1 active torsions:
REMARK  status: ('A' for Active; 'I' for Inactive)
REMARK    1  A    between atoms: C1_1  and  C6_6 
ROOT
HETATM    1  C1  UNL     1     -32.989   7.193   3.006  1.00 20.00     0.149 C 
HETATM    2  C2  UNL     1     -34.231   7.287   4.807  1.00 20.00     0.209 C 
HETATM    3  C3  UNL     1     -34.558   6.045   3.984  1.00 20.00     0.070 C 
HETATM    4  C4  UNL     1     -34.043   4.767   4.652  1.00 20.00     0.042 C 
HETATM    5  C5  UNL     1     -36.049   5.930   3.686  1.00 20.00     0.042 C 
HETATM    6  N7  UNL     1     -33.817   6.239   2.722  1.00 20.00    -0.257 NA
HETATM    7  O8  UNL     1     -33.037   7.788   4.219  1.00 20.00    -0.335 OA
ENDROOT
BRANCH   1   8
HETATM    8  C6  UNL     1     -31.951   7.727   2.089  1.00 20.00     0.200 C 
HETATM    9 CL9  UNL     1     -32.695   9.025   1.149  1.00 20.00    -0.122 Cl
ENDBRANCH   1   8
TORSDOF 1
