REMARK  1 active torsions:
REMARK  status: ('A' for Active; 'I' for Inactive)
REMARK    1  A    between atoms: C4_4  and  C6_6 
ROOT
HETATM    1  C1  UNL     1     -31.671   8.549   3.404  1.00 20.00     0.135 A 
HETATM    2  C2  UNL     1     -31.962   7.620   2.430  1.00 20.00     0.136 A 
HETATM    3  C3  UNL     1     -33.073   7.470   4.853  1.00 20.00     0.149 A 
HETATM    4  C4  UNL     1     -33.365   6.541   3.878  1.00 20.00     0.122 A 
HETATM    5  N7  UNL     1     -32.221   8.490   4.633  1.00 20.00    -0.269 NA
HETATM    6  N8  UNL     1     -32.815   6.599   2.649  1.00 20.00    -0.256 NA
ENDROOT
BRANCH   4   7
HETATM    7  C6  UNL     1     -34.312   5.426   4.156  1.00 20.00     0.285 C 
HETATM    8  C5  UNL     1     -34.296   5.013   5.627  1.00 20.00     0.097 C 
HETATM    9  F9  UNL     1     -34.046   4.297   3.422  1.00 20.00    -0.200 F 
HETATM   10  F10 UNL     1     -35.613   5.733   3.842  1.00 20.00    -0.200 F 
ENDBRANCH   4   7
TORSDOF 1
