REMARK  0 active torsions:
REMARK  status: ('A' for Active; 'I' for Inactive)
ROOT
HETATM    1  C1  UNL     1     -33.011   8.607   0.739  1.00 20.00     0.097 C 
HETATM    2  C2  UNL     1     -33.975   6.013   5.268  1.00 20.00     0.008 C 
HETATM    3  C3  UNL     1     -33.226   7.103   5.494  1.00 20.00     0.029 C 
HETATM    4  C4  UNL     1     -34.239   6.418   2.880  1.00 20.00    -0.004 C 
HETATM    5  C5  UNL     1     -31.698   8.790   2.783  1.00 20.00     0.136 C 
HETATM    6  C6  UNL     1     -32.792   8.399   2.119  1.00 20.00     0.053 C 
HETATM    7  C7  UNL     1     -34.355   5.575   3.927  1.00 20.00    -0.065 C 
HETATM    8  C8  UNL     1     -32.829   7.840   4.280  1.00 20.00     0.047 C 
HETATM    9  C9  UNL     1     -33.771   7.823   3.084  1.00 20.00     0.106 C 
HETATM   10  C10 UNL     1     -34.879   4.179   3.793  1.00 20.00     0.048 C 
HETATM   11  N11 UNL     1     -33.192   8.777  -0.394  1.00 20.00    -0.192 NA
HETATM   12  N12 UNL     1     -31.707   8.471   4.116  1.00 20.00    -0.263 NA
ENDROOT
TORSDOF 0
