REMARK  2 active torsions:
REMARK  status: ('A' for Active; 'I' for Inactive)
REMARK    1  A    between atoms: C1_1  and  C4_4 
REMARK    2  A    between atoms: C2_2  and  C3_3 
ROOT
HETATM    1  C1  UNL     1     -33.201   7.206   2.448  1.00 20.00     0.015 C 
HETATM    2  C3  UNL     1     -33.662   6.649   3.577  1.00 20.00     0.069 C 
HETATM    3 CL6  UNL     1     -34.364   5.084   3.672  1.00 20.00    -0.081 Cl
ENDROOT
BRANCH   2   4
HETATM    4  C2  UNL     1     -33.559   7.422   4.838  1.00 20.00     0.282 C 
HETATM    5  O5  UNL     1     -33.950   7.003   5.921  1.00 20.00    -0.301 OA
ENDBRANCH   2   4
BRANCH   1   6
HETATM    6  C4  UNL     1     -32.574   8.557   2.304  1.00 20.00     0.143 C 
HETATM    7 CL7  UNL     1     -32.113   8.828   0.609  1.00 20.00    -0.126 Cl
ENDBRANCH   1   6
TORSDOF 2
