REMARK  3 active torsions:
REMARK  status: ('A' for Active; 'I' for Inactive)
REMARK    1  A    between atoms: C3_3  and  C7_7 
REMARK    2  A    between atoms: C7_7  and  C8_8 
REMARK    3  A    between atoms: C8_8  and  C9_9 
ROOT
HETATM    1  C1  UNL     1     -34.062   4.610   4.169  1.00 20.00     0.088 C 
HETATM    2  C2  UNL     1     -33.613   5.783   3.503  1.00 20.00     0.096 C 
HETATM    3  C3  UNL     1     -33.484   6.984   4.097  1.00 20.00    -0.074 C 
HETATM    4  C4  UNL     1     -33.824   7.148   5.555  1.00 20.00     0.044 C 
HETATM    5  N10 UNL     1     -34.430   3.650   4.706  1.00 20.00    -0.192 NA
ENDROOT
BRANCH   3   6
HETATM    6  C7  UNL     1     -33.032   8.246   3.388  1.00 20.00     0.034 C 
BRANCH   6   7
HETATM    7  C8  UNL     1     -32.677   7.987   1.919  1.00 20.00     0.008 C 
BRANCH   7   8
HETATM    8  C9  UNL     1     -32.276   9.263   1.154  1.00 20.00    -0.023 C 
HETATM    9  C5  UNL     1     -33.433  10.265   1.174  1.00 20.00     0.009 C 
HETATM   10  C6  UNL     1     -31.868   8.973  -0.291  1.00 20.00     0.009 C 
ENDBRANCH   7   8
ENDBRANCH   6   7
ENDBRANCH   3   6
TORSDOF 3
