REMARK  4 active torsions:
REMARK  status: ('A' for Active; 'I' for Inactive)
REMARK    1  A    between atoms: C7_7  and  C9_9 
REMARK    2  A    between atoms: C9_9  and  C11_11 
REMARK    3  A    between atoms: C10_10  and  C12_12 
REMARK    4  A    between atoms: C11_11  and  C12_12 
ROOT
HETATM    1  C1  UNL     1     -34.217   7.134   6.329  1.00 20.00     0.004 C 
HETATM    2  C2  UNL     1     -34.001   5.628   6.432  1.00 20.00     0.008 C 
HETATM    3  C3  UNL     1     -33.320   7.552   5.173  1.00 20.00     0.038 C 
HETATM    4  C4  UNL     1     -34.747   4.397   4.315  1.00 20.00     0.034 C 
HETATM    5  C5  UNL     1     -35.596   5.503   3.736  1.00 20.00     0.169 C 
HETATM    6  C6  UNL     1     -33.635   5.143   5.018  1.00 20.00     0.022 C 
HETATM    7  C7  UNL     1     -33.479   6.411   4.170  1.00 20.00     0.064 C 
HETATM    8  O13 UNL     1     -34.707   6.583   3.433  1.00 20.00    -0.380 OA
ENDROOT
BRANCH   7   9
HETATM    9  C9  UNL     1     -32.338   6.347   3.166  1.00 20.00     0.038 C 
BRANCH   9  10
HETATM   10  C11 UNL     1     -31.889   7.744   2.741  1.00 20.00     0.003 C 
BRANCH  10  11
HETATM   11  C12 UNL     1     -33.042   8.532   2.118  1.00 20.00    -0.000 C 
BRANCH  11  12
HETATM   12  C10 UNL     1     -32.585   9.918   1.661  1.00 20.00    -0.005 C 
HETATM   13  C8  UNL     1     -33.720  10.692   1.010  1.00 20.00     0.005 C 
ENDBRANCH  11  12
ENDBRANCH  10  11
ENDBRANCH   9  10
ENDBRANCH   7   9
TORSDOF 4
