REMARK  3 active torsions:
REMARK  status: ('A' for Active; 'I' for Inactive)
REMARK    1  A    between atoms: C6_6  and  C8_8 
REMARK    2  A    between atoms: C7_7  and  O11_11 
REMARK    3  A    between atoms: C9_9  and  C10_10 
ROOT
HETATM    1  C1  UNL     1     -32.935   4.418   2.783  1.00 20.00    -0.023 C 
HETATM    2  C2  UNL     1     -33.818   3.995   3.717  1.00 20.00     0.001 C 
HETATM    3  C6  UNL     1     -33.238   5.845   2.511  1.00 20.00     0.019 C 
HETATM    4  C7  UNL     1     -34.642   5.158   4.273  1.00 20.00     0.145 C 
HETATM    5  C10 UNL     1     -33.638   6.237   3.940  1.00 20.00     0.030 C 
ENDROOT
BRANCH   4   6
HETATM    6  O11 UNL     1     -34.817   5.031   5.669  1.00 20.00    -0.391 OA
HETATM    7  H25 UNL     1     -35.282   4.191   5.827  1.00 20.00     0.210 HD
ENDBRANCH   4   6
BRANCH   5   8
HETATM    8  C9  UNL     1     -33.746   7.769   3.852  1.00 20.00    -0.007 C 
HETATM    9  C4  UNL     1     -32.320   8.279   4.192  1.00 20.00     0.005 C 
HETATM   10  C3  UNL     1     -31.469   7.657   3.052  1.00 20.00     0.005 C 
HETATM   11  C8  UNL     1     -32.523   7.122   2.060  1.00 20.00    -0.006 C 
HETATM   12  C5  UNL     1     -33.709   8.084   2.345  1.00 20.00     0.010 C 
ENDBRANCH   5   8
TORSDOF 3
