REMARK  0 active torsions:
REMARK  status: ('A' for Active; 'I' for Inactive)
ROOT
HETATM    1  C1  UNL     1     -33.312   5.206   2.627  1.00 20.00     0.002 C 
HETATM    2  C2  UNL     1     -33.264   6.501   2.975  1.00 20.00     0.030 C 
HETATM    3  C3  UNL     1     -33.691   4.157   3.561  1.00 20.00    -0.001 C 
HETATM    4  C4  UNL     1     -34.304   4.448   4.722  1.00 20.00     0.006 C 
HETATM    5  C5  UNL     1     -33.717   7.323   6.385  1.00 20.00     0.228 C 
HETATM    6  C6  UNL     1     -33.653   6.767   4.368  1.00 20.00     0.064 C 
HETATM    7  C7  UNL     1     -34.646   5.863   5.048  1.00 20.00     0.184 C 
HETATM    8  N8  UNL     1     -34.465   6.261   6.453  1.00 20.00    -0.268 NA
HETATM    9  N9  UNL     1     -33.212   7.681   5.158  1.00 20.00    -0.244 NA
ENDROOT
TORSDOF 0
