REMARK  2 active torsions:
REMARK  status: ('A' for Active; 'I' for Inactive)
REMARK    1  A    between atoms: C1_1  and  C5_5 
REMARK    2  A    between atoms: C1_1  and  C6_6 
ROOT
HETATM    1  C2  UNL     1     -34.281   6.136   6.167  1.00 20.00     0.029 C 
HETATM    2  C3  UNL     1     -33.250   7.188   5.844  1.00 20.00     0.042 C 
HETATM    3  C4  UNL     1     -34.498   5.488   4.819  1.00 20.00     0.168 C 
HETATM    4  C5  UNL     1     -33.660   7.626   4.450  1.00 20.00     0.192 C 
HETATM    5  O8  UNL     1     -34.362   6.533   3.847  1.00 20.00    -0.378 OA
ENDROOT
BRANCH   4   6
HETATM    6  C1  UNL     1     -32.491   7.910   3.566  1.00 20.00     0.169 C 
HETATM    7  O7  UNL     1     -31.465   8.409   4.026  1.00 20.00    -0.294 OA
BRANCH   6   8
HETATM    8  C6  UNL     1     -32.667   7.550   2.109  1.00 20.00     0.195 C 
HETATM    9 CL9  UNL     1     -32.508   8.985   1.086  1.00 20.00    -0.122 Cl
ENDBRANCH   6   8
ENDBRANCH   4   6
TORSDOF 2
