REMARK  1 active torsions:
REMARK  status: ('A' for Active; 'I' for Inactive)
REMARK    1  A    between atoms: C7_7  and  N8_8 
ROOT
HETATM    1  C1  UNL     1     -32.473   9.908   1.619  1.00 20.00     0.013 C 
HETATM    2  C2  UNL     1     -32.342   8.762   1.951  1.00 20.00    -0.087 C 
HETATM    3  C7  UNL     1     -32.178   7.363   2.354  1.00 20.00     0.364 C 
ENDROOT
BRANCH   3   4
HETATM    4  N8  UNL     1     -33.226   6.972   3.316  1.00 20.00     0.100 N 
HETATM    5  C3  UNL     1     -33.336   5.506   3.328  1.00 20.00     0.283 C 
HETATM    6  C5  UNL     1     -34.490   5.016   4.200  1.00 20.00     0.104 C 
HETATM    7  S9  UNL     1     -34.264   5.488   5.937  1.00 20.00    -0.166 SA
HETATM    8  C6  UNL     1     -33.975   7.259   5.674  1.00 20.00     0.104 C 
HETATM    9  C4  UNL     1     -32.877   7.504   4.641  1.00 20.00     0.283 C 
ENDBRANCH   3   4
TORSDOF 1
