REMARK  1 active torsions:
REMARK  status: ('A' for Active; 'I' for Inactive)
REMARK    1  A    between atoms: C3_3  and  C7_7 
ROOT
HETATM    1  C1  UNL     1     -34.260   5.201   2.088  1.00 20.00    -0.025 C 
HETATM    2  C2  UNL     1     -32.965   5.455   2.331  1.00 20.00    -0.024 C 
HETATM    3  C4  UNL     1     -34.940   7.456   2.718  1.00 20.00     0.021 C 
HETATM    4  C5  UNL     1     -35.061   5.962   3.126  1.00 20.00     0.017 C 
HETATM    5  C6  UNL     1     -32.911   6.397   3.524  1.00 20.00     0.027 C 
HETATM    6  C7  UNL     1     -33.445   7.772   3.034  1.00 20.00     0.056 C 
HETATM    7  C8  UNL     1     -34.110   5.847   4.348  1.00 20.00    -0.033 C 
HETATM    8  C9  UNL     1     -33.914   4.406   4.878  1.00 20.00     0.016 C 
HETATM    9  C10 UNL     1     -34.516   6.699   5.565  1.00 20.00     0.016 C 
ENDROOT
BRANCH   6  10
HETATM   10  C3  UNL     1     -32.702   8.319   1.852  1.00 20.00     0.236 C 
HETATM   11  O11 UNL     1     -31.506   8.129   1.658  1.00 20.00    -0.306 OA
ENDBRANCH   6  10
TORSDOF 1
