REMARK  1 active torsions:
REMARK  status: ('A' for Active; 'I' for Inactive)
REMARK    1  A    between atoms: C6_6  and  N12_12 
ROOT
HETATM    1  C1  UNL     1     -33.330   4.880   2.196  1.00 20.00     0.026 A 
HETATM    2  C2  UNL     1     -32.762   6.030   1.686  1.00 20.00     0.097 A 
HETATM    3  C3  UNL     1     -33.661   5.141   3.548  1.00 20.00    -0.034 A 
HETATM    4  C4  UNL     1     -33.287   6.443   3.814  1.00 20.00     0.022 A 
HETATM    5  C7  UNL     1     -34.309   4.270   4.567  1.00 20.00     0.040 C 
HETATM    6  C8  UNL     1     -33.421   7.148   5.115  1.00 20.00     0.058 C 
HETATM    7  C9  UNL     1     -34.127   4.847   5.985  1.00 20.00     0.005 C 
HETATM    8  C10 UNL     1     -34.381   6.367   6.032  1.00 20.00     0.006 C 
HETATM    9  N12 UNL     1     -32.740   6.975   2.681  1.00 20.00    -0.330 N 
ENDROOT
BRANCH   9  10
HETATM   10  C6  UNL     1     -32.245   8.259   2.532  1.00 20.00     0.003 C 
HETATM   11  C5  UNL     1     -31.688   8.980   3.525  1.00 20.00     0.038 C 
HETATM   12  C11 UNL     1     -32.324   8.921   1.171  1.00 20.00     0.068 C 
ENDBRANCH   9  10
TORSDOF 1
