REMARK  1 active torsions:
REMARK  status: ('A' for Active; 'I' for Inactive)
REMARK    1  A    between atoms: C4_4  and  C10_10 
ROOT
HETATM    1  C1  UNL     1     -33.052   7.255   1.231  1.00 20.00     0.092 C 
HETATM    2  C2  UNL     1     -31.520   8.252   3.325  1.00 20.00     0.029 C 
HETATM    3  C3  UNL     1     -32.130   9.291   2.399  1.00 20.00     0.016 C 
HETATM    4  C4  UNL     1     -32.481   7.087   3.549  1.00 20.00     0.110 C 
HETATM    5  C5  UNL     1     -32.514   8.663   1.054  1.00 20.00    -0.014 C 
HETATM    6  C6  UNL     1     -33.594   9.512   0.371  1.00 20.00     0.020 C 
HETATM    7  C7  UNL     1     -31.292   8.563   0.127  1.00 20.00     0.020 C 
HETATM    8  N11 UNL     1     -33.025   6.544   2.303  1.00 20.00    -0.299 NA
ENDROOT
BRANCH   4   9
HETATM    9  C10 UNL     1     -33.649   7.447   4.465  1.00 20.00     0.002 C 
HETATM   10  C8  UNL     1     -34.594   6.257   4.624  1.00 20.00     0.011 C 
HETATM   11  C9  UNL     1     -33.141   7.913   5.828  1.00 20.00     0.011 C 
ENDBRANCH   4   9
TORSDOF 1
