REMARK  0 active torsions:
REMARK  status: ('A' for Active; 'I' for Inactive)
ROOT
HETATM    1  C1  UNL     1     -32.885   7.232   3.391  1.00 20.00     0.131 C 
HETATM    2  C2  UNL     1     -33.307   4.671   4.160  1.00 20.00     0.059 C 
HETATM    3  C3  UNL     1     -32.938   4.925   2.712  1.00 20.00     0.179 C 
HETATM    4  C4  UNL     1     -34.246   5.769   4.668  1.00 20.00     0.051 C 
HETATM    5  C5  UNL     1     -32.282   8.557   3.049  1.00 20.00     0.099 C 
HETATM    6  C6  UNL     1     -35.635   5.698   4.019  1.00 20.00     0.040 C 
HETATM    7  C7  UNL     1     -34.399   5.646   6.190  1.00 20.00     0.040 C 
HETATM    8  N8  UNL     1     -33.679   7.093   4.393  1.00 20.00    -0.261 NA
HETATM    9  O9  UNL     1     -32.468   6.269   2.528  1.00 20.00    -0.338 OA
ENDROOT
TORSDOF 0
