REMARK  0 active torsions:
REMARK  status: ('A' for Active; 'I' for Inactive)
ROOT
HETATM    1  C1  UNL     1     -33.491   5.665   2.322  1.00 20.00     0.011 A 
HETATM    2  C2  UNL     1     -32.864   6.559   1.454  1.00 20.00     0.024 A 
HETATM    3  C3  UNL     1     -32.498   8.088   3.287  1.00 20.00     0.031 A 
HETATM    4  C4  UNL     1     -33.619   5.973   3.681  1.00 20.00    -0.028 A 
HETATM    5  C5  UNL     1     -33.136   7.201   4.163  1.00 20.00    -0.046 A 
HETATM    6  C6  UNL     1     -32.366   7.768   1.936  1.00 20.00     0.034 A 
HETATM    7  C7  UNL     1     -33.248   7.527   5.629  1.00 20.00     0.065 C 
HETATM    8  C8  UNL     1     -34.324   5.018   4.610  1.00 20.00     0.206 C 
HETATM    9  C9  UNL     1     -34.319   6.674   6.298  1.00 20.00     0.172 C 
HETATM   10  O10 UNL     1     -34.082   5.299   5.993  1.00 20.00    -0.386 OA
HETATM   11 CL11 UNL     1     -31.587   8.866   0.864  1.00 20.00    -0.084 Cl
ENDROOT
TORSDOF 0
