REMARK  3 active torsions:
REMARK  status: ('A' for Active; 'I' for Inactive)
REMARK    1  A    between atoms: C2_2  and  N7_7 
REMARK    2  A    between atoms: C4_4  and  C5_5 
REMARK    3  A    between atoms: C5_5  and  N7_7 
ROOT
HETATM    1  C1  UNL     1     -32.273   8.994   1.484  1.00 20.00     0.060 C 
HETATM    2  C4  UNL     1     -32.250   8.227   2.739  1.00 20.00     0.143 C 
HETATM    3  N6  UNL     1     -32.288   9.599   0.494  1.00 20.00    -0.197 NA
ENDROOT
BRANCH   2   4
HETATM    4  C5  UNL     1     -33.655   7.894   3.229  1.00 20.00     0.138 C 
BRANCH   4   5
HETATM    5  N7  UNL     1     -33.605   7.136   4.483  1.00 20.00    -0.366 N 
HETATM    6  C3  UNL     1     -33.167   7.888   5.662  1.00 20.00     0.151 C 
BRANCH   5   7
HETATM    7  C2  UNL     1     -34.135   5.874   4.586  1.00 20.00     0.167 C 
HETATM    8  S8  UNL     1     -35.014   5.372   5.988  1.00 20.00    -0.048 SA
HETATM    9  S9  UNL     1     -33.960   4.712   3.317  1.00 20.00    -0.048 SA
ENDBRANCH   5   7
ENDBRANCH   4   5
ENDBRANCH   2   4
TORSDOF 3
