REMARK  0 active torsions:
REMARK  status: ('A' for Active; 'I' for Inactive)
ROOT
HETATM    1  C1  UNL     1     -33.988   7.349   4.265  1.00 20.00     0.131 A 
HETATM    2  C2  UNL     1     -33.287   6.090   2.440  1.00 20.00     0.233 A 
HETATM    3  C3  UNL     1     -34.165   6.176   4.896  1.00 20.00     0.010 A 
HETATM    4  C4  UNL     1     -33.889   5.029   4.252  1.00 20.00     0.070 A 
HETATM    5  C5  UNL     1     -34.553   5.444   6.071  1.00 20.00     0.017 A 
HETATM    6  C6  UNL     1     -34.275   4.273   5.423  1.00 20.00     0.033 A 
HETATM    7  N7  UNL     1     -33.533   7.328   2.988  1.00 20.00    -0.253 NA
HETATM    8  N8  UNL     1     -33.444   4.875   3.021  1.00 20.00    -0.241 NA
ENDROOT
TORSDOF 0
