REMARK  2 active torsions:
REMARK  status: ('A' for Active; 'I' for Inactive)
REMARK    1  A    between atoms: C2_2  and  C8_8 
REMARK    2  A    between atoms: C8_8  and  N9_9 
ROOT
HETATM    1  C1  UNL     1     -32.530   9.467   1.390  1.00 20.00    -0.109 C 
HETATM    2  C2  UNL     1     -32.448   8.367   1.865  1.00 20.00    -0.077 C 
HETATM    3  C7  UNL     1     -32.630  10.805   0.809  1.00 20.00     0.112 C 
ENDROOT
BRANCH   2   4
HETATM    4  C8  UNL     1     -32.342   7.024   2.443  1.00 20.00     0.365 C 
BRANCH   4   5
HETATM    5  N9  UNL     1     -33.427   6.776   3.390  1.00 20.00     0.103 N 
HETATM    6  C3  UNL     1     -33.137   7.397   4.690  1.00 20.00     0.299 C 
HETATM    7  C5  UNL     1     -34.276   7.115   5.665  1.00 20.00     0.198 C 
HETATM    8  O10 UNL     1     -34.464   5.707   5.816  1.00 20.00    -0.388 OA
HETATM    9  C6  UNL     1     -34.779   5.101   4.562  1.00 20.00     0.198 C 
HETATM   10  C4  UNL     1     -33.652   5.334   3.561  1.00 20.00     0.299 C 
ENDBRANCH   4   5
ENDBRANCH   2   4
TORSDOF 2
