REMARK  3 active torsions:
REMARK  status: ('A' for Active; 'I' for Inactive)
REMARK    1  A    between atoms: C1_1  and  C2_2 
REMARK    2  A    between atoms: C1_1  and  O10_10 
REMARK    3  A    between atoms: C7_7  and  O10_10 
ROOT
HETATM    1  C1  UNL     1     -32.619   7.919   3.387  1.00 20.00     0.291 C 
HETATM    2  O8  UNL     1     -31.812   8.375   4.186  1.00 20.00    -0.262 OA
ENDROOT
BRANCH   1   3
HETATM    3  C2  UNL     1     -32.393   7.851   1.944  1.00 20.00     0.250 A 
HETATM    4  C3  UNL     1     -32.245   9.094   1.103  1.00 20.00     0.157 A 
HETATM    5  C4  UNL     1     -32.293  10.465   1.676  1.00 20.00     0.042 C 
HETATM    6  O9  UNL     1     -33.482   8.378   1.167  1.00 20.00    -0.365 OA
ENDBRANCH   1   3
BRANCH   1   7
HETATM    7  O10 UNL     1     -33.846   7.403   3.681  1.00 20.00    -0.315 OA
BRANCH   7   8
HETATM    8  C7  UNL     1     -33.843   6.273   4.560  1.00 20.00     0.123 C 
HETATM    9  C5  UNL     1     -33.908   6.759   6.000  1.00 20.00     0.040 C 
HETATM   10  C6  UNL     1     -35.015   5.367   4.214  1.00 20.00     0.040 C 
ENDBRANCH   7   8
ENDBRANCH   1   7
TORSDOF 3
