REMARK  0 active torsions:
REMARK  status: ('A' for Active; 'I' for Inactive)
ROOT
HETATM    1  C1  UNL     1     -33.902   5.796   6.190  1.00 20.00     0.012 A 
HETATM    2  C2  UNL     1     -32.294   5.889   2.678  1.00 20.00     0.006 A 
HETATM    3  C3  UNL     1     -34.484   4.047   4.644  1.00 20.00     0.101 C 
HETATM    4  C4  UNL     1     -34.884   5.149   5.557  1.00 20.00     0.016 A 
HETATM    5  C5  UNL     1     -33.437   5.485   3.256  1.00 20.00     0.035 A 
HETATM    6  C6  UNL     1     -32.997   8.326   2.110  1.00 20.00     0.015 A 
HETATM    7  C7  UNL     1     -34.640   6.547   5.221  1.00 20.00     0.017 A 
HETATM    8  C8  UNL     1     -32.070   7.343   2.762  1.00 20.00     0.015 A 
HETATM    9  C9  UNL     1     -34.208   6.703   3.785  1.00 20.00     0.048 A 
HETATM   10  C10 UNL     1     -33.277   7.876   3.520  1.00 20.00     0.004 A 
HETATM   11  N11 UNL     1     -33.816   4.195   3.536  1.00 20.00    -0.269 NA
ENDROOT
TORSDOF 0
