REMARK  3 active torsions:
REMARK  status: ('A' for Active; 'I' for Inactive)
REMARK    1  A    between atoms: C1_1  and  C6_6 
REMARK    2  A    between atoms: C7_7  and  C8_8 
REMARK    3  A    between atoms: C8_8  and  O10_10 
ROOT
HETATM    1  C2  UNL     1     -33.178   7.736   5.705  1.00 20.00     0.001 C 
HETATM    2  C3  UNL     1     -32.229   8.167   4.590  1.00 20.00     0.011 C 
HETATM    3  C4  UNL     1     -33.686   6.311   5.492  1.00 20.00     0.007 C 
HETATM    4  C5  UNL     1     -33.372   6.573   2.997  1.00 20.00     0.018 C 
HETATM    5  C6  UNL     1     -32.876   7.998   3.220  1.00 20.00     0.047 C 
HETATM    6  C7  UNL     1     -34.335   6.139   4.112  1.00 20.00     0.010 C 
ENDROOT
BRANCH   6   7
HETATM    7  C8  UNL     1     -34.785   4.694   3.904  1.00 20.00     0.168 C 
BRANCH   7   8
HETATM    8  O10 UNL     1     -35.718   4.364   4.916  1.00 20.00    -0.400 OA
HETATM    9  H24 UNL     1     -35.991   3.443   4.765  1.00 20.00     0.209 HD
ENDBRANCH   7   8
ENDBRANCH   6   7
BRANCH   5  10
HETATM   10  C1  UNL     1     -31.816   8.286   2.174  1.00 20.00     0.235 C 
HETATM   11  O9  UNL     1     -31.912   9.185   1.345  1.00 20.00    -0.306 OA
ENDBRANCH   5  10
TORSDOF 3
