REMARK  1 active torsions:
REMARK  status: ('A' for Active; 'I' for Inactive)
REMARK    1  A    between atoms: C6_6  and  N10_10 
ROOT
HETATM    1  C1  UNL     1     -34.372   4.703   3.647  1.00 20.00    -0.017 A 
HETATM    2  C2  UNL     1     -33.367   4.498   2.853  1.00 20.00     0.079 A 
HETATM    3  C3  UNL     1     -32.531   5.645   2.569  1.00 20.00     0.047 A 
HETATM    4  C4  UNL     1     -33.801   7.306   3.987  1.00 20.00     0.057 A 
HETATM    5  C5  UNL     1     -34.811   6.576   4.516  1.00 20.00     0.129 A 
HETATM    6  C6  UNL     1     -32.732   6.883   3.072  1.00 20.00     0.135 A 
HETATM    7  N9  UNL     1     -35.135   5.237   4.359  1.00 20.00    -0.218 NA
ENDROOT
BRANCH   6   8
HETATM    8  N10 UNL     1     -31.791   7.870   2.663  1.00 20.00    -0.049 N 
HETATM    9  C7  UNL     1     -32.486   8.950   1.890  1.00 20.00     0.276 C 
HETATM   10  C8  UNL     1     -31.042   8.387   3.854  1.00 20.00     0.276 C 
HETATM   11  H21 UNL     1     -31.104   7.433   2.032  1.00 20.00     0.285 HD
ENDBRANCH   6   8
TORSDOF 1
