REMARK  1 active torsions:
REMARK  status: ('A' for Active; 'I' for Inactive)
REMARK    1  A    between atoms: C3_3  and  C4_4 
ROOT
HETATM    1  C1  UNL     1     -31.704   7.946   3.481  1.00 20.00     0.012 A 
HETATM    2  C2  UNL     1     -31.959   9.035   2.759  1.00 20.00     0.003 A 
HETATM    3  C4  UNL     1     -32.549   6.826   3.009  1.00 20.00     0.231 A 
HETATM    4  C5  UNL     1     -33.007   8.735   1.747  1.00 20.00     0.141 A 
HETATM    5  C6  UNL     1     -32.540   8.970   0.320  1.00 20.00     0.044 C 
HETATM    6  O8  UNL     1     -33.316   7.333   1.911  1.00 20.00    -0.364 OA
ENDROOT
BRANCH   3   7
HETATM    7  C3  UNL     1     -33.501   6.433   4.091  1.00 20.00     0.251 C 
HETATM    8  O7  UNL     1     -33.972   5.301   4.156  1.00 20.00    -0.277 OA
HETATM    9 CL9  UNL     1     -33.827   7.744   5.184  1.00 20.00    -0.041 Cl
ENDBRANCH   3   7
TORSDOF 1
