REMARK  1 active torsions:
REMARK  status: ('A' for Active; 'I' for Inactive)
REMARK    1  A    between atoms: C3_3  and  C4_4 
ROOT
HETATM    1  C1  UNL     1     -32.995   6.203   1.939  1.00 20.00     0.061 C 
HETATM    2  C2  UNL     1     -33.872   5.392   2.536  1.00 20.00     0.087 C 
HETATM    3  C4  UNL     1     -32.936   7.509   2.655  1.00 20.00     0.376 C 
HETATM    4  C5  UNL     1     -34.478   6.075   3.711  1.00 20.00     0.463 C 
HETATM    5  C6  UNL     1     -33.788   8.120   4.883  1.00 20.00     0.324 C 
HETATM    6  N7  UNL     1     -34.063   7.484   3.606  1.00 20.00     0.211 N 
HETATM    7  F9  UNL     1     -31.742   7.653   3.289  1.00 20.00    -0.195 F 
HETATM    8  F10 UNL     1     -35.833   5.994   3.700  1.00 20.00    -0.169 F 
HETATM    9  F11 UNL     1     -34.055   5.505   4.869  1.00 20.00    -0.169 F 
ENDROOT
BRANCH   3  10
HETATM   10  C3  UNL     1     -33.179   8.611   1.679  1.00 20.00     0.312 C 
HETATM   11  O8  UNL     1     -32.368   9.503   1.451  1.00 20.00    -0.301 OA
ENDBRANCH   3  10
TORSDOF 1
