REMARK  3 active torsions:
REMARK  status: ('A' for Active; 'I' for Inactive)
REMARK    1  A    between atoms: C1_1  and  C3_3 
REMARK    2  A    between atoms: C2_2  and  C7_7 
REMARK    3  A    between atoms: C7_7  and  C8_8 
ROOT
HETATM    1  C1  UNL     1     -32.843   8.672   2.119  1.00 20.00    -0.029 C 
HETATM    2  C2  UNL     1     -33.071   7.920   3.026  1.00 20.00    -0.098 C 
ENDROOT
BRANCH   2   3
HETATM    3  C7  UNL     1     -33.350   6.998   4.138  1.00 20.00     0.098 C 
BRANCH   3   4
HETATM    4  C8  UNL     1     -33.900   5.634   3.687  1.00 20.00    -0.012 C 
HETATM    5  C5  UNL     1     -32.929   4.891   2.766  1.00 20.00     0.010 C 
HETATM    6  C6  UNL     1     -34.304   4.750   4.869  1.00 20.00     0.010 C 
ENDBRANCH   3   4
ENDBRANCH   2   3
BRANCH   1   7
HETATM    7  C3  UNL     1     -32.571   9.570   1.022  1.00 20.00     0.198 C 
HETATM    8  C4  UNL     1     -32.315   8.932  -0.310  1.00 20.00     0.106 C 
HETATM    9  O9  UNL     1     -32.559  10.779   1.214  1.00 20.00    -0.284 OA
ENDBRANCH   1   7
TORSDOF 3
