REMARK  2 active torsions:
REMARK  status: ('A' for Active; 'I' for Inactive)
REMARK    1  A    between atoms: C1_1  and  C4_4 
REMARK    2  A    between atoms: C3_3  and  C5_5 
ROOT
HETATM    1  C4  UNL     1     -33.618   7.709   3.469  1.00 20.00     0.029 A 
HETATM    2  C5  UNL     1     -33.443   7.922   1.983  1.00 20.00     0.089 A 
HETATM    3  C6  UNL     1     -32.460   7.049   2.743  1.00 20.00    -0.028 A 
HETATM    4  C8  UNL     1     -32.487   5.568   2.446  1.00 20.00     0.016 C 
HETATM    5  C9  UNL     1     -31.076   7.570   3.047  1.00 20.00     0.016 C 
ENDROOT
BRANCH   1   6
HETATM    6  C1  UNL     1     -34.752   6.926   3.940  1.00 20.00    -0.025 C 
HETATM    7  C2  UNL     1     -34.787   6.302   5.126  1.00 20.00    -0.034 C 
HETATM    8  C7  UNL     1     -33.669   6.332   6.115  1.00 20.00     0.036 C 
ENDBRANCH   1   6
BRANCH   2   9
HETATM    9  C3  UNL     1     -33.049   9.249   1.490  1.00 20.00     0.224 C 
HETATM   10  O10 UNL     1     -33.264  10.268   2.138  1.00 20.00    -0.279 OA
HETATM   11 CL11 UNL     1     -32.275   9.165  -0.064  1.00 20.00    -0.043 Cl
ENDBRANCH   2   9
TORSDOF 2
