REMARK  2 active torsions:
REMARK  status: ('A' for Active; 'I' for Inactive)
REMARK    1  A    between atoms: C1_1  and  C4_4 
REMARK    2  A    between atoms: C2_2  and  C5_5 
ROOT
HETATM    1  C5  UNL     1     -34.222   5.579   2.918  1.00 20.00     0.235 A 
HETATM    2  C6  UNL     1     -34.346   5.417   4.415  1.00 20.00     0.092 A 
HETATM    3  C8  UNL     1     -33.823   6.446   5.371  1.00 20.00     0.049 C 
HETATM    4  C9  UNL     1     -34.543   4.039   4.967  1.00 20.00     0.049 C 
HETATM    5  O10 UNL     1     -35.439   5.878   3.611  1.00 20.00    -0.357 OA
ENDROOT
BRANCH   1   6
HETATM    6  C2  UNL     1     -33.609   6.748   2.341  1.00 20.00    -0.066 C 
HETATM    7  C1  UNL     1     -33.098   7.723   1.860  1.00 20.00    -0.070 C 
BRANCH   7   8
HETATM    8  C4  UNL     1     -32.486   8.877   1.285  1.00 20.00    -0.018 C 
HETATM    9  C3  UNL     1     -33.070  10.075   1.439  1.00 20.00     0.028 C 
HETATM   10  C7  UNL     1     -31.203   8.715   0.525  1.00 20.00     0.057 C 
ENDBRANCH   7   8
ENDBRANCH   1   6
TORSDOF 2
