REMARK  3 active torsions:
REMARK  status: ('A' for Active; 'I' for Inactive)
REMARK    1  A    between atoms: C3_3  and  C8_8 
REMARK    2  A    between atoms: C6_6  and  C9_9 
REMARK    3  A    between atoms: C7_7  and  C10_10 
ROOT
HETATM    1  C5  UNL     1     -31.629   8.074   3.211  1.00 20.00     0.019 C 
HETATM    2  C8  UNL     1     -33.182   7.715   3.028  1.00 20.00     0.078 C 
HETATM    3  C9  UNL     1     -31.694   8.462   1.703  1.00 20.00    -0.001 C 
HETATM    4  C10 UNL     1     -33.158   8.961   2.097  1.00 20.00     0.010 C 
ENDROOT
BRANCH   2   5
HETATM    5  C3  UNL     1     -33.568   6.352   2.443  1.00 20.00     0.223 C 
HETATM    6  O11 UNL     1     -33.066   5.930   1.405  1.00 20.00    -0.279 OA
HETATM    7 CL12 UNL     1     -34.756   5.536   3.413  1.00 20.00    -0.043 Cl
ENDBRANCH   2   5
BRANCH   4   8
HETATM    8  C7  UNL     1     -33.591   9.704   0.834  1.00 20.00     0.014 C 
HETATM    9  C2  UNL     1     -33.361   8.901  -0.418  1.00 20.00    -0.025 C 
HETATM   10  C1  UNL     1     -32.035   8.843  -0.628  1.00 20.00    -0.025 C 
HETATM   11  C6  UNL     1     -31.366   9.479   0.585  1.00 20.00     0.013 C 
HETATM   12  C4  UNL     1     -32.354  10.636   0.743  1.00 20.00     0.017 C 
ENDBRANCH   4   8
TORSDOF 3
