REMARK  1 active torsions:
REMARK  status: ('A' for Active; 'I' for Inactive)
REMARK    1  A    between atoms: C2_2  and  C3_3 
ROOT
HETATM    1  C1  UNL     1     -33.642   6.612   2.315  1.00 20.00    -0.007 C 
HETATM    2  C2  UNL     1     -32.733   7.547   2.607  1.00 20.00    -0.012 C 
HETATM    3  C4  UNL     1     -33.439   6.669   4.672  1.00 20.00     0.022 C 
HETATM    4  C5  UNL     1     -32.328   7.535   4.046  1.00 20.00     0.019 C 
HETATM    5  C6  UNL     1     -34.008   5.798   3.527  1.00 20.00    -0.029 C 
HETATM    6  C8  UNL     1     -32.253   8.908   4.704  1.00 20.00     0.015 C 
HETATM    7  C9  UNL     1     -33.329   4.425   3.474  1.00 20.00     0.019 C 
HETATM    8  C10 UNL     1     -35.523   5.633   3.660  1.00 20.00     0.019 C 
ENDROOT
BRANCH   2   9
HETATM    9  C3  UNL     1     -32.175   8.420   1.588  1.00 20.00     0.151 C 
HETATM   10  C7  UNL     1     -32.368   9.914   1.735  1.00 20.00     0.096 C 
HETATM   11  O11 UNL     1     -31.562   7.959   0.616  1.00 20.00    -0.293 OA
ENDBRANCH   2   9
TORSDOF 1
