REMARK  1 active torsions:
REMARK  status: ('A' for Active; 'I' for Inactive)
REMARK    1  A    between atoms: C4_4  and  C5_5 
ROOT
HETATM    1  C1  UNL     1     -34.835   5.308   5.606  1.00 20.00     0.014 C 
HETATM    2  C2  UNL     1     -33.650   6.262   5.532  1.00 20.00     0.062 C 
HETATM    3  C3  UNL     1     -34.551   4.189   4.618  1.00 20.00     0.077 C 
HETATM    4  C4  UNL     1     -33.458   6.578   4.054  1.00 20.00     0.209 C 
HETATM    5  F6  UNL     1     -34.410   7.473   3.671  1.00 20.00    -0.225 F 
HETATM    6  S9  UNL     1     -33.758   5.000   3.201  1.00 20.00    -0.121 SA
ENDROOT
BRANCH   4   7
HETATM    7  C5  UNL     1     -32.094   7.155   3.732  1.00 20.00     0.403 C 
HETATM    8  F7  UNL     1     -31.938   8.324   4.395  1.00 20.00    -0.210 F 
HETATM    9  F8  UNL     1     -32.029   7.435   2.410  1.00 20.00    -0.210 F 
ENDBRANCH   4   7
TORSDOF 1
