REMARK  1 active torsions:
REMARK  status: ('A' for Active; 'I' for Inactive)
REMARK    1  A    between atoms: C3_3  and  C6_6 
ROOT
HETATM    1  C1  UNL     1     -34.213   5.853   5.254  1.00 20.00    -0.024 C 
HETATM    2  C2  UNL     1     -33.874   5.257   4.095  1.00 20.00    -0.083 C 
HETATM    3  C4  UNL     1     -34.129   7.331   5.509  1.00 20.00     0.032 C 
HETATM    4  C5  UNL     1     -33.388   6.042   2.882  1.00 20.00     0.021 C 
HETATM    5  C6  UNL     1     -33.601   7.565   3.073  1.00 20.00     0.066 C 
HETATM    6  C7  UNL     1     -33.267   8.089   4.484  1.00 20.00    -0.003 C 
HETATM    7  C8  UNL     1     -34.024   3.769   3.928  1.00 20.00     0.043 C 
HETATM    8  C10 UNL     1     -31.957   5.642   2.493  1.00 20.00     0.015 C 
HETATM    9  C11 UNL     1     -31.789   8.013   4.884  1.00 20.00     0.011 C 
ENDROOT
BRANCH   5  10
HETATM   10  C3  UNL     1     -32.973   8.388   1.985  1.00 20.00     0.128 C 
HETATM   11  C9  UNL     1     -33.774   8.566   0.724  1.00 20.00     0.091 C 
HETATM   12  O12 UNL     1     -31.860   8.894   2.119  1.00 20.00    -0.298 OA
ENDBRANCH   5  10
TORSDOF 1
