REMARK  1 active torsions:
REMARK  status: ('A' for Active; 'I' for Inactive)
REMARK    1  A    between atoms: C9_9  and  O10_10 
ROOT
HETATM    1  C1  UNL     1     -32.221   8.710   2.107  1.00 20.00     0.012 C 
HETATM    2  C2  UNL     1     -32.450   7.843   2.905  1.00 20.00    -0.112 C 
HETATM    3  C3  UNL     1     -35.538   5.988   3.326  1.00 20.00     0.007 C 
HETATM    4  C4  UNL     1     -34.417   5.656   2.332  1.00 20.00     0.009 C 
HETATM    5  C5  UNL     1     -33.896   7.124   4.833  1.00 20.00     0.024 C 
HETATM    6  C6  UNL     1     -32.729   6.785   3.880  1.00 20.00     0.071 C 
HETATM    7  C7  UNL     1     -34.826   5.902   4.689  1.00 20.00     0.016 C 
HETATM    8  C8  UNL     1     -33.189   5.450   3.248  1.00 20.00     0.030 C 
HETATM    9  C9  UNL     1     -33.817   4.770   4.472  1.00 20.00     0.127 C 
ENDROOT
BRANCH   9  10
HETATM   10  O10 UNL     1     -34.431   3.532   4.184  1.00 20.00    -0.395 OA
HETATM   11  H22 UNL     1     -33.721   2.877   4.062  1.00 20.00     0.210 HD
ENDBRANCH   9  10
TORSDOF 1
