REMARK  2 active torsions:
REMARK  status: ('A' for Active; 'I' for Inactive)
REMARK    1  A    between atoms: C6_6  and  C9_9 
REMARK    2  A    between atoms: C9_9  and  N10_10 
ROOT
HETATM    1  C1  UNL     1     -34.834   6.193   4.339  1.00 20.00     0.006 C 
HETATM    2  C2  UNL     1     -34.648   6.157   3.011  1.00 20.00     0.004 C 
HETATM    3  C3  UNL     1     -33.910   6.902   5.206  1.00 20.00    -0.040 C 
HETATM    4  C4  UNL     1     -34.156   7.069   6.513  1.00 20.00     0.020 C 
HETATM    5  C7  UNL     1     -33.515   6.887   2.339  1.00 20.00     0.300 C 
HETATM    6  C8  UNL     1     -32.655   7.432   4.541  1.00 20.00     0.310 C 
HETATM    7  N10 UNL     1     -32.932   7.943   3.188  1.00 20.00     0.099 N 
ENDROOT
BRANCH   7   8
HETATM    8  C9  UNL     1     -31.725   8.493   2.575  1.00 20.00     0.299 C 
BRANCH   8   9
HETATM    9  C6  UNL     1     -32.125   9.476   1.525  1.00 20.00    -0.007 C 
HETATM   10  C5  UNL     1     -31.786   9.370   0.235  1.00 20.00     0.008 C 
ENDBRANCH   8   9
ENDBRANCH   7   8
TORSDOF 2
