REMARK  0 active torsions:
REMARK  status: ('A' for Active; 'I' for Inactive)
ROOT
HETATM    1  C1  UNL     1     -36.904   5.811   4.012  1.00 20.00     0.015 C 
HETATM    2  C2  UNL     1     -35.757   5.680   4.339  1.00 20.00    -0.073 C 
HETATM    3  C3  UNL     1     -34.117   6.163   6.114  1.00 20.00     0.225 C 
HETATM    4  C4  UNL     1     -33.490   7.652   4.493  1.00 20.00     0.442 C 
HETATM    5  C5  UNL     1     -34.342   5.518   4.742  1.00 20.00     0.240 C 
HETATM    6  C6  UNL     1     -33.979   4.033   4.767  1.00 20.00     0.066 C 
HETATM    7  C7  UNL     1     -33.534   6.252   2.501  1.00 20.00     0.315 C 
HETATM    8  N8  UNL     1     -33.392   6.304   3.946  1.00 20.00     0.130 N 
HETATM    9  O9  UNL     1     -33.905   7.563   5.863  1.00 20.00    -0.359 OA
ENDROOT
TORSDOF 0
