REMARK  2 active torsions:
REMARK  status: ('A' for Active; 'I' for Inactive)
REMARK    1  A    between atoms: C3_3  and  C6_6 
REMARK    2  A    between atoms: C3_3  and  O10_10 
ROOT
HETATM    1  C1  UNL     1     -33.938   4.278   4.218  1.00 20.00    -0.002 C 
HETATM    2  C2  UNL     1     -34.215   4.475   5.512  1.00 20.00     0.130 C 
HETATM    3  C4  UNL     1     -33.384   5.369   3.358  1.00 20.00     0.046 C 
HETATM    4  C5  UNL     1     -33.159   6.581   5.539  1.00 20.00     0.189 C 
HETATM    5  C6  UNL     1     -33.509   6.722   4.059  1.00 20.00     0.113 C 
HETATM    6  O9  UNL     1     -33.994   5.630   6.215  1.00 20.00    -0.362 OA
ENDROOT
BRANCH   5   7
HETATM    7  C3  UNL     1     -32.613   7.734   3.416  1.00 20.00     0.265 C 
HETATM    8  O8  UNL     1     -31.724   8.333   4.005  1.00 20.00    -0.265 OA
BRANCH   7   9
HETATM    9  O10 UNL     1     -32.948   7.869   2.102  1.00 20.00    -0.326 OA
HETATM   10  C7  UNL     1     -32.165   8.811   1.362  1.00 20.00     0.213 C 
ENDBRANCH   7   9
ENDBRANCH   5   7
TORSDOF 2
