REMARK  2 active torsions:
REMARK  status: ('A' for Active; 'I' for Inactive)
REMARK    1  A    between atoms: C2_2  and  C5_5 
REMARK    2  A    between atoms: C2_2  and  C9_9 
ROOT
HETATM    1  C1  UNL     1     -33.806   7.334   5.199  1.00 20.00     0.225 C 
HETATM    2  C2  UNL     1     -33.689   7.009   3.940  1.00 20.00    -0.014 C 
HETATM    3  O10 UNL     1     -33.909   7.629   6.333  1.00 20.00    -0.284 OA
ENDROOT
BRANCH   2   4
HETATM    4  C5  UNL     1     -34.503   5.847   3.511  1.00 20.00     0.019 A 
HETATM    5  C3  UNL     1     -33.859   4.501   3.506  1.00 20.00     0.010 A 
HETATM    6  C4  UNL     1     -34.888   4.840   4.542  1.00 20.00     0.010 A 
ENDBRANCH   2   4
BRANCH   2   7
HETATM    7  C9  UNL     1     -32.836   7.764   2.916  1.00 20.00    -0.024 C 
HETATM    8  C6  UNL     1     -33.005   7.113   1.531  1.00 20.00     0.019 C 
HETATM    9  C7  UNL     1     -31.345   7.735   3.310  1.00 20.00     0.019 C 
HETATM   10  C8  UNL     1     -33.255   9.248   2.809  1.00 20.00     0.019 C 
ENDBRANCH   2   7
TORSDOF 2
