REMARK  1 active torsions:
REMARK  status: ('A' for Active; 'I' for Inactive)
REMARK    1  A    between atoms: C3_3  and  C6_6 
ROOT
HETATM    1  C1  UNL     1     -33.335   7.296   6.161  1.00 20.00    -0.029 C 
HETATM    2  C2  UNL     1     -34.373   6.541   5.788  1.00 20.00    -0.021 C 
HETATM    3  C4  UNL     1     -32.489   7.689   4.994  1.00 20.00     0.046 C 
HETATM    4  C5  UNL     1     -34.382   6.283   4.298  1.00 20.00    -0.015 C 
HETATM    5  C6  UNL     1     -33.428   7.425   3.792  1.00 20.00     0.046 C 
HETATM    6  C7  UNL     1     -35.807   6.352   3.737  1.00 20.00     0.020 C 
HETATM    7  C8  UNL     1     -33.825   4.864   4.059  1.00 20.00     0.020 C 
HETATM    8  C9  UNL     1     -34.153   8.736   3.422  1.00 20.00     0.026 C 
ENDROOT
BRANCH   5   9
HETATM    9  C3  UNL     1     -32.636   7.012   2.579  1.00 20.00     0.228 C 
HETATM   10  O10 UNL     1     -32.812   5.927   2.032  1.00 20.00    -0.279 OA
HETATM   11 CL11 UNL     1     -31.497   8.231   2.093  1.00 20.00    -0.043 Cl
ENDBRANCH   5   9
TORSDOF 1
