REMARK  1 active torsions:
REMARK  status: ('A' for Active; 'I' for Inactive)
REMARK    1  A    between atoms: C2_2  and  C3_3 
ROOT
HETATM    1  C1  UNL     1     -34.489   6.892   4.596  1.00 20.00    -0.015 C 
HETATM    2  C2  UNL     1     -33.690   6.705   3.542  1.00 20.00    -0.012 C 
HETATM    3  C4  UNL     1     -35.350   5.694   4.835  1.00 20.00     0.032 C 
HETATM    4  C5  UNL     1     -33.885   5.365   2.900  1.00 20.00     0.022 C 
HETATM    5  C6  UNL     1     -34.649   4.594   4.012  1.00 20.00    -0.007 C 
HETATM    6  C8  UNL     1     -32.610   4.693   2.405  1.00 20.00     0.015 C 
HETATM    7  C9  UNL     1     -33.764   3.733   4.923  1.00 20.00     0.011 C 
ENDROOT
BRANCH   2   8
HETATM    8  C3  UNL     1     -32.792   7.747   3.069  1.00 20.00     0.151 C 
HETATM    9  C7  UNL     1     -31.734   8.270   4.016  1.00 20.00     0.096 C 
HETATM   10  O10 UNL     1     -32.891   8.205   1.922  1.00 20.00    -0.293 OA
ENDBRANCH   2   8
TORSDOF 1
