REMARK  0 active torsions:
REMARK  status: ('A' for Active; 'I' for Inactive)
ROOT
HETATM    1  C1  UNL     1     -33.535   7.005   5.867  1.00 20.00     0.013 A 
HETATM    2  C2  UNL     1     -34.365   6.049   6.309  1.00 20.00    -0.025 A 
HETATM    3  C3  UNL     1     -33.206   7.058   4.481  1.00 20.00     0.035 A 
HETATM    4  C4  UNL     1     -33.677   6.203   3.568  1.00 20.00    -0.046 A 
HETATM    5  C5  UNL     1     -32.325   8.013   3.784  1.00 20.00     0.254 A 
HETATM    6  C6  UNL     1     -34.982   5.007   5.406  1.00 20.00     0.031 A 
HETATM    7  C7  UNL     1     -34.609   5.086   3.904  1.00 20.00     0.040 A 
HETATM    8  C8  UNL     1     -33.177   6.481   2.195  1.00 20.00     0.161 A 
HETATM    9  C9  UNL     1     -31.595   8.321   1.411  1.00 20.00     0.153 C 
HETATM   10  N10 UNL     1     -32.339   7.634   2.445  1.00 20.00    -0.348 N 
HETATM   11  O11 UNL     1     -31.727   8.931   4.320  1.00 20.00    -0.267 OA
ENDROOT
TORSDOF 0
