REMARK  1 active torsions:
REMARK  status: ('A' for Active; 'I' for Inactive)
REMARK    1  A    between atoms: C3_3  and  C9_9 
ROOT
HETATM    1  C1  UNL     1     -34.245   5.459   5.637  1.00 20.00    -0.030 C 
HETATM    2  C2  UNL     1     -33.661   6.667   5.783  1.00 20.00    -0.029 C 
HETATM    3  C4  UNL     1     -34.983   5.021   4.387  1.00 20.00     0.032 C 
HETATM    4  C5  UNL     1     -33.624   7.732   4.701  1.00 20.00     0.044 C 
HETATM    5  C6  UNL     1     -35.443   6.412   2.033  1.00 20.00     0.007 C 
HETATM    6  C7  UNL     1     -34.649   7.753   2.172  1.00 20.00     0.018 C 
HETATM    7  C8  UNL     1     -35.224   6.266   3.557  1.00 20.00     0.005 C 
HETATM    8  C9  UNL     1     -33.884   7.054   3.351  1.00 20.00     0.027 C 
ENDROOT
BRANCH   8   9
HETATM    9  C3  UNL     1     -32.603   6.282   2.858  1.00 20.00     0.132 C 
HETATM   10  C10 UNL     1     -31.358   7.101   2.651  1.00 20.00     0.091 C 
HETATM   11  O11 UNL     1     -32.620   5.069   2.655  1.00 20.00    -0.298 OA
ENDBRANCH   8   9
TORSDOF 1
