REMARK  1 active torsions:
REMARK  status: ('A' for Active; 'I' for Inactive)
REMARK    1  A    between atoms: C9_9  and  N10_10 
ROOT
HETATM    1  C1  UNL     1     -34.104   5.565   4.568  1.00 20.00     0.072 A 
HETATM    2  C2  UNL     1     -34.194   5.038   3.343  1.00 20.00    -0.002 A 
HETATM    3  C5  UNL     1     -33.634   6.954   4.404  1.00 20.00     0.243 A 
HETATM    4  C8  UNL     1     -33.806   5.990   2.266  1.00 20.00     0.154 A 
HETATM    5  N10 UNL     1     -33.473   7.159   3.041  1.00 20.00    -0.340 N 
HETATM    6  O11 UNL     1     -33.443   7.722   5.331  1.00 20.00    -0.268 OA
ENDROOT
BRANCH   5   7
HETATM    7  C9  UNL     1     -33.024   8.398   2.467  1.00 20.00     0.094 C 
HETATM    8  C6  UNL     1     -31.731   8.239   1.659  1.00 20.00     0.052 C 
HETATM    9  C3  UNL     1     -31.924   9.204   0.537  1.00 20.00    -0.029 C 
HETATM   10  C4  UNL     1     -33.190   9.623   0.453  1.00 20.00    -0.029 C 
HETATM   11  C7  UNL     1     -34.050   9.007   1.505  1.00 20.00     0.052 C 
ENDBRANCH   5   7
TORSDOF 1
