REMARK  1 active torsions:
REMARK  status: ('A' for Active; 'I' for Inactive)
REMARK    1  A    between atoms: C1_1  and  C3_3 
ROOT
HETATM    1  C2  UNL     1     -34.644   6.771   3.958  1.00 20.00     0.080 C 
HETATM    2  C3  UNL     1     -33.564   6.774   2.851  1.00 20.00     0.310 C 
HETATM    3  C4  UNL     1     -34.390   5.247   4.018  1.00 20.00     0.222 C 
HETATM    4  C5  UNL     1     -34.325   4.629   5.401  1.00 20.00     0.043 C 
HETATM    5  C6  UNL     1     -32.703   4.546   2.423  1.00 20.00     0.311 C 
HETATM    6  N7  UNL     1     -33.037   5.519   3.458  1.00 20.00     0.101 N 
ENDROOT
BRANCH   2   7
HETATM    7  C1  UNL     1     -32.497   7.871   2.866  1.00 20.00     0.252 C 
HETATM    8  O8  UNL     1     -31.883   8.160   3.889  1.00 20.00    -0.277 OA
HETATM    9 CL9  UNL     1     -32.293   8.606   1.305  1.00 20.00    -0.042 Cl
ENDBRANCH   2   7
TORSDOF 1
