REMARK  0 active torsions:
REMARK  status: ('A' for Active; 'I' for Inactive)
ROOT
HETATM    1  C1  UNL     1     -34.187   6.132   3.911  1.00 20.00     0.080 A 
HETATM    2  C2  UNL     1     -34.429   4.292   5.723  1.00 20.00     0.019 A 
HETATM    3  C3  UNL     1     -33.609   6.754   6.124  1.00 20.00     0.128 A 
HETATM    4  C4  UNL     1     -35.041   5.310   4.799  1.00 20.00     0.053 A 
HETATM    5  C5  UNL     1     -34.667   5.695   6.208  1.00 20.00     0.015 A 
HETATM    6  C6  UNL     1     -32.405   7.919   4.245  1.00 20.00     0.150 C 
HETATM    7  N7  UNL     1     -33.392   6.952   4.693  1.00 20.00    -0.379 N 
HETATM    8  S8  UNL     1     -34.310   5.936   2.274  1.00 20.00    -0.065 SA
ENDROOT
TORSDOF 0
