REMARK  1 active torsions:
REMARK  status: ('A' for Active; 'I' for Inactive)
REMARK    1  A    between atoms: C8_8  and  O11_11 
ROOT
HETATM    1  C1  UNL     1     -33.984   5.063   4.302  1.00 20.00     0.005 C 
HETATM    2  C2  UNL     1     -34.146   6.048   5.203  1.00 20.00     0.005 C 
HETATM    3  C3  UNL     1     -33.441   5.288   2.966  1.00 20.00    -0.063 C 
HETATM    4  C4  UNL     1     -33.144   4.262   2.154  1.00 20.00     0.019 C 
HETATM    5  C5  UNL     1     -32.000   8.628   1.763  1.00 20.00     0.001 C 
HETATM    6  C6  UNL     1     -32.277   7.141   1.499  1.00 20.00     0.010 C 
HETATM    7  C7  UNL     1     -32.505   8.922   3.182  1.00 20.00     0.008 C 
HETATM    8  C8  UNL     1     -33.731   7.478   4.954  1.00 20.00     0.145 C 
HETATM    9  C9  UNL     1     -33.275   6.740   2.586  1.00 20.00     0.024 C 
HETATM   10  C10 UNL     1     -32.754   7.543   3.782  1.00 20.00     0.026 C 
ENDROOT
BRANCH   8  11
HETATM   11  O11 UNL     1     -33.099   7.981   6.126  1.00 20.00    -0.391 OA
HETATM   12  H25 UNL     1     -33.753   7.924   6.841  1.00 20.00     0.210 HD
ENDBRANCH   8  11
TORSDOF 1
