REMARK  0 active torsions:
REMARK  status: ('A' for Active; 'I' for Inactive)
ROOT
HETATM    1  C1  UNL     1     -33.098   5.535   3.082  1.00 20.00    -0.054 C 
HETATM    2  C2  UNL     1     -33.839   6.746   4.941  1.00 20.00     0.226 C 
HETATM    3  C3  UNL     1     -32.754   4.463   2.355  1.00 20.00     0.017 C 
HETATM    4  C4  UNL     1     -34.288   5.638   4.005  1.00 20.00     0.104 C 
HETATM    5  C5  UNL     1     -32.266   6.783   3.161  1.00 20.00     0.109 C 
HETATM    6  C6  UNL     1     -34.657   4.380   4.776  1.00 20.00     0.025 C 
HETATM    7  C7  UNL     1     -32.508   7.731   1.995  1.00 20.00     0.037 C 
HETATM    8  N8  UNL     1     -32.718   7.356   4.400  1.00 20.00    -0.352 N 
HETATM    9  O9  UNL     1     -34.398   7.058   5.983  1.00 20.00    -0.273 OA
HETATM   10  H20 UNL     1     -32.254   8.144   4.843  1.00 20.00     0.163 HD
ENDROOT
TORSDOF 0
