REMARK  2 active torsions:
REMARK  status: ('A' for Active; 'I' for Inactive)
REMARK    1  A    between atoms: C1_1  and  C5_5 
REMARK    2  A    between atoms: C5_5  and  C6_6 
ROOT
HETATM    1  C2  UNL     1     -33.973   4.536   3.105  1.00 20.00     0.003 C 
HETATM    2  C3  UNL     1     -32.662   5.209   3.547  1.00 20.00     0.029 C 
HETATM    3  C4  UNL     1     -34.565   5.939   2.889  1.00 20.00     0.029 C 
HETATM    4  C5  UNL     1     -33.475   6.508   3.852  1.00 20.00     0.149 C 
ENDROOT
BRANCH   4   5
HETATM    5  C1  UNL     1     -33.939   6.608   5.307  1.00 20.00     0.316 C 
HETATM    6  O7  UNL     1     -33.635   7.504   6.080  1.00 20.00    -0.259 OA
HETATM    7  F8  UNL     1     -34.774   5.662   5.760  1.00 20.00    -0.163 F 
ENDBRANCH   4   5
BRANCH   4   8
HETATM    8  C6  UNL     1     -32.806   7.832   3.389  1.00 20.00     0.404 C 
HETATM    9  F9  UNL     1     -31.742   8.098   4.158  1.00 20.00    -0.170 F 
HETATM   10  F10 UNL     1     -32.409   7.720   2.114  1.00 20.00    -0.170 F 
HETATM   11  F11 UNL     1     -33.681   8.842   3.488  1.00 20.00    -0.170 F 
ENDBRANCH   4   8
TORSDOF 2
