REMARK  2 active torsions:
REMARK  status: ('A' for Active; 'I' for Inactive)
REMARK    1  A    between atoms: C2_2  and  C5_5 
REMARK    2  A    between atoms: C4_4  and  C8_8 
ROOT
HETATM    1  C1  UNL     1     -32.740   5.628   2.954  1.00 20.00    -0.015 C 
HETATM    2  C2  UNL     1     -33.165   6.889   3.069  1.00 20.00    -0.009 C 
HETATM    3  C6  UNL     1     -33.666   4.687   3.651  1.00 20.00     0.028 C 
HETATM    4  C7  UNL     1     -34.908   5.552   3.897  1.00 20.00     0.017 C 
HETATM    5  C8  UNL     1     -34.434   7.015   3.848  1.00 20.00     0.044 C 
ENDROOT
BRANCH   2   6
HETATM    6  C5  UNL     1     -32.457   8.012   2.475  1.00 20.00     0.152 C 
HETATM    7  C9  UNL     1     -32.821   8.429   1.066  1.00 20.00     0.096 C 
HETATM    8  O10 UNL     1     -31.571   8.612   3.099  1.00 20.00    -0.293 OA
ENDBRANCH   2   6
BRANCH   5   9
HETATM    9  C4  UNL     1     -34.219   7.584   5.214  1.00 20.00    -0.027 C 
HETATM   10  C3  UNL     1     -33.884   6.856   6.284  1.00 20.00     0.007 C 
ENDBRANCH   5   9
TORSDOF 2
