REMARK  1 active torsions:
REMARK  status: ('A' for Active; 'I' for Inactive)
REMARK    1  A    between atoms: C3_3  and  C8_8 
ROOT
HETATM    1  C1  UNL     1     -33.292   6.619   4.153  1.00 20.00    -0.079 C 
HETATM    2  C2  UNL     1     -32.798   7.222   5.238  1.00 20.00    -0.028 C 
HETATM    3  C4  UNL     1     -34.750   6.356   3.870  1.00 20.00     0.039 C 
HETATM    4  C5  UNL     1     -33.364   4.795   2.714  1.00 20.00     0.014 C 
HETATM    5  C6  UNL     1     -34.200   6.619   1.420  1.00 20.00     0.019 C 
HETATM    6  C7  UNL     1     -32.495   6.020   3.012  1.00 20.00     0.027 C 
HETATM    7  C8  UNL     1     -32.711   6.853   1.735  1.00 20.00     0.081 C 
HETATM    8  C9  UNL     1     -34.638   5.623   2.518  1.00 20.00    -0.009 C 
HETATM    9  C10 UNL     1     -33.635   7.738   6.361  1.00 20.00     0.036 C 
ENDROOT
BRANCH   7  10
HETATM   10  C3  UNL     1     -32.363   8.301   1.894  1.00 20.00     0.223 C 
HETATM   11  O11 UNL     1     -31.911   8.744   2.945  1.00 20.00    -0.279 OA
HETATM   12 CL12 UNL     1     -32.677   9.212   0.448  1.00 20.00    -0.043 Cl
ENDBRANCH   7  10
TORSDOF 1
