REMARK  0 active torsions:
REMARK  status: ('A' for Active; 'I' for Inactive)
ROOT
HETATM    1  C1  UNL     1     -33.318   5.019   2.542  1.00 20.00     0.012 C 
HETATM    2  C2  UNL     1     -32.404   6.244   2.496  1.00 20.00     0.077 C 
HETATM    3  C3  UNL     1     -33.928   4.833   3.930  1.00 20.00     0.082 C 
HETATM    4  C4  UNL     1     -34.220   7.340   4.024  1.00 20.00     0.264 A 
HETATM    5  C5  UNL     1     -33.041   7.458   3.096  1.00 20.00     0.237 A 
HETATM    6  C6  UNL     1     -34.827   6.009   4.284  1.00 20.00     0.274 C 
HETATM    7  O7  UNL     1     -32.897   7.530   4.528  1.00 20.00    -0.332 OA
HETATM    8  F8  UNL     1     -32.890   8.656   2.411  1.00 20.00    -0.209 F 
HETATM    9  F9  UNL     1     -35.190   5.922   5.589  1.00 20.00    -0.203 F 
HETATM   10  F10 UNL     1     -35.976   5.915   3.561  1.00 20.00    -0.203 F 
ENDROOT
TORSDOF 0
