REMARK  0 active torsions:
REMARK  status: ('A' for Active; 'I' for Inactive)
ROOT
HETATM    1  C1  UNL     1     -32.975   5.545   2.486  1.00 20.00    -0.013 C 
HETATM    2  C2  UNL     1     -33.501   4.407   2.991  1.00 20.00     0.004 C 
HETATM    3  C3  UNL     1     -34.032   6.265   5.173  1.00 20.00     0.341 C 
HETATM    4  C4  UNL     1     -33.519   6.910   2.898  1.00 20.00     0.127 C 
HETATM    5  C5  UNL     1     -35.525   5.695   3.575  1.00 20.00     0.137 C 
HETATM    6  C6  UNL     1     -34.690   4.488   3.939  1.00 20.00     0.169 C 
HETATM    7  N7  UNL     1     -34.540   6.689   3.927  1.00 20.00    -0.222 NA
HETATM    8  O8  UNL     1     -33.429   6.927   6.005  1.00 20.00    -0.245 OA
HETATM    9  O9  UNL     1     -34.218   4.891   5.251  1.00 20.00    -0.298 OA
ENDROOT
TORSDOF 0
