REMARK  1 active torsions:
REMARK  status: ('A' for Active; 'I' for Inactive)
REMARK    1  A    between atoms: C5_5  and  C8_8 
ROOT
HETATM    1  C1  UNL     1     -34.117   5.106   5.724  1.00 20.00    -0.004 C 
HETATM    2  C2  UNL     1     -33.660   6.452   6.067  1.00 20.00    -0.004 C 
HETATM    3  C3  UNL     1     -34.192   4.496   4.521  1.00 20.00    -0.026 C 
HETATM    4  C4  UNL     1     -33.608   7.505   5.227  1.00 20.00    -0.021 C 
HETATM    5  C6  UNL     1     -33.820   5.032   3.144  1.00 20.00     0.033 C 
HETATM    6  C7  UNL     1     -33.991   7.398   3.821  1.00 20.00     0.026 A 
HETATM    7  C8  UNL     1     -33.285   7.658   2.535  1.00 20.00     0.085 A 
HETATM    8  C9  UNL     1     -33.089   6.328   3.201  1.00 20.00     0.011 A 
ENDROOT
BRANCH   7   9
HETATM    9  C5  UNL     1     -32.183   8.627   2.500  1.00 20.00     0.224 C 
HETATM   10  O10 UNL     1     -31.405   8.753   3.441  1.00 20.00    -0.279 OA
HETATM   11 CL11 UNL     1     -32.146   9.521   1.011  1.00 20.00    -0.043 Cl
ENDBRANCH   7   9
TORSDOF 1
