REMARK  1 active torsions:
REMARK  status: ('A' for Active; 'I' for Inactive)
REMARK    1  A    between atoms: C5_5  and  C8_8 
ROOT
HETATM    1  C1  UNL     1     -34.063   4.012   4.734  1.00 20.00    -0.004 C 
HETATM    2  C2  UNL     1     -34.473   5.100   5.623  1.00 20.00    -0.004 C 
HETATM    3  C3  UNL     1     -33.720   4.041   3.428  1.00 20.00    -0.026 C 
HETATM    4  C4  UNL     1     -34.207   6.409   5.441  1.00 20.00    -0.021 C 
HETATM    5  C6  UNL     1     -33.655   5.228   2.475  1.00 20.00     0.033 C 
HETATM    6  C7  UNL     1     -33.476   6.899   4.276  1.00 20.00     0.028 A 
HETATM    7  C8  UNL     1     -33.817   7.891   3.215  1.00 20.00     0.100 A 
HETATM    8  C9  UNL     1     -34.265   6.464   3.040  1.00 20.00     0.012 A 
ENDROOT
BRANCH   7   9
HETATM    9  C5  UNL     1     -32.758   8.364   2.346  1.00 20.00     0.178 C 
HETATM   10  O10 UNL     1     -31.870   7.512   2.065  1.00 20.00    -0.648 OA
HETATM   11  O11 UNL     1     -32.867   9.570   1.986  1.00 20.00    -0.648 OA
ENDBRANCH   7   9
TORSDOF 1
