REMARK  1 active torsions:
REMARK  status: ('A' for Active; 'I' for Inactive)
REMARK    1  A    between atoms: C3_3  and  C4_4 
ROOT
HETATM    1  C1  UNL     1     -33.018   5.633   2.922  1.00 20.00     0.142 A 
HETATM    2  C2  UNL     1     -34.079   7.096   4.338  1.00 20.00     0.087 A 
HETATM    3  C3  UNL     1     -33.049   6.962   3.433  1.00 20.00     0.052 A 
HETATM    4  N5  UNL     1     -33.935   4.783   3.377  1.00 20.00    -0.223 NA
HETATM    5  S7  UNL     1     -34.892   5.594   4.468  1.00 20.00    -0.000 SA
ENDROOT
BRANCH   3   6
HETATM    6  C4  UNL     1     -32.160   8.034   3.081  1.00 20.00     0.254 C 
HETATM    7  O6  UNL     1     -31.100   8.205   3.736  1.00 20.00    -0.274 OA
HETATM    8 CL8  UNL     1     -32.514   9.142   1.731  1.00 20.00    -0.038 Cl
ENDBRANCH   3   6
TORSDOF 1
