REMARK  1 active torsions:
REMARK  status: ('A' for Active; 'I' for Inactive)
REMARK    1  A    between atoms: C1_1  and  C5_5 
ROOT
HETATM    1  C2  UNL     1     -32.882   4.942   2.294  1.00 20.00     0.002 C 
HETATM    2  C3  UNL     1     -33.413   5.048   3.725  1.00 20.00     0.017 C 
HETATM    3  C4  UNL     1     -33.018   6.330   1.673  1.00 20.00     0.010 C 
HETATM    4  C5  UNL     1     -33.951   6.485   3.887  1.00 20.00     0.023 C 
HETATM    5  C6  UNL     1     -33.101   7.304   2.865  1.00 20.00    -0.034 C 
HETATM    6  C8  UNL     1     -35.465   6.506   3.619  1.00 20.00     0.024 C 
HETATM    7  C9  UNL     1     -31.671   7.598   3.376  1.00 20.00     0.016 C 
HETATM    8  C10 UNL     1     -33.733   8.634   2.432  1.00 20.00     0.016 C 
ENDROOT
BRANCH   4   9
HETATM    9  C1  UNL     1     -33.764   6.956   5.305  1.00 20.00     0.132 C 
HETATM   10  C7  UNL     1     -34.445   6.153   6.380  1.00 20.00     0.091 C 
HETATM   11  O11 UNL     1     -33.086   7.947   5.572  1.00 20.00    -0.298 OA
ENDBRANCH   4   9
TORSDOF 1
