REMARK  1 active torsions:
REMARK  status: ('A' for Active; 'I' for Inactive)
REMARK    1  A    between atoms: C2_2  and  C3_3 
ROOT
HETATM    1  C1  UNL     1     -32.057   7.978   4.168  1.00 20.00    -0.009 C 
HETATM    2  C2  UNL     1     -32.653   8.105   2.944  1.00 20.00    -0.007 C 
HETATM    3  C4  UNL     1     -34.985   5.700   4.576  1.00 20.00     0.002 C 
HETATM    4  C5  UNL     1     -33.707   6.079   5.373  1.00 20.00     0.009 C 
HETATM    5  C6  UNL     1     -34.886   6.494   3.235  1.00 20.00     0.015 C 
HETATM    6  C7  UNL     1     -33.331   7.343   4.656  1.00 20.00     0.021 C 
HETATM    7  C8  UNL     1     -33.399   6.802   3.166  1.00 20.00    -0.007 C 
HETATM    8  C10 UNL     1     -32.613   5.596   2.609  1.00 20.00     0.021 C 
ENDROOT
BRANCH   2   9
HETATM    9  C3  UNL     1     -32.193   8.877   1.800  1.00 20.00     0.152 C 
HETATM   10  C9  UNL     1     -31.287   8.202   0.795  1.00 20.00     0.096 C 
HETATM   11  O11 UNL     1     -32.527  10.060   1.653  1.00 20.00    -0.293 OA
ENDBRANCH   2   9
TORSDOF 1
