REMARK  0 active torsions:
REMARK  status: ('A' for Active; 'I' for Inactive)
ROOT
HETATM    1  C1  UNL     1     -34.554   5.461   5.920  1.00 20.00     0.148 A 
HETATM    2  C2  UNL     1     -33.717   7.382   5.386  1.00 20.00     0.218 A 
HETATM    3  C3  UNL     1     -34.170   5.368   4.614  1.00 20.00     0.061 A 
HETATM    4  C4  UNL     1     -34.075   4.579   3.461  1.00 20.00     0.037 A 
HETATM    5  C5  UNL     1     -33.509   5.292   2.466  1.00 20.00     0.077 A 
HETATM    6  C6  UNL     1     -33.211   6.645   3.000  1.00 20.00     0.253 A 
HETATM    7  N7  UNL     1     -34.267   6.731   6.398  1.00 20.00    -0.253 NA
HETATM    8  N8  UNL     1     -33.649   6.577   4.298  1.00 20.00    -0.272 N 
HETATM    9  O9  UNL     1     -32.711   7.628   2.503  1.00 20.00    -0.268 OA
ENDROOT
TORSDOF 0
