REMARK  1 active torsions:
REMARK  status: ('A' for Active; 'I' for Inactive)
REMARK    1  A    between atoms: C8_8  and  N10_10 
ROOT
HETATM    1  C1  UNL     1     -31.868   8.042   2.064  1.00 20.00     0.089 C 
HETATM    2  C8  UNL     1     -32.525   7.725   3.331  1.00 20.00     0.396 C 
HETATM    3  N9  UNL     1     -31.344   8.295   1.061  1.00 20.00    -0.195 NA
ENDROOT
BRANCH   2   4
HETATM    4  N10 UNL     1     -33.708   6.908   3.111  1.00 20.00     0.110 N 
HETATM    5  C5  UNL     1     -33.399   5.465   2.898  1.00 20.00     0.283 C 
HETATM    6  C6  UNL     1     -34.423   4.771   3.820  1.00 20.00     0.038 C 
HETATM    7  C2  UNL     1     -33.972   4.997   5.245  1.00 20.00    -0.022 C 
HETATM    8  C4  UNL     1     -35.574   5.773   3.775  1.00 20.00     0.050 C 
HETATM    9  C3  UNL     1     -34.122   6.307   5.491  1.00 20.00     0.005 C 
HETATM   10  C7  UNL     1     -34.683   6.931   4.230  1.00 20.00     0.247 C 
ENDBRANCH   2   4
TORSDOF 1
