REMARK  1 active torsions:
REMARK  status: ('A' for Active; 'I' for Inactive)
REMARK    1  A    between atoms: C4_4  and  C7_7 
ROOT
HETATM    1  C1  UNL     1     -35.349   7.073   4.223  1.00 20.00    -0.024 C 
HETATM    2  C2  UNL     1     -35.184   6.133   3.276  1.00 20.00    -0.013 C 
HETATM    3  C3  UNL     1     -34.066   4.727   4.828  1.00 20.00     0.140 C 
HETATM    4  C5  UNL     1     -34.200   5.745   5.965  1.00 20.00     0.088 C 
HETATM    5  C6  UNL     1     -34.123   7.041   5.119  1.00 20.00     0.027 C 
HETATM    6  C7  UNL     1     -33.038   6.662   4.092  1.00 20.00     0.074 C 
HETATM    7  C8  UNL     1     -33.840   5.484   3.512  1.00 20.00     0.045 C 
HETATM    8  C9  UNL     1     -33.208   4.710   2.386  1.00 20.00     0.029 C 
HETATM    9  O10 UNL     1     -34.157   3.516   4.957  1.00 20.00    -0.297 OA
ENDROOT
BRANCH   6  10
HETATM   10  C4  UNL     1     -32.687   7.776   3.146  1.00 20.00     0.237 C 
HETATM   11  O11 UNL     1     -31.897   7.650   2.216  1.00 20.00    -0.306 OA
ENDBRANCH   6  10
TORSDOF 1
