REMARK  1 active torsions:
REMARK  status: ('A' for Active; 'I' for Inactive)
REMARK    1  A    between atoms: C7_7  and  O11_11 
ROOT
HETATM    1  C1  UNL     1     -34.070   5.319   5.899  1.00 20.00    -0.029 C 
HETATM    2  C2  UNL     1     -32.762   4.504   3.076  1.00 20.00    -0.022 C 
HETATM    3  C3  UNL     1     -32.463   5.685   2.527  1.00 20.00     0.002 C 
HETATM    4  C4  UNL     1     -34.272   6.381   5.114  1.00 20.00    -0.018 C 
HETATM    5  C5  UNL     1     -34.153   4.036   5.140  1.00 20.00     0.036 C 
HETATM    6  C6  UNL     1     -34.144   4.488   3.673  1.00 20.00     0.026 C 
HETATM    7  C7  UNL     1     -33.602   6.647   2.631  1.00 20.00     0.155 C 
HETATM    8  C8  UNL     1     -34.535   5.993   3.676  1.00 20.00     0.010 C 
HETATM    9  C9  UNL     1     -36.010   6.224   3.343  1.00 20.00     0.023 C 
ENDROOT
BRANCH   7  10
HETATM   10  O11 UNL     1     -33.170   7.935   3.033  1.00 20.00    -0.386 OA
HETATM   11  C10 UNL     1     -32.625   8.672   1.945  1.00 20.00     0.202 C 
ENDBRANCH   7  10
TORSDOF 1
