REMARK  1 active torsions:
REMARK  status: ('A' for Active; 'I' for Inactive)
REMARK    1  A    between atoms: C3_3  and  C7_7 
ROOT
HETATM    1  C1  UNL     1     -34.260   5.904   5.044  1.00 20.00     0.218 C 
HETATM    2  C4  UNL     1     -34.653   4.830   4.053  1.00 20.00     0.103 C 
HETATM    3  C5  UNL     1     -33.442   4.413   3.225  1.00 20.00     0.012 C 
HETATM    4  C6  UNL     1     -32.751   5.595   2.535  1.00 20.00     0.029 C 
HETATM    5  C7  UNL     1     -33.208   6.952   3.070  1.00 20.00     0.106 C 
HETATM    6  N8  UNL     1     -33.475   6.901   4.494  1.00 20.00    -0.353 N 
HETATM    7  O9  UNL     1     -34.634   5.890   6.214  1.00 20.00    -0.274 OA
HETATM    8  H20 UNL     1     -33.091   7.588   5.082  1.00 20.00     0.163 HD
ENDROOT
BRANCH   5   9
HETATM    9  C3  UNL     1     -32.126   7.955   2.732  1.00 20.00    -0.012 C 
HETATM   10  C2  UNL     1     -31.689   8.196   1.492  1.00 20.00     0.009 C 
ENDBRANCH   5   9
TORSDOF 1
