REMARK  1 active torsions:
REMARK  status: ('A' for Active; 'I' for Inactive)
REMARK    1  A    between atoms: C1_1  and  C5_5 
ROOT
HETATM    1  C2  UNL     1     -33.671   7.710   4.601  1.00 20.00     0.015 C 
HETATM    2  C3  UNL     1     -32.164   7.837   4.395  1.00 20.00     0.021 C 
HETATM    3  C4  UNL     1     -32.890   6.177   2.848  1.00 20.00     0.033 C 
HETATM    4  C5  UNL     1     -34.104   6.537   3.714  1.00 20.00     0.073 C 
HETATM    5  C6  UNL     1     -31.937   7.362   2.967  1.00 20.00     0.083 C 
HETATM    6 CL9  UNL     1     -32.368   8.641   1.795  1.00 20.00    -0.125 Cl
ENDROOT
BRANCH   4   7
HETATM    7  C1  UNL     1     -34.516   5.362   4.546  1.00 20.00     0.223 C 
HETATM    8  O7  UNL     1     -35.022   5.502   5.655  1.00 20.00    -0.279 OA
HETATM    9 CL8  UNL     1     -34.189   3.852   3.751  1.00 20.00    -0.043 Cl
ENDBRANCH   4   7
TORSDOF 1
