REMARK  2 active torsions:
REMARK  status: ('A' for Active; 'I' for Inactive)
REMARK    1  A    between atoms: C1_1  and  C2_2 
REMARK    2  A    between atoms: N7_7  and  O8_8 
ROOT
HETATM    1  C2  UNL     1     -32.142   7.061   2.296  1.00 20.00     0.115 A 
HETATM    2  C3  UNL     1     -31.963   8.425   1.632  1.00 20.00     0.033 A 
HETATM    3  C4  UNL     1     -31.416   8.158   2.995  1.00 20.00     0.260 A 
HETATM    4  C5  UNL     1     -33.136   9.362   1.516  1.00 20.00     0.022 C 
HETATM    5  C6  UNL     1     -30.991   8.514   0.485  1.00 20.00     0.022 C 
HETATM    6  F9  UNL     1     -30.058   8.063   3.207  1.00 20.00    -0.205 F 
HETATM    7  F10 UNL     1     -31.956   8.764   4.108  1.00 20.00    -0.205 F 
ENDROOT
BRANCH   1   8
HETATM    8  C1  UNL     1     -33.457   6.630   2.783  1.00 20.00     0.130 C 
HETATM    9  N7  UNL     1     -33.626   6.287   4.016  1.00 20.00    -0.152 NA
BRANCH   9  10
HETATM   10  O8  UNL     1     -34.964   5.926   4.196  1.00 20.00    -0.267 OA
HETATM   11  H19 UNL     1     -34.977   5.691   5.139  1.00 20.00     0.247 HD
ENDBRANCH   9  10
ENDBRANCH   1   8
TORSDOF 2
