REMARK  2 active torsions:
REMARK  status: ('A' for Active; 'I' for Inactive)
REMARK    1  A    between atoms: C3_3  and  C4_4 
REMARK    2  A    between atoms: C3_3  and  O10_10 
ROOT
HETATM    1  C1  UNL     1     -33.775   6.677   5.049  1.00 20.00    -0.066 A 
HETATM    2  C2  UNL     1     -33.786   7.523   6.057  1.00 20.00     0.016 C 
HETATM    3  C4  UNL     1     -33.085   6.234   3.900  1.00 20.00     0.126 A 
HETATM    4  C5  UNL     1     -34.449   5.604   4.414  1.00 20.00    -0.008 A 
HETATM    5  C6  UNL     1     -35.729   5.895   3.678  1.00 20.00     0.021 C 
HETATM    6  C7  UNL     1     -34.387   4.239   5.043  1.00 20.00     0.021 C 
ENDROOT
BRANCH   3   7
HETATM    7  C3  UNL     1     -33.074   7.159   2.765  1.00 20.00     0.267 C 
HETATM    8  O9  UNL     1     -33.841   7.085   1.814  1.00 20.00    -0.264 OA
BRANCH   7   9
HETATM    9  O10 UNL     1     -32.092   8.087   2.943  1.00 20.00    -0.326 OA
HETATM   10  C8  UNL     1     -31.969   9.059   1.900  1.00 20.00     0.213 C 
ENDBRANCH   7   9
ENDBRANCH   3   7
TORSDOF 2
