REMARK  1 active torsions:
REMARK  status: ('A' for Active; 'I' for Inactive)
REMARK    1  A    between atoms: C5_5  and  O10_10 
ROOT
HETATM    1  C1  UNL     1     -34.147   6.131   2.408  1.00 20.00     0.011 A 
HETATM    2  C2  UNL     1     -34.868   5.459   3.398  1.00 20.00     0.040 A 
HETATM    3  C3  UNL     1     -33.189   7.049   2.804  1.00 20.00    -0.049 A 
HETATM    4  C4  UNL     1     -32.936   7.291   4.159  1.00 20.00    -0.010 A 
HETATM    5  C5  UNL     1     -34.615   5.702   4.757  1.00 20.00     0.104 A 
HETATM    6  C6  UNL     1     -33.637   6.620   5.147  1.00 20.00     0.156 A 
HETATM    7  C7  UNL     1     -32.272   7.855   1.939  1.00 20.00     0.039 C 
HETATM    8  C8  UNL     1     -31.827   8.280   4.326  1.00 20.00     0.042 C 
HETATM    9  C9  UNL     1     -31.790   8.924   2.932  1.00 20.00     0.009 C 
HETATM   10  F11 UNL     1     -33.383   6.845   6.442  1.00 20.00    -0.203 F 
ENDROOT
BRANCH   5  11
HETATM   11  O10 UNL     1     -35.327   5.029   5.704  1.00 20.00    -0.358 OA
HETATM   12  H20 UNL     1     -35.961   4.428   5.282  1.00 20.00     0.217 HD
ENDBRANCH   5  11
TORSDOF 1
