REMARK  3 active torsions:
REMARK  status: ('A' for Active; 'I' for Inactive)
REMARK    1  A    between atoms: C3_3  and  C7_7 
REMARK    2  A    between atoms: C4_4  and  C6_6 
REMARK    3  A    between atoms: C4_4  and  O11_11 
ROOT
HETATM    1  C1  UNL     1     -32.972   8.895   1.395  1.00 20.00     0.074 C 
HETATM    2  C5  UNL     1     -32.535   6.442   1.069  1.00 20.00     0.046 A 
HETATM    3  C6  UNL     1     -33.669   6.567   2.044  1.00 20.00     0.114 A 
HETATM    4  C7  UNL     1     -32.582   7.641   2.002  1.00 20.00     0.079 A 
HETATM    5  N9  UNL     1     -33.284   9.901   0.907  1.00 20.00    -0.196 NA
ENDROOT
BRANCH   4   6
HETATM    6  C3  UNL     1     -31.584   7.640   3.084  1.00 20.00    -0.012 C 
HETATM    7  C2  UNL     1     -31.738   8.287   4.245  1.00 20.00     0.008 C 
ENDBRANCH   4   6
BRANCH   3   8
HETATM    8  C4  UNL     1     -33.764   5.619   3.164  1.00 20.00     0.264 C 
HETATM    9  O10 UNL     1     -33.231   4.517   3.175  1.00 20.00    -0.265 OA
BRANCH   8  10
HETATM   10  O11 UNL     1     -34.523   6.161   4.157  1.00 20.00    -0.326 OA
HETATM   11  C8  UNL     1     -34.699   5.338   5.315  1.00 20.00     0.213 C 
ENDBRANCH   8  10
ENDBRANCH   3   8
TORSDOF 3
