REMARK  3 active torsions:
REMARK  status: ('A' for Active; 'I' for Inactive)
REMARK    1  A    between atoms: C1_1  and  C4_4 
REMARK    2  A    between atoms: C2_2  and  C8_8 
REMARK    3  A    between atoms: C8_8  and  O10_10 
ROOT
HETATM    1  C1  UNL     1     -32.761   7.807   2.100  1.00 20.00    -0.069 C 
HETATM    2  C2  UNL     1     -33.348   7.004   2.773  1.00 20.00    -0.066 C 
ENDROOT
BRANCH   2   3
HETATM    3  C8  UNL     1     -34.068   6.017   3.597  1.00 20.00     0.116 C 
HETATM    4  C5  UNL     1     -35.536   5.934   3.179  1.00 20.00     0.060 C 
HETATM    5  C6  UNL     1     -33.952   6.379   5.077  1.00 20.00     0.060 C 
BRANCH   3   6
HETATM    6  O10 UNL     1     -33.473   4.730   3.425  1.00 20.00    -0.373 OA
HETATM    7  C7  UNL     1     -34.138   3.748   4.204  1.00 20.00     0.204 C 
ENDBRANCH   3   6
ENDBRANCH   2   3
BRANCH   1   8
HETATM    8  C4  UNL     1     -32.047   8.786   1.281  1.00 20.00     0.224 A 
HETATM    9  C3  UNL     1     -32.575  10.174   1.204  1.00 20.00     0.214 A 
HETATM   10  O9  UNL     1     -32.823   9.214   0.170  1.00 20.00    -0.368 OA
ENDBRANCH   1   8
TORSDOF 3
