REMARK  3 active torsions:
REMARK  status: ('A' for Active; 'I' for Inactive)
REMARK    1  A    between atoms: C1_1  and  C4_4 
REMARK    2  A    between atoms: C3_3  and  C10_10 
REMARK    3  A    between atoms: C5_5  and  C10_10 
ROOT
HETATM    1  C1  UNL     1     -33.787   7.340   4.790  1.00 20.00    -0.101 C 
HETATM    2  C2  UNL     1     -33.729   7.199   5.981  1.00 20.00    -0.111 C 
HETATM    3  C7  UNL     1     -33.659   7.026   7.432  1.00 20.00     0.112 C 
ENDROOT
BRANCH   1   4
HETATM    4  C4  UNL     1     -33.856   7.508   3.368  1.00 20.00     0.078 A 
HETATM    5  C5  UNL     1     -33.378   6.417   2.435  1.00 20.00     0.017 A 
HETATM    6  C6  UNL     1     -32.590   7.712   2.544  1.00 20.00    -0.028 A 
HETATM    7  C8  UNL     1     -31.235   7.717   3.209  1.00 20.00     0.016 C 
HETATM    8  C9  UNL     1     -32.677   8.664   1.375  1.00 20.00     0.016 C 
BRANCH   5   9
HETATM    9  C10 UNL     1     -32.852   5.108   2.920  1.00 20.00     0.076 C 
BRANCH   9  10
HETATM   10  C3  UNL     1     -33.876   4.287   3.685  1.00 20.00     0.231 C 
HETATM   11  O11 UNL     1     -33.758   3.976   4.865  1.00 20.00    -0.307 OA
ENDBRANCH   9  10
ENDBRANCH   5   9
ENDBRANCH   1   4
TORSDOF 3
