REMARK  1 active torsions:
REMARK  status: ('A' for Active; 'I' for Inactive)
REMARK    1  A    between atoms: C1_1  and  C4_4 
ROOT
HETATM    1  C2  UNL     1     -32.591   6.337   2.355  1.00 20.00     0.037 C 
HETATM    2  C3  UNL     1     -32.464   7.644   4.038  1.00 20.00     0.037 C 
HETATM    3  C4  UNL     1     -33.571   6.704   3.498  1.00 20.00     0.058 C 
HETATM    4  C5  UNL     1     -31.836   7.669   2.618  1.00 20.00     0.035 C 
HETATM    5  C7  UNL     1     -32.336   8.832   1.753  1.00 20.00     0.032 C 
HETATM    6 CL9  UNL     1     -30.045   7.577   2.554  1.00 20.00    -0.120 Cl
ENDROOT
BRANCH   3   7
HETATM    7  C1  UNL     1     -34.051   5.580   4.421  1.00 20.00     0.127 C 
HETATM    8  C6  UNL     1     -34.175   5.911   5.883  1.00 20.00     0.091 C 
HETATM    9  O8  UNL     1     -34.324   4.462   3.987  1.00 20.00    -0.298 OA
ENDBRANCH   3   7
TORSDOF 1
