REMARK  0 active torsions:
REMARK  status: ('A' for Active; 'I' for Inactive)
ROOT
HETATM    1  C1  UNL     1     -34.717   6.525   5.455  1.00 20.00    -0.014 C 
HETATM    2  C2  UNL     1     -35.056   5.706   4.445  1.00 20.00    -0.004 C 
HETATM    3  C3  UNL     1     -33.186   7.484   2.782  1.00 20.00     0.203 A 
HETATM    4  C4  UNL     1     -33.379   7.182   5.251  1.00 20.00     0.126 C 
HETATM    5  C5  UNL     1     -34.103   6.436   2.119  1.00 20.00     0.126 A 
HETATM    6  C6  UNL     1     -33.964   5.638   3.434  1.00 20.00     0.042 A 
HETATM    7  C7  UNL     1     -33.250   4.302   3.360  1.00 20.00     0.038 C 
HETATM    8  N8  UNL     1     -33.060   6.716   3.909  1.00 20.00    -0.237 NA
HETATM    9  O9  UNL     1     -32.811   8.602   2.509  1.00 20.00    -0.280 OA
ENDROOT
TORSDOF 0
