REMARK  1 active torsions:
REMARK  status: ('A' for Active; 'I' for Inactive)
REMARK    1  A    between atoms: C2_2  and  C6_6 
ROOT
HETATM    1  C1  UNL     1     -33.238   5.744   3.401  1.00 20.00     0.139 C 
HETATM    2  C3  UNL     1     -34.301   4.865   4.027  1.00 20.00     0.089 C 
HETATM    3  C4  UNL     1     -34.284   4.954   5.543  1.00 20.00     0.081 C 
HETATM    4  C5  UNL     1     -33.234   7.473   5.223  1.00 20.00     0.093 C 
HETATM    5  C6  UNL     1     -33.314   7.230   3.718  1.00 20.00     0.133 C 
HETATM    6  O8  UNL     1     -32.405   5.277   2.624  1.00 20.00    -0.297 OA
HETATM    7  S10 UNL     1     -34.592   6.652   6.112  1.00 20.00    -0.168 SA
ENDROOT
BRANCH   5   8
HETATM    8  C2  UNL     1     -32.229   8.018   3.048  1.00 20.00     0.135 C 
HETATM    9  C7  UNL     1     -32.512   8.509   1.654  1.00 20.00     0.091 C 
HETATM   10  O9  UNL     1     -31.161   8.254   3.611  1.00 20.00    -0.298 OA
ENDBRANCH   5   8
TORSDOF 1
