REMARK  1 active torsions:
REMARK  status: ('A' for Active; 'I' for Inactive)
REMARK    1  A    between atoms: C2_2  and  C5_5 
ROOT
HETATM    1  C1  UNL     1     -32.598   6.138   2.192  1.00 20.00     0.016 C 
HETATM    2  C2  UNL     1     -32.814   7.231   2.940  1.00 20.00    -0.019 C 
HETATM    3  C3  UNL     1     -32.839   4.798   2.701  1.00 20.00    -0.066 C 
HETATM    4  C4  UNL     1     -32.770   3.723   1.902  1.00 20.00     0.019 C 
HETATM    5  C6  UNL     1     -33.346   7.195   4.345  1.00 20.00     0.050 C 
HETATM    6  C7  UNL     1     -33.173   4.678   4.172  1.00 20.00     0.047 C 
HETATM    7  C8  UNL     1     -34.038   5.852   4.697  1.00 20.00    -0.040 C 
HETATM    8  C9  UNL     1     -35.454   5.799   4.082  1.00 20.00     0.015 C 
HETATM    9  C10 UNL     1     -34.178   5.739   6.225  1.00 20.00     0.015 C 
ENDROOT
BRANCH   2  10
HETATM   10  C5  UNL     1     -32.535   8.535   2.333  1.00 20.00     0.265 C 
HETATM   11  O11 UNL     1     -32.119   8.653   1.187  1.00 20.00    -0.302 OA
ENDBRANCH   2  10
TORSDOF 1
