REMARK  1 active torsions:
REMARK  status: ('A' for Active; 'I' for Inactive)
REMARK    1  A    between atoms: C1_1  and  C8_8 
ROOT
HETATM    1  C2  UNL     1     -34.616   4.625   4.427  1.00 20.00     0.001 C 
HETATM    2  C3  UNL     1     -34.995   5.732   5.397  1.00 20.00     0.001 C 
HETATM    3  C4  UNL     1     -34.262   5.387   3.155  1.00 20.00     0.010 C 
HETATM    4  C5  UNL     1     -33.913   6.781   5.165  1.00 20.00     0.010 C 
HETATM    5  C6  UNL     1     -33.894   7.951   2.809  1.00 20.00     0.023 C 
HETATM    6  C7  UNL     1     -32.111   6.883   3.282  1.00 20.00     0.023 C 
HETATM    7  C8  UNL     1     -32.585   7.665   2.031  1.00 20.00     0.073 C 
HETATM    8  C9  UNL     1     -33.607   6.682   3.666  1.00 20.00    -0.039 C 
ENDROOT
BRANCH   7   9
HETATM    9  C1  UNL     1     -31.747   8.866   1.584  1.00 20.00     0.223 C 
HETATM   10  O10 UNL     1     -32.268   9.895   1.164  1.00 20.00    -0.279 OA
HETATM   11 CL11 UNL     1     -30.043   8.572   1.749  1.00 20.00    -0.043 Cl
ENDBRANCH   7   9
TORSDOF 1
