REMARK  2 active torsions:
REMARK  status: ('A' for Active; 'I' for Inactive)
REMARK    1  A    between atoms: C1_1  and  C6_6 
REMARK    2  A    between atoms: C1_1  and  O10_10 
ROOT
HETATM    1  C2  UNL     1     -34.077   3.993   4.005  1.00 20.00     0.006 C 
HETATM    2  C3  UNL     1     -34.517   4.819   5.222  1.00 20.00     0.036 C 
HETATM    3  C4  UNL     1     -33.096   4.898   3.244  1.00 20.00     0.052 C 
HETATM    4  C5  UNL     1     -34.400   6.243   4.776  1.00 20.00     0.168 A 
HETATM    5  C6  UNL     1     -33.521   6.300   3.577  1.00 20.00     0.174 A 
HETATM    6  O9  UNL     1     -34.937   6.545   3.485  1.00 20.00    -0.358 OA
ENDROOT
BRANCH   5   7
HETATM    7  C1  UNL     1     -32.706   7.473   3.278  1.00 20.00     0.296 C 
HETATM    8  O8  UNL     1     -31.877   7.944   4.044  1.00 20.00    -0.262 OA
BRANCH   7   9
HETATM    9  O10 UNL     1     -33.018   7.940   2.035  1.00 20.00    -0.324 OA
HETATM   10  C7  UNL     1     -32.288   9.096   1.612  1.00 20.00     0.213 C 
ENDBRANCH   7   9
ENDBRANCH   5   7
TORSDOF 2
