REMARK  1 active torsions:
REMARK  status: ('A' for Active; 'I' for Inactive)
REMARK    1  A    between atoms: C3_3  and  N6_6 
ROOT
HETATM    1  C1  UNL     1     -33.762   5.163   3.795  1.00 20.00     0.216 C 
HETATM    2  C4  UNL     1     -34.529   6.200   5.702  1.00 20.00     0.158 C 
HETATM    3  C5  UNL     1     -34.866   4.727   5.734  1.00 20.00     0.198 C 
HETATM    4  N6  UNL     1     -33.716   6.329   4.530  1.00 20.00    -0.327 N 
HETATM    5  O7  UNL     1     -34.512   4.220   4.438  1.00 20.00    -0.325 OA
HETATM    6  S8  UNL     1     -33.094   4.757   2.331  1.00 20.00    -0.033 SA
ENDROOT
BRANCH   4   7
HETATM    7  C3  UNL     1     -33.066   7.490   4.225  1.00 20.00     0.083 C 
HETATM    8  C2  UNL     1     -31.943   7.525   3.504  1.00 20.00     0.030 C 
ENDBRANCH   4   7
TORSDOF 1
