REMARK  2 active torsions:
REMARK  status: ('A' for Active; 'I' for Inactive)
REMARK    1  A    between atoms: C3_3  and  C6_6 
REMARK    2  A    between atoms: C3_3  and  O10_10 
ROOT
HETATM    1  C1  UNL     1     -33.174   7.863   2.132  1.00 20.00    -0.010 C 
HETATM    2  C2  UNL     1     -31.888   8.226   2.198  1.00 20.00    -0.087 C 
HETATM    3  C4  UNL     1     -31.360   8.140   3.595  1.00 20.00     0.034 C 
HETATM    4  C5  UNL     1     -32.628   7.953   4.435  1.00 20.00     0.023 C 
HETATM    5  C6  UNL     1     -33.715   7.482   3.469  1.00 20.00     0.108 C 
HETATM    6  C7  UNL     1     -31.017   8.642   1.069  1.00 20.00     0.043 C 
ENDROOT
BRANCH   5   7
HETATM    7  C3  UNL     1     -33.889   5.996   3.493  1.00 20.00     0.266 C 
HETATM    8  O9  UNL     1     -33.657   5.264   2.540  1.00 20.00    -0.265 OA
BRANCH   7   9
HETATM    9  O10 UNL     1     -34.336   5.609   4.721  1.00 20.00    -0.326 OA
HETATM   10  C8  UNL     1     -34.547   4.203   4.884  1.00 20.00     0.213 C 
ENDBRANCH   7   9
ENDBRANCH   5   7
TORSDOF 2
