REMARK  0 active torsions:
REMARK  status: ('A' for Active; 'I' for Inactive)
ROOT
HETATM    1  C1  UNL     1     -34.047   5.043   3.733  1.00 20.00     0.044 A 
HETATM    2  C2  UNL     1     -33.326   5.381   2.648  1.00 20.00     0.014 A 
HETATM    3  C3  UNL     1     -34.149   5.952   4.852  1.00 20.00     0.156 A 
HETATM    4  C4  UNL     1     -33.536   7.147   4.842  1.00 20.00     0.202 A 
HETATM    5  C5  UNL     1     -32.595   6.659   2.527  1.00 20.00     0.224 A 
HETATM    6  C6  UNL     1     -32.715   7.615   3.714  1.00 20.00     0.293 A 
HETATM    7  O7  UNL     1     -33.258   7.927   2.425  1.00 20.00    -0.328 OA
HETATM    8  F8  UNL     1     -34.888   5.571   5.914  1.00 20.00    -0.203 F 
HETATM    9  F9  UNL     1     -33.676   7.955   5.916  1.00 20.00    -0.201 F 
HETATM   10  F10 UNL     1     -31.551   8.293   4.061  1.00 20.00    -0.200 F 
ENDROOT
TORSDOF 0
