REMARK  1 active torsions:
REMARK  status: ('A' for Active; 'I' for Inactive)
REMARK    1  A    between atoms: C1_1  and  C7_7 
ROOT
HETATM    1  C2  UNL     1     -34.419   6.770   5.724  1.00 20.00     0.004 C 
HETATM    2  C3  UNL     1     -34.180   5.266   5.755  1.00 20.00     0.037 C 
HETATM    3  C4  UNL     1     -33.616   7.444   4.611  1.00 20.00     0.016 C 
HETATM    4  C5  UNL     1     -33.644   5.285   3.290  1.00 20.00     0.053 C 
HETATM    5  C6  UNL     1     -34.452   4.626   4.402  1.00 20.00     0.171 C 
HETATM    6  C7  UNL     1     -33.842   6.810   3.224  1.00 20.00     0.012 C 
HETATM    7  C8  UNL     1     -35.225   7.171   2.664  1.00 20.00     0.023 C 
HETATM    8  F10 UNL     1     -34.102   3.311   4.468  1.00 20.00    -0.249 F 
ENDROOT
BRANCH   6   9
HETATM    9  C1  UNL     1     -32.824   7.381   2.270  1.00 20.00     0.240 C 
HETATM   10  O9  UNL     1     -32.735   8.576   2.012  1.00 20.00    -0.306 OA
ENDBRANCH   6   9
TORSDOF 1
