REMARK  1 active torsions:
REMARK  status: ('A' for Active; 'I' for Inactive)
REMARK    1  A    between atoms: C4_4  and  C7_7 
ROOT
HETATM    1  C1  UNL     1     -33.203   6.557   1.371  1.00 20.00     0.047 C 
HETATM    2  C2  UNL     1     -34.085   5.892   2.126  1.00 20.00    -0.006 C 
HETATM    3  C3  UNL     1     -32.133   7.361   2.004  1.00 20.00     0.149 C 
HETATM    4  C5  UNL     1     -31.997   7.328   3.509  1.00 20.00     0.088 C 
HETATM    5  C6  UNL     1     -33.356   7.146   4.197  1.00 20.00     0.007 C 
HETATM    6  C7  UNL     1     -34.136   5.925   3.636  1.00 20.00     0.031 C 
HETATM    7  C8  UNL     1     -33.168   7.121   5.719  1.00 20.00     0.012 C 
HETATM    8  C9  UNL     1     -35.602   5.950   4.098  1.00 20.00     0.027 C 
HETATM    9  O10 UNL     1     -31.342   7.984   1.298  1.00 20.00    -0.293 OA
ENDROOT
BRANCH   6  10
HETATM   10  C4  UNL     1     -33.525   4.612   4.057  1.00 20.00     0.244 C 
HETATM   11  O11 UNL     1     -34.123   3.770   4.719  1.00 20.00    -0.306 OA
ENDBRANCH   6  10
TORSDOF 1
