REMARK  0 active torsions:
REMARK  status: ('A' for Active; 'I' for Inactive)
ROOT
HETATM    1  C1  UNL     1     -33.735   5.386   2.680  1.00 20.00     0.251 C 
HETATM    2  C2  UNL     1     -33.896   5.352   4.186  1.00 20.00     0.251 C 
HETATM    3  C3  UNL     1     -33.036   6.692   2.365  1.00 20.00     0.271 C 
HETATM    4  C4  UNL     1     -34.551   6.663   4.572  1.00 20.00     0.271 C 
HETATM    5  F5  UNL     1     -32.970   4.344   2.272  1.00 20.00    -0.242 F 
HETATM    6  F6  UNL     1     -34.711   4.321   4.531  1.00 20.00    -0.242 F 
HETATM    7  F7  UNL     1     -31.729   6.596   2.728  1.00 20.00    -0.235 F 
HETATM    8  F8  UNL     1     -34.261   6.954   5.865  1.00 20.00    -0.235 F 
HETATM    9  S9  UNL     1     -33.853   7.898   3.447  1.00 20.00    -0.089 SA
ENDROOT
TORSDOF 0
