REMARK  1 active torsions:
REMARK  status: ('A' for Active; 'I' for Inactive)
REMARK    1  A    between atoms: C3_3  and  C7_7 
ROOT
HETATM    1  C1  UNL     1     -32.152   8.003   2.623  1.00 20.00    -0.025 C 
HETATM    2  C2  UNL     1     -32.050   7.425   3.829  1.00 20.00    -0.020 C 
HETATM    3  C4  UNL     1     -34.244   6.801   2.088  1.00 20.00     0.021 C 
HETATM    4  C5  UNL     1     -34.104   8.485   3.766  1.00 20.00     0.022 C 
HETATM    5  C6  UNL     1     -33.623   8.193   2.341  1.00 20.00     0.010 C 
HETATM    6  C7  UNL     1     -34.170   6.130   3.490  1.00 20.00     0.067 C 
HETATM    7  C8  UNL     1     -33.460   7.215   4.348  1.00 20.00    -0.016 C 
HETATM    8  C10 UNL     1     -33.596   7.076   5.848  1.00 20.00     0.020 C 
ENDROOT
BRANCH   6   9
HETATM    9  C3  UNL     1     -33.447   4.818   3.453  1.00 20.00     0.128 C 
HETATM   10  C9  UNL     1     -33.861   3.787   4.468  1.00 20.00     0.091 C 
HETATM   11  O11 UNL     1     -32.560   4.593   2.631  1.00 20.00    -0.298 OA
ENDBRANCH   6   9
TORSDOF 1
