REMARK  5 active torsions:
REMARK  status: ('A' for Active; 'I' for Inactive)
REMARK    1  A    between atoms: C1_1  and  C5_5 
REMARK    2  A    between atoms: C5_5  and  C8_8 
REMARK    3  A    between atoms: C6_6  and  N9_9 
REMARK    4  A    between atoms: C7_7  and  N9_9 
REMARK    5  A    between atoms: C8_8  and  N9_9 
ROOT
HETATM    1  C1  UNL     1     -32.512   9.487   1.670  1.00 20.00    -0.092 C 
HETATM    2  C2  UNL     1     -33.164  10.495   1.643  1.00 20.00    -0.022 C 
HETATM    3  S10 UNL     1     -34.136  11.997   1.605  1.00 20.00     0.008 SA
ENDROOT
BRANCH   1   4
HETATM    4  C5  UNL     1     -31.713   8.253   1.701  1.00 20.00     0.122 C 
BRANCH   4   5
HETATM    5  C8  UNL     1     -31.652   7.641   3.093  1.00 20.00     0.246 C 
BRANCH   5   6
HETATM    6  N9  UNL     1     -33.038   7.356   3.596  1.00 20.00    -0.071 N 
HETATM    7  H25 UNL     1     -33.536   8.256   3.622  1.00 20.00     0.279 HD
BRANCH   6   8
HETATM    8  C6  UNL     1     -33.803   6.462   2.663  1.00 20.00     0.230 C 
HETATM    9  C3  UNL     1     -33.114   5.117   2.585  1.00 20.00     0.034 C 
ENDBRANCH   6   8
BRANCH   6  10
HETATM   10  C7  UNL     1     -33.028   6.825   5.001  1.00 20.00     0.230 C 
HETATM   11  C4  UNL     1     -34.454   6.640   5.474  1.00 20.00     0.034 C 
ENDBRANCH   6  10
ENDBRANCH   5   6
ENDBRANCH   4   5
ENDBRANCH   1   4
TORSDOF 5
