REMARK  2 active torsions:
REMARK  status: ('A' for Active; 'I' for Inactive)
REMARK    1  A    between atoms: C3_3  and  C5_5 
REMARK    2  A    between atoms: C5_5  and  C9_9 
ROOT
HETATM    1  C1  UNL     1     -31.756   7.960   3.869  1.00 20.00    -0.012 A 
HETATM    2  C2  UNL     1     -31.260   8.967   1.614  1.00 20.00    -0.020 A 
HETATM    3  C3  UNL     1     -32.987   7.647   3.443  1.00 20.00    -0.003 A 
HETATM    4  C4  UNL     1     -32.495   8.654   1.181  1.00 20.00    -0.083 A 
HETATM    5  C6  UNL     1     -30.756   8.658   2.994  1.00 20.00     0.055 A 
HETATM    6  C7  UNL     1     -33.499   7.952   2.066  1.00 20.00     0.075 A 
HETATM    7  C8  UNL     1     -32.956   8.983  -0.208  1.00 20.00     0.043 C 
ENDROOT
BRANCH   3   8
HETATM    8  C5  UNL     1     -33.882   6.965   4.382  1.00 20.00     0.261 C 
HETATM    9  O10 UNL     1     -34.196   7.493   5.450  1.00 20.00    -0.283 OA
BRANCH   8  10
HETATM   10  C9  UNL     1     -34.392   5.609   3.986  1.00 20.00     0.455 C 
HETATM   11  F11 UNL     1     -33.924   5.214   2.774  1.00 20.00    -0.163 F 
HETATM   12  F12 UNL     1     -35.747   5.581   3.912  1.00 20.00    -0.163 F 
HETATM   13  F13 UNL     1     -34.026   4.653   4.878  1.00 20.00    -0.163 F 
ENDBRANCH   8  10
ENDBRANCH   3   8
TORSDOF 2
