REMARK  1 active torsions:
REMARK  status: ('A' for Active; 'I' for Inactive)
REMARK    1  A    between atoms: C3_3  and  C7_7 
ROOT
HETATM    1  C1  UNL     1     -34.080   5.383   5.307  1.00 20.00    -0.023 C 
HETATM    2  C2  UNL     1     -33.912   6.681   4.994  1.00 20.00    -0.075 C 
HETATM    3  C4  UNL     1     -34.236   4.293   4.290  1.00 20.00     0.027 C 
HETATM    4  C5  UNL     1     -34.597   4.827   2.905  1.00 20.00     0.005 C 
HETATM    5  C6  UNL     1     -33.706   6.004   2.532  1.00 20.00     0.018 C 
HETATM    6  C7  UNL     1     -33.811   7.145   3.556  1.00 20.00     0.100 C 
HETATM    7  C8  UNL     1     -33.882   7.733   6.070  1.00 20.00     0.044 C 
ENDROOT
BRANCH   6   8
HETATM    8  C3  UNL     1     -32.594   8.013   3.415  1.00 20.00     0.227 C 
HETATM    9  O9  UNL     1     -31.851   8.241   4.364  1.00 20.00    -0.279 OA
HETATM   10 CL10 UNL     1     -32.404   8.614   1.796  1.00 20.00    -0.043 Cl
ENDBRANCH   6   8
TORSDOF 1
