REMARK  2 active torsions:
REMARK  status: ('A' for Active; 'I' for Inactive)
REMARK    1  A    between atoms: C2_2  and  C7_7 
REMARK    2  A    between atoms: C3_3  and  C6_6 
ROOT
HETATM    1  C4  UNL     1     -33.990   5.878   2.677  1.00 20.00     0.014 C 
HETATM    2  C5  UNL     1     -32.460   6.008   2.594  1.00 20.00     0.015 C 
HETATM    3  C6  UNL     1     -34.002   7.071   3.668  1.00 20.00     0.067 C 
HETATM    4  C7  UNL     1     -32.587   7.473   3.106  1.00 20.00    -0.011 C 
HETATM    5  C10 UNL     1     -31.522   7.863   4.126  1.00 20.00     0.021 C 
ENDROOT
BRANCH   4   6
HETATM    6  C2  UNL     1     -32.657   8.484   2.009  1.00 20.00    -0.084 C 
HETATM    7  C1  UNL     1     -32.055   8.290   0.826  1.00 20.00     0.015 C 
HETATM    8  C8  UNL     1     -33.439   9.729   2.306  1.00 20.00     0.043 C 
ENDBRANCH   4   6
BRANCH   3   9
HETATM    9  C3  UNL     1     -34.130   6.731   5.161  1.00 20.00     0.128 C 
HETATM   10  C9  UNL     1     -35.008   5.562   5.517  1.00 20.00     0.091 C 
HETATM   11  O11 UNL     1     -33.540   7.380   6.024  1.00 20.00    -0.298 OA
ENDBRANCH   3   9
TORSDOF 2
