REMARK  4 active torsions:
REMARK  status: ('A' for Active; 'I' for Inactive)
REMARK    1  A    between atoms: C1_1  and  C7_7 
REMARK    2  A    between atoms: C6_6  and  O10_10 
REMARK    3  A    between atoms: C7_7  and  C8_8 
REMARK    4  A    between atoms: C7_7  and  O10_10 
ROOT
HETATM    1  C7  UNL     1     -33.458   7.839   2.862  1.00 20.00     0.193 C 
ENDROOT
BRANCH   1   2
HETATM    2  C1  UNL     1     -33.622   6.324   2.939  1.00 20.00     0.152 C 
HETATM    3  C2  UNL     1     -34.906   5.798   3.527  1.00 20.00     0.093 C 
HETATM    4  O9  UNL     1     -32.750   5.551   2.538  1.00 20.00    -0.296 OA
ENDBRANCH   1   2
BRANCH   1   5
HETATM    5  C8  UNL     1     -32.771   8.425   4.109  1.00 20.00     0.014 C 
HETATM    6  C4  UNL     1     -33.252   7.768   5.407  1.00 20.00     0.012 C 
HETATM    7  C5  UNL     1     -31.249   8.280   4.002  1.00 20.00     0.012 C 
ENDBRANCH   1   5
BRANCH   1   8
HETATM    8  O10 UNL     1     -32.712   8.161   1.697  1.00 20.00    -0.378 OA
BRANCH   8   9
HETATM    9  C6  UNL     1     -32.903   9.517   1.312  1.00 20.00     0.164 C 
HETATM   10  C3  UNL     1     -32.084   9.796   0.070  1.00 20.00     0.033 C 
ENDBRANCH   8   9
ENDBRANCH   1   8
TORSDOF 4
