REMARK  0 active torsions:
REMARK  status: ('A' for Active; 'I' for Inactive)
ROOT
HETATM    1  C1  UNL     1     -32.135   7.940   2.121  1.00 20.00     0.015 C 
HETATM    2  C2  UNL     1     -32.776   7.186   2.801  1.00 20.00    -0.076 C 
HETATM    3  C3  UNL     1     -33.704   3.842   4.234  1.00 20.00     0.004 C 
HETATM    4  C4  UNL     1     -34.685   4.237   5.332  1.00 20.00     0.003 C 
HETATM    5  C5  UNL     1     -33.692   4.873   3.108  1.00 20.00     0.055 C 
HETATM    6  C6  UNL     1     -34.240   5.524   6.021  1.00 20.00     0.042 C 
HETATM    7  C7  UNL     1     -33.541   6.285   3.613  1.00 20.00     0.154 A 
HETATM    8  C8  UNL     1     -33.861   6.627   5.067  1.00 20.00     0.102 A 
HETATM    9  C9  UNL     1     -33.353   7.888   5.702  1.00 20.00     0.050 C 
HETATM   10  O10 UNL     1     -34.803   6.859   4.019  1.00 20.00    -0.350 OA
ENDROOT
TORSDOF 0
