REMARK  1 active torsions:
REMARK  status: ('A' for Active; 'I' for Inactive)
REMARK    1  A    between atoms: C1_1  and  C6_6 
ROOT
HETATM    1  C2  UNL     1     -35.396   5.931   3.047  1.00 20.00     0.010 C 
HETATM    2  C3  UNL     1     -34.614   4.660   5.086  1.00 20.00     0.010 C 
HETATM    3  C4  UNL     1     -34.307   6.966   5.074  1.00 20.00     0.010 C 
HETATM    4  C5  UNL     1     -33.352   4.464   2.976  1.00 20.00     0.010 C 
HETATM    5  C6  UNL     1     -32.983   6.755   2.944  1.00 20.00     0.081 C 
HETATM    6  C7  UNL     1     -35.324   5.926   4.603  1.00 20.00    -0.013 C 
HETATM    7  C8  UNL     1     -33.989   5.734   2.401  1.00 20.00    -0.001 C 
HETATM    8  C9  UNL     1     -33.225   4.854   4.459  1.00 20.00    -0.009 C 
HETATM    9  C10 UNL     1     -33.015   6.418   4.444  1.00 20.00     0.003 C 
ENDROOT
BRANCH   5  10
HETATM   10  C1  UNL     1     -33.292   8.174   2.580  1.00 20.00     0.223 C 
HETATM   11  O11 UNL     1     -34.354   8.703   2.892  1.00 20.00    -0.279 OA
HETATM   12 CL12 UNL     1     -31.994   8.920   1.697  1.00 20.00    -0.043 Cl
ENDBRANCH   5  10
TORSDOF 1
