REMARK  1 active torsions:
REMARK  status: ('A' for Active; 'I' for Inactive)
REMARK    1  A    between atoms: C6_6  and  C7_7 
ROOT
HETATM    1  C1  UNL     1     -32.472   5.048   2.435  1.00 20.00    -0.003 C 
HETATM    2  C2  UNL     1     -32.515   6.358   1.793  1.00 20.00     0.015 C 
HETATM    3  C3  UNL     1     -33.281   7.581   3.753  1.00 20.00     0.011 C 
HETATM    4  C4  UNL     1     -33.346   4.403   3.233  1.00 20.00    -0.026 C 
HETATM    5  C5  UNL     1     -34.559   7.202   3.922  1.00 20.00    -0.021 C 
HETATM    6  C6  UNL     1     -32.810   7.532   2.385  1.00 20.00     0.009 C 
HETATM    7  C8  UNL     1     -34.738   4.768   3.711  1.00 20.00     0.035 C 
HETATM    8  C9  UNL     1     -34.893   5.955   4.703  1.00 20.00     0.007 C 
HETATM    9  C11 UNL     1     -34.120   5.737   6.005  1.00 20.00     0.014 C 
ENDROOT
BRANCH   6  10
HETATM   10  C7  UNL     1     -32.712   8.762   1.594  1.00 20.00     0.155 C 
HETATM   11  C10 UNL     1     -31.700   8.806   0.479  1.00 20.00     0.096 C 
HETATM   12  O12 UNL     1     -33.435   9.726   1.847  1.00 20.00    -0.293 OA
ENDBRANCH   6  10
TORSDOF 1
