REMARK  0 active torsions:
REMARK  status: ('A' for Active; 'I' for Inactive)
ROOT
HETATM    1  C1  UNL     1     -32.329   8.330   1.220  1.00 20.00     0.012 C 
HETATM    2  C2  UNL     1     -33.049   7.865   2.061  1.00 20.00    -0.111 C 
HETATM    3  C3  UNL     1     -34.400   6.138   5.028  1.00 20.00     0.132 C 
HETATM    4  C4  UNL     1     -35.391   5.637   3.996  1.00 20.00     0.084 C 
HETATM    5  C5  UNL     1     -32.428   5.517   3.770  1.00 20.00     0.014 C 
HETATM    6  C6  UNL     1     -33.359   4.989   2.659  1.00 20.00     0.007 C 
HETATM    7  C7  UNL     1     -33.927   7.299   3.088  1.00 20.00     0.080 C 
HETATM    8  C8  UNL     1     -33.198   6.730   4.312  1.00 20.00     0.071 C 
HETATM    9  C9  UNL     1     -34.570   5.951   2.721  1.00 20.00     0.009 C 
HETATM   10  O10 UNL     1     -34.533   6.049   6.238  1.00 20.00    -0.298 OA
ENDROOT
TORSDOF 0
