REMARK  1 active torsions:
REMARK  status: ('A' for Active; 'I' for Inactive)
REMARK    1  A    between atoms: C1_1  and  C4_4 
ROOT
HETATM    1  C1  UNL     1     -32.098   7.489   3.495  1.00 20.00    -0.068 C 
HETATM    2  C2  UNL     1     -31.160   7.973   2.923  1.00 20.00    -0.108 C 
HETATM    3  C6  UNL     1     -30.018   8.562   2.226  1.00 20.00     0.112 C 
ENDROOT
BRANCH   1   4
HETATM    4  C4  UNL     1     -33.233   6.905   4.187  1.00 20.00     0.129 C 
HETATM    5  C5  UNL     1     -33.587   5.418   3.807  1.00 20.00     0.016 C 
HETATM    6  C3  UNL     1     -34.994   6.003   3.554  1.00 20.00     0.182 C 
HETATM    7  C8  UNL     1     -33.530   4.378   4.922  1.00 20.00     0.021 C 
HETATM    8  C9  UNL     1     -32.961   4.862   2.522  1.00 20.00     0.021 C 
HETATM    9  O10 UNL     1     -34.469   7.356   3.556  1.00 20.00    -0.366 OA
HETATM   10  C7  UNL     1     -33.233   7.312   5.658  1.00 20.00     0.061 C 
ENDBRANCH   1   4
TORSDOF 1
