REMARK  1 active torsions:
REMARK  status: ('A' for Active; 'I' for Inactive)
REMARK    1  A    between atoms: C1_1  and  C3_3 
ROOT
HETATM    1  C1  UNL     1     -33.597   6.629   4.012  1.00 20.00     0.163 C 
HETATM    2  C2  UNL     1     -33.716   5.302   3.837  1.00 20.00    -0.045 C 
HETATM    3  C4  UNL     1     -34.512   4.370   4.708  1.00 20.00     0.046 C 
HETATM    4  C5  UNL     1     -33.037   4.620   2.677  1.00 20.00     0.046 C 
HETATM    5  F8  UNL     1     -34.217   7.229   5.053  1.00 20.00    -0.202 F 
ENDROOT
BRANCH   1   6
HETATM    6  C3  UNL     1     -32.820   7.579   3.170  1.00 20.00     0.183 C 
HETATM    7  C6  UNL     1     -31.720   8.344   3.858  1.00 20.00     0.099 C 
HETATM    8  O7  UNL     1     -33.081   7.773   1.986  1.00 20.00    -0.290 OA
ENDBRANCH   1   6
TORSDOF 1
