REMARK  1 active torsions:
REMARK  status: ('A' for Active; 'I' for Inactive)
REMARK    1  A    between atoms: C4_4  and  C10_10 
ROOT
HETATM    1  C1  UNL     1     -31.399   8.010   3.605  1.00 20.00     0.174 C 
HETATM    2  C2  UNL     1     -32.116   9.087   2.868  1.00 20.00     0.025 A 
HETATM    3  C3  UNL     1     -33.233   8.438   2.143  1.00 20.00     0.030 A 
HETATM    4  C4  UNL     1     -33.159   6.976   2.455  1.00 20.00     0.130 C 
HETATM    5  C5  UNL     1     -32.172   9.187   1.355  1.00 20.00    -0.035 A 
HETATM    6  C6  UNL     1     -32.568  10.522   0.773  1.00 20.00     0.016 C 
HETATM    7  C7  UNL     1     -31.182   8.437   0.503  1.00 20.00     0.016 C 
HETATM    8  O11 UNL     1     -31.899   6.751   3.121  1.00 20.00    -0.385 OA
ENDROOT
BRANCH   4   9
HETATM    9  C10 UNL     1     -34.279   6.523   3.381  1.00 20.00     0.007 C 
HETATM   10  C8  UNL     1     -34.188   5.020   3.646  1.00 20.00     0.012 C 
HETATM   11  C9  UNL     1     -34.242   7.300   4.697  1.00 20.00     0.012 C 
ENDBRANCH   4   9
TORSDOF 1
