REMARK  2 active torsions:
REMARK  status: ('A' for Active; 'I' for Inactive)
REMARK    1  A    between atoms: C1_1  and  C4_4 
REMARK    2  A    between atoms: C1_1  and  C5_5 
ROOT
HETATM    1  C1  UNL     1     -33.479   6.693   4.019  1.00 20.00     0.144 C 
HETATM    2  O6  UNL     1     -33.073   7.510   4.845  1.00 20.00    -0.296 OA
ENDROOT
BRANCH   1   3
HETATM    3  C4  UNL     1     -34.514   5.719   4.380  1.00 20.00     0.056 A 
HETATM    4  C2  UNL     1     -34.249   4.251   4.181  1.00 20.00     0.013 A 
HETATM    5  C3  UNL     1     -34.299   4.820   5.567  1.00 20.00     0.013 A 
ENDBRANCH   1   3
BRANCH   1   6
HETATM    6  C5  UNL     1     -32.970   6.615   2.598  1.00 20.00     0.193 C 
HETATM    7 CL7  UNL     1     -32.469   8.212   2.024  1.00 20.00    -0.123 Cl
ENDBRANCH   1   6
TORSDOF 2
