REMARK  1 active torsions:
REMARK  status: ('A' for Active; 'I' for Inactive)
REMARK    1  A    between atoms: C1_1  and  C3_3 
ROOT
HETATM    1  C2  UNL     1     -34.796   6.052   2.945  1.00 20.00     0.056 A 
HETATM    2  C3  UNL     1     -33.307   6.097   3.026  1.00 20.00     0.067 A 
HETATM    3  C4  UNL     1     -34.102   5.763   4.249  1.00 20.00     0.122 A 
HETATM    4 CL7  UNL     1     -34.293   6.926   5.556  1.00 20.00    -0.101 Cl
HETATM    5 CL8  UNL     1     -34.054   4.091   4.805  1.00 20.00    -0.101 Cl
ENDROOT
BRANCH   2   6
HETATM    6  C1  UNL     1     -32.628   7.425   2.908  1.00 20.00     0.090 C 
HETATM    7  N6  UNL     1     -32.886   8.209   1.920  1.00 20.00    -0.310 NA
HETATM    8  C5  UNL     1     -32.133   9.459   1.963  1.00 20.00     0.176 C 
ENDBRANCH   2   6
TORSDOF 1
