REMARK  1 active torsions:
REMARK  status: ('A' for Active; 'I' for Inactive)
REMARK    1  A    between atoms: C3_3  and  C7_7 
ROOT
HETATM    1  C1  UNL     1     -33.798   4.678   3.053  1.00 20.00    -0.029 C 
HETATM    2  C2  UNL     1     -34.539   4.739   4.168  1.00 20.00    -0.026 C 
HETATM    3  C4  UNL     1     -33.025   5.844   2.513  1.00 20.00     0.039 C 
HETATM    4  C5  UNL     1     -33.576   7.023   4.675  1.00 20.00     0.020 C 
HETATM    5  C6  UNL     1     -34.650   5.976   5.023  1.00 20.00     0.004 C 
HETATM    6  C7  UNL     1     -33.421   7.175   3.161  1.00 20.00     0.059 C 
HETATM    7  C9  UNL     1     -34.575   5.621   6.508  1.00 20.00     0.014 C 
ENDROOT
BRANCH   6   8
HETATM    8  C3  UNL     1     -32.382   8.209   2.850  1.00 20.00     0.127 C 
HETATM    9  C8  UNL     1     -32.570   8.997   1.582  1.00 20.00     0.091 C 
HETATM   10  O10 UNL     1     -31.424   8.406   3.596  1.00 20.00    -0.298 OA
ENDBRANCH   6   8
TORSDOF 1
