REMARK  2 active torsions:
REMARK  status: ('A' for Active; 'I' for Inactive)
REMARK    1  A    between atoms: C1_1  and  C10_10 
REMARK    2  A    between atoms: C1_1  and  C11_11 
ROOT
HETATM    1  C2  UNL     1     -34.159   4.499   5.151  1.00 20.00     0.009 C 
HETATM    2  C3  UNL     1     -34.585   6.938   5.638  1.00 20.00     0.010 C 
HETATM    3  C4  UNL     1     -35.500   5.939   3.571  1.00 20.00     0.010 C 
HETATM    4  C5  UNL     1     -32.431   6.333   4.980  1.00 20.00     0.022 C 
HETATM    5  C6  UNL     1     -33.349   5.334   2.910  1.00 20.00     0.022 C 
HETATM    6  C7  UNL     1     -33.591   5.788   5.817  1.00 20.00    -0.013 C 
HETATM    7  C8  UNL     1     -34.546   4.747   3.662  1.00 20.00    -0.013 C 
HETATM    8  C9  UNL     1     -34.605   7.068   4.107  1.00 20.00     0.002 C 
HETATM    9  C10 UNL     1     -33.156   6.655   3.668  1.00 20.00     0.026 C 
ENDROOT
BRANCH   9  10
HETATM   10  C1  UNL     1     -32.463   7.690   2.845  1.00 20.00     0.149 C 
HETATM   11  O12 UNL     1     -31.413   8.201   3.235  1.00 20.00    -0.296 OA
BRANCH  10  12
HETATM   12  C11 UNL     1     -33.134   8.049   1.540  1.00 20.00     0.193 C 
HETATM   13 CL13 UNL     1     -32.810   9.736   1.112  1.00 20.00    -0.123 Cl
ENDBRANCH  10  12
ENDBRANCH   9  10
TORSDOF 2
