REMARK  1 active torsions:
REMARK  status: ('A' for Active; 'I' for Inactive)
REMARK    1  A    between atoms: C1_1  and  C2_2 
ROOT
HETATM    1  C2  UNL     1     -32.986   8.084   2.216  1.00 20.00     0.154 A 
HETATM    2  C3  UNL     1     -32.500   6.688   2.563  1.00 20.00     0.073 A 
HETATM    3  C4  UNL     1     -32.509   7.761   3.590  1.00 20.00     0.259 A 
HETATM    4  C5  UNL     1     -33.468   5.559   2.647  1.00 20.00     0.017 C 
HETATM    5  F7  UNL     1     -31.324   8.276   4.068  1.00 20.00    -0.205 F 
HETATM    6  F8  UNL     1     -33.395   7.729   4.644  1.00 20.00    -0.205 F 
ENDROOT
BRANCH   1   7
HETATM    7  C1  UNL     1     -32.163   8.926   1.342  1.00 20.00     0.229 C 
HETATM    8  O6  UNL     1     -31.381   8.441   0.529  1.00 20.00    -0.279 OA
HETATM    9 CL9  UNL     1     -32.443  10.619   1.611  1.00 20.00    -0.043 Cl
ENDBRANCH   1   7
TORSDOF 1
