REMARK  3 active torsions:
REMARK  status: ('A' for Active; 'I' for Inactive)
REMARK    1  A    between atoms: C2_2  and  C6_6 
REMARK    2  A    between atoms: C3_3  and  C7_7 
REMARK    3  A    between atoms: C6_6  and  C7_7 
ROOT
HETATM    1  C7  UNL     1     -33.282   6.843   2.629  1.00 20.00     0.242 C 
HETATM    2  F9  UNL     1     -32.705   5.634   2.890  1.00 20.00    -0.241 F 
ENDROOT
BRANCH   1   3
HETATM    3  C3  UNL     1     -32.237   7.943   2.635  1.00 20.00     0.157 C 
HETATM    4  C5  UNL     1     -31.986   8.672   1.341  1.00 20.00     0.094 C 
HETATM    5  O8  UNL     1     -31.613   8.226   3.658  1.00 20.00    -0.295 OA
ENDBRANCH   1   3
BRANCH   1   6
HETATM    6  C6  UNL     1     -34.414   7.063   3.629  1.00 20.00     0.072 C 
BRANCH   6   7
HETATM    7  C2  UNL     1     -34.030   6.689   5.034  1.00 20.00    -0.028 C 
HETATM    8  C1  UNL     1     -34.215   5.469   5.559  1.00 20.00    -0.035 C 
HETATM    9  C4  UNL     1     -34.825   4.328   4.815  1.00 20.00     0.036 C 
ENDBRANCH   6   7
ENDBRANCH   1   6
TORSDOF 3
