REMARK  0 active torsions:
REMARK  status: ('A' for Active; 'I' for Inactive)
ROOT
HETATM    1  C1  UNL     1     -36.888   5.618   4.249  1.00 20.00     0.015 C 
HETATM    2  C2  UNL     1     -35.778   5.796   3.828  1.00 20.00    -0.076 C 
HETATM    3  C3  UNL     1     -34.473   6.215   1.792  1.00 20.00     0.057 C 
HETATM    4  C4  UNL     1     -33.218   7.013   1.482  1.00 20.00     0.044 C 
HETATM    5  C5  UNL     1     -34.414   6.016   3.309  1.00 20.00     0.218 C 
HETATM    6  C6  UNL     1     -33.004   7.896   2.725  1.00 20.00     0.154 C 
HETATM    7  C7  UNL     1     -33.533   4.809   3.674  1.00 20.00     0.064 C 
HETATM    8  C8  UNL     1     -31.505   7.963   3.062  1.00 20.00     0.049 C 
HETATM    9  C9  UNL     1     -33.514   9.322   2.449  1.00 20.00     0.049 C 
HETATM   10  C10 UNL     1     -33.422   7.387   5.137  1.00 20.00     0.313 C 
HETATM   11  N11 UNL     1     -33.884   7.314   3.762  1.00 20.00     0.114 N 
ENDROOT
TORSDOF 0
