REMARK  1 active torsions:
REMARK  status: ('A' for Active; 'I' for Inactive)
REMARK    1  A    between atoms: C3_3  and  C7_7 
ROOT
HETATM    1  C1  UNL     1     -33.383   6.732   2.249  1.00 20.00     0.346 C 
HETATM    2  C2  UNL     1     -33.249   7.024   4.593  1.00 20.00     0.233 C 
HETATM    3  C3  UNL     1     -34.711   6.532   4.515  1.00 20.00     0.081 C 
HETATM    4  C4  UNL     1     -33.069   7.989   5.769  1.00 20.00     0.044 C 
HETATM    5  C6  UNL     1     -31.577   8.064   3.118  1.00 20.00     0.311 C 
HETATM    6  N8  UNL     1     -32.973   7.675   3.294  1.00 20.00     0.098 N 
HETATM    7  S9  UNL     1     -34.882   5.895   2.821  1.00 20.00    -0.132 SA
ENDROOT
BRANCH   3   8
HETATM    8  C7  UNL     1     -35.044   5.447   5.528  1.00 20.00     0.013 C 
HETATM    9  C5  UNL     1     -34.116   4.280   5.420  1.00 20.00     0.006 C 
ENDBRANCH   3   8
TORSDOF 1
