REMARK  0 active torsions:
REMARK  status: ('A' for Active; 'I' for Inactive)
ROOT
HETATM    1  C1  UNL     1     -32.956   8.227   2.851  1.00 20.00     0.053 A 
HETATM    2  C2  UNL     1     -33.161   7.121   2.115  1.00 20.00    -0.070 A 
HETATM    3  C3  UNL     1     -33.070   7.814   4.266  1.00 20.00     0.155 A 
HETATM    4  C4  UNL     1     -33.318   6.348   4.337  1.00 20.00     0.082 A 
HETATM    5  C5  UNL     1     -33.357   5.857   2.886  1.00 20.00    -0.002 A 
HETATM    6  C6  UNL     1     -34.578   5.693   3.801  1.00 20.00    -0.024 A 
HETATM    7  C7  UNL     1     -33.226   7.108   0.624  1.00 20.00     0.044 C 
HETATM    8  C8  UNL     1     -32.515   4.676   2.490  1.00 20.00     0.021 C 
HETATM    9  C9  UNL     1     -34.916   4.319   4.341  1.00 20.00     0.016 C 
HETATM   10  C10 UNL     1     -35.821   6.518   3.550  1.00 20.00     0.016 C 
HETATM   11  O11 UNL     1     -32.979   8.545   5.236  1.00 20.00    -0.293 OA
ENDROOT
TORSDOF 0
