REMARK  4 active torsions:
REMARK  status: ('A' for Active; 'I' for Inactive)
REMARK    1  A    between atoms: C1_1  and  C7_7 
REMARK    2  A    between atoms: C2_2  and  C9_9 
REMARK    3  A    between atoms: C4_4  and  C9_9 
REMARK    4  A    between atoms: C9_9  and  O10_10 
ROOT
HETATM    1  C1  UNL     1     -32.996   8.029   1.818  1.00 20.00    -0.094 C 
HETATM    2  C2  UNL     1     -33.232   7.164   2.618  1.00 20.00    -0.070 C 
ENDROOT
BRANCH   2   3
HETATM    3  C9  UNL     1     -33.513   6.102   3.591  1.00 20.00     0.219 C 
BRANCH   3   4
HETATM    4  C4  UNL     1     -34.173   6.683   4.805  1.00 20.00     0.007 C 
HETATM    5  C3  UNL     1     -33.685   6.570   6.046  1.00 20.00     0.010 C 
ENDBRANCH   3   4
BRANCH   3   6
HETATM    6  O10 UNL     1     -34.402   5.143   3.023  1.00 20.00    -0.380 OA
HETATM    7  H22 UNL     1     -35.214   5.620   2.793  1.00 20.00     0.211 HD
ENDBRANCH   3   6
ENDBRANCH   2   3
BRANCH   1   8
HETATM    8  C7  UNL     1     -32.715   9.066   0.859  1.00 20.00     0.020 A 
HETATM    9  C5  UNL     1     -32.392  10.441   1.401  1.00 20.00     0.024 A 
HETATM   10  C6  UNL     1     -31.301   9.598   0.810  1.00 20.00     0.024 A 
HETATM   11  C8  UNL     1     -33.482   8.976  -0.429  1.00 20.00     0.029 C 
ENDBRANCH   1   8
TORSDOF 4
