REMARK  2 active torsions:
REMARK  status: ('A' for Active; 'I' for Inactive)
REMARK    1  A    between atoms: C1_1  and  C5_5 
REMARK    2  A    between atoms: C5_5  and  O8_8 
ROOT
HETATM    1  C2  UNL     1     -34.609   6.124   6.449  1.00 20.00     0.007 C 
HETATM    2  C3  UNL     1     -34.222   7.038   5.275  1.00 20.00     0.047 C 
HETATM    3  C4  UNL     1     -34.162   4.921   5.603  1.00 20.00     0.047 C 
HETATM    4  C5  UNL     1     -34.334   5.803   4.327  1.00 20.00     0.136 C 
ENDROOT
BRANCH   4   5
HETATM    5  C1  UNL     1     -33.196   5.670   3.281  1.00 20.00     0.253 C 
HETATM    6  O7  UNL     1     -32.827   4.576   2.863  1.00 20.00    -0.276 OA
HETATM    7 CL9  UNL     1     -32.554   7.215   2.813  1.00 20.00    -0.041 Cl
ENDBRANCH   4   5
BRANCH   4   8
HETATM    8  O8  UNL     1     -35.618   5.665   3.671  1.00 20.00    -0.376 OA
HETATM    9  C6  UNL     1     -35.784   6.666   2.688  1.00 20.00     0.203 C 
ENDBRANCH   4   8
TORSDOF 2
