REMARK  1 active torsions:
REMARK  status: ('A' for Active; 'I' for Inactive)
REMARK    1  A    between atoms: C3_3  and  C9_9 
ROOT
HETATM    1  C1  UNL     1     -33.018   4.560   5.727  1.00 20.00    -0.030 C 
HETATM    2  C2  UNL     1     -32.433   4.346   4.540  1.00 20.00    -0.026 C 
HETATM    3  C4  UNL     1     -34.494   4.808   5.872  1.00 20.00     0.031 C 
HETATM    4  C5  UNL     1     -33.179   5.681   2.551  1.00 20.00     0.022 C 
HETATM    5  C6  UNL     1     -34.678   3.924   3.525  1.00 20.00     0.013 C 
HETATM    6  C7  UNL     1     -35.259   6.333   3.930  1.00 20.00     0.018 C 
HETATM    7  C8  UNL     1     -33.219   4.312   3.253  1.00 20.00     0.009 C 
HETATM    8  C9  UNL     1     -33.941   6.786   3.294  1.00 20.00     0.073 C 
HETATM    9  C10 UNL     1     -35.263   4.913   4.536  1.00 20.00    -0.010 C 
ENDROOT
BRANCH   8  10
HETATM   10  C3  UNL     1     -33.062   7.475   4.302  1.00 20.00     0.223 C 
HETATM   11  O11 UNL     1     -33.376   7.553   5.486  1.00 20.00    -0.279 OA
HETATM   12 CL12 UNL     1     -31.614   8.109   3.581  1.00 20.00    -0.043 Cl
ENDBRANCH   8  10
TORSDOF 1
