REMARK  3 active torsions:
REMARK  status: ('A' for Active; 'I' for Inactive)
REMARK    1  A    between atoms: C1_1  and  C8_8 
REMARK    2  A    between atoms: C8_8  and  C9_9 
REMARK    3  A    between atoms: C9_9  and  C10_10 
ROOT
HETATM    1  C8  UNL     1     -32.516   7.985   3.462  1.00 20.00     0.055 C 
ENDROOT
BRANCH   1   2
HETATM    2  C1  UNL     1     -33.290   6.937   4.192  1.00 20.00     0.006 C 
HETATM    3  C2  UNL     1     -33.841   5.752   3.464  1.00 20.00     0.056 C 
HETATM    4  C3  UNL     1     -34.099   4.845   4.643  1.00 20.00     0.027 C 
HETATM    5  C4  UNL     1     -34.364   5.828   5.770  1.00 20.00     0.149 C 
HETATM    6  N11 UNL     1     -33.548   7.020   5.462  1.00 20.00    -0.298 NA
ENDBRANCH   1   2
BRANCH   1   7
HETATM    7  C9  UNL     1     -32.955   8.072   1.997  1.00 20.00     0.014 C 
BRANCH   7   8
HETATM    8  C10 UNL     1     -32.173   9.088   1.121  1.00 20.00    -0.051 C 
HETATM    9  C5  UNL     1     -32.361  10.526   1.633  1.00 20.00     0.014 C 
HETATM   10  C6  UNL     1     -32.617   9.012  -0.349  1.00 20.00     0.014 C 
HETATM   11  C7  UNL     1     -30.674   8.734   1.197  1.00 20.00     0.014 C 
ENDBRANCH   7   8
ENDBRANCH   1   7
TORSDOF 3
