REMARK  0 active torsions:
REMARK  status: ('A' for Active; 'I' for Inactive)
ROOT
HETATM    1  C1  UNL     1     -33.202   7.229   4.877  1.00 20.00     0.007 C 
HETATM    2  C2  UNL     1     -31.747   8.074   3.307  1.00 20.00     0.226 C 
HETATM    3  C3  UNL     1     -33.673   6.967   6.100  1.00 20.00     0.038 C 
HETATM    4  C4  UNL     1     -33.877   6.939   3.565  1.00 20.00     0.043 C 
HETATM    5  C5  UNL     1     -33.004   7.703   2.538  1.00 20.00     0.083 C 
HETATM    6  C6  UNL     1     -33.895   5.440   3.264  1.00 20.00     0.017 C 
HETATM    7  C7  UNL     1     -33.683   8.974   2.041  1.00 20.00     0.020 C 
HETATM    8  N8  UNL     1     -31.992   7.815   4.644  1.00 20.00    -0.331 N 
HETATM    9  O9  UNL     1     -30.737   8.561   2.822  1.00 20.00    -0.273 OA
HETATM   10  H20 UNL     1     -31.339   8.037   5.387  1.00 20.00     0.168 HD
ENDROOT
TORSDOF 0
