REMARK  0 active torsions:
REMARK  status: ('A' for Active; 'I' for Inactive)
ROOT
HETATM    1  C1  UNL     1     -32.401   7.885   2.589  1.00 20.00     0.089 C 
HETATM    2  C2  UNL     1     -33.479   6.371   4.122  1.00 20.00     0.017 C 
HETATM    3  C3  UNL     1     -32.972   7.581   3.851  1.00 20.00     0.118 C 
HETATM    4  C4  UNL     1     -33.483   5.248   3.114  1.00 20.00     0.059 C 
HETATM    5  C5  UNL     1     -33.692   4.011   3.993  1.00 20.00     0.026 C 
HETATM    6  C6  UNL     1     -34.483   4.521   5.199  1.00 20.00     0.122 C 
HETATM    7  C7  UNL     1     -34.393   6.690   6.460  1.00 20.00     0.149 C 
HETATM    8  N8  UNL     1     -31.933   8.139   1.558  1.00 20.00    -0.192 NA
HETATM    9  N9  UNL     1     -34.054   5.909   5.292  1.00 20.00    -0.388 N 
ENDROOT
TORSDOF 0
