REMARK  2 active torsions:
REMARK  status: ('A' for Active; 'I' for Inactive)
REMARK    1  A    between atoms: C4_4  and  O11_11 
REMARK    2  A    between atoms: C10_10  and  O11_11 
ROOT
HETATM    1  C1  UNL     1     -33.690   6.152   4.536  1.00 20.00    -0.075 C 
HETATM    2  C2  UNL     1     -33.079   5.983   3.370  1.00 20.00    -0.049 C 
HETATM    3  C5  UNL     1     -34.556   5.019   4.911  1.00 20.00     0.034 C 
HETATM    4  C6  UNL     1     -33.459   7.481   5.130  1.00 20.00     0.037 C 
HETATM    5  C7  UNL     1     -33.407   4.701   2.721  1.00 20.00     0.037 C 
HETATM    6  C8  UNL     1     -34.157   3.968   3.853  1.00 20.00     0.009 C 
HETATM    7  C9  UNL     1     -32.344   8.040   4.215  1.00 20.00     0.041 C 
HETATM    8  C10 UNL     1     -32.299   7.161   2.946  1.00 20.00     0.157 C 
ENDROOT
BRANCH   8   9
HETATM    9  O11 UNL     1     -32.940   7.821   1.868  1.00 20.00    -0.354 OA
BRANCH   9  10
HETATM   10  C4  UNL     1     -32.314   8.901   1.409  1.00 20.00     0.125 C 
HETATM   11  C3  UNL     1     -32.828  10.132   1.390  1.00 20.00     0.037 C 
ENDBRANCH   9  10
ENDBRANCH   8   9
TORSDOF 2
