REMARK  1 active torsions:
REMARK  status: ('A' for Active; 'I' for Inactive)
REMARK    1  A    between atoms: C1_1  and  C2_2 
ROOT
HETATM    1  C2  UNL     1     -34.140   6.814   3.620  1.00 20.00     0.154 A 
HETATM    2  C3  UNL     1     -33.497   6.150   2.414  1.00 20.00     0.073 A 
HETATM    3  C4  UNL     1     -32.941   7.412   2.968  1.00 20.00     0.259 A 
HETATM    4  C5  UNL     1     -32.726   4.880   2.526  1.00 20.00     0.017 C 
HETATM    5  F7  UNL     1     -33.049   8.589   2.261  1.00 20.00    -0.205 F 
HETATM    6  F8  UNL     1     -31.722   7.431   3.608  1.00 20.00    -0.205 F 
ENDROOT
BRANCH   1   7
HETATM    7  C1  UNL     1     -34.023   6.219   4.955  1.00 20.00     0.229 C 
HETATM    8  O6  UNL     1     -34.375   5.065   5.180  1.00 20.00    -0.279 OA
HETATM    9 CL9  UNL     1     -33.347   7.328   6.109  1.00 20.00    -0.043 Cl
ENDBRANCH   1   7
TORSDOF 1
