REMARK  3 active torsions:
REMARK  status: ('A' for Active; 'I' for Inactive)
REMARK    1  A    between atoms: C7_7  and  C8_8 
REMARK    2  A    between atoms: C8_8  and  C9_9 
REMARK    3  A    between atoms: C9_9  and  N10_10 
ROOT
HETATM    1  C1  UNL     1     -32.609  10.085   0.276  1.00 20.00     0.012 C 
HETATM    2  C3  UNL     1     -32.473   9.325   1.195  1.00 20.00    -0.117 C 
HETATM    3  C7  UNL     1     -32.302   8.396   2.321  1.00 20.00     0.096 C 
ENDROOT
BRANCH   3   4
HETATM    4  C8  UNL     1     -33.524   7.490   2.522  1.00 20.00     0.061 C 
BRANCH   4   5
HETATM    5  C9  UNL     1     -33.425   6.538   3.729  1.00 20.00     0.300 C 
HETATM    6  C4  UNL     1     -33.691   7.240   4.996  1.00 20.00    -0.081 C 
HETATM    7  C2  UNL     1     -33.903   7.810   6.032  1.00 20.00     0.014 C 
BRANCH   5   8
HETATM    8  N10 UNL     1     -34.398   5.455   3.560  1.00 20.00     0.095 N 
HETATM    9  C5  UNL     1     -35.757   5.993   3.532  1.00 20.00     0.310 C 
HETATM   10  C6  UNL     1     -34.256   4.472   4.633  1.00 20.00     0.310 C 
ENDBRANCH   5   8
ENDBRANCH   4   5
ENDBRANCH   3   4
TORSDOF 3
