REMARK  0 active torsions:
REMARK  status: ('A' for Active; 'I' for Inactive)
ROOT
HETATM    1  C1  UNL     1     -34.564   4.855   4.315  1.00 20.00     0.031 A 
HETATM    2  C2  UNL     1     -33.398   5.390   2.227  1.00 20.00    -0.014 A 
HETATM    3  C3  UNL     1     -32.620   7.895   3.349  1.00 20.00    -0.013 A 
HETATM    4  C4  UNL     1     -34.876   5.258   5.559  1.00 20.00     0.117 A 
HETATM    5  C5  UNL     1     -33.788   7.262   5.423  1.00 20.00     0.128 A 
HETATM    6  C6  UNL     1     -33.763   5.726   3.475  1.00 20.00    -0.027 A 
HETATM    7  C7  UNL     1     -33.346   6.999   4.027  1.00 20.00    -0.012 A 
HETATM    8  C8  UNL     1     -32.560   6.277   1.347  1.00 20.00     0.032 A 
HETATM    9  C9  UNL     1     -32.176   7.648   1.936  1.00 20.00     0.032 A 
HETATM   10  N10 UNL     1     -34.503   6.452   6.145  1.00 20.00    -0.272 NA
ENDROOT
TORSDOF 0
