REMARK  1 active torsions:
REMARK  status: ('A' for Active; 'I' for Inactive)
REMARK    1  A    between atoms: C3_3  and  C7_7 
ROOT
HETATM    1  C1  UNL     1     -34.985   5.600   5.043  1.00 20.00    -0.030 C 
HETATM    2  C2  UNL     1     -34.687   5.182   3.805  1.00 20.00    -0.026 C 
HETATM    3  C4  UNL     1     -34.390   6.827   5.668  1.00 20.00     0.027 C 
HETATM    4  C5  UNL     1     -33.219   7.412   4.875  1.00 20.00     0.018 C 
HETATM    5  C6  UNL     1     -33.733   5.906   2.885  1.00 20.00     0.016 C 
HETATM    6  C7  UNL     1     -33.491   7.354   3.370  1.00 20.00     0.080 C 
HETATM    7  C8  UNL     1     -32.455   5.070   2.745  1.00 20.00     0.015 C 
ENDROOT
BRANCH   6   8
HETATM    8  C3  UNL     1     -32.389   8.027   2.608  1.00 20.00     0.223 C 
HETATM    9  O9  UNL     1     -31.227   8.010   3.005  1.00 20.00    -0.279 OA
HETATM   10 CL10 UNL     1     -32.967   8.792   1.160  1.00 20.00    -0.043 Cl
ENDBRANCH   6   8
TORSDOF 1
