REMARK  2 active torsions:
REMARK  status: ('A' for Active; 'I' for Inactive)
REMARK    1  A    between atoms: C1_1  and  C5_5 
REMARK    2  A    between atoms: C5_5  and  C6_6 
ROOT
HETATM    1  C2  UNL     1     -34.290   7.033   5.914  1.00 20.00     0.003 C 
HETATM    2  C3  UNL     1     -32.904   7.231   5.276  1.00 20.00     0.026 C 
HETATM    3  C4  UNL     1     -34.910   7.608   4.629  1.00 20.00     0.026 C 
HETATM    4  C5  UNL     1     -33.592   7.246   3.874  1.00 20.00     0.110 C 
ENDROOT
BRANCH   4   5
HETATM    5  C1  UNL     1     -33.072   8.333   2.892  1.00 20.00     0.249 C 
HETATM    6  O7  UNL     1     -31.906   8.402   2.516  1.00 20.00    -0.306 OA
ENDBRANCH   4   5
BRANCH   4   7
HETATM    7  C6  UNL     1     -33.632   5.873   3.199  1.00 20.00     0.401 C 
HETATM    8  F8  UNL     1     -32.402   5.527   2.796  1.00 20.00    -0.170 F 
HETATM    9  F9  UNL     1     -34.083   4.954   4.064  1.00 20.00    -0.170 F 
HETATM   10  F10 UNL     1     -34.447   5.911   2.136  1.00 20.00    -0.170 F 
ENDBRANCH   4   7
TORSDOF 2
