REMARK  2 active torsions:
REMARK  status: ('A' for Active; 'I' for Inactive)
REMARK    1  A    between atoms: C1_1  and  C8_8 
REMARK    2  A    between atoms: C3_3  and  C9_9 
ROOT
HETATM    1  C4  UNL     1     -32.585   7.291   4.338  1.00 20.00     0.009 C 
HETATM    2  C5  UNL     1     -33.495   5.702   2.573  1.00 20.00     0.009 C 
HETATM    3  C6  UNL     1     -33.993   7.459   4.913  1.00 20.00     0.012 C 
HETATM    4  C7  UNL     1     -34.900   5.857   3.160  1.00 20.00     0.012 C 
HETATM    5  C8  UNL     1     -32.570   6.875   2.872  1.00 20.00     0.008 C 
HETATM    6  C9  UNL     1     -34.915   6.281   4.623  1.00 20.00     0.047 C 
ENDROOT
BRANCH   5   7
HETATM    7  C1  UNL     1     -32.956   8.067   2.012  1.00 20.00    -0.026 C 
HETATM    8  C2  UNL     1     -32.144   8.626   1.103  1.00 20.00    -0.035 C 
HETATM    9  C10 UNL     1     -32.523   9.796   0.257  1.00 20.00     0.036 C 
ENDBRANCH   5   7
BRANCH   6  10
HETATM   10  C3  UNL     1     -34.514   5.114   5.510  1.00 20.00     0.235 C 
HETATM   11  O11 UNL     1     -34.196   4.012   5.075  1.00 20.00    -0.306 OA
ENDBRANCH   6  10
TORSDOF 2
