REMARK  0 active torsions:
REMARK  status: ('A' for Active; 'I' for Inactive)
ROOT
HETATM    1  C1  UNL     1     -32.592   9.237   0.945  1.00 20.00     0.012 C 
HETATM    2  C2  UNL     1     -32.774   8.415   1.801  1.00 20.00    -0.112 C 
HETATM    3  C3  UNL     1     -34.337   5.360   3.436  1.00 20.00    -0.015 C 
HETATM    4  C4  UNL     1     -34.308   5.651   4.745  1.00 20.00    -0.020 C 
HETATM    5  C5  UNL     1     -33.881   7.019   5.169  1.00 20.00     0.156 C 
HETATM    6  C6  UNL     1     -33.909   6.289   2.339  1.00 20.00     0.045 C 
HETATM    7  C7  UNL     1     -33.596   8.052   4.098  1.00 20.00     0.101 C 
HETATM    8  C8  UNL     1     -32.998   7.408   2.851  1.00 20.00     0.075 C 
HETATM    9  C9  UNL     1     -34.711   4.685   5.813  1.00 20.00     0.052 C 
HETATM   10  O10 UNL     1     -33.825   7.315   6.362  1.00 20.00    -0.293 OA
ENDROOT
TORSDOF 0
