REMARK  1 active torsions:
REMARK  status: ('A' for Active; 'I' for Inactive)
REMARK    1  A    between atoms: C3_3  and  C7_7 
ROOT
HETATM    1  C1  UNL     1     -34.284   5.473   5.190  1.00 20.00    -0.020 C 
HETATM    2  C2  UNL     1     -33.801   4.874   4.088  1.00 20.00    -0.086 C 
HETATM    3  C4  UNL     1     -33.311   5.658   2.896  1.00 20.00     0.045 C 
HETATM    4  C5  UNL     1     -34.267   7.712   4.015  1.00 20.00     0.020 C 
HETATM    5  C6  UNL     1     -34.419   6.965   5.351  1.00 20.00     0.005 C 
HETATM    6  C7  UNL     1     -33.116   7.154   3.176  1.00 20.00     0.059 C 
HETATM    7  C8  UNL     1     -33.725   3.380   3.970  1.00 20.00     0.043 C 
HETATM    8  C10 UNL     1     -33.419   7.468   6.394  1.00 20.00     0.014 C 
ENDROOT
BRANCH   6   9
HETATM    9  C3  UNL     1     -33.007   7.906   1.882  1.00 20.00     0.127 C 
HETATM   10  C9  UNL     1     -32.133   9.131   1.883  1.00 20.00     0.091 C 
HETATM   11  O11 UNL     1     -33.600   7.537   0.870  1.00 20.00    -0.298 OA
ENDBRANCH   6   9
TORSDOF 1
