REMARK  3 active torsions:
REMARK  status: ('A' for Active; 'I' for Inactive)
REMARK    1  A    between atoms: C1_1  and  C4_4 
REMARK    2  A    between atoms: C3_3  and  C7_7 
REMARK    3  A    between atoms: C7_7  and  O9_9 
ROOT
HETATM    1  C1  UNL     1     -32.795   8.282   2.313  1.00 20.00    -0.066 C 
HETATM    2  C2  UNL     1     -32.782   8.587   1.151  1.00 20.00    -0.108 C 
HETATM    3  C5  UNL     1     -32.767   8.958  -0.263  1.00 20.00     0.112 C 
ENDROOT
BRANCH   1   4
HETATM    4  C4  UNL     1     -32.810   7.918   3.698  1.00 20.00     0.148 A 
HETATM    5  C3  UNL     1     -33.262   6.536   4.124  1.00 20.00     0.194 A 
HETATM    6  O8  UNL     1     -34.135   7.669   4.199  1.00 20.00    -0.354 OA
HETATM    7  C6  UNL     1     -31.965   8.728   4.629  1.00 20.00     0.063 C 
BRANCH   5   8
HETATM    8  C7  UNL     1     -33.698   5.485   3.165  1.00 20.00     0.200 C 
BRANCH   8   9
HETATM    9  O9  UNL     1     -32.558   4.859   2.575  1.00 20.00    -0.398 OA
HETATM   10  H19 UNL     1     -32.900   4.189   1.965  1.00 20.00     0.209 HD
ENDBRANCH   8   9
ENDBRANCH   5   8
ENDBRANCH   1   4
TORSDOF 3
