REMARK  1 active torsions:
REMARK  status: ('A' for Active; 'I' for Inactive)
REMARK    1  A    between atoms: C1_1  and  C2_2 
ROOT
HETATM    1  C2  UNL     1     -32.613   6.940   2.622  1.00 20.00     0.084 A 
HETATM    2  C3  UNL     1     -32.831   8.350   2.127  1.00 20.00     0.018 A 
HETATM    3  C4  UNL     1     -31.575   8.016   2.907  1.00 20.00     0.048 A 
HETATM    4  C6  UNL     1     -32.825   8.635   0.664  1.00 20.00     0.012 C 
HETATM    5  C7  UNL     1     -31.425   8.586   4.288  1.00 20.00     0.034 C 
HETATM    6 CL9  UNL     1     -30.031   7.858   2.036  1.00 20.00    -0.118 Cl
ENDROOT
BRANCH   1   7
HETATM    7  C1  UNL     1     -33.467   6.419   3.697  1.00 20.00     0.129 C 
HETATM    8  C5  UNL     1     -33.854   4.967   3.609  1.00 20.00     0.091 C 
HETATM    9  O8  UNL     1     -33.846   7.133   4.624  1.00 20.00    -0.298 OA
ENDBRANCH   1   7
TORSDOF 1
