REMARK  2 active torsions:
REMARK  status: ('A' for Active; 'I' for Inactive)
REMARK    1  A    between atoms: C1_1  and  C5_5 
REMARK    2  A    between atoms: C1_1  and  O10_10 
ROOT
HETATM    1  C2  UNL     1     -33.324   7.859   4.387  1.00 20.00     0.015 C 
HETATM    2  C3  UNL     1     -31.875   8.199   4.006  1.00 20.00     0.006 C 
HETATM    3  C4  UNL     1     -32.915   9.202   1.809  1.00 20.00     0.011 A 
HETATM    4  C5  UNL     1     -33.913   7.165   3.144  1.00 20.00     0.090 C 
HETATM    5  C6  UNL     1     -31.888   8.356   2.514  1.00 20.00    -0.009 A 
HETATM    6  C7  UNL     1     -33.128   7.720   1.985  1.00 20.00     0.004 A 
ENDROOT
BRANCH   4   7
HETATM    7  C1  UNL     1     -33.773   5.678   3.257  1.00 20.00     0.263 C 
HETATM    8  O9  UNL     1     -33.134   4.989   2.473  1.00 20.00    -0.265 OA
BRANCH   7   9
HETATM    9  O10 UNL     1     -34.459   5.236   4.349  1.00 20.00    -0.326 OA
HETATM   10  C8  UNL     1     -34.410   3.824   4.576  1.00 20.00     0.213 C 
ENDBRANCH   7   9
ENDBRANCH   4   7
TORSDOF 2
