REMARK  4 active torsions:
REMARK  status: ('A' for Active; 'I' for Inactive)
REMARK    1  A    between atoms: C1_1  and  C2_2 
REMARK    2  A    between atoms: C1_1  and  C3_3 
REMARK    3  A    between atoms: C2_2  and  C8_8 
REMARK    4  A    between atoms: C3_3  and  C6_6 
ROOT
HETATM    1  C1  UNL     1     -33.203   6.266   3.039  1.00 20.00     0.125 C 
HETATM    2 CL11 UNL     1     -32.742   4.990   1.961  1.00 20.00    -0.076 Cl
ENDROOT
BRANCH   1   3
HETATM    3  C2  UNL     1     -34.023   6.095   4.107  1.00 20.00     0.174 C 
HETATM    4  O9  UNL     1     -34.615   5.060   4.530  1.00 20.00    -0.291 OA
BRANCH   3   5
HETATM    5  C8  UNL     1     -34.314   7.279   5.043  1.00 20.00     0.080 C 
HETATM    6  C7  UNL     1     -33.319   7.380   6.198  1.00 20.00     0.013 C 
ENDBRANCH   3   5
ENDBRANCH   1   3
BRANCH   1   7
HETATM    7  C3  UNL     1     -32.579   7.600   2.765  1.00 20.00     0.178 C 
HETATM    8  O10 UNL     1     -31.818   8.156   3.547  1.00 20.00    -0.291 OA
BRANCH   7   9
HETATM    9  C6  UNL     1     -32.897   8.245   1.457  1.00 20.00     0.061 A 
HETATM   10  C4  UNL     1     -32.380   9.620   1.196  1.00 20.00     0.013 A 
HETATM   11  C5  UNL     1     -31.792   8.445   0.475  1.00 20.00     0.013 A 
ENDBRANCH   7   9
ENDBRANCH   1   7
TORSDOF 4
