REMARK  1 active torsions:
REMARK  status: ('A' for Active; 'I' for Inactive)
REMARK    1  A    between atoms: C1_1  and  C3_3 
ROOT
HETATM    1  C2  UNL     1     -35.153   5.642   3.350  1.00 20.00     0.030 A 
HETATM    2  C3  UNL     1     -33.681   5.940   3.455  1.00 20.00     0.070 A 
HETATM    3  C4  UNL     1     -34.236   4.655   4.015  1.00 20.00     0.070 A 
HETATM    4 BR7  UNL     1     -34.409   4.401   5.899  1.00 20.00    -0.090 Br
ENDROOT
BRANCH   2   5
HETATM    5  C1  UNL     1     -33.228   7.031   4.327  1.00 20.00     0.128 C 
HETATM    6  C5  UNL     1     -32.064   7.849   3.838  1.00 20.00     0.091 C 
HETATM    7  O6  UNL     1     -33.774   7.265   5.404  1.00 20.00    -0.298 OA
ENDBRANCH   2   5
TORSDOF 1
