REMARK  2 active torsions:
REMARK  status: ('A' for Active; 'I' for Inactive)
REMARK    1  A    between atoms: C1_1  and  C5_5 
REMARK    2  A    between atoms: C6_6  and  C9_9 
ROOT
HETATM    1  C2  UNL     1     -33.775   4.937   3.250  1.00 20.00     0.012 C 
HETATM    2  C3  UNL     1     -32.693   5.883   2.746  1.00 20.00     0.006 C 
HETATM    3  C4  UNL     1     -34.167   7.207   4.096  1.00 20.00     0.016 C 
HETATM    4  C5  UNL     1     -34.519   5.731   4.327  1.00 20.00     0.047 C 
HETATM    5  C6  UNL     1     -33.386   7.240   2.780  1.00 20.00    -0.010 C 
ENDROOT
BRANCH   5   6
HETATM    6  C9  UNL     1     -32.419   8.408   2.685  1.00 20.00    -0.019 C 
HETATM    7  C7  UNL     1     -31.175   8.156   3.540  1.00 20.00     0.010 C 
HETATM    8  C8  UNL     1     -32.020   8.668   1.232  1.00 20.00     0.010 C 
ENDBRANCH   5   6
BRANCH   4   9
HETATM    9  C1  UNL     1     -34.083   5.302   5.694  1.00 20.00     0.235 C 
HETATM   10  O10 UNL     1     -34.851   4.852   6.538  1.00 20.00    -0.306 OA
ENDBRANCH   4   9
TORSDOF 2
