REMARK  2 active torsions:
REMARK  status: ('A' for Active; 'I' for Inactive)
REMARK    1  A    between atoms: C2_2  and  C5_5 
REMARK    2  A    between atoms: C3_3  and  C6_6 
REMARK       I    between atoms: C3_3  and  N9_9 
ROOT
HETATM    1  C4  UNL     1     -31.631   8.690   3.493  1.00 20.00     0.024 A 
HETATM    2  C5  UNL     1     -31.707   8.312   2.040  1.00 20.00     0.021 A 
HETATM    3  C6  UNL     1     -31.842   7.274   3.100  1.00 20.00     0.086 A 
ENDROOT
BRANCH   3   4
HETATM    4  C3  UNL     1     -33.188   6.655   3.384  1.00 20.00     0.224 C 
HETATM    5  N9  UNL     1     -33.654   6.745   4.696  1.00 20.00    -0.360 N 
HETATM    6  C7  UNL     1     -34.937   6.190   5.107  1.00 20.00     0.152 C 
HETATM    7  C8  UNL     1     -32.890   7.402   5.753  1.00 20.00     0.152 C 
HETATM    8  O10 UNL     1     -33.804   6.108   2.465  1.00 20.00    -0.273 OA
ENDBRANCH   3   4
BRANCH   2   9
HETATM    9  C2  UNL     1     -32.844   8.766   1.254  1.00 20.00    -0.031 C 
HETATM   10  C1  UNL     1     -33.230  10.043   1.164  1.00 20.00     0.007 C 
ENDBRANCH   2   9
TORSDOF 2
