REMARK  2 active torsions:
REMARK  status: ('A' for Active; 'I' for Inactive)
REMARK    1  A    between atoms: C6_6  and  C7_7 
REMARK    2  A    between atoms: C6_6  and  N8_8 
ROOT
HETATM    1  C1  UNL     1     -34.759   6.298   4.372  1.00 20.00     0.283 C 
HETATM    2  C2  UNL     1     -34.882   5.382   5.585  1.00 20.00     0.105 C 
HETATM    3  C3  UNL     1     -33.485   4.504   3.535  1.00 20.00     0.346 C 
HETATM    4  N8  UNL     1     -33.491   5.956   3.718  1.00 20.00     0.098 N 
HETATM    5  S9  UNL     1     -34.292   3.778   4.992  1.00 20.00    -0.138 SA
ENDROOT
BRANCH   4   6
HETATM    6  C6  UNL     1     -33.314   6.666   2.459  1.00 20.00     0.277 C 
BRANCH   6   7
HETATM    7  C7  UNL     1     -32.777   8.085   2.676  1.00 20.00     0.006 C 
HETATM    8  C4  UNL     1     -31.419   8.091   3.380  1.00 20.00     0.011 C 
HETATM    9  C5  UNL     1     -32.709   8.880   1.371  1.00 20.00     0.011 C 
ENDBRANCH   6   7
ENDBRANCH   4   6
TORSDOF 2
