REMARK  0 active torsions:
REMARK  status: ('A' for Active; 'I' for Inactive)
ROOT
HETATM    1  C1  UNL     1     -32.811   7.650   4.956  1.00 20.00     0.110 A 
HETATM    2  C2  UNL     1     -33.504   6.453   4.994  1.00 20.00     0.007 A 
HETATM    3  C3  UNL     1     -33.809   5.994   3.691  1.00 20.00     0.002 A 
HETATM    4  C4  UNL     1     -33.294   6.925   2.883  1.00 20.00     0.048 A 
HETATM    5  C5  UNL     1     -34.021   5.511   5.922  1.00 20.00     0.124 A 
HETATM    6  C6  UNL     1     -32.910   7.647   1.713  1.00 20.00     0.048 A 
HETATM    7  C7  UNL     1     -32.345   8.580   2.534  1.00 20.00     0.099 A 
HETATM    8  C8  UNL     1     -34.536   4.733   3.803  1.00 20.00     0.190 A 
HETATM    9  N9  UNL     1     -34.615   4.517   5.315  1.00 20.00    -0.296 NA
HETATM   10  N10 UNL     1     -32.726   7.865   3.629  1.00 20.00    -0.331 N 
ENDROOT
TORSDOF 0
