REMARK  0 active torsions:
REMARK  status: ('A' for Active; 'I' for Inactive)
ROOT
HETATM    1  C1  UNL     1     -33.212   6.970   2.162  1.00 20.00     0.459 C 
HETATM    2  C2  UNL     1     -31.514   8.334   2.818  1.00 20.00     0.090 C 
HETATM    3  C3  UNL     1     -32.156   8.882   1.526  1.00 20.00     0.090 C 
HETATM    4  C4  UNL     1     -32.054   8.975   4.109  1.00 20.00     0.049 C 
HETATM    5  C5  UNL     1     -29.987   8.374   2.846  1.00 20.00     0.049 C 
HETATM    6  C6  UNL     1     -32.384  10.392   1.508  1.00 20.00     0.049 C 
HETATM    7  C7  UNL     1     -31.422   8.471   0.238  1.00 20.00     0.049 C 
HETATM    8  O8  UNL     1     -31.940   6.959   2.813  1.00 20.00    -0.322 OA
HETATM    9  O9  UNL     1     -33.435   8.220   1.510  1.00 20.00    -0.322 OA
HETATM   10  F10 UNL     1     -34.169   6.821   3.113  1.00 20.00    -0.189 F 
ENDROOT
TORSDOF 0
