REMARK  1 active torsions:
REMARK  status: ('A' for Active; 'I' for Inactive)
REMARK    1  A    between atoms: C1_1  and  C2_2 
ROOT
HETATM    1  C2  UNL     1     -32.734   8.249   1.969  1.00 20.00     0.084 A 
HETATM    2  C3  UNL     1     -32.594   6.774   2.259  1.00 20.00     0.018 A 
HETATM    3  C4  UNL     1     -31.761   7.778   3.036  1.00 20.00     0.048 A 
HETATM    4  C6  UNL     1     -33.723   6.021   2.878  1.00 20.00     0.012 C 
HETATM    5  C7  UNL     1     -32.064   8.087   4.473  1.00 20.00     0.034 C 
HETATM    6 CL9  UNL     1     -30.016   7.776   2.665  1.00 20.00    -0.118 Cl
ENDROOT
BRANCH   1   7
HETATM    7  C1  UNL     1     -32.255   8.774   0.683  1.00 20.00     0.129 C 
HETATM    8  C5  UNL     1     -33.070   9.872   0.055  1.00 20.00     0.091 C 
HETATM    9  O8  UNL     1     -31.237   8.338   0.147  1.00 20.00    -0.298 OA
ENDBRANCH   1   7
TORSDOF 1
