REMARK  1 active torsions:
REMARK  status: ('A' for Active; 'I' for Inactive)
REMARK    1  A    between atoms: C1_1  and  C7_7 
ROOT
HETATM    1  C1  UNL     1     -32.797   7.552   2.961  1.00 20.00    -0.057 C 
HETATM    2  C2  UNL     1     -32.300   8.353   2.218  1.00 20.00     0.276 C 
HETATM    3  O10 UNL     1     -31.812   9.137   1.490  1.00 20.00    -0.274 OA
ENDROOT
BRANCH   1   4
HETATM    4  C7  UNL     1     -33.337   6.682   3.768  1.00 20.00     0.023 A 
HETATM    5  C5  UNL     1     -33.868   7.149   5.047  1.00 20.00     0.021 A 
HETATM    6  C3  UNL     1     -34.430   6.274   5.900  1.00 20.00     0.002 A 
HETATM    7  C4  UNL     1     -34.528   4.859   5.585  1.00 20.00     0.001 A 
HETATM    8  C6  UNL     1     -34.061   4.359   4.427  1.00 20.00     0.012 A 
HETATM    9  C8  UNL     1     -33.431   5.242   3.437  1.00 20.00    -0.027 A 
HETATM   10  C9  UNL     1     -32.972   4.714   2.288  1.00 20.00     0.025 C 
ENDBRANCH   1   4
TORSDOF 1
