REMARK  0 active torsions:
REMARK  status: ('A' for Active; 'I' for Inactive)
ROOT
HETATM    1  C1  UNL     1     -32.668   7.454   2.455  1.00 20.00     0.100 C 
HETATM    2  C2  UNL     1     -33.387   5.117   2.386  1.00 20.00     0.042 A 
HETATM    3  C3  UNL     1     -33.925   4.012   3.047  1.00 20.00     0.118 A 
HETATM    4  C4  UNL     1     -33.229   6.307   3.093  1.00 20.00     0.054 A 
HETATM    5  C5  UNL     1     -33.625   6.331   4.415  1.00 20.00    -0.013 A 
HETATM    6  C6  UNL     1     -34.148   5.176   4.986  1.00 20.00     0.042 A 
HETATM    7  C7  UNL     1     -33.543   7.440   5.409  1.00 20.00     0.042 C 
HETATM    8  C8  UNL     1     -34.464   5.397   6.437  1.00 20.00     0.060 C 
HETATM    9  C9  UNL     1     -34.502   6.931   6.497  1.00 20.00     0.011 C 
HETATM   10  N10 UNL     1     -32.212   8.386   1.936  1.00 20.00    -0.191 NA
HETATM   11  N11 UNL     1     -34.311   4.006   4.346  1.00 20.00    -0.265 NA
ENDROOT
TORSDOF 0
