REMARK  1 active torsions:
REMARK  status: ('A' for Active; 'I' for Inactive)
REMARK    1  A    between atoms: C3_3  and  C7_7 
ROOT
HETATM    1  C1  UNL     1     -33.510   6.877   5.291  1.00 20.00    -0.007 C 
HETATM    2  C2  UNL     1     -34.030   5.712   4.879  1.00 20.00     0.008 C 
HETATM    3  C4  UNL     1     -32.861   7.855   4.356  1.00 20.00     0.042 C 
HETATM    4  C5  UNL     1     -33.992   5.244   3.454  1.00 20.00     0.051 C 
HETATM    5  C6  UNL     1     -33.011   6.048   2.595  1.00 20.00     0.019 C 
HETATM    6  C7  UNL     1     -33.126   7.547   2.876  1.00 20.00     0.076 C 
HETATM    7 CL9  UNL     1     -34.783   4.638   6.004  1.00 20.00    -0.089 Cl
ENDROOT
BRANCH   6   8
HETATM    8  C3  UNL     1     -32.166   8.312   2.013  1.00 20.00     0.223 C 
HETATM    9  O8  UNL     1     -31.028   8.575   2.391  1.00 20.00    -0.279 OA
HETATM   10 CL10 UNL     1     -32.866   8.748   0.484  1.00 20.00    -0.043 Cl
ENDBRANCH   6   8
TORSDOF 1
