REMARK  1 active torsions:
REMARK  status: ('A' for Active; 'I' for Inactive)
REMARK    1  A    between atoms: C1_1  and  C3_3 
ROOT
HETATM    1  C2  UNL     1     -33.852   3.922   3.587  1.00 20.00     0.090 C 
HETATM    2  C3  UNL     1     -33.813   6.347   2.400  1.00 20.00     0.195 C 
HETATM    3  C4  UNL     1     -34.493   4.870   4.594  1.00 20.00     0.054 C 
HETATM    4  C5  UNL     1     -33.546   5.313   5.707  1.00 20.00     0.022 C 
HETATM    5  S7  UNL     1     -32.779   4.868   2.473  1.00 20.00    -0.143 SA
HETATM    6  S8  UNL     1     -35.110   6.308   3.661  1.00 20.00    -0.139 SA
ENDROOT
BRANCH   2   7
HETATM    7  C1  UNL     1     -32.953   7.540   2.632  1.00 20.00     0.242 C 
HETATM    8  O6  UNL     1     -32.324   7.690   3.675  1.00 20.00    -0.278 OA
HETATM    9 CL9  UNL     1     -32.970   8.632   1.280  1.00 20.00    -0.042 Cl
ENDBRANCH   2   7
TORSDOF 1
