REMARK  1 active torsions:
REMARK  status: ('A' for Active; 'I' for Inactive)
REMARK    1  A    between atoms: C4_4  and  O11_11 
ROOT
HETATM    1  C1  UNL     1     -33.960   6.845   5.711  1.00 20.00     0.034 C 
HETATM    2  C2  UNL     1     -33.127   7.748   5.156  1.00 20.00     0.003 C 
HETATM    3  C3  UNL     1     -34.326   5.667   3.598  1.00 20.00     0.017 C 
HETATM    4  C4  UNL     1     -34.403   5.679   4.944  1.00 20.00     0.062 C 
HETATM    5  C5  UNL     1     -32.409   8.216   1.736  1.00 20.00     0.004 C 
HETATM    6  C6  UNL     1     -33.130   6.891   1.574  1.00 20.00     0.065 C 
HETATM    7  C7  UNL     1     -33.798   6.897   2.929  1.00 20.00     0.045 C 
HETATM    8  C8  UNL     1     -32.651   7.480   3.763  1.00 20.00     0.139 C 
HETATM    9  C9  UNL     1     -31.996   9.004   0.537  1.00 20.00     0.065 C 
HETATM   10  N10 UNL     1     -32.185   8.625   2.959  1.00 20.00    -0.289 NA
ENDROOT
BRANCH   4  11
HETATM   11  O11 UNL     1     -34.932   4.654   5.692  1.00 20.00    -0.361 OA
HETATM   12  H22 UNL     1     -35.199   3.927   5.117  1.00 20.00     0.217 HD
ENDBRANCH   4  11
TORSDOF 1
