REMARK  0 active torsions:
REMARK  status: ('A' for Active; 'I' for Inactive)
ROOT
HETATM    1  C1  UNL     1     -33.873   5.975   4.804  1.00 20.00     0.251 C 
HETATM    2  C2  UNL     1     -33.109   7.126   4.177  1.00 20.00     0.251 C 
HETATM    3  C3  UNL     1     -34.645   5.312   3.677  1.00 20.00     0.271 C 
HETATM    4  C4  UNL     1     -32.338   6.509   3.025  1.00 20.00     0.271 C 
HETATM    5  F5  UNL     1     -34.726   6.435   5.748  1.00 20.00    -0.242 F 
HETATM    6  F6  UNL     1     -33.999   8.031   3.684  1.00 20.00    -0.242 F 
HETATM    7  F7  UNL     1     -35.714   6.086   3.350  1.00 20.00    -0.235 F 
HETATM    8  F8  UNL     1     -31.969   7.466   2.142  1.00 20.00    -0.235 F 
HETATM    9  S9  UNL     1     -33.478   5.311   2.282  1.00 20.00    -0.089 SA
ENDROOT
TORSDOF 0
