REMARK  2 active torsions:
REMARK  status: ('A' for Active; 'I' for Inactive)
REMARK    1  A    between atoms: C4_4  and  C5_5 
REMARK    2  A    between atoms: C5_5  and  C8_8 
ROOT
HETATM    1  C1  UNL     1     -34.458   4.507   3.833  1.00 20.00    -0.027 A 
HETATM    2  C2  UNL     1     -33.453   4.391   2.953  1.00 20.00    -0.026 A 
HETATM    3  C3  UNL     1     -34.121   7.004   3.898  1.00 20.00    -0.012 A 
HETATM    4  C4  UNL     1     -33.117   6.879   3.018  1.00 20.00    -0.003 A 
HETATM    5  C6  UNL     1     -34.905   5.824   4.401  1.00 20.00     0.054 A 
HETATM    6  C7  UNL     1     -32.669   5.567   2.443  1.00 20.00     0.069 A 
ENDROOT
BRANCH   4   7
HETATM    7  C5  UNL     1     -32.422   8.097   2.596  1.00 20.00     0.261 C 
HETATM    8  O9  UNL     1     -31.844   8.811   3.418  1.00 20.00    -0.283 OA
BRANCH   7   9
HETATM    9  C8  UNL     1     -32.446   8.432   1.131  1.00 20.00     0.455 C 
HETATM   10  F10 UNL     1     -33.135   7.516   0.403  1.00 20.00    -0.163 F 
HETATM   11  F11 UNL     1     -31.195   8.489   0.607  1.00 20.00    -0.163 F 
HETATM   12  F12 UNL     1     -33.027   9.636   0.898  1.00 20.00    -0.163 F 
ENDBRANCH   7   9
ENDBRANCH   4   7
TORSDOF 2
