REMARK  1 active torsions:
REMARK  status: ('A' for Active; 'I' for Inactive)
REMARK    1  A    between atoms: C5_5  and  C9_9 
ROOT
HETATM    1  C1  UNL     1     -33.581   4.802   2.821  1.00 20.00    -0.029 C 
HETATM    2  C2  UNL     1     -33.954   5.993   2.313  1.00 20.00    -0.021 C 
HETATM    3  C3  UNL     1     -33.641   7.575   4.178  1.00 20.00    -0.021 C 
HETATM    4  C4  UNL     1     -33.547   6.757   5.240  1.00 20.00    -0.024 C 
HETATM    5  C6  UNL     1     -33.828   4.445   4.278  1.00 20.00     0.036 C 
HETATM    6  C7  UNL     1     -34.646   7.010   3.200  1.00 20.00     0.045 C 
HETATM    7  C8  UNL     1     -34.504   5.593   5.075  1.00 20.00     0.026 C 
HETATM    8  C9  UNL     1     -35.561   6.290   4.206  1.00 20.00     0.106 C 
ENDROOT
BRANCH   8   9
HETATM    9  C5  UNL     1     -36.629   5.389   3.613  1.00 20.00     0.178 C 
HETATM   10  O10 UNL     1     -36.935   4.383   4.312  1.00 20.00    -0.648 OA
HETATM   11  O11 UNL     1     -37.074   5.762   2.492  1.00 20.00    -0.648 OA
ENDBRANCH   8   9
TORSDOF 1
