REMARK  1 active torsions:
REMARK  status: ('A' for Active; 'I' for Inactive)
REMARK    1  A    between atoms: C2_2  and  C3_3 
ROOT
HETATM    1  C1  UNL     1     -31.830   8.763   3.155  1.00 20.00    -0.015 C 
HETATM    2  C2  UNL     1     -32.832   8.731   2.259  1.00 20.00    -0.012 C 
HETATM    3  C4  UNL     1     -31.951   7.998   4.458  1.00 20.00     0.033 C 
HETATM    4  C5  UNL     1     -34.459   8.282   4.120  1.00 20.00     0.016 C 
HETATM    5  C6  UNL     1     -34.050   7.944   2.638  1.00 20.00     0.030 C 
HETATM    6  C7  UNL     1     -33.319   7.281   4.506  1.00 20.00    -0.002 C 
HETATM    7  C8  UNL     1     -33.723   6.482   3.189  1.00 20.00    -0.036 C 
HETATM    8  C10 UNL     1     -34.947   5.556   3.333  1.00 20.00     0.016 C 
HETATM    9  C11 UNL     1     -32.620   5.676   2.489  1.00 20.00     0.016 C 
ENDROOT
BRANCH   2  10
HETATM   10  C3  UNL     1     -32.716   9.448   0.994  1.00 20.00     0.151 C 
HETATM   11  C9  UNL     1     -31.587   9.076   0.061  1.00 20.00     0.096 C 
HETATM   12  O12 UNL     1     -33.516  10.343   0.697  1.00 20.00    -0.293 OA
ENDBRANCH   2  10
TORSDOF 1
