REMARK  1 active torsions:
REMARK  status: ('A' for Active; 'I' for Inactive)
REMARK    1  A    between atoms: C3_3  and  C6_6 
ROOT
HETATM    1  C1  UNL     1     -32.438   8.332   2.031  1.00 20.00    -0.154 C 
HETATM    2  C5  UNL     1     -32.217   8.547   0.770  1.00 20.00     0.096 C 
HETATM    3  C6  UNL     1     -32.656   8.121   3.295  1.00 20.00     0.061 C 
ENDROOT
BRANCH   3   4
HETATM    4  C3  UNL     1     -33.361   6.966   3.764  1.00 20.00    -0.010 A 
HETATM    5  C2  UNL     1     -33.259   5.716   3.308  1.00 20.00     0.023 A 
HETATM    6  C4  UNL     1     -34.220   4.913   4.082  1.00 20.00     0.290 A 
HETATM    7  C8  UNL     1     -32.422   5.113   2.243  1.00 20.00     0.055 C 
HETATM    8  O10 UNL     1     -34.409   3.716   3.952  1.00 20.00    -0.260 OA
HETATM    9  O11 UNL     1     -34.873   5.725   4.963  1.00 20.00    -0.308 OA
HETATM   10  C7  UNL     1     -34.366   7.064   4.854  1.00 20.00     0.162 A 
HETATM   11  C9  UNL     1     -33.793   7.470   6.205  1.00 20.00     0.045 C 
ENDBRANCH   3   4
TORSDOF 1
