REMARK  1 active torsions:
REMARK  status: ('A' for Active; 'I' for Inactive)
REMARK    1  A    between atoms: C2_2  and  C3_3 
ROOT
HETATM    1  C1  UNL     1     -34.087   8.247   1.849  1.00 20.00    -0.007 C 
HETATM    2  C2  UNL     1     -33.456   7.459   2.722  1.00 20.00    -0.012 C 
HETATM    3  C4  UNL     1     -31.752   8.563   1.520  1.00 20.00     0.022 C 
HETATM    4  C5  UNL     1     -31.979   7.670   2.757  1.00 20.00     0.019 C 
HETATM    5  C6  UNL     1     -33.130   9.153   1.124  1.00 20.00    -0.029 C 
HETATM    6  C8  UNL     1     -31.507   8.328   4.049  1.00 20.00     0.015 C 
HETATM    7  C9  UNL     1     -33.287  10.600   1.605  1.00 20.00     0.019 C 
HETATM    8  C10 UNL     1     -33.339   9.084  -0.392  1.00 20.00     0.019 C 
ENDROOT
BRANCH   2   9
HETATM    9  C3  UNL     1     -34.158   6.484   3.540  1.00 20.00     0.151 C 
HETATM   10  C7  UNL     1     -35.421   5.857   2.991  1.00 20.00     0.096 C 
HETATM   11  O11 UNL     1     -33.741   6.174   4.665  1.00 20.00    -0.293 OA
ENDBRANCH   2   9
TORSDOF 1
