REMARK  1 active torsions:
REMARK  status: ('A' for Active; 'I' for Inactive)
REMARK    1  A    between atoms: C2_2  and  C4_4 
ROOT
HETATM    1  C1  UNL     1     -33.277   7.292   2.178  1.00 20.00     0.318 A 
HETATM    2  C2  UNL     1     -33.779   7.089   3.588  1.00 20.00     0.357 A 
HETATM    3  C3  UNL     1     -31.658   8.273   3.708  1.00 20.00     0.310 C 
HETATM    4  N5  UNL     1     -32.353   7.063   3.285  1.00 20.00     0.102 N 
ENDROOT
BRANCH   2   5
HETATM    5  C4  UNL     1     -34.455   5.818   3.966  1.00 20.00     0.419 C 
HETATM    6  F6  UNL     1     -35.784   5.861   3.699  1.00 20.00    -0.169 F 
HETATM    7  F7  UNL     1     -33.943   4.760   3.292  1.00 20.00    -0.169 F 
HETATM    8  F8  UNL     1     -34.320   5.556   5.289  1.00 20.00    -0.169 F 
ENDBRANCH   2   5
TORSDOF 1
