REMARK  1 active torsions:
REMARK  status: ('A' for Active; 'I' for Inactive)
REMARK    1  A    between atoms: C3_3  and  C7_7 
ROOT
HETATM    1  C1  UNL     1     -32.859   7.906   3.892  1.00 20.00    -0.020 C 
HETATM    2  C2  UNL     1     -33.622   7.581   4.950  1.00 20.00    -0.086 C 
HETATM    3  C4  UNL     1     -34.747   6.578   4.856  1.00 20.00     0.045 C 
HETATM    4  C5  UNL     1     -34.405   6.625   2.344  1.00 20.00     0.020 C 
HETATM    5  C6  UNL     1     -33.052   7.341   2.509  1.00 20.00     0.005 C 
HETATM    6  C7  UNL     1     -34.770   5.767   3.555  1.00 20.00     0.059 C 
HETATM    7  C8  UNL     1     -33.400   8.194   6.302  1.00 20.00     0.043 C 
HETATM    8  C10 UNL     1     -32.911   8.438   1.451  1.00 20.00     0.014 C 
ENDROOT
BRANCH   6   9
HETATM    9  C3  UNL     1     -33.856   4.577   3.644  1.00 20.00     0.127 C 
HETATM   10  C9  UNL     1     -34.124   3.600   4.756  1.00 20.00     0.091 C 
HETATM   11  O11 UNL     1     -32.936   4.410   2.845  1.00 20.00    -0.298 OA
ENDBRANCH   6   9
TORSDOF 1
