REMARK  1 active torsions:
REMARK  status: ('A' for Active; 'I' for Inactive)
REMARK    1  A    between atoms: C3_3  and  C7_7 
ROOT
HETATM    1  C1  UNL     1     -33.921   6.909   4.732  1.00 20.00    -0.070 C 
HETATM    2  C2  UNL     1     -33.431   7.681   5.707  1.00 20.00     0.015 C 
HETATM    3  C4  UNL     1     -33.550   4.508   4.332  1.00 20.00     0.009 C 
HETATM    4  C5  UNL     1     -33.641   4.766   2.816  1.00 20.00     0.006 C 
HETATM    5  C6  UNL     1     -35.620   5.577   3.838  1.00 20.00     0.014 C 
HETATM    6  C7  UNL     1     -34.040   7.257   3.271  1.00 20.00     0.119 C 
HETATM    7  C8  UNL     1     -34.533   5.535   4.914  1.00 20.00     0.015 C 
HETATM    8  C9  UNL     1     -34.636   5.944   2.719  1.00 20.00     0.004 C 
ENDROOT
BRANCH   6   9
HETATM    9  C3  UNL     1     -32.717   7.623   2.651  1.00 20.00     0.181 C 
HETATM   10  O10 UNL     1     -31.813   6.747   2.753  1.00 20.00    -0.647 OA
HETATM   11  O11 UNL     1     -32.683   8.762   2.107  1.00 20.00    -0.647 OA
ENDBRANCH   6   9
TORSDOF 1
