REMARK  1 active torsions:
REMARK  status: ('A' for Active; 'I' for Inactive)
REMARK    1  A    between atoms: C1_1  and  C3_3 
ROOT
HETATM    1  C1  UNL     1     -33.560   7.700   3.054  1.00 20.00    -0.054 C 
HETATM    2  C2  UNL     1     -33.017   8.434   2.274  1.00 20.00     0.007 C 
HETATM    3 CL8  UNL     1     -32.224   9.506   1.136  1.00 20.00    -0.023 Cl
ENDROOT
BRANCH   1   4
HETATM    4  C3  UNL     1     -34.206   6.826   3.982  1.00 20.00     0.236 A 
HETATM    5  C4  UNL     1     -34.142   5.318   3.830  1.00 20.00     0.092 A 
HETATM    6  C5  UNL     1     -34.411   4.464   5.030  1.00 20.00     0.049 C 
HETATM    7  C6  UNL     1     -33.382   4.672   2.712  1.00 20.00     0.049 C 
HETATM    8  O7  UNL     1     -35.279   6.073   3.394  1.00 20.00    -0.357 OA
ENDBRANCH   1   4
TORSDOF 1
