REMARK  1 active torsions:
REMARK  status: ('A' for Active; 'I' for Inactive)
REMARK    1  A    between atoms: C1_1  and  C3_3 
REMARK       I    between atoms: C3_3  and  N8_8 
ROOT
HETATM    1  C3  UNL     1     -32.485   7.799   2.874  1.00 20.00     0.223 C 
HETATM    2  C4  UNL     1     -31.257   8.399   0.818  1.00 20.00     0.119 A 
HETATM    3  C5  UNL     1     -32.246   9.469   1.078  1.00 20.00     0.075 A 
HETATM    4  C7  UNL     1     -33.101  10.005  -0.015  1.00 20.00     0.028 C 
HETATM    5  N8  UNL     1     -32.475   8.131   1.533  1.00 20.00    -0.243 NA
HETATM    6  O9  UNL     1     -31.686   8.148   3.736  1.00 20.00    -0.275 OA
ENDROOT
BRANCH   1   7
HETATM    7  C1  UNL     1     -33.623   6.923   3.201  1.00 20.00     0.064 C 
HETATM    8  C2  UNL     1     -33.866   6.455   4.433  1.00 20.00    -0.026 C 
HETATM    9  C6  UNL     1     -35.016   5.564   4.769  1.00 20.00     0.036 C 
ENDBRANCH   1   7
TORSDOF 1
