REMARK  0 active torsions:
REMARK  status: ('A' for Active; 'I' for Inactive)
ROOT
HETATM    1  C1  UNL     1     -36.916   6.003   3.470  1.00 20.00     0.015 C 
HETATM    2  C2  UNL     1     -35.771   5.771   3.746  1.00 20.00    -0.075 C 
HETATM    3  C3  UNL     1     -32.294   8.444   2.822  1.00 20.00     0.001 C 
HETATM    4  C4  UNL     1     -32.264   8.218   4.350  1.00 20.00     0.005 C 
HETATM    5  C5  UNL     1     -33.232   7.354   2.253  1.00 20.00     0.009 C 
HETATM    6  C6  UNL     1     -33.825   6.102   5.420  1.00 20.00     0.060 C 
HETATM    7  C7  UNL     1     -33.489   7.357   4.567  1.00 20.00    -0.003 C 
HETATM    8  C8  UNL     1     -33.289   6.353   3.391  1.00 20.00     0.040 C 
HETATM    9  C9  UNL     1     -34.394   5.493   4.079  1.00 20.00     0.162 C 
HETATM   10  O10 UNL     1     -34.145   4.114   3.979  1.00 20.00    -0.214 OA
ENDROOT
TORSDOF 0
