REMARK  1 active torsions:
REMARK  status: ('A' for Active; 'I' for Inactive)
REMARK    1  A    between atoms: C2_2  and  C4_4 
ROOT
HETATM    1  C1  UNL     1     -34.233   5.130   4.567  1.00 20.00     0.131 C 
HETATM    2  C3  UNL     1     -33.498   5.450   2.549  1.00 20.00     0.191 C 
HETATM    3  C4  UNL     1     -33.883   6.778   3.167  1.00 20.00     0.219 C 
HETATM    4  C5  UNL     1     -34.654   4.574   5.877  1.00 20.00     0.099 C 
HETATM    5  N7  UNL     1     -33.635   4.465   3.632  1.00 20.00    -0.268 NA
HETATM    6  O9  UNL     1     -34.509   6.441   4.391  1.00 20.00    -0.323 OA
ENDROOT
BRANCH   3   7
HETATM    7  C2  UNL     1     -32.697   7.624   3.502  1.00 20.00     0.153 C 
HETATM    8  C6  UNL     1     -31.869   8.118   2.346  1.00 20.00     0.093 C 
HETATM    9  O8  UNL     1     -32.412   7.905   4.665  1.00 20.00    -0.295 OA
ENDBRANCH   3   7
TORSDOF 1
