REMARK  2 active torsions:
REMARK  status: ('A' for Active; 'I' for Inactive)
REMARK    1  A    between atoms: C7_7  and  O11_11 
REMARK    2  A    between atoms: C10_10  and  O11_11 
ROOT
HETATM    1  C1  UNL     1     -33.485  10.147   1.817  1.00 20.00    -0.019 C 
HETATM    2  C2  UNL     1     -32.152  10.014   1.959  1.00 20.00    -0.019 C 
HETATM    3  C3  UNL     1     -33.344   9.162  -0.436  1.00 20.00    -0.019 C 
HETATM    4  C4  UNL     1     -32.008   9.029  -0.293  1.00 20.00    -0.019 C 
HETATM    5  C5  UNL     1     -33.957   8.992   0.946  1.00 20.00     0.060 C 
HETATM    6  C6  UNL     1     -31.743   8.771   1.182  1.00 20.00     0.060 C 
HETATM    7  C7  UNL     1     -32.988   7.907   1.445  1.00 20.00     0.144 C 
ENDROOT
BRANCH   7   8
HETATM    8  O11 UNL     1     -33.179   7.547   2.801  1.00 20.00    -0.379 OA
BRANCH   8   9
HETATM    9  C10 UNL     1     -33.989   6.384   2.928  1.00 20.00     0.114 C 
HETATM   10  C8  UNL     1     -33.102   5.149   2.887  1.00 20.00     0.039 C 
HETATM   11  C9  UNL     1     -34.785   6.467   4.222  1.00 20.00     0.039 C 
ENDBRANCH   8   9
ENDBRANCH   7   8
TORSDOF 2
