REMARK  0 active torsions:
REMARK  status: ('A' for Active; 'I' for Inactive)
ROOT
HETATM    1  C1  UNL     1     -32.853   7.652   4.840  1.00 20.00     0.185 C 
HETATM    2  C2  UNL     1     -33.164   7.616   3.347  1.00 20.00     0.087 C 
HETATM    3  C3  UNL     1     -33.461   6.148   3.166  1.00 20.00     0.340 C 
HETATM    4  C4  UNL     1     -34.254   5.857   4.406  1.00 20.00     0.420 C 
HETATM    5  C5  UNL     1     -32.046   8.148   2.471  1.00 20.00     0.019 C 
HETATM    6  O6  UNL     1     -33.664   6.628   5.456  1.00 20.00    -0.321 OA
HETATM    7  F7  UNL     1     -34.125   5.868   2.037  1.00 20.00    -0.196 F 
HETATM    8  F8  UNL     1     -32.316   5.426   3.175  1.00 20.00    -0.196 F 
HETATM    9  F9  UNL     1     -35.536   6.268   4.270  1.00 20.00    -0.169 F 
HETATM   10  F10 UNL     1     -34.264   4.549   4.724  1.00 20.00    -0.169 F 
ENDROOT
TORSDOF 0
