REMARK  0 active torsions:
REMARK  status: ('A' for Active; 'I' for Inactive)
ROOT
HETATM    1  C1  UNL     1     -32.603   8.220   1.944  1.00 20.00     0.095 C 
HETATM    2  C2  UNL     1     -33.974   4.541   3.969  1.00 20.00     0.007 C 
HETATM    3  C3  UNL     1     -33.151   4.472   2.678  1.00 20.00     0.008 C 
HETATM    4  C4  UNL     1     -34.161   7.109   4.403  1.00 20.00     0.276 C 
HETATM    5  C5  UNL     1     -32.466   7.022   2.790  1.00 20.00     0.330 C 
HETATM    6  C6  UNL     1     -34.517   5.919   3.529  1.00 20.00     0.021 C 
HETATM    7  C7  UNL     1     -33.487   5.953   2.390  1.00 20.00     0.038 C 
HETATM    8  N8  UNL     1     -32.710   9.164   1.278  1.00 20.00    -0.195 NA
HETATM    9  N9  UNL     1     -32.729   7.367   4.198  1.00 20.00     0.102 N 
HETATM   10  H19 UNL     1     -32.491   8.334   4.409  1.00 20.00     0.317 HD
ENDROOT
TORSDOF 0
