REMARK  1 active torsions:
REMARK  status: ('A' for Active; 'I' for Inactive)
REMARK    1  A    between atoms: C2_2  and  C8_8 
ROOT
HETATM    1  C1  UNL     1     -33.459   6.650   4.884  1.00 20.00     0.136 C 
HETATM    2  C3  UNL     1     -34.231   6.219   6.111  1.00 20.00     0.079 C 
HETATM    3  C4  UNL     1     -34.923   4.871   5.937  1.00 20.00     0.007 C 
HETATM    4  C5  UNL     1     -34.004   3.888   5.220  1.00 20.00     0.002 C 
HETATM    5  C6  UNL     1     -33.716   4.336   3.787  1.00 20.00     0.018 C 
HETATM    6  C7  UNL     1     -34.764   6.451   2.707  1.00 20.00     0.030 A 
HETATM    7  C8  UNL     1     -33.336   6.377   2.259  1.00 20.00     0.064 A 
HETATM    8  C9  UNL     1     -33.720   5.852   3.638  1.00 20.00     0.031 A 
HETATM    9  O10 UNL     1     -32.686   7.602   4.903  1.00 20.00    -0.297 OA
ENDROOT
BRANCH   7  10
HETATM   10  C2  UNL     1     -32.571   7.616   2.078  1.00 20.00     0.236 C 
HETATM   11  O11 UNL     1     -32.970   8.566   1.413  1.00 20.00    -0.306 OA
ENDBRANCH   7  10
TORSDOF 1
