REMARK  2 active torsions:
REMARK  status: ('A' for Active; 'I' for Inactive)
REMARK    1  A    between atoms: C3_3  and  C6_6 
REMARK    2  A    between atoms: C3_3  and  O10_10 
ROOT
HETATM    1  C1  UNL     1     -33.139  10.060   1.437  1.00 20.00    -0.023 C 
HETATM    2  C2  UNL     1     -32.519   9.263   0.560  1.00 20.00    -0.087 C 
HETATM    3  C4  UNL     1     -32.795   9.718   2.849  1.00 20.00     0.042 C 
HETATM    4  C5  UNL     1     -31.656   8.248   1.244  1.00 20.00     0.048 C 
HETATM    5  C6  UNL     1     -32.057   8.382   2.718  1.00 20.00     0.093 C 
HETATM    6  C7  UNL     1     -32.600   9.331  -0.922  1.00 20.00     0.043 C 
ENDROOT
BRANCH   5   7
HETATM    7  C3  UNL     1     -32.958   7.253   3.127  1.00 20.00     0.263 C 
HETATM    8  O9  UNL     1     -33.294   6.340   2.385  1.00 20.00    -0.265 OA
BRANCH   7   9
HETATM    9  O10 UNL     1     -33.328   7.414   4.430  1.00 20.00    -0.326 OA
HETATM   10  C8  UNL     1     -34.194   6.402   4.953  1.00 20.00     0.213 C 
ENDBRANCH   7   9
ENDBRANCH   5   7
TORSDOF 2
