REMARK  1 active torsions:
REMARK  status: ('A' for Active; 'I' for Inactive)
REMARK    1  A    between atoms: C3_3  and  C9_9 
ROOT
HETATM    1  C1  UNL     1     -33.140   5.446   2.276  1.00 20.00    -0.030 C 
HETATM    2  C2  UNL     1     -33.401   4.330   2.986  1.00 20.00    -0.029 C 
HETATM    3  C4  UNL     1     -33.192   6.848   2.851  1.00 20.00     0.032 C 
HETATM    4  C5  UNL     1     -33.826   4.327   4.445  1.00 20.00     0.044 C 
HETATM    5  C6  UNL     1     -33.780   7.672   5.433  1.00 20.00     0.007 C 
HETATM    6  C7  UNL     1     -34.206   6.380   6.204  1.00 20.00     0.018 C 
HETATM    7  C8  UNL     1     -33.228   6.705   4.361  1.00 20.00     0.005 C 
HETATM    8  C9  UNL     1     -34.370   5.719   4.789  1.00 20.00     0.027 C 
ENDROOT
BRANCH   8   9
HETATM    9  C3  UNL     1     -35.818   5.913   4.203  1.00 20.00     0.132 C 
HETATM   10  C10 UNL     1     -36.876   4.956   4.682  1.00 20.00     0.091 C 
HETATM   11  O11 UNL     1     -36.073   6.805   3.395  1.00 20.00    -0.298 OA
ENDBRANCH   8   9
TORSDOF 1
