REMARK  0 active torsions:
REMARK  status: ('A' for Active; 'I' for Inactive)
ROOT
HETATM    1  C1  UNL     1     -32.360   7.638   2.574  1.00 20.00    -0.039 C 
HETATM    2  C2  UNL     1     -33.045   6.367   2.802  1.00 20.00     0.034 C 
HETATM    3  C3  UNL     1     -34.176   5.508   4.899  1.00 20.00     0.224 C 
HETATM    4  C4  UNL     1     -31.887   8.121   1.419  1.00 20.00     0.021 C 
HETATM    5  C5  UNL     1     -33.039   5.289   2.010  1.00 20.00     0.044 C 
HETATM    6  C6  UNL     1     -32.339   8.389   3.896  1.00 20.00     0.065 C 
HETATM    7  C7  UNL     1     -34.350   6.227   6.227  1.00 20.00     0.105 C 
HETATM    8  C8  UNL     1     -33.429   7.453   6.100  1.00 20.00     0.035 C 
HETATM    9  C9  UNL     1     -33.517   7.763   4.623  1.00 20.00     0.098 C 
HETATM   10  N10 UNL     1     -33.632   6.449   4.037  1.00 20.00    -0.313 N 
HETATM   11  O11 UNL     1     -34.459   4.338   4.697  1.00 20.00    -0.273 OA
ENDROOT
TORSDOF 0
