REMARK  3 active torsions:
REMARK  status: ('A' for Active; 'I' for Inactive)
REMARK    1  A    between atoms: C1_1  and  C5_5 
REMARK    2  A    between atoms: C6_6  and  C8_8 
REMARK    3  A    between atoms: C8_8  and  C9_9 
ROOT
HETATM    1  C2  UNL     1     -34.761   7.062   3.239  1.00 20.00     0.030 C 
HETATM    2  C3  UNL     1     -32.987   5.929   2.936  1.00 20.00     0.030 C 
HETATM    3  C4  UNL     1     -33.158   7.203   4.629  1.00 20.00     0.030 C 
HETATM    4  C5  UNL     1     -34.005   6.020   4.099  1.00 20.00     0.050 C 
HETATM    5  C6  UNL     1     -33.244   7.485   3.073  1.00 20.00    -0.037 C 
ENDROOT
BRANCH   4   6
HETATM    6  C1  UNL     1     -34.565   4.935   4.861  1.00 20.00     0.181 C 
HETATM    7  O10 UNL     1     -34.865   5.213   6.055  1.00 20.00    -0.647 OA
HETATM    8  O11 UNL     1     -34.680   3.848   4.228  1.00 20.00    -0.647 OA
ENDBRANCH   4   6
BRANCH   5   9
HETATM    9  C8  UNL     1     -32.666   8.601   2.294  1.00 20.00     0.009 C 
BRANCH   9  10
HETATM   10  C9  UNL     1     -32.951   8.489   0.782  1.00 20.00    -0.004 C 
HETATM   11  C7  UNL     1     -32.389   9.655  -0.015  1.00 20.00     0.005 C 
ENDBRANCH   9  10
ENDBRANCH   5   9
TORSDOF 3
