REMARK  1 active torsions:
REMARK  status: ('A' for Active; 'I' for Inactive)
REMARK    1  A    between atoms: C3_3  and  C7_7 
ROOT
HETATM    1  C1  UNL     1     -33.587   4.122   3.784  1.00 20.00    -0.023 C 
HETATM    2  C2  UNL     1     -34.136   4.493   4.953  1.00 20.00    -0.015 C 
HETATM    3  C4  UNL     1     -35.154   5.756   3.305  1.00 20.00     0.029 C 
HETATM    4  C5  UNL     1     -33.800   5.243   2.787  1.00 20.00     0.029 C 
HETATM    5  C6  UNL     1     -34.759   5.854   4.777  1.00 20.00     0.071 C 
HETATM    6  C7  UNL     1     -32.789   6.371   3.076  1.00 20.00     0.116 C 
HETATM    7  S9  UNL     1     -33.387   7.069   4.672  1.00 20.00    -0.148 SA
ENDROOT
BRANCH   6   8
HETATM    8  C3  UNL     1     -32.814   7.454   2.049  1.00 20.00     0.246 C 
HETATM    9  O8  UNL     1     -32.655   8.641   2.314  1.00 20.00    -0.306 OA
ENDBRANCH   6   8
TORSDOF 1
