REMARK  2 active torsions:
REMARK  status: ('A' for Active; 'I' for Inactive)
REMARK    1  A    between atoms: C3_3  and  C9_9 
REMARK    2  A    between atoms: C9_9  and  N10_10 
ROOT
HETATM    1  C1  UNL     1     -33.376   6.314   3.805  1.00 20.00     0.040 C 
HETATM    2  C4  UNL     1     -33.094   7.371   4.849  1.00 20.00     0.057 C 
HETATM    3  C5  UNL     1     -34.268   7.458   5.814  1.00 20.00     0.006 C 
HETATM    4  C6  UNL     1     -34.554   6.124   6.510  1.00 20.00     0.004 C 
HETATM    5  C7  UNL     1     -34.189   4.900   5.667  1.00 20.00     0.043 C 
HETATM    6  C8  UNL     1     -34.284   5.167   4.173  1.00 20.00     0.217 C 
HETATM    7  N10 UNL     1     -32.858   6.376   2.622  1.00 20.00    -0.292 NA
HETATM    8  F11 UNL     1     -33.934   4.031   3.510  1.00 20.00    -0.243 F 
ENDROOT
BRANCH   7   9
HETATM    9  C9  UNL     1     -32.001   7.531   2.401  1.00 20.00     0.175 C 
BRANCH   9  10
HETATM   10  C3  UNL     1     -32.828   8.689   1.945  1.00 20.00    -0.015 C 
HETATM   11  C2  UNL     1     -32.641   9.331   0.787  1.00 20.00     0.008 C 
ENDBRANCH   9  10
ENDBRANCH   7   9
TORSDOF 2
