REMARK  2 active torsions:
REMARK  status: ('A' for Active; 'I' for Inactive)
REMARK    1  A    between atoms: C2_2  and  C3_3 
REMARK    2  A    between atoms: C3_3  and  C6_6 
ROOT
HETATM    1  C3  UNL     1     -32.264   7.740   2.437  1.00 20.00     0.170 C 
HETATM    2  O7  UNL     1     -31.272   8.187   3.001  1.00 20.00    -0.291 OA
ENDROOT
BRANCH   1   3
HETATM    3  C2  UNL     1     -33.090   6.641   3.024  1.00 20.00     0.047 C 
HETATM    4  C1  UNL     1     -34.124   6.878   3.843  1.00 20.00     0.035 C 
HETATM    5 BR8  UNL     1     -32.600   4.886   2.586  1.00 20.00    -0.048 Br
ENDBRANCH   1   3
BRANCH   1   6
HETATM    6  C6  UNL     1     -32.681   8.315   1.124  1.00 20.00     0.061 A 
HETATM    7  C4  UNL     1     -32.463   9.771   0.881  1.00 20.00     0.013 A 
HETATM    8  C5  UNL     1     -31.621   8.754   0.171  1.00 20.00     0.013 A 
ENDBRANCH   1   6
TORSDOF 2
