REMARK  1 active torsions:
REMARK  status: ('A' for Active; 'I' for Inactive)
REMARK    1  A    between atoms: C1_1  and  C5_5 
ROOT
HETATM    1  C2  UNL     1     -35.108   7.044   2.825  1.00 20.00     0.013 C 
HETATM    2  C3  UNL     1     -35.584   5.975   3.805  1.00 20.00     0.009 C 
HETATM    3  C4  UNL     1     -33.295   5.469   3.341  1.00 20.00     0.021 C 
HETATM    4  C5  UNL     1     -33.693   6.626   2.414  1.00 20.00     0.055 C 
HETATM    5  C6  UNL     1     -34.306   5.490   4.501  1.00 20.00    -0.047 C 
HETATM    6  C8  UNL     1     -34.494   4.098   5.108  1.00 20.00     0.015 C 
HETATM    7  C9  UNL     1     -33.867   6.464   5.607  1.00 20.00     0.015 C 
ENDROOT
BRANCH   4   8
HETATM    8  C1  UNL     1     -32.733   7.773   2.516  1.00 20.00     0.127 C 
HETATM    9  C7  UNL     1     -33.032   8.982   1.672  1.00 20.00     0.091 C 
HETATM   10  O10 UNL     1     -31.750   7.728   3.254  1.00 20.00    -0.298 OA
ENDBRANCH   4   8
TORSDOF 1
