REMARK  0 active torsions:
REMARK  status: ('A' for Active; 'I' for Inactive)
ROOT
HETATM    1  C1  UNL     1     -32.273  10.094   1.182  1.00 20.00     0.017 C 
HETATM    2  C2  UNL     1     -32.406   9.228   2.004  1.00 20.00    -0.050 C 
HETATM    3  C3  UNL     1     -34.252   6.006   3.691  1.00 20.00     0.053 C 
HETATM    4  C4  UNL     1     -34.276   7.312   4.466  1.00 20.00     0.174 C 
HETATM    5  C5  UNL     1     -32.875   5.789   3.088  1.00 20.00     0.174 C 
HETATM    6  C6  UNL     1     -32.570   8.165   3.015  1.00 20.00     0.227 C 
HETATM    7  C7  UNL     1     -31.427   8.299   4.030  1.00 20.00     0.095 C 
HETATM    8  O8  UNL     1     -33.842   8.386   3.635  1.00 20.00    -0.345 OA
HETATM    9  O9  UNL     1     -32.493   6.919   2.310  1.00 20.00    -0.345 OA
ENDROOT
TORSDOF 0
