REMARK  1 active torsions:
REMARK  status: ('A' for Active; 'I' for Inactive)
REMARK    1  A    between atoms: C3_3  and  C6_6 
ROOT
HETATM    1  C1  UNL     1     -35.419   6.102   4.162  1.00 20.00    -0.022 C 
HETATM    2  C2  UNL     1     -35.016   5.681   5.370  1.00 20.00    -0.022 C 
HETATM    3  C4  UNL     1     -34.178   6.467   3.378  1.00 20.00     0.053 C 
HETATM    4  C5  UNL     1     -33.506   5.760   5.395  1.00 20.00     0.047 C 
HETATM    5  C6  UNL     1     -33.609   7.760   4.016  1.00 20.00     0.062 C 
HETATM    6  C7  UNL     1     -33.050   7.246   5.388  1.00 20.00     0.003 C 
HETATM    7  C8  UNL     1     -33.227   5.402   3.934  1.00 20.00     0.186 C 
HETATM    8  C9  UNL     1     -33.537   8.065   6.577  1.00 20.00     0.011 C 
HETATM    9  F11 UNL     1     -33.621   4.148   3.625  1.00 20.00    -0.248 F 
ENDROOT
BRANCH   5  10
HETATM   10  C3  UNL     1     -32.533   8.346   3.154  1.00 20.00     0.236 C 
HETATM   11  O10 UNL     1     -32.199   7.870   2.074  1.00 20.00    -0.306 OA
ENDBRANCH   5  10
TORSDOF 1
