REMARK  1 active torsions:
REMARK  status: ('A' for Active; 'I' for Inactive)
REMARK    1  A    between atoms: C3_3  and  C9_9 
ROOT
HETATM    1  C1  UNL     1     -34.048   5.165   5.805  1.00 20.00    -0.030 C 
HETATM    2  C2  UNL     1     -34.514   6.422   5.739  1.00 20.00    -0.026 C 
HETATM    3  C4  UNL     1     -34.049   4.239   4.619  1.00 20.00     0.031 C 
HETATM    4  C5  UNL     1     -34.113   7.936   3.783  1.00 20.00     0.022 C 
HETATM    5  C6  UNL     1     -35.563   5.892   3.527  1.00 20.00     0.013 C 
HETATM    6  C7  UNL     1     -33.119   5.774   2.814  1.00 20.00     0.018 C 
HETATM    7  C8  UNL     1     -35.125   7.009   4.484  1.00 20.00     0.009 C 
HETATM    8  C9  UNL     1     -33.387   7.269   2.602  1.00 20.00     0.073 C 
HETATM    9  C10 UNL     1     -34.356   4.974   3.295  1.00 20.00    -0.010 C 
ENDROOT
BRANCH   8  10
HETATM   10  C3  UNL     1     -32.089   7.971   2.340  1.00 20.00     0.223 C 
HETATM   11  O11 UNL     1     -31.039   7.599   2.856  1.00 20.00    -0.279 OA
HETATM   12 CL12 UNL     1     -32.280   9.317   1.258  1.00 20.00    -0.043 Cl
ENDBRANCH   8  10
TORSDOF 1
