REMARK  1 active torsions:
REMARK  status: ('A' for Active; 'I' for Inactive)
REMARK    1  A    between atoms: C3_3  and  C8_8 
ROOT
HETATM    1  C1  UNL     1     -33.589   4.773   3.145  1.00 20.00    -0.084 C 
HETATM    2  C2  UNL     1     -33.061   4.311   2.008  1.00 20.00     0.015 C 
HETATM    3  C4  UNL     1     -33.328   4.233   4.528  1.00 20.00     0.038 C 
HETATM    4  C5  UNL     1     -35.447   5.326   4.428  1.00 20.00     0.014 C 
HETATM    5  C6  UNL     1     -33.658   6.587   5.380  1.00 20.00     0.021 C 
HETATM    6  C7  UNL     1     -34.605   5.889   3.279  1.00 20.00     0.028 C 
HETATM    7  C8  UNL     1     -33.952   7.105   3.960  1.00 20.00     0.095 C 
HETATM    8  C9  UNL     1     -34.242   5.156   5.359  1.00 20.00    -0.009 C 
ENDROOT
BRANCH   7   9
HETATM    9  C3  UNL     1     -32.717   7.602   3.233  1.00 20.00     0.177 C 
HETATM   10  O10 UNL     1     -32.730   7.445   1.981  1.00 20.00    -0.648 OA
HETATM   11  O11 UNL     1     -31.833   8.110   3.978  1.00 20.00    -0.648 OA
ENDBRANCH   7   9
TORSDOF 1
