REMARK  1 active torsions:
REMARK  status: ('A' for Active; 'I' for Inactive)
REMARK    1  A    between atoms: C3_3  and  C9_9 
ROOT
HETATM    1  C1  UNL     1     -31.267   8.150   3.399  1.00 20.00    -0.067 A 
HETATM    2  C2  UNL     1     -30.040   8.029   3.858  1.00 20.00     0.016 C 
HETATM    3  C4  UNL     1     -34.386   5.212   3.721  1.00 20.00     0.000 C 
HETATM    4  C5  UNL     1     -33.059   5.088   2.969  1.00 20.00     0.001 C 
HETATM    5  C6  UNL     1     -34.678   6.633   4.210  1.00 20.00     0.001 C 
HETATM    6  C7  UNL     1     -32.677   6.387   2.267  1.00 20.00     0.015 C 
HETATM    7  C8  UNL     1     -33.398   7.408   4.508  1.00 20.00     0.015 C 
HETATM    8  C9  UNL     1     -32.186   8.982   2.730  1.00 20.00     0.096 A 
HETATM    9  C10 UNL     1     -32.533   7.520   3.266  1.00 20.00    -0.003 A 
ENDROOT
BRANCH   8  10
HETATM   10  C3  UNL     1     -31.925   9.205   1.307  1.00 20.00     0.132 C 
HETATM   11  C11 UNL     1     -32.217  10.581   0.773  1.00 20.00     0.091 C 
HETATM   12  O12 UNL     1     -31.486   8.312   0.584  1.00 20.00    -0.298 OA
ENDBRANCH   8  10
TORSDOF 1
