REMARK  1 active torsions:
REMARK  status: ('A' for Active; 'I' for Inactive)
REMARK    1  A    between atoms: C3_3  and  C7_7 
ROOT
HETATM    1  C1  UNL     1     -34.103   3.902   3.999  1.00 20.00     0.006 C 
HETATM    2  C2  UNL     1     -34.053   4.836   4.959  1.00 20.00     0.007 C 
HETATM    3  C4  UNL     1     -32.625   5.204   2.493  1.00 20.00     0.054 C 
HETATM    4  C5  UNL     1     -34.044   4.635   2.683  1.00 20.00     0.244 C 
HETATM    5  C6  UNL     1     -33.953   6.167   4.255  1.00 20.00     0.255 C 
HETATM    6  C7  UNL     1     -32.548   6.267   3.626  1.00 20.00     0.094 C 
HETATM    7  N9  UNL     1     -34.736   5.905   3.016  1.00 20.00     0.100 N 
HETATM    8  H21 UNL     1     -34.563   6.615   2.305  1.00 20.00     0.317 HD
ENDROOT
BRANCH   6   9
HETATM    9  C3  UNL     1     -32.239   7.634   3.094  1.00 20.00     0.129 C 
HETATM   10  C8  UNL     1     -31.506   8.569   4.017  1.00 20.00     0.091 C 
HETATM   11  O10 UNL     1     -32.568   7.974   1.959  1.00 20.00    -0.298 OA
ENDBRANCH   6   9
TORSDOF 1
