REMARK  1 active torsions:
REMARK  status: ('A' for Active; 'I' for Inactive)
REMARK    1  A    between atoms: C1_1  and  C9_9 
ROOT
HETATM    1  C2  UNL     1     -33.224   6.115   5.938  1.00 20.00     0.002 C 
HETATM    2  C3  UNL     1     -34.500   5.293   5.721  1.00 20.00     0.005 C 
HETATM    3  C4  UNL     1     -33.645   4.427   3.481  1.00 20.00     0.006 C 
HETATM    4  C5  UNL     1     -33.081   7.266   4.937  1.00 20.00     0.018 C 
HETATM    5  C6  UNL     1     -32.771   5.606   3.024  1.00 20.00     0.019 C 
HETATM    6  C7  UNL     1     -34.966   6.408   3.535  1.00 20.00     0.023 C 
HETATM    7  C8  UNL     1     -34.824   5.059   4.235  1.00 20.00    -0.013 C 
HETATM    8  C9  UNL     1     -33.507   6.868   3.512  1.00 20.00     0.036 C 
ENDROOT
BRANCH   8   9
HETATM    9  C1  UNL     1     -33.312   8.020   2.574  1.00 20.00     0.227 C 
HETATM   10  O10 UNL     1     -34.248   8.509   1.949  1.00 20.00    -0.279 OA
HETATM   11 CL11 UNL     1     -31.653   8.535   2.508  1.00 20.00    -0.043 Cl
ENDBRANCH   8   9
TORSDOF 1
