REMARK  3 active torsions:
REMARK  status: ('A' for Active; 'I' for Inactive)
REMARK    1  A    between atoms: C8_8  and  C9_9 
REMARK    2  A    between atoms: C9_9  and  C10_10 
REMARK    3  A    between atoms: C10_10  and  O11_11 
ROOT
HETATM    1  C1  UNL     1     -31.483   9.103   1.363  1.00 20.00     0.017 C 
HETATM    2  C2  UNL     1     -32.096   8.343   2.062  1.00 20.00    -0.083 C 
HETATM    3  C3  UNL     1     -32.903   7.687   4.212  1.00 20.00    -0.010 C 
HETATM    4  C4  UNL     1     -32.824   7.442   2.893  1.00 20.00    -0.009 C 
HETATM    5  C5  UNL     1     -33.649   6.813   5.180  1.00 20.00     0.033 C 
HETATM    6  C6  UNL     1     -33.470   6.232   2.265  1.00 20.00     0.048 C 
HETATM    7  C7  UNL     1     -33.923   5.181   3.284  1.00 20.00     0.010 C 
HETATM    8  C8  UNL     1     -34.599   5.804   4.513  1.00 20.00    -0.009 C 
ENDROOT
BRANCH   8   9
HETATM    9  C9  UNL     1     -35.943   6.447   4.156  1.00 20.00     0.031 C 
BRANCH   9  10
HETATM   10  C10 UNL     1     -36.896   5.440   3.540  1.00 20.00     0.164 C 
BRANCH  10  11
HETATM   11  O11 UNL     1     -37.133   4.405   4.485  1.00 20.00    -0.401 OA
HETATM   12  H25 UNL     1     -37.744   3.778   4.067  1.00 20.00     0.209 HD
ENDBRANCH  10  11
ENDBRANCH   9  10
ENDBRANCH   8   9
TORSDOF 3
