REMARK  3 active torsions:
REMARK  status: ('A' for Active; 'I' for Inactive)
REMARK    1  A    between atoms: C1_1  and  C2_2 
REMARK    2  A    between atoms: C4_4  and  C8_8 
REMARK    3  A    between atoms: C8_8  and  N9_9 
ROOT
HETATM    1  C1  UNL     1     -33.549   7.000   3.619  1.00 20.00    -0.015 C 
HETATM    2  C3  UNL     1     -34.110   6.485   4.547  1.00 20.00    -0.097 C 
HETATM    3  C5  UNL     1     -34.794   5.857   5.676  1.00 20.00     0.113 C 
ENDROOT
BRANCH   1   4
HETATM    4  C2  UNL     1     -32.908   7.589   2.558  1.00 20.00    -0.013 C 
HETATM    5  C4  UNL     1     -32.348   8.105   1.630  1.00 20.00    -0.062 C 
BRANCH   5   6
HETATM    6  C8  UNL     1     -31.658   8.731   0.498  1.00 20.00     0.365 C 
BRANCH   6   7
HETATM    7  N9  UNL     1     -32.419   9.864  -0.013  1.00 20.00     0.090 N 
HETATM    8  C6  UNL     1     -32.597  10.878   1.028  1.00 20.00     0.310 C 
HETATM    9  C7  UNL     1     -33.721   9.425  -0.521  1.00 20.00     0.310 C 
ENDBRANCH   6   7
ENDBRANCH   5   6
ENDBRANCH   1   4
TORSDOF 3
