REMARK  3 active torsions:
REMARK  status: ('A' for Active; 'I' for Inactive)
REMARK    1  A    between atoms: C1_1  and  C7_7 
REMARK    2  A    between atoms: C2_2  and  C9_9 
REMARK    3  A    between atoms: C9_9  and  C10_10 
ROOT
HETATM    1  C3  UNL     1     -34.319   5.060   4.489  1.00 20.00     0.128 C 
HETATM    2  C4  UNL     1     -33.322   5.666   5.441  1.00 20.00     0.079 C 
HETATM    3  C5  UNL     1     -35.130   6.106   3.764  1.00 20.00     0.095 C 
HETATM    4  C6  UNL     1     -33.768   7.126   5.474  1.00 20.00     0.025 C 
HETATM    5  C7  UNL     1     -34.380   7.397   4.098  1.00 20.00     0.072 C 
HETATM    6  O11 UNL     1     -34.457   3.854   4.323  1.00 20.00    -0.298 OA
ENDROOT
BRANCH   5   7
HETATM    7  C1  UNL     1     -33.339   7.690   3.097  1.00 20.00    -0.101 C 
HETATM    8  C2  UNL     1     -32.491   7.930   2.281  1.00 20.00    -0.106 C 
BRANCH   8   9
HETATM    9  C9  UNL     1     -31.451   8.222   1.284  1.00 20.00     0.093 C 
BRANCH   9  10
HETATM   10  C10 UNL     1     -31.953   9.150   0.178  1.00 20.00     0.007 C 
HETATM   11  C8  UNL     1     -32.434  10.496   0.701  1.00 20.00     0.006 C 
ENDBRANCH   9  10
ENDBRANCH   8   9
ENDBRANCH   5   7
TORSDOF 3
