REMARK  1 active torsions:
REMARK  status: ('A' for Active; 'I' for Inactive)
REMARK    1  A    between atoms: C6_6  and  C9_9 
ROOT
HETATM    1  C1  UNL     1     -34.289   5.413   5.010  1.00 20.00     0.119 C 
HETATM    2  C2  UNL     1     -33.013   7.485   4.728  1.00 20.00     0.043 A 
HETATM    3  C3  UNL     1     -32.463   8.418   3.856  1.00 20.00     0.012 A 
HETATM    4  C4  UNL     1     -33.312   7.141   2.037  1.00 20.00     0.125 A 
HETATM    5  C5  UNL     1     -33.696   6.410   4.181  1.00 20.00     0.136 A 
HETATM    6  C6  UNL     1     -32.611   8.250   2.484  1.00 20.00    -0.036 A 
HETATM    7  N10 UNL     1     -34.772   4.601   5.684  1.00 20.00    -0.190 NA
HETATM    8  N11 UNL     1     -33.860   6.214   2.853  1.00 20.00    -0.249 NA
ENDROOT
BRANCH   6   9
HETATM    9  C9  UNL     1     -32.032   9.229   1.526  1.00 20.00     0.020 A 
HETATM   10  C7  UNL     1     -32.398  10.687   1.653  1.00 20.00     0.010 A 
HETATM   11  C8  UNL     1     -32.932   9.885   0.508  1.00 20.00     0.010 A 
ENDBRANCH   6   9
TORSDOF 1
