REMARK  0 active torsions:
REMARK  status: ('A' for Active; 'I' for Inactive)
ROOT
HETATM    1  C1  UNL     1     -34.300   7.725   3.897  1.00 20.00     0.041 A 
HETATM    2  C2  UNL     1     -34.249   6.300   3.836  1.00 20.00    -0.008 A 
HETATM    3  C3  UNL     1     -33.300   8.075   3.050  1.00 20.00     0.041 A 
HETATM    4  C4  UNL     1     -33.248   5.899   2.978  1.00 20.00     0.064 A 
HETATM    5  C5  UNL     1     -32.412   8.914   2.304  1.00 20.00     0.047 A 
HETATM    6  C6  UNL     1     -33.200   4.494   2.921  1.00 20.00     0.141 A 
HETATM    7  C7  UNL     1     -31.842   7.779   1.804  1.00 20.00     0.100 A 
HETATM    8  C8  UNL     1     -34.888   5.084   4.366  1.00 20.00     0.189 A 
HETATM    9  N9  UNL     1     -34.108   3.948   3.688  1.00 20.00    -0.295 NA
HETATM   10  N10 UNL     1     -32.701   7.014   2.526  1.00 20.00    -0.320 N 
ENDROOT
TORSDOF 0
