REMARK  1 active torsions:
REMARK  status: ('A' for Active; 'I' for Inactive)
REMARK    1  A    between atoms: C1_1  and  C4_4 
ROOT
HETATM    1  C1  UNL     1     -32.735   8.169   2.177  1.00 20.00    -0.047 C 
HETATM    2  C2  UNL     1     -32.607   8.966   1.289  1.00 20.00    -0.106 C 
HETATM    3  C6  UNL     1     -32.450   9.936   0.206  1.00 20.00     0.112 C 
ENDROOT
BRANCH   1   4
HETATM    4  C4  UNL     1     -32.891   7.196   3.261  1.00 20.00     0.343 C 
HETATM    5  O8  UNL     1     -33.042   5.874   2.724  1.00 20.00    -0.348 OA
HETATM    6  C3  UNL     1     -34.409   5.537   2.960  1.00 20.00     0.203 C 
HETATM    7  C5  UNL     1     -34.765   6.310   4.209  1.00 20.00     0.145 C 
HETATM    8  C7  UNL     1     -34.320   5.612   5.489  1.00 20.00     0.042 C 
HETATM    9  O9  UNL     1     -34.036   7.531   4.059  1.00 20.00    -0.343 OA
ENDBRANCH   1   4
TORSDOF 1
