REMARK  1 active torsions:
REMARK  status: ('A' for Active; 'I' for Inactive)
REMARK    1  A    between atoms: C2_2  and  C7_7 
ROOT
HETATM    1  C1  UNL     1     -33.870   5.004   3.921  1.00 20.00     0.132 C 
HETATM    2  C3  UNL     1     -34.605   6.145   4.595  1.00 20.00     0.084 C 
HETATM    3  C4  UNL     1     -33.665   6.099   1.771  1.00 20.00     0.013 C 
HETATM    4  C5  UNL     1     -34.401   7.313   2.373  1.00 20.00     0.007 C 
HETATM    5  C6  UNL     1     -32.845   5.575   2.958  1.00 20.00     0.068 C 
HETATM    6  C7  UNL     1     -32.483   6.837   3.743  1.00 20.00     0.088 C 
HETATM    7  C8  UNL     1     -33.934   7.322   3.848  1.00 20.00     0.006 C 
HETATM    8  O9  UNL     1     -34.092   3.817   4.099  1.00 20.00    -0.298 OA
ENDROOT
BRANCH   6   9
HETATM    9  C2  UNL     1     -31.560   7.775   3.031  1.00 20.00     0.224 C 
HETATM   10  O10 UNL     1     -31.926   8.888   2.665  1.00 20.00    -0.279 OA
HETATM   11 CL11 UNL     1     -29.977   7.092   2.809  1.00 20.00    -0.043 Cl
ENDBRANCH   6   9
TORSDOF 1
