REMARK  2 active torsions:
REMARK  status: ('A' for Active; 'I' for Inactive)
REMARK    1  A    between atoms: C4_4  and  O11_11 
REMARK    2  A    between atoms: C10_10  and  O11_11 
ROOT
HETATM    1  C1  UNL     1     -32.568  10.492   0.304  1.00 20.00     0.014 C 
HETATM    2  C2  UNL     1     -32.541   9.773   1.265  1.00 20.00    -0.091 C 
HETATM    3  C10 UNL     1     -32.507   8.898   2.437  1.00 20.00     0.268 C 
ENDROOT
BRANCH   3   4
HETATM    4  O11 UNL     1     -33.150   7.678   2.161  1.00 20.00    -0.344 OA
BRANCH   4   5
HETATM    5  C4  UNL     1     -33.535   7.011   3.307  1.00 20.00     0.047 C 
HETATM    6  C3  UNL     1     -33.303   7.507   4.533  1.00 20.00     0.006 C 
HETATM    7  C5  UNL     1     -33.722   6.818   5.798  1.00 20.00     0.029 C 
HETATM    8  C6  UNL     1     -34.179   5.374   5.585  1.00 20.00     0.004 C 
HETATM    9  C7  UNL     1     -35.024   5.238   4.321  1.00 20.00     0.011 C 
HETATM   10  C8  UNL     1     -34.268   5.713   3.065  1.00 20.00     0.038 C 
HETATM   11  C9  UNL     1     -33.297   4.641   2.563  1.00 20.00     0.017 C 
ENDBRANCH   4   5
ENDBRANCH   3   4
TORSDOF 2
