REMARK  2 active torsions:
REMARK  status: ('A' for Active; 'I' for Inactive)
REMARK    1  A    between atoms: C3_3  and  C6_6 
REMARK    2  A    between atoms: C7_7  and  O11_11 
ROOT
HETATM    1  C1  UNL     1     -33.956   5.421   2.772  1.00 20.00    -0.023 C 
HETATM    2  C2  UNL     1     -34.172   5.208   4.080  1.00 20.00    -0.085 C 
HETATM    3  C4  UNL     1     -33.230   6.616   2.232  1.00 20.00     0.042 C 
HETATM    4  C5  UNL     1     -33.712   6.185   5.132  1.00 20.00     0.071 C 
HETATM    5  C6  UNL     1     -32.498   7.433   3.308  1.00 20.00     0.084 C 
HETATM    6  C7  UNL     1     -33.340   7.587   4.595  1.00 20.00     0.068 C 
HETATM    7  C8  UNL     1     -34.874   3.979   4.579  1.00 20.00     0.043 C 
HETATM    8  C9  UNL     1     -34.602   8.441   4.396  1.00 20.00     0.047 C 
ENDROOT
BRANCH   6   9
HETATM    9  O11 UNL     1     -32.543   8.202   5.614  1.00 20.00    -0.389 OA
HETATM   10  H25 UNL     1     -33.103   8.239   6.400  1.00 20.00     0.210 HD
ENDBRANCH   6   9
BRANCH   5  11
HETATM   11  C3  UNL     1     -32.076   8.755   2.726  1.00 20.00     0.238 C 
HETATM   12  O10 UNL     1     -32.379   9.124   1.596  1.00 20.00    -0.306 OA
ENDBRANCH   5  11
TORSDOF 2
