REMARK  0 active torsions:
REMARK  status: ('A' for Active; 'I' for Inactive)
ROOT
HETATM    1  C1  UNL     1     -33.149   6.512   4.053  1.00 20.00     0.169 C 
HETATM    2  C2  UNL     1     -33.413   5.403   2.249  1.00 20.00     0.062 C 
HETATM    3  C3  UNL     1     -32.266   6.282   2.814  1.00 20.00     0.058 C 
HETATM    4  C4  UNL     1     -34.177   5.431   3.606  1.00 20.00     0.174 C 
HETATM    5  C5  UNL     1     -31.921   7.522   2.014  1.00 20.00     0.018 C 
HETATM    6  O6  UNL     1     -33.062   7.250   5.013  1.00 20.00    -0.294 OA
HETATM    7 CL7  UNL     1     -34.051   3.956   4.623  1.00 20.00    -0.093 Cl
HETATM    8 CL8  UNL     1     -35.848   6.076   3.552  1.00 20.00    -0.093 Cl
ENDROOT
TORSDOF 0
