REMARK  1 active torsions:
REMARK  status: ('A' for Active; 'I' for Inactive)
REMARK    1  A    between atoms: C1_1  and  N7_7 
ROOT
HETATM    1  C2  UNL     1     -35.138   5.891   3.291  1.00 20.00     0.159 C 
HETATM    2  C3  UNL     1     -34.954   4.746   4.268  1.00 20.00     0.138 C 
HETATM    3  C4  UNL     1     -33.581   6.491   4.969  1.00 20.00     0.221 C 
HETATM    4  C5  UNL     1     -34.063   3.637   3.724  1.00 20.00     0.041 C 
HETATM    5  C6  UNL     1     -33.821   7.629   5.947  1.00 20.00     0.063 C 
HETATM    6  N7  UNL     1     -34.058   6.775   3.635  1.00 20.00    -0.330 N 
HETATM    7  O9  UNL     1     -34.320   5.340   5.419  1.00 20.00    -0.360 OA
ENDROOT
BRANCH   6   8
HETATM    8  C1  UNL     1     -33.507   7.696   2.776  1.00 20.00     0.352 C 
HETATM    9  O8  UNL     1     -32.351   8.101   2.767  1.00 20.00    -0.283 OA
ENDBRANCH   6   8
TORSDOF 1
