REMARK  2 active torsions:
REMARK  status: ('A' for Active; 'I' for Inactive)
REMARK    1  A    between atoms: C3_3  and  C7_7 
REMARK    2  A    between atoms: C8_8  and  C10_10 
ROOT
HETATM    1  C1  UNL     1     -31.921   9.027   0.280  1.00 20.00     0.012 C 
HETATM    2  C2  UNL     1     -32.553   8.664   1.235  1.00 20.00    -0.117 C 
HETATM    3  C10 UNL     1     -33.326   8.227   2.403  1.00 20.00     0.098 C 
ENDROOT
BRANCH   3   4
HETATM    4  C8  UNL     1     -33.541   6.722   2.390  1.00 20.00     0.008 C 
HETATM    5  C6  UNL     1     -32.238   5.927   2.408  1.00 20.00     0.006 C 
HETATM    6  C4  UNL     1     -32.691   4.516   2.758  1.00 20.00     0.001 C 
HETATM    7  C5  UNL     1     -33.951   4.675   3.615  1.00 20.00     0.013 C 
HETATM    8  C7  UNL     1     -34.317   6.161   3.580  1.00 20.00     0.060 C 
BRANCH   8   9
HETATM    9  C3  UNL     1     -33.909   6.749   4.922  1.00 20.00     0.127 C 
HETATM   10  C9  UNL     1     -34.548   6.152   6.146  1.00 20.00     0.091 C 
HETATM   11  O11 UNL     1     -33.094   7.668   5.002  1.00 20.00    -0.298 OA
ENDBRANCH   8   9
ENDBRANCH   3   4
TORSDOF 2
