REMARK  0 active torsions:
REMARK  status: ('A' for Active; 'I' for Inactive)
ROOT
HETATM    1  C1  UNL     1     -32.467   7.800   2.936  1.00 20.00    -0.056 A 
HETATM    2  C2  UNL     1     -33.825   6.518   4.311  1.00 20.00     0.087 A 
HETATM    3  C3  UNL     1     -31.796   8.315   1.899  1.00 20.00     0.017 C 
HETATM    4  C4  UNL     1     -32.385   8.347   4.352  1.00 20.00     0.158 A 
HETATM    5  C5  UNL     1     -33.699   7.330   6.428  1.00 20.00     0.144 A 
HETATM    6  C6  UNL     1     -34.656   6.108   6.362  1.00 20.00     0.141 A 
HETATM    7  C7  UNL     1     -33.420   6.593   2.903  1.00 20.00     0.035 A 
HETATM    8  C8  UNL     1     -32.697   5.310   2.488  1.00 20.00     0.028 C 
HETATM    9  C9  UNL     1     -34.636   6.856   2.012  1.00 20.00     0.028 C 
HETATM   10  N10 UNL     1     -33.273   7.445   5.051  1.00 20.00    -0.365 N 
HETATM   11  N11 UNL     1     -34.630   5.696   4.940  1.00 20.00    -0.377 N 
HETATM   12  H26 UNL     1     -35.111   4.942   4.464  1.00 20.00     0.160 HD
ENDROOT
TORSDOF 0
