REMARK  0 active torsions:
REMARK  status: ('A' for Active; 'I' for Inactive)
ROOT
HETATM    1  C1  UNL     1     -33.153   7.424   2.194  1.00 20.00     0.015 C 
HETATM    2  C2  UNL     1     -33.701   6.658   2.938  1.00 20.00    -0.073 C 
HETATM    3  C3  UNL     1     -33.905   4.287   3.576  1.00 20.00     0.225 C 
HETATM    4  C4  UNL     1     -34.083   4.566   5.837  1.00 20.00     0.442 C 
HETATM    5  C5  UNL     1     -34.374   5.719   3.852  1.00 20.00     0.240 C 
HETATM    6  C6  UNL     1     -35.899   5.830   3.682  1.00 20.00     0.066 C 
HETATM    7  C7  UNL     1     -34.467   6.956   6.011  1.00 20.00     0.315 C 
HETATM    8  N8  UNL     1     -33.886   5.877   5.228  1.00 20.00     0.130 N 
HETATM    9  O9  UNL     1     -34.067   3.569   4.808  1.00 20.00    -0.359 OA
ENDROOT
TORSDOF 0
