REMARK  1 active torsions:
REMARK  status: ('A' for Active; 'I' for Inactive)
REMARK    1  A    between atoms: C1_1  and  C4_4 
ROOT
HETATM    1  C2  UNL     1     -34.230   6.541   5.374  1.00 20.00     0.016 C 
HETATM    2  C3  UNL     1     -34.426   5.021   5.503  1.00 20.00     0.022 C 
HETATM    3  C4  UNL     1     -34.379   6.382   3.841  1.00 20.00     0.090 C 
HETATM    4  C5  UNL     1     -35.116   5.041   4.123  1.00 20.00     0.094 C 
HETATM    5 CL8  UNL     1     -36.919   5.057   4.095  1.00 20.00    -0.124 Cl
ENDROOT
BRANCH   3   6
HETATM    6  C1  UNL     1     -33.091   6.307   3.006  1.00 20.00     0.224 C 
HETATM    7  O6  UNL     1     -32.350   7.277   2.874  1.00 20.00    -0.279 OA
HETATM    8 CL7  UNL     1     -32.851   4.732   2.314  1.00 20.00    -0.043 Cl
ENDBRANCH   3   6
TORSDOF 1
