REMARK  0 active torsions:
REMARK  status: ('A' for Active; 'I' for Inactive)
ROOT
HETATM    1  C1  UNL     1     -32.031   8.094   1.895  1.00 20.00     0.003 A 
HETATM    2  C2  UNL     1     -32.364   6.864   1.470  1.00 20.00     0.013 A 
HETATM    3  C3  UNL     1     -32.490   8.281   3.263  1.00 20.00     0.030 A 
HETATM    4  C4  UNL     1     -33.515   4.985   2.668  1.00 20.00    -0.011 C 
HETATM    5  C5  UNL     1     -33.043   6.232   2.574  1.00 20.00    -0.013 A 
HETATM    6  C6  UNL     1     -33.117   7.169   3.686  1.00 20.00     0.039 A 
HETATM    7  C7  UNL     1     -34.147   4.504   3.945  1.00 20.00     0.048 C 
HETATM    8  C8  UNL     1     -34.628   5.629   4.880  1.00 20.00     0.126 C 
HETATM    9  C9  UNL     1     -33.861   7.717   5.991  1.00 20.00     0.149 C 
HETATM   10  N10 UNL     1     -33.746   6.808   4.859  1.00 20.00    -0.384 N 
ENDROOT
TORSDOF 0
