REMARK  2 active torsions:
REMARK  status: ('A' for Active; 'I' for Inactive)
REMARK    1  A    between atoms: C4_4  and  C6_6 
REMARK    2  A    between atoms: C7_7  and  O10_10 
ROOT
HETATM    1  C1  UNL     1     -32.690   8.859   2.071  1.00 20.00     0.218 C 
HETATM    2  C4  UNL     1     -33.264   7.710   2.278  1.00 20.00     0.043 C 
HETATM    3  O9  UNL     1     -32.171   9.898   1.883  1.00 20.00    -0.284 OA
ENDROOT
BRANCH   2   4
HETATM    4  C6  UNL     1     -32.936   6.781   3.403  1.00 20.00     0.064 C 
HETATM    5  C3  UNL     1     -32.497   5.436   2.906  1.00 20.00    -0.020 C 
HETATM    6  C2  UNL     1     -33.408   4.486   3.139  1.00 20.00    -0.027 C 
HETATM    7  C5  UNL     1     -34.620   5.029   3.820  1.00 20.00     0.059 C 
HETATM    8  C7  UNL     1     -34.166   6.424   4.262  1.00 20.00     0.135 C 
BRANCH   8   9
HETATM    9  O10 UNL     1     -33.782   6.364   5.637  1.00 20.00    -0.389 OA
HETATM   10  C8  UNL     1     -33.792   7.652   6.231  1.00 20.00     0.202 C 
ENDBRANCH   8   9
ENDBRANCH   2   4
TORSDOF 2
