REMARK  1 active torsions:
REMARK  status: ('A' for Active; 'I' for Inactive)
REMARK    1  A    between atoms: C3_3  and  C7_7 
ROOT
HETATM    1  C1  UNL     1     -34.330   6.147   5.561  1.00 20.00    -0.030 C 
HETATM    2  C2  UNL     1     -33.758   7.277   5.116  1.00 20.00    -0.025 C 
HETATM    3  C4  UNL     1     -34.774   5.072   4.609  1.00 20.00     0.027 C 
HETATM    4  C5  UNL     1     -33.950   5.032   3.315  1.00 20.00     0.010 C 
HETATM    5  C6  UNL     1     -33.568   7.576   3.692  1.00 20.00     0.025 A 
HETATM    6  C7  UNL     1     -32.356   7.065   2.961  1.00 20.00     0.085 A 
HETATM    7  C8  UNL     1     -33.701   6.404   2.746  1.00 20.00     0.007 A 
ENDROOT
BRANCH   6   8
HETATM    8  C3  UNL     1     -31.782   7.871   1.876  1.00 20.00     0.224 C 
HETATM    9  O9  UNL     1     -32.487   8.545   1.130  1.00 20.00    -0.279 OA
HETATM   10 CL10 UNL     1     -30.051   7.738   1.807  1.00 20.00    -0.043 Cl
ENDBRANCH   6   8
TORSDOF 1
