REMARK  1 active torsions:
REMARK  status: ('A' for Active; 'I' for Inactive)
REMARK    1  A    between atoms: CA_2  and  C_3 
ROOT
ATOM      1  N   GLY A   1     -33.665   4.178   3.560  1.00 20.00    -0.249 NA
ATOM      2  CA  GLY A   1     -33.646   5.555   3.666  1.00 20.00     0.122 A 
HETATM    3  C1  UNK A   1     -34.086   3.671   4.698  1.00 20.00     0.168 A 
HETATM    4  C2  UNK A   1     -34.051   6.072   4.879  1.00 20.00     0.104 A 
HETATM    5  S3  UNK A   1     -34.117   7.722   5.260  1.00 20.00    -0.070 SA
HETATM    6  S4  UNK A   1     -34.477   4.792   5.937  1.00 20.00    -0.069 SA
ENDROOT
BRANCH   2   7
ATOM      7  C   GLY A   1     -33.211   6.314   2.519  1.00 20.00     0.292 C 
ATOM      8  O   GLY A   1     -33.154   7.554   2.499  1.00 20.00    -0.300 OA
ENDBRANCH   2   7
TORSDOF 1
