REMARK  1 active torsions:
REMARK  status: ('A' for Active; 'I' for Inactive)
REMARK    1  A    between atoms: C3_3  and  C4_4 
ROOT
HETATM    1  C1  UNL     1     -33.613   5.333   3.595  1.00 20.00     0.061 C 
HETATM    2  C2  UNL     1     -32.617   6.048   3.068  1.00 20.00     0.087 C 
HETATM    3  C4  UNL     1     -34.623   6.240   4.214  1.00 20.00     0.376 C 
HETATM    4  C5  UNL     1     -32.859   7.500   3.289  1.00 20.00     0.463 C 
HETATM    5  C6  UNL     1     -34.449   8.630   4.782  1.00 20.00     0.324 C 
HETATM    6  N7  UNL     1     -34.245   7.598   3.780  1.00 20.00     0.211 N 
HETATM    7  F9  UNL     1     -34.608   6.118   5.568  1.00 20.00    -0.195 F 
HETATM    8  F10 UNL     1     -31.967   8.005   4.181  1.00 20.00    -0.169 F 
HETATM    9  F11 UNL     1     -32.726   8.215   2.144  1.00 20.00    -0.169 F 
ENDROOT
BRANCH   3  10
HETATM   10  C3  UNL     1     -35.967   5.930   3.646  1.00 20.00     0.312 C 
HETATM   11  O8  UNL     1     -36.920   5.563   4.326  1.00 20.00    -0.301 OA
ENDBRANCH   3  10
TORSDOF 1
