REMARK  2 active torsions:
REMARK  status: ('A' for Active; 'I' for Inactive)
REMARK    1  A    between atoms: C5_5  and  C8_8 
REMARK    2  A    between atoms: C8_8  and  N10_10 
ROOT
HETATM    1  C1  UNL     1     -33.079   8.647   1.801  1.00 20.00     0.135 A 
HETATM    2  C2  UNL     1     -34.113   7.857   2.246  1.00 20.00     0.112 A 
HETATM    3  C3  UNL     1     -32.201   7.284   3.180  1.00 20.00     0.210 A 
HETATM    4  N9  UNL     1     -31.891   8.285   2.385  1.00 20.00    -0.255 NA
HETATM    5  N10 UNL     1     -33.535   6.989   3.128  1.00 20.00    -0.338 N 
ENDROOT
BRANCH   5   6
HETATM    6  C8  UNL     1     -34.231   5.915   3.896  1.00 20.00     0.047 C 
HETATM    7  C6  UNL     1     -35.764   5.879   3.674  1.00 20.00     0.043 C 
HETATM    8  C7  UNL     1     -33.684   4.548   3.417  1.00 20.00     0.043 C 
BRANCH   6   9
HETATM    9  C5  UNL     1     -34.048   6.177   5.391  1.00 20.00    -0.007 C 
HETATM   10  C4  UNL     1     -33.948   7.363   6.005  1.00 20.00     0.009 C 
ENDBRANCH   6   9
ENDBRANCH   5   6
TORSDOF 2
