REMARK  1 active torsions:
REMARK  status: ('A' for Active; 'I' for Inactive)
REMARK    1  A    between atoms: C1_1  and  C7_7 
ROOT
HETATM    1  C2  UNL     1     -33.748   4.703   3.050  1.00 20.00     0.004 C 
HETATM    2  C3  UNL     1     -34.268   4.804   4.483  1.00 20.00     0.037 C 
HETATM    3  C4  UNL     1     -34.020   5.972   2.245  1.00 20.00     0.016 C 
HETATM    4  C5  UNL     1     -33.299   7.135   4.419  1.00 20.00     0.053 C 
HETATM    5  C6  UNL     1     -34.393   6.240   4.982  1.00 20.00     0.171 C 
HETATM    6  C7  UNL     1     -33.357   7.218   2.878  1.00 20.00     0.012 C 
HETATM    7  C8  UNL     1     -34.113   8.478   2.434  1.00 20.00     0.023 C 
HETATM    8  F10 UNL     1     -34.308   6.235   6.340  1.00 20.00    -0.249 F 
ENDROOT
BRANCH   6   9
HETATM    9  C1  UNL     1     -31.948   7.317   2.344  1.00 20.00     0.240 C 
HETATM   10  O9  UNL     1     -31.532   8.281   1.709  1.00 20.00    -0.306 OA
ENDBRANCH   6   9
TORSDOF 1
