REMARK  4 active torsions:
REMARK  status: ('A' for Active; 'I' for Inactive)
REMARK    1  A    between atoms: C1_1  and  C3_3 
REMARK    2  A    between atoms: C1_1  and  O10_10 
REMARK    3  A    between atoms: C4_4  and  C7_7 
REMARK    4  A    between atoms: C7_7  and  C8_8 
ROOT
HETATM    1  C2  UNL     1     -31.485   6.767   2.750  1.00 20.00     0.020 A 
HETATM    2  C3  UNL     1     -32.986   6.874   2.806  1.00 20.00     0.090 A 
HETATM    3  C4  UNL     1     -32.122   8.075   3.137  1.00 20.00    -0.000 A 
ENDROOT
BRANCH   2   4
HETATM    4  C1  UNL     1     -33.715   6.202   3.887  1.00 20.00     0.263 C 
HETATM    5  O9  UNL     1     -34.058   6.750   4.926  1.00 20.00    -0.265 OA
BRANCH   4   6
HETATM    6  O10 UNL     1     -33.939   4.901   3.546  1.00 20.00    -0.326 OA
HETATM    7  C6  UNL     1     -34.646   4.124   4.517  1.00 20.00     0.213 C 
ENDBRANCH   4   6
ENDBRANCH   2   4
BRANCH   3   8
HETATM    8  C7  UNL     1     -32.070   9.238   2.207  1.00 20.00     0.005 C 
BRANCH   8   9
HETATM    9  C8  UNL     1     -32.711   8.931   0.842  1.00 20.00    -0.004 C 
HETATM   10  C5  UNL     1     -32.690  10.129  -0.094  1.00 20.00     0.005 C 
ENDBRANCH   8   9
ENDBRANCH   3   8
TORSDOF 4
