REMARK  1 active torsions:
REMARK  status: ('A' for Active; 'I' for Inactive)
REMARK    1  A    between atoms: C1_1  and  C4_4 
ROOT
HETATM    1  C2  UNL     1     -32.594   7.214   1.100  1.00 20.00     0.038 C 
HETATM    2  C3  UNL     1     -31.749   8.268   2.754  1.00 20.00     0.038 C 
HETATM    3  C4  UNL     1     -33.073   7.491   2.547  1.00 20.00     0.076 C 
HETATM    4  C5  UNL     1     -31.647   8.441   1.214  1.00 20.00     0.035 C 
HETATM    5  C6  UNL     1     -32.277   9.744   0.706  1.00 20.00     0.032 C 
HETATM    6 CL9  UNL     1     -30.010   8.232   0.510  1.00 20.00    -0.120 Cl
ENDROOT
BRANCH   3   7
HETATM    7  C1  UNL     1     -33.333   6.288   3.459  1.00 20.00     0.223 C 
HETATM    8  O7  UNL     1     -33.335   5.140   3.027  1.00 20.00    -0.279 OA
HETATM    9 CL8  UNL     1     -33.610   6.765   5.107  1.00 20.00    -0.043 Cl
ENDBRANCH   3   7
TORSDOF 1
