REMARK  3 active torsions:
REMARK  status: ('A' for Active; 'I' for Inactive)
REMARK    1  A    between atoms: C1_1  and  C7_7 
REMARK    2  A    between atoms: C1_1  and  N8_8 
REMARK    3  A    between atoms: C6_6  and  N8_8 
ROOT
HETATM    1  C1  UNL     1     -33.457   6.944   3.974  1.00 20.00     0.078 C 
HETATM    2  S9  UNL     1     -34.050   7.806   5.312  1.00 20.00    -0.065 SA
ENDROOT
BRANCH   1   3
HETATM    3  C7  UNL     1     -32.350   7.581   3.092  1.00 20.00     0.039 C 
HETATM    4  C3  UNL     1     -32.967   8.405   1.959  1.00 20.00     0.017 C 
HETATM    5  C4  UNL     1     -31.327   8.419   3.867  1.00 20.00     0.017 C 
ENDBRANCH   1   3
BRANCH   1   6
HETATM    6  N8  UNL     1     -33.942   5.685   3.575  1.00 20.00    -0.380 N 
HETATM    7  C5  UNL     1     -33.456   4.975   2.392  1.00 20.00     0.150 C 
BRANCH   6   8
HETATM    8  C6  UNL     1     -34.995   4.970   4.300  1.00 20.00     0.118 C 
HETATM    9  C2  UNL     1     -34.417   4.064   5.334  1.00 20.00     0.026 C 
ENDBRANCH   6   8
ENDBRANCH   1   6
TORSDOF 3
