REMARK  0 active torsions:
REMARK  status: ('A' for Active; 'I' for Inactive)
ROOT
HETATM    1  C1  UNL     1     -32.771   8.401   1.626  1.00 20.00     0.015 C 
HETATM    2  C2  UNL     1     -33.198   7.755   2.543  1.00 20.00    -0.076 C 
HETATM    3  C3  UNL     1     -33.552   6.782   6.152  1.00 20.00     0.004 C 
HETATM    4  C4  UNL     1     -34.310   5.464   6.045  1.00 20.00     0.003 C 
HETATM    5  C5  UNL     1     -33.853   7.690   4.962  1.00 20.00     0.055 C 
HETATM    6  C6  UNL     1     -33.829   4.657   4.841  1.00 20.00     0.042 C 
HETATM    7  C7  UNL     1     -33.707   6.982   3.639  1.00 20.00     0.154 A 
HETATM    8  C8  UNL     1     -33.743   5.456   3.568  1.00 20.00     0.102 A 
HETATM    9  C9  UNL     1     -33.209   4.719   2.374  1.00 20.00     0.050 C 
HETATM   10  O10 UNL     1     -34.897   6.246   3.279  1.00 20.00    -0.350 OA
ENDROOT
TORSDOF 0
