REMARK  5 active torsions:
REMARK  status: ('A' for Active; 'I' for Inactive)
REMARK    1  A    between atoms: C1_1  and  C3_3 
REMARK    2  A    between atoms: C1_1  and  O11_11 
REMARK    3  A    between atoms: C4_4  and  C7_7 
REMARK    4  A    between atoms: C7_7  and  C8_8 
REMARK    5  A    between atoms: C9_9  and  O11_11 
ROOT
HETATM    1  C2  UNL     1     -34.276   6.017   2.309  1.00 20.00     0.020 A 
HETATM    2  C3  UNL     1     -33.018   6.335   3.072  1.00 20.00     0.090 A 
HETATM    3  C4  UNL     1     -34.333   6.165   3.806  1.00 20.00    -0.000 A 
ENDROOT
BRANCH   2   4
HETATM    4  C1  UNL     1     -32.431   7.675   2.964  1.00 20.00     0.263 C 
HETATM    5  O10 UNL     1     -31.712   8.179   3.816  1.00 20.00    -0.265 OA
BRANCH   4   6
HETATM    6  O11 UNL     1     -32.812   8.246   1.786  1.00 20.00    -0.322 OA
BRANCH   6   7
HETATM    7  C9  UNL     1     -32.308   9.564   1.550  1.00 20.00     0.174 C 
HETATM    8  C6  UNL     1     -32.817  10.055   0.212  1.00 20.00     0.034 C 
ENDBRANCH   6   7
ENDBRANCH   4   6
ENDBRANCH   2   4
BRANCH   3   9
HETATM    9  C7  UNL     1     -34.559   4.972   4.670  1.00 20.00     0.005 C 
BRANCH   9  10
HETATM   10  C8  UNL     1     -34.074   5.189   6.114  1.00 20.00    -0.004 C 
HETATM   11  C5  UNL     1     -34.754   6.371   6.787  1.00 20.00     0.005 C 
ENDBRANCH   9  10
ENDBRANCH   3   9
TORSDOF 5
