REMARK  1 active torsions:
REMARK  status: ('A' for Active; 'I' for Inactive)
REMARK    1  A    between atoms: C2_2  and  C6_6 
ROOT
HETATM    1  C3  UNL     1     -35.372   6.030   4.866  1.00 20.00     0.031 C 
HETATM    2  C4  UNL     1     -35.452   6.150   3.341  1.00 20.00     0.032 C 
HETATM    3  C5  UNL     1     -33.472   7.694   4.922  1.00 20.00     0.040 C 
HETATM    4  C6  UNL     1     -33.597   7.861   3.394  1.00 20.00     0.042 C 
HETATM    5  C7  UNL     1     -33.921   6.273   5.295  1.00 20.00     0.131 C 
HETATM    6  C8  UNL     1     -34.056   6.507   2.809  1.00 20.00     0.139 C 
HETATM    7  N10 UNL     1     -33.064   5.327   4.539  1.00 20.00    -0.192 NA
HETATM    8  N11 UNL     1     -33.125   5.451   3.286  1.00 20.00    -0.192 NA
ENDROOT
BRANCH   4   9
HETATM    9  C2  UNL     1     -32.318   8.341   2.776  1.00 20.00    -0.087 C 
HETATM   10  C1  UNL     1     -31.120   8.030   3.292  1.00 20.00     0.014 C 
HETATM   11  C9  UNL     1     -32.455   9.189   1.546  1.00 20.00     0.043 C 
ENDBRANCH   4   9
TORSDOF 1
