REMARK  1 active torsions:
REMARK  status: ('A' for Active; 'I' for Inactive)
REMARK    1  A    between atoms: C1_1  and  C4_4 
ROOT
HETATM    1  C2  UNL     1     -34.020   4.534   5.357  1.00 20.00     0.180 C 
HETATM    2  C3  UNL     1     -34.501   5.742   6.140  1.00 20.00     0.103 C 
HETATM    3  C4  UNL     1     -34.412   5.964   3.557  1.00 20.00     0.165 C 
HETATM    4  C6  UNL     1     -35.630   6.303   2.711  1.00 20.00     0.067 C 
HETATM    5  O8  UNL     1     -34.535   4.618   4.022  1.00 20.00    -0.362 OA
HETATM    6  S9  UNL     1     -34.262   7.084   4.969  1.00 20.00    -0.122 SA
ENDROOT
BRANCH   3   7
HETATM    7  C1  UNL     1     -33.161   6.064   2.737  1.00 20.00     0.167 C 
HETATM    8  C5  UNL     1     -32.857   7.406   2.129  1.00 20.00     0.095 C 
HETATM    9  O7  UNL     1     -32.419   5.098   2.572  1.00 20.00    -0.294 OA
ENDBRANCH   3   7
TORSDOF 1
