REMARK  0 active torsions:
REMARK  status: ('A' for Active; 'I' for Inactive)
ROOT
HETATM    1  C1  UNL     1     -33.903   6.360   3.801  1.00 20.00     0.036 C 
HETATM    2  C2  UNL     1     -31.388   7.340   3.387  1.00 20.00     0.297 C 
HETATM    3  C3  UNL     1     -33.137   6.950   4.981  1.00 20.00     0.263 C 
HETATM    4  C4  UNL     1     -32.339   7.190   2.205  1.00 20.00     0.132 C 
HETATM    5  C5  UNL     1     -35.146   5.552   4.100  1.00 20.00     0.067 C 
HETATM    6  C6  UNL     1     -34.054   7.688   5.951  1.00 20.00     0.049 C 
HETATM    7  C7  UNL     1     -32.760   8.531   1.605  1.00 20.00     0.036 C 
HETATM    8  N8  UNL     1     -33.549   6.449   2.565  1.00 20.00    -0.290 NA
HETATM    9  N9  UNL     1     -32.122   7.893   4.513  1.00 20.00     0.095 N 
HETATM   10  H23 UNL     1     -31.480   8.108   5.275  1.00 20.00     0.316 HD
ENDROOT
TORSDOF 0
