REMARK  0 active torsions:
REMARK  status: ('A' for Active; 'I' for Inactive)
ROOT
HETATM    1  C1  UNL     1     -33.244   9.812   0.695  1.00 20.00     0.015 C 
HETATM    2  C2  UNL     1     -29.997   8.702   4.246  1.00 20.00     0.015 C 
HETATM    3  C3  UNL     1     -32.966   8.837   1.338  1.00 20.00    -0.082 C 
HETATM    4  C4  UNL     1     -31.111   8.361   3.955  1.00 20.00    -0.082 C 
HETATM    5  C5  UNL     1     -32.626   7.648   2.122  1.00 20.00     0.243 C 
HETATM    6  C6  UNL     1     -32.469   7.945   3.602  1.00 20.00     0.243 C 
HETATM    7  C7  UNL     1     -33.673   6.027   3.336  1.00 20.00     0.160 C 
HETATM    8  C8  UNL     1     -35.076   6.034   3.929  1.00 20.00     0.078 C 
HETATM    9  C9  UNL     1     -33.170   4.605   3.123  1.00 20.00     0.078 C 
HETATM   10  O10 UNL     1     -33.706   6.709   2.076  1.00 20.00    -0.335 OA
HETATM   11  O11 UNL     1     -32.779   6.698   4.233  1.00 20.00    -0.335 OA
ENDROOT
TORSDOF 0
