REMARK  2 active torsions:
REMARK  status: ('A' for Active; 'I' for Inactive)
REMARK    1  A    between atoms: C1_1  and  C3_3 
REMARK    2  A    between atoms: C2_2  and  C7_7 
ROOT
HETATM    1  C4  UNL     1     -34.370   5.940   5.544  1.00 20.00     0.002 C 
HETATM    2  C5  UNL     1     -32.965   6.213   4.981  1.00 20.00     0.013 C 
HETATM    3  C6  UNL     1     -34.940   6.284   4.157  1.00 20.00     0.013 C 
HETATM    4  C7  UNL     1     -33.535   5.983   3.545  1.00 20.00    -0.026 C 
HETATM    5  C9  UNL     1     -33.381   4.543   3.051  1.00 20.00     0.019 C 
ENDROOT
BRANCH   4   6
HETATM    6  C2  UNL     1     -33.050   6.995   2.470  1.00 20.00    -0.014 C 
HETATM    7  C1  UNL     1     -33.262   8.315   2.552  1.00 20.00     0.046 C 
BRANCH   7   8
HETATM    8  C3  UNL     1     -32.771   9.231   1.487  1.00 20.00     0.145 C 
HETATM    9  C8  UNL     1     -31.524   8.814   0.753  1.00 20.00     0.096 C 
HETATM   10  O10 UNL     1     -33.340  10.287   1.219  1.00 20.00    -0.294 OA
ENDBRANCH   7   8
ENDBRANCH   4   6
TORSDOF 2
