REMARK  1 active torsions:
REMARK  status: ('A' for Active; 'I' for Inactive)
REMARK    1  A    between atoms: C8_8  and  C10_10 
ROOT
HETATM    1  C1  UNL     1     -34.292   6.110   2.338  1.00 20.00     0.028 A 
HETATM    2  C2  UNL     1     -35.046   5.547   3.359  1.00 20.00     0.120 A 
HETATM    3  C3  UNL     1     -32.972   7.124   4.087  1.00 20.00     0.029 A 
HETATM    4  C4  UNL     1     -33.242   6.913   2.732  1.00 20.00    -0.034 A 
HETATM    5  C5  UNL     1     -33.773   6.525   5.030  1.00 20.00     0.220 A 
HETATM    6  C6  UNL     1     -31.822   7.996   4.225  1.00 20.00     0.013 A 
HETATM    7  C7  UNL     1     -31.399   8.306   2.989  1.00 20.00    -0.016 A 
HETATM    8  C8  UNL     1     -32.236   7.660   1.901  1.00 20.00     0.042 A 
HETATM    9  N11 UNL     1     -34.816   5.733   4.688  1.00 20.00    -0.232 NA
HETATM   10  F12 UNL     1     -33.528   6.718   6.334  1.00 20.00    -0.183 F 
ENDROOT
BRANCH   8  11
HETATM   11  C10 UNL     1     -32.871   8.690   0.977  1.00 20.00     0.009 C 
HETATM   12  C9  UNL     1     -31.842   9.484   0.238  1.00 20.00     0.006 C 
ENDBRANCH   8  11
TORSDOF 1
