REMARK  0 active torsions:
REMARK  status: ('A' for Active; 'I' for Inactive)
ROOT
HETATM    1  C1  UNL     1     -35.891   6.155   3.675  1.00 20.00     0.223 A 
HETATM    2  C2  UNL     1     -34.287   4.813   4.800  1.00 20.00     0.128 A 
HETATM    3  C3  UNL     1     -34.560   6.665   3.258  1.00 20.00     0.092 A 
HETATM    4  C4  UNL     1     -33.536   5.824   3.987  1.00 20.00     0.026 A 
HETATM    5  C5  UNL     1     -33.593   7.324   4.219  1.00 20.00    -0.029 A 
HETATM    6  C6  UNL     1     -32.483   8.149   3.614  1.00 20.00     0.016 C 
HETATM    7  C7  UNL     1     -34.090   7.871   5.533  1.00 20.00     0.016 C 
HETATM    8  N8  UNL     1     -35.683   5.089   4.531  1.00 20.00    -0.360 N 
HETATM    9  O9  UNL     1     -36.945   6.632   3.287  1.00 20.00    -0.273 OA
HETATM   10  H20 UNL     1     -36.442   4.562   4.951  1.00 20.00     0.162 HD
ENDROOT
TORSDOF 0
