REMARK  1 active torsions:
REMARK  status: ('A' for Active; 'I' for Inactive)
REMARK    1  A    between atoms: C3_3  and  C5_5 
ROOT
HETATM    1  C1  UNL     1     -33.630   7.776   4.199  1.00 20.00     0.050 A 
HETATM    2  C2  UNL     1     -33.820   6.398   4.444  1.00 20.00    -0.026 A 
HETATM    3  C3  UNL     1     -33.007   7.861   2.971  1.00 20.00     0.113 A 
HETATM    4  C4  UNL     1     -33.304   5.750   3.345  1.00 20.00     0.060 A 
HETATM    5  C6  UNL     1     -34.442   5.664   5.576  1.00 20.00     0.041 C 
HETATM    6  C7  UNL     1     -33.229   4.293   3.106  1.00 20.00     0.066 C 
HETATM    7  C8  UNL     1     -34.061   4.167   5.532  1.00 20.00     0.005 C 
HETATM    8  C9  UNL     1     -34.153   3.573   4.109  1.00 20.00     0.007 C 
HETATM    9  O11 UNL     1     -32.801   6.622   2.441  1.00 20.00    -0.311 OA
ENDROOT
BRANCH   3  10
HETATM   10  C5  UNL     1     -32.571   8.986   2.215  1.00 20.00     0.295 C 
HETATM   11  O10 UNL     1     -32.012   8.910   1.098  1.00 20.00    -0.299 OA
ENDBRANCH   3  10
TORSDOF 1
