REMARK  1 active torsions:
REMARK  status: ('A' for Active; 'I' for Inactive)
REMARK    1  A    between atoms: C1_1  and  C5_5 
ROOT
HETATM    1  C1  UNL     1     -33.006   8.079   1.858  1.00 20.00    -0.068 C 
HETATM    2  C2  UNL     1     -32.859   9.043   1.157  1.00 20.00    -0.108 C 
HETATM    3  C6  UNL     1     -32.679  10.217   0.304  1.00 20.00     0.112 C 
ENDROOT
BRANCH   1   4
HETATM    4  C5  UNL     1     -33.185   6.915   2.703  1.00 20.00     0.126 C 
HETATM    5  C3  UNL     1     -34.375   7.021   3.701  1.00 20.00     0.057 C 
HETATM    6  C4  UNL     1     -33.304   6.715   4.770  1.00 20.00     0.127 C 
HETATM    7  C7  UNL     1     -35.533   6.046   3.609  1.00 20.00     0.016 C 
HETATM    8  C8  UNL     1     -33.219   7.666   5.945  1.00 20.00     0.040 C 
HETATM    9  O10 UNL     1     -32.241   6.973   3.812  1.00 20.00    -0.362 OA
HETATM   10  C9  UNL     1     -32.993   5.619   1.926  1.00 20.00     0.061 C 
ENDBRANCH   1   4
TORSDOF 1
