REMARK  2 active torsions:
REMARK  status: ('A' for Active; 'I' for Inactive)
REMARK    1  A    between atoms: C1_1  and  N9_9 
REMARK    2  A    between atoms: C4_4  and  C8_8 
ROOT
HETATM    1  C2  UNL     1     -31.982   7.479   1.894  1.00 20.00     0.031 C 
HETATM    2  C3  UNL     1     -31.489   8.393   4.042  1.00 20.00     0.130 C 
HETATM    3  C4  UNL     1     -31.449   8.751   2.560  1.00 20.00     0.005 C 
HETATM    4  C5  UNL     1     -33.062   6.987   2.867  1.00 20.00     0.083 C 
HETATM    5  C6  UNL     1     -33.176   5.468   2.858  1.00 20.00     0.032 C 
HETATM    6  N9  UNL     1     -32.655   7.534   4.160  1.00 20.00    -0.355 N 
ENDROOT
BRANCH   3   7
HETATM    7  C8  UNL     1     -30.066   9.147   2.075  1.00 20.00     0.002 C 
HETATM    8  C7  UNL     1     -30.051   9.448   0.608  1.00 20.00     0.005 C 
ENDBRANCH   3   7
BRANCH   6   9
HETATM    9  C1  UNL     1     -33.360   7.384   5.333  1.00 20.00     0.351 C 
HETATM   10  O10 UNL     1     -34.349   6.683   5.515  1.00 20.00    -0.284 OA
ENDBRANCH   6   9
TORSDOF 2
