REMARK  0 active torsions:
REMARK  status: ('A' for Active; 'I' for Inactive)
ROOT
HETATM    1  C1  UNL     1     -32.524   7.556   2.690  1.00 20.00     0.026 C 
HETATM    2  C2  UNL     1     -33.259   6.951   4.611  1.00 20.00     0.017 C 
HETATM    3  C3  UNL     1     -31.760   8.208   1.807  1.00 20.00     0.040 C 
HETATM    4  C4  UNL     1     -33.330   6.334   2.363  1.00 20.00     0.073 C 
HETATM    5  C5  UNL     1     -33.625   5.755   3.753  1.00 20.00    -0.002 C 
HETATM    6  C6  UNL     1     -33.564   7.003   6.076  1.00 20.00     0.066 C 
HETATM    7  C7  UNL     1     -35.092   5.360   3.897  1.00 20.00     0.021 C 
HETATM    8  C8  UNL     1     -32.703   4.578   4.080  1.00 20.00     0.021 C 
HETATM    9  N9  UNL     1     -32.636   7.917   4.009  1.00 20.00    -0.263 NA
ENDROOT
TORSDOF 0
