REMARK  3 active torsions:
REMARK  status: ('A' for Active; 'I' for Inactive)
REMARK    1  A    between atoms: C7_7  and  C8_8 
REMARK    2  A    between atoms: C8_8  and  C9_9 
REMARK    3  A    between atoms: C9_9  and  N10_10 
ROOT
HETATM    1  C1  UNL     1     -34.209   4.491   6.030  1.00 20.00     0.012 C 
HETATM    2  C3  UNL     1     -34.154   5.677   5.849  1.00 20.00    -0.117 C 
HETATM    3  C7  UNL     1     -34.091   7.129   5.632  1.00 20.00     0.096 C 
ENDROOT
BRANCH   3   4
HETATM    4  C8  UNL     1     -33.176   7.505   4.459  1.00 20.00     0.061 C 
BRANCH   4   5
HETATM    5  C9  UNL     1     -33.634   6.963   3.091  1.00 20.00     0.300 C 
HETATM    6  C4  UNL     1     -33.217   5.564   2.896  1.00 20.00    -0.081 C 
HETATM    7  C2  UNL     1     -32.884   4.421   2.737  1.00 20.00     0.014 C 
BRANCH   5   8
HETATM    8  N10 UNL     1     -33.052   7.795   2.034  1.00 20.00     0.095 N 
HETATM    9  C5  UNL     1     -31.658   8.108   2.343  1.00 20.00     0.310 C 
HETATM   10  C6  UNL     1     -33.828   9.022   1.867  1.00 20.00     0.310 C 
ENDBRANCH   5   8
ENDBRANCH   4   5
ENDBRANCH   3   4
TORSDOF 3
