REMARK  2 active torsions:
REMARK  status: ('A' for Active; 'I' for Inactive)
REMARK    1  A    between atoms: C1_1  and  C8_8 
REMARK    2  A    between atoms: C2_2  and  C9_9 
ROOT
HETATM    1  C3  UNL     1     -33.400   5.326   3.292  1.00 20.00     0.142 C 
HETATM    2  C4  UNL     1     -34.633   5.367   4.213  1.00 20.00     0.081 C 
HETATM    3  C5  UNL     1     -34.285   6.850   4.482  1.00 20.00     0.032 C 
HETATM    4  C8  UNL     1     -32.875   6.670   3.848  1.00 20.00     0.135 C 
HETATM    5  O10 UNL     1     -33.004   4.539   2.458  1.00 20.00    -0.297 OA
ENDROOT
BRANCH   4   6
HETATM    6  C1  UNL     1     -32.525   7.620   2.821  1.00 20.00    -0.094 C 
HETATM    7  C2  UNL     1     -32.234   8.411   1.966  1.00 20.00    -0.101 C 
BRANCH   7   8
HETATM    8  C9  UNL     1     -31.879   9.375   0.925  1.00 20.00     0.065 A 
HETATM    9  C6  UNL     1     -32.963   9.852   0.019  1.00 20.00     0.018 A 
HETATM   10  C7  UNL     1     -31.911   8.913  -0.493  1.00 20.00     0.018 A 
ENDBRANCH   7   8
ENDBRANCH   4   6
TORSDOF 2
