REMARK  1 active torsions:
REMARK  status: ('A' for Active; 'I' for Inactive)
REMARK    1  A    between atoms: C1_1  and  C8_8 
REMARK       I    between atoms: C1_1  and  N9_9 
ROOT
HETATM    1  C1  UNL     1     -32.339   7.968   2.861  1.00 20.00     0.237 C 
HETATM    2  C2  UNL     1     -34.644   4.530   4.078  1.00 20.00     0.013 A 
HETATM    3  C3  UNL     1     -34.548   6.729   2.670  1.00 20.00     0.130 A 
HETATM    4  C4  UNL     1     -33.271   6.650   4.747  1.00 20.00     0.130 A 
HETATM    5  C5  UNL     1     -35.255   5.829   3.629  1.00 20.00     0.010 A 
HETATM    6  C6  UNL     1     -34.475   5.780   4.897  1.00 20.00     0.010 A 
HETATM    7  N9  UNL     1     -33.336   7.156   3.376  1.00 20.00    -0.350 N 
HETATM    8  O10 UNL     1     -31.333   8.305   3.487  1.00 20.00    -0.272 OA
ENDROOT
BRANCH   1   9
HETATM    9  C8  UNL     1     -32.547   8.434   1.442  1.00 20.00     0.170 C 
HETATM   10  C7  UNL     1     -33.241   9.776   1.422  1.00 20.00     0.036 C 
HETATM   11 CL11 UNL     1     -30.935   8.536   0.715  1.00 20.00    -0.115 Cl
ENDBRANCH   1   9
TORSDOF 1
