REMARK  0 active torsions:
REMARK  status: ('A' for Active; 'I' for Inactive)
ROOT
HETATM    1  C1  UNL     1     -33.067   7.375   5.549  1.00 20.00     0.047 A 
HETATM    2  C2  UNL     1     -34.003   6.410   5.599  1.00 20.00     0.052 A 
HETATM    3  C3  UNL     1     -32.420   7.699   4.298  1.00 20.00     0.153 A 
HETATM    4  C4  UNL     1     -32.730   7.053   3.162  1.00 20.00     0.167 A 
HETATM    5  C5  UNL     1     -33.729   5.971   3.100  1.00 20.00     0.262 A 
HETATM    6  C6  UNL     1     -34.418   5.625   4.421  1.00 20.00     0.258 A 
HETATM    7  O7  UNL     1     -35.131   6.193   3.315  1.00 20.00    -0.327 OA
HETATM    8  F8  UNL     1     -31.495   8.680   4.297  1.00 20.00    -0.203 F 
HETATM    9  F9  UNL     1     -32.095   7.407   2.022  1.00 20.00    -0.204 F 
HETATM   10  F10 UNL     1     -34.634   4.270   4.649  1.00 20.00    -0.203 F 
ENDROOT
TORSDOF 0
