REMARK  5 active torsions:
REMARK  status: ('A' for Active; 'I' for Inactive)
REMARK    1  A    between atoms: C1_1  and  C5_5 
REMARK    2  A    between atoms: C2_2  and  C9_9 
REMARK    3  A    between atoms: C3_3  and  C6_6 
REMARK    4  A    between atoms: C9_9  and  C11_11 
REMARK    5  A    between atoms: C10_10  and  C11_11 
ROOT
HETATM    1  C4  UNL     1     -34.410   6.936   5.511  1.00 20.00     0.022 A 
HETATM    2  C5  UNL     1     -33.834   7.707   4.378  1.00 20.00     0.020 A 
HETATM    3  C6  UNL     1     -34.654   6.496   4.094  1.00 20.00     0.063 A 
ENDROOT
BRANCH   2   4
HETATM    4  C1  UNL     1     -32.354   7.655   4.188  1.00 20.00    -0.025 C 
HETATM    5  C2  UNL     1     -31.743   7.892   3.017  1.00 20.00    -0.030 C 
BRANCH   5   6
HETATM    6  C9  UNL     1     -32.472   8.239   1.751  1.00 20.00     0.027 C 
BRANCH   6   7
HETATM    7  C11 UNL     1     -32.071   9.605   1.186  1.00 20.00     0.003 C 
BRANCH   7   8
HETATM    8  C10 UNL     1     -32.829   9.972  -0.093  1.00 20.00    -0.004 C 
HETATM    9  C8  UNL     1     -32.569   8.962  -1.200  1.00 20.00     0.005 C 
ENDBRANCH   7   8
ENDBRANCH   6   7
ENDBRANCH   5   6
ENDBRANCH   2   4
BRANCH   3  10
HETATM   10  C3  UNL     1     -34.067   5.236   3.621  1.00 20.00     0.128 C 
HETATM   11  C7  UNL     1     -34.346   4.008   4.445  1.00 20.00     0.091 C 
HETATM   12  O12 UNL     1     -33.382   5.186   2.601  1.00 20.00    -0.298 OA
ENDBRANCH   3  10
TORSDOF 5
