REMARK  1 active torsions:
REMARK  status: ('A' for Active; 'I' for Inactive)
REMARK    1  A    between atoms: C3_3  and  N9_9 
ROOT
HETATM    1  C1  UNL     1     -32.574   7.229   2.515  1.00 20.00     0.096 C 
HETATM    2  C2  UNL     1     -33.130   6.079   3.144  1.00 20.00     0.040 A 
HETATM    3  C3  UNL     1     -34.009   5.927   4.160  1.00 20.00     0.005 A 
HETATM    4  C4  UNL     1     -32.947   4.604   2.906  1.00 20.00     0.057 A 
HETATM    5  C5  UNL     1     -33.936   4.400   4.060  1.00 20.00     0.057 A 
HETATM    6  N8  UNL     1     -32.122   8.167   2.003  1.00 20.00    -0.192 NA
ENDROOT
BRANCH   3   7
HETATM    7  N9  UNL     1     -34.719   6.662   4.992  1.00 20.00    -0.283 NA
HETATM    8  C6  UNL     1     -34.465   6.484   6.431  1.00 20.00     0.110 A 
HETATM    9  C7  UNL     1     -34.004   7.710   5.739  1.00 20.00     0.110 A 
ENDBRANCH   3   7
TORSDOF 1
