REMARK  2 active torsions:
REMARK  status: ('A' for Active; 'I' for Inactive)
REMARK    1  A    between atoms: C2_2  and  C7_7 
REMARK    2  A    between atoms: C6_6  and  C7_7 
ROOT
HETATM    1  C1  UNL     1     -32.540   8.214   1.992  1.00 20.00     0.064 C 
HETATM    2  C4  UNL     1     -31.671   8.237   4.293  1.00 20.00     0.026 C 
HETATM    3  C6  UNL     1     -32.835   7.826   3.387  1.00 20.00     0.099 C 
HETATM    4  N8  UNL     1     -32.311   8.519   0.896  1.00 20.00    -0.197 NA
ENDROOT
BRANCH   3   5
HETATM    5  C7  UNL     1     -33.192   6.323   3.470  1.00 20.00     0.068 C 
HETATM    6  C5  UNL     1     -34.046   5.816   2.304  1.00 20.00     0.019 C 
BRANCH   5   7
HETATM    7  C2  UNL     1     -33.875   6.006   4.803  1.00 20.00     0.128 C 
HETATM    8  C3  UNL     1     -34.244   4.565   5.055  1.00 20.00     0.091 C 
HETATM    9  O9  UNL     1     -34.141   6.877   5.632  1.00 20.00    -0.298 OA
ENDBRANCH   5   7
ENDBRANCH   3   5
TORSDOF 2
