REMARK  1 active torsions:
REMARK  status: ('A' for Active; 'I' for Inactive)
REMARK    1  A    between atoms: C1_1  and  C6_6 
ROOT
HETATM    1  C2  UNL     1     -32.136   8.149   4.028  1.00 20.00     0.019 C 
HETATM    2  C3  UNL     1     -33.424   6.912   2.224  1.00 20.00     0.019 C 
HETATM    3  C4  UNL     1     -32.925   7.478   5.154  1.00 20.00     0.080 C 
HETATM    4  C5  UNL     1     -33.655   5.881   3.332  1.00 20.00     0.080 C 
HETATM    5  C6  UNL     1     -32.947   8.277   2.740  1.00 20.00     0.072 C 
HETATM    6  C7  UNL     1     -34.014   6.542   4.648  1.00 20.00     0.243 C 
HETATM    7  F9  UNL     1     -35.169   7.240   4.489  1.00 20.00    -0.206 F 
HETATM    8  F10 UNL     1     -34.268   5.597   5.586  1.00 20.00    -0.206 F 
ENDROOT
BRANCH   5   9
HETATM    9  C1  UNL     1     -32.137   8.971   1.684  1.00 20.00     0.223 C 
HETATM   10  O8  UNL     1     -31.444   8.345   0.888  1.00 20.00    -0.279 OA
HETATM   11 CL11 UNL     1     -32.317  10.698   1.751  1.00 20.00    -0.043 Cl
ENDBRANCH   5   9
TORSDOF 1
