REMARK  1 active torsions:
REMARK  status: ('A' for Active; 'I' for Inactive)
REMARK    1  A    between atoms: C6_6  and  N7_7 
ROOT
HETATM    1  C1  UNL     1     -33.494   7.158   5.045  1.00 20.00     0.284 C 
HETATM    2  C2  UNL     1     -34.638   6.302   5.573  1.00 20.00     0.106 C 
HETATM    3  C3  UNL     1     -33.884   5.903   3.064  1.00 20.00     0.280 C 
HETATM    4  C4  UNL     1     -32.623   5.100   2.737  1.00 20.00     0.055 C 
HETATM    5  N7  UNL     1     -33.680   7.258   3.595  1.00 20.00     0.102 N 
HETATM    6  S8  UNL     1     -34.828   4.992   4.342  1.00 20.00    -0.132 SA
ENDROOT
BRANCH   5   7
HETATM    7  C6  UNL     1     -32.627   8.027   2.951  1.00 20.00     0.269 C 
HETATM    8  C5  UNL     1     -32.845   8.109   1.478  1.00 20.00     0.037 C 
ENDBRANCH   5   7
TORSDOF 1
