REMARK  3 active torsions:
REMARK  status: ('A' for Active; 'I' for Inactive)
REMARK    1  A    between atoms: C1_1  and  C2_2 
REMARK    2  A    between atoms: C4_4  and  C9_9 
REMARK    3  A    between atoms: C5_5  and  C9_9 
ROOT
HETATM    1  C2  UNL     1     -32.418   7.406   2.392  1.00 20.00    -0.004 C 
HETATM    2  C4  UNL     1     -33.534   7.169   3.099  1.00 20.00    -0.015 C 
ENDROOT
BRANCH   2   3
HETATM    3  C9  UNL     1     -33.669   6.041   4.086  1.00 20.00     0.073 C 
HETATM    4  C8  UNL     1     -34.806   5.101   3.703  1.00 20.00     0.022 C 
BRANCH   3   5
HETATM    5  C5  UNL     1     -33.921   6.618   5.478  1.00 20.00     0.130 C 
HETATM    6  C7  UNL     1     -33.342   7.983   5.755  1.00 20.00     0.091 C 
HETATM    7  O10 UNL     1     -34.528   6.003   6.355  1.00 20.00    -0.298 OA
ENDBRANCH   3   5
ENDBRANCH   2   3
BRANCH   1   8
HETATM    8  C1  UNL     1     -32.297   8.492   1.446  1.00 20.00    -0.005 C 
HETATM    9  C3  UNL     1     -32.801   9.715   1.666  1.00 20.00    -0.031 C 
HETATM   10  C6  UNL     1     -32.683  10.846   0.698  1.00 20.00     0.036 C 
ENDBRANCH   1   8
TORSDOF 3
