REMARK  1 active torsions:
REMARK  status: ('A' for Active; 'I' for Inactive)
REMARK    1  A    between atoms: C8_8  and  O11_11 
ROOT
HETATM    1  C1  UNL     1     -31.359   8.438   3.811  1.00 20.00    -0.023 C 
HETATM    2  C2  UNL     1     -32.044   9.591   3.740  1.00 20.00    -0.022 C 
HETATM    3  C3  UNL     1     -33.135   9.689   0.065  1.00 20.00     0.011 A 
HETATM    4  C4  UNL     1     -31.930  10.440   0.562  1.00 20.00     0.011 A 
HETATM    5  C5  UNL     1     -31.672   7.928   1.392  1.00 20.00     0.021 C 
HETATM    6  C6  UNL     1     -32.001   7.460   2.843  1.00 20.00     0.038 C 
HETATM    7  C7  UNL     1     -33.124   9.400   2.692  1.00 20.00     0.046 C 
HETATM    8  C8  UNL     1     -33.465   7.918   2.957  1.00 20.00     0.136 C 
HETATM    9  C9  UNL     1     -32.446   9.254   1.332  1.00 20.00    -0.030 A 
ENDROOT
BRANCH   8  10
HETATM   10  O11 UNL     1     -34.047   7.666   4.220  1.00 20.00    -0.389 OA
HETATM   11  C10 UNL     1     -34.048   6.277   4.535  1.00 20.00     0.202 C 
ENDBRANCH   8  10
TORSDOF 1
