REMARK  1 active torsions:
REMARK  status: ('A' for Active; 'I' for Inactive)
REMARK    1  A    between atoms: C3_3  and  C9_9 
ROOT
HETATM    1  C1  UNL     1     -32.820   9.611   1.168  1.00 20.00     0.013 C 
HETATM    2  C2  UNL     1     -32.929   8.664   1.898  1.00 20.00    -0.099 C 
HETATM    3  C4  UNL     1     -34.262   4.799   3.195  1.00 20.00     0.000 C 
HETATM    4  C5  UNL     1     -34.802   6.013   3.942  1.00 20.00     0.002 C 
HETATM    5  C6  UNL     1     -32.781   4.956   2.872  1.00 20.00     0.002 C 
HETATM    6  C7  UNL     1     -34.543   7.311   3.176  1.00 20.00     0.030 C 
HETATM    7  C8  UNL     1     -32.504   6.245   2.097  1.00 20.00     0.030 C 
HETATM    8  C9  UNL     1     -33.062   7.499   2.795  1.00 20.00     0.083 C 
ENDROOT
BRANCH   8   9
HETATM    9  C3  UNL     1     -32.252   7.799   4.031  1.00 20.00     0.143 C 
HETATM   10  C10 UNL     1     -30.780   8.043   3.832  1.00 20.00     0.093 C 
HETATM   11  O11 UNL     1     -32.768   7.844   5.147  1.00 20.00    -0.297 OA
ENDBRANCH   8   9
TORSDOF 1
