REMARK  2 active torsions:
REMARK  status: ('A' for Active; 'I' for Inactive)
REMARK    1  A    between atoms: C5_5  and  O9_9 
REMARK    2  A    between atoms: C8_8  and  O9_9 
ROOT
HETATM    1  C1  UNL     1     -33.746   6.900   6.258  1.00 20.00    -0.028 C 
HETATM    2  C2  UNL     1     -33.131   7.371   5.164  1.00 20.00     0.002 C 
HETATM    3  C3  UNL     1     -34.433   5.569   6.306  1.00 20.00     0.028 C 
HETATM    4  C4  UNL     1     -34.069   4.665   5.125  1.00 20.00     0.022 C 
HETATM    5  C5  UNL     1     -33.090   6.630   3.855  1.00 20.00     0.158 C 
HETATM    6  C6  UNL     1     -34.071   5.452   3.819  1.00 20.00     0.090 C 
HETATM    7 BR10 UNL     1     -33.577   4.242   2.354  1.00 20.00    -0.088 Br
ENDROOT
BRANCH   5   8
HETATM    8  O9  UNL     1     -33.439   7.533   2.805  1.00 20.00    -0.381 OA
BRANCH   8   9
HETATM    9  C8  UNL     1     -32.336   8.347   2.437  1.00 20.00     0.164 C 
HETATM   10  C7  UNL     1     -32.761   9.281   1.324  1.00 20.00     0.033 C 
ENDBRANCH   8   9
ENDBRANCH   5   8
TORSDOF 2
