REMARK  1 active torsions:
REMARK  status: ('A' for Active; 'I' for Inactive)
REMARK    1  A    between atoms: C3_3  and  C8_8 
ROOT
HETATM    1  C1  UNL     1     -32.596   9.129   3.047  1.00 20.00    -0.025 C 
HETATM    2  C2  UNL     1     -33.051   8.560   1.922  1.00 20.00    -0.024 C 
HETATM    3  C4  UNL     1     -31.364   7.212   2.717  1.00 20.00     0.018 C 
HETATM    4  C5  UNL     1     -31.943   8.043   3.868  1.00 20.00     0.013 C 
HETATM    5  C6  UNL     1     -32.717   7.087   1.998  1.00 20.00     0.024 C 
HETATM    6  C7  UNL     1     -33.021   7.062   4.418  1.00 20.00     0.005 C 
HETATM    7  C8  UNL     1     -33.600   6.417   3.099  1.00 20.00     0.027 C 
HETATM    8  C10 UNL     1     -34.021   7.720   5.363  1.00 20.00     0.012 C 
HETATM    9  C11 UNL     1     -35.103   6.596   2.863  1.00 20.00     0.024 C 
ENDROOT
BRANCH   7  10
HETATM   10  C3  UNL     1     -33.336   4.928   3.073  1.00 20.00     0.132 C 
HETATM   11  C9  UNL     1     -34.096   4.089   4.064  1.00 20.00     0.091 C 
HETATM   12  O12 UNL     1     -32.540   4.428   2.280  1.00 20.00    -0.298 OA
ENDBRANCH   7  10
TORSDOF 1
