REMARK  2 active torsions:
REMARK  status: ('A' for Active; 'I' for Inactive)
REMARK    1  A    between atoms: C3_3  and  C5_5 
REMARK    2  A    between atoms: C3_3  and  O8_8 
ROOT
HETATM    1  C1  UNL     1     -34.376   6.715   4.984  1.00 20.00    -0.005 C 
HETATM    2  C2  UNL     1     -34.159   5.967   6.069  1.00 20.00     0.042 C 
HETATM    3  C4  UNL     1     -34.773   4.481   4.056  1.00 20.00     0.097 C 
HETATM    4  C5  UNL     1     -34.579   5.959   3.709  1.00 20.00     0.118 C 
HETATM    5  S9  UNL     1     -34.158   4.265   5.765  1.00 20.00    -0.141 SA
ENDROOT
BRANCH   4   6
HETATM    6  C3  UNL     1     -33.357   6.175   2.869  1.00 20.00     0.267 C 
HETATM    7  O7  UNL     1     -32.626   5.275   2.479  1.00 20.00    -0.265 OA
BRANCH   6   8
HETATM    8  O8  UNL     1     -33.202   7.507   2.623  1.00 20.00    -0.326 OA
HETATM    9  C6  UNL     1     -32.066   7.858   1.827  1.00 20.00     0.213 C 
ENDBRANCH   6   8
ENDBRANCH   4   6
TORSDOF 2
