REMARK  2 active torsions:
REMARK  status: ('A' for Active; 'I' for Inactive)
REMARK    1  A    between atoms: C1_1  and  C8_8 
REMARK    2  A    between atoms: C3_3  and  C8_8 
ROOT
HETATM    1  C2  UNL     1     -33.009   9.243   1.868  1.00 20.00     0.153 A 
HETATM    2  C3  UNL     1     -32.560   8.062   2.708  1.00 20.00     0.093 A 
HETATM    3  C5  UNL     1     -32.312  10.557   1.862  1.00 20.00     0.042 C 
HETATM    4  C6  UNL     1     -31.364   8.151   3.602  1.00 20.00     0.049 C 
HETATM    5  O10 UNL     1     -32.253   8.161   1.308  1.00 20.00    -0.369 OA
ENDROOT
BRANCH   2   6
HETATM    6  C8  UNL     1     -33.557   6.994   3.033  1.00 20.00     0.087 C 
HETATM    7  C7  UNL     1     -32.970   5.588   2.839  1.00 20.00     0.021 C 
BRANCH   6   8
HETATM    8  C1  UNL     1     -34.081   7.151   4.468  1.00 20.00     0.129 C 
HETATM    9  C4  UNL     1     -35.086   6.129   4.937  1.00 20.00     0.091 C 
HETATM   10  O9  UNL     1     -33.746   8.085   5.196  1.00 20.00    -0.298 OA
ENDBRANCH   6   8
ENDBRANCH   2   6
TORSDOF 2
