REMARK  1 active torsions:
REMARK  status: ('A' for Active; 'I' for Inactive)
REMARK    1  A    between atoms: C3_3  and  C8_8 
ROOT
HETATM    1  C1  UNL     1     -35.070   5.916   2.749  1.00 20.00    -0.024 C 
HETATM    2  C2  UNL     1     -35.361   5.993   4.057  1.00 20.00    -0.021 C 
HETATM    3  C4  UNL     1     -33.165   4.417   3.143  1.00 20.00     0.010 C 
HETATM    4  C5  UNL     1     -33.477   4.511   4.656  1.00 20.00     0.014 C 
HETATM    5  C6  UNL     1     -33.168   7.001   4.584  1.00 20.00     0.026 C 
HETATM    6  C7  UNL     1     -33.599   5.721   2.437  1.00 20.00     0.019 C 
HETATM    7  C8  UNL     1     -32.800   6.880   3.082  1.00 20.00     0.063 C 
HETATM    8  C9  UNL     1     -34.160   5.869   4.981  1.00 20.00    -0.026 C 
HETATM    9  C11 UNL     1     -34.548   5.960   6.454  1.00 20.00     0.019 C 
ENDROOT
BRANCH   7  10
HETATM   10  C3  UNL     1     -33.035   8.183   2.374  1.00 20.00     0.128 C 
HETATM   11  C10 UNL     1     -34.165   9.036   2.883  1.00 20.00     0.091 C 
HETATM   12  O12 UNL     1     -32.337   8.536   1.425  1.00 20.00    -0.298 OA
ENDBRANCH   7  10
TORSDOF 1
