REMARK  3 active torsions:
REMARK  status: ('A' for Active; 'I' for Inactive)
REMARK    1  A    between atoms: C1_1  and  C7_7 
REMARK    2  A    between atoms: C2_2  and  C8_8 
REMARK    3  A    between atoms: C4_4  and  C9_9 
ROOT
HETATM    1  C8  UNL     1     -33.956   6.139   3.369  1.00 20.00     0.233 A 
HETATM    2  C9  UNL     1     -34.556   6.148   4.737  1.00 20.00     0.186 A 
HETATM    3  O10 UNL     1     -35.357   6.294   3.556  1.00 20.00    -0.358 OA
ENDROOT
BRANCH   1   4
HETATM    4  C2  UNL     1     -33.358   7.346   2.801  1.00 20.00    -0.071 C 
HETATM    5  C1  UNL     1     -32.867   8.338   2.335  1.00 20.00    -0.099 C 
BRANCH   5   6
HETATM    6  C7  UNL     1     -32.269   9.545   1.768  1.00 20.00     0.065 A 
HETATM    7  C5  UNL     1     -33.186  10.592   1.233  1.00 20.00     0.018 A 
HETATM    8  C6  UNL     1     -32.375   9.750   0.294  1.00 20.00     0.018 A 
ENDBRANCH   5   6
ENDBRANCH   1   4
BRANCH   2   9
HETATM    9  C4  UNL     1     -34.318   7.247   5.663  1.00 20.00    -0.002 C 
HETATM   10  C3  UNL     1     -33.242   7.342   6.451  1.00 20.00     0.009 C 
ENDBRANCH   2   9
TORSDOF 3
