REMARK  0 active torsions:
REMARK  status: ('A' for Active; 'I' for Inactive)
ROOT
HETATM    1  C1  UNL     1     -32.589   8.858   0.746  1.00 20.00     0.017 C 
HETATM    2  C2  UNL     1     -32.659   8.057   1.637  1.00 20.00    -0.057 C 
HETATM    3  C3  UNL     1     -33.425   6.814   4.967  1.00 20.00     0.182 C 
HETATM    4  C4  UNL     1     -33.627   4.970   3.296  1.00 20.00     0.182 C 
HETATM    5  C5  UNL     1     -32.744   7.080   2.727  1.00 20.00     0.341 C 
HETATM    6  C6  UNL     1     -34.237   5.565   4.578  1.00 20.00    -0.004 C 
HETATM    7  C7  UNL     1     -35.702   5.964   4.315  1.00 20.00     0.019 C 
HETATM    8  C8  UNL     1     -34.191   4.533   5.711  1.00 20.00     0.019 C 
HETATM    9  O9  UNL     1     -33.327   7.718   3.865  1.00 20.00    -0.350 OA
HETATM   10  O10 UNL     1     -33.519   5.966   2.277  1.00 20.00    -0.350 OA
ENDROOT
TORSDOF 0
