REMARK  3 active torsions:
REMARK  status: ('A' for Active; 'I' for Inactive)
REMARK    1  A    between atoms: C3_3  and  C7_7 
REMARK    2  A    between atoms: C5_5  and  C8_8 
REMARK    3  A    between atoms: C6_6  and  C9_9 
ROOT
HETATM    1  C7  UNL     1     -33.694   7.539   3.000  1.00 20.00     0.097 A 
HETATM    2  C8  UNL     1     -33.484   6.076   3.338  1.00 20.00     0.013 A 
HETATM    3  C9  UNL     1     -33.574   7.101   4.446  1.00 20.00     0.013 A 
ENDROOT
BRANCH   1   4
HETATM    4  C3  UNL     1     -32.561   8.249   2.435  1.00 20.00     0.177 C 
HETATM    5  O10 UNL     1     -31.430   7.886   2.863  1.00 20.00    -0.648 OA
HETATM    6  O11 UNL     1     -32.860   9.138   1.590  1.00 20.00    -0.648 OA
ENDBRANCH   1   4
BRANCH   2   7
HETATM    7  C5  UNL     1     -34.600   5.077   3.682  1.00 20.00     0.014 C 
HETATM    8  C1  UNL     1     -34.230   4.363   4.975  1.00 20.00    -0.025 C 
HETATM    9  C2  UNL     1     -34.310   5.275   5.961  1.00 20.00    -0.025 C 
HETATM   10  C6  UNL     1     -34.732   6.589   5.317  1.00 20.00     0.014 C 
HETATM   11  C4  UNL     1     -35.697   5.976   4.283  1.00 20.00     0.017 C 
ENDBRANCH   2   7
TORSDOF 3
