REMARK  1 active torsions:
REMARK  status: ('A' for Active; 'I' for Inactive)
REMARK    1  A    between atoms: C3_3  and  C7_7 
ROOT
HETATM    1  C1  UNL     1     -34.155   5.236   6.034  1.00 20.00    -0.030 C 
HETATM    2  C2  UNL     1     -34.246   4.275   5.109  1.00 20.00    -0.026 C 
HETATM    3  C4  UNL     1     -34.440   6.608   5.501  1.00 20.00     0.033 C 
HETATM    4  C5  UNL     1     -33.406   5.290   2.917  1.00 20.00     0.021 C 
HETATM    5  C6  UNL     1     -34.597   4.858   3.802  1.00 20.00     0.013 C 
HETATM    6  C7  UNL     1     -34.019   6.705   2.824  1.00 20.00     0.060 C 
HETATM    7  C8  UNL     1     -34.903   6.359   4.057  1.00 20.00     0.008 C 
ENDROOT
BRANCH   6   8
HETATM    8  C3  UNL     1     -33.080   7.909   2.915  1.00 20.00     0.127 C 
HETATM    9  C9  UNL     1     -31.737   7.772   2.250  1.00 20.00     0.091 C 
HETATM   10  O10 UNL     1     -33.406   8.939   3.503  1.00 20.00    -0.298 OA
ENDBRANCH   6   8
TORSDOF 1
