REMARK  1 active torsions:
REMARK  status: ('A' for Active; 'I' for Inactive)
REMARK    1  A    between atoms: C2_2  and  C3_3 
ROOT
HETATM    1  C1  UNL     1     -34.377   6.837   1.788  1.00 20.00    -0.011 C 
HETATM    2  C2  UNL     1     -33.253   7.236   2.402  1.00 20.00    -0.019 C 
HETATM    3  C4  UNL     1     -35.554   6.614   3.912  1.00 20.00     0.010 C 
HETATM    4  C5  UNL     1     -34.246   7.087   4.614  1.00 20.00     0.011 C 
HETATM    5  C6  UNL     1     -35.015   5.807   2.704  1.00 20.00     0.017 C 
HETATM    6  C7  UNL     1     -33.140   6.485   3.709  1.00 20.00     0.030 C 
HETATM    7  C8  UNL     1     -33.746   5.120   3.283  1.00 20.00    -0.033 C 
HETATM    8  C9  UNL     1     -32.907   4.343   2.241  1.00 20.00     0.016 C 
HETATM    9  C10 UNL     1     -34.012   4.139   4.441  1.00 20.00     0.016 C 
ENDROOT
BRANCH   2  10
HETATM   10  C3  UNL     1     -32.320   8.224   1.904  1.00 20.00     0.265 C 
HETATM   11  O11 UNL     1     -31.298   8.557   2.511  1.00 20.00    -0.302 OA
ENDBRANCH   2  10
TORSDOF 1
