REMARK  2 active torsions:
REMARK  status: ('A' for Active; 'I' for Inactive)
REMARK    1  A    between atoms: C4_4  and  O10_10 
REMARK    2  A    between atoms: C5_5  and  C6_6 
ROOT
HETATM    1  C1  UNL     1     -34.273   6.039   4.938  1.00 20.00     0.040 A 
HETATM    2  C2  UNL     1     -33.605   7.208   4.590  1.00 20.00     0.034 A 
HETATM    3  C3  UNL     1     -33.349   4.998   3.009  1.00 20.00     0.153 A 
HETATM    4  C4  UNL     1     -34.148   4.909   4.138  1.00 20.00     0.083 A 
HETATM    5  C5  UNL     1     -32.830   7.194   3.441  1.00 20.00     0.056 A 
HETATM    6  N9  UNL     1     -32.684   6.116   2.639  1.00 20.00    -0.258 NA
ENDROOT
BRANCH   5   7
HETATM    7  C6  UNL     1     -32.113   8.392   3.035  1.00 20.00     0.027 C 
HETATM    8  C7  UNL     1     -32.258   9.043   1.858  1.00 20.00    -0.029 C 
HETATM    9  C8  UNL     1     -33.199   8.618   0.778  1.00 20.00     0.036 C 
ENDBRANCH   5   7
BRANCH   4  10
HETATM   10  O10 UNL     1     -34.787   3.755   4.452  1.00 20.00    -0.359 OA
HETATM   11  H19 UNL     1     -35.302   3.862   5.270  1.00 20.00     0.217 HD
ENDBRANCH   4  10
TORSDOF 2
