REMARK  1 active torsions:
REMARK  status: ('A' for Active; 'I' for Inactive)
REMARK    1  A    between atoms: C3_3  and  C7_7 
ROOT
HETATM    1  C1  UNL     1     -33.409   6.270   5.313  1.00 20.00     0.346 C 
HETATM    2  C2  UNL     1     -33.816   5.877   2.994  1.00 20.00     0.233 C 
HETATM    3  C3  UNL     1     -33.569   7.403   2.939  1.00 20.00     0.081 C 
HETATM    4  C4  UNL     1     -32.607   5.018   2.588  1.00 20.00     0.044 C 
HETATM    5  C6  UNL     1     -34.598   4.251   4.692  1.00 20.00     0.311 C 
HETATM    6  N8  UNL     1     -34.320   5.639   4.361  1.00 20.00     0.098 N 
HETATM    7  S9  UNL     1     -32.813   7.804   4.546  1.00 20.00    -0.132 SA
ENDROOT
BRANCH   3   8
HETATM    8  C7  UNL     1     -32.716   7.904   1.785  1.00 20.00     0.013 C 
HETATM    9  C5  UNL     1     -32.506   9.381   1.854  1.00 20.00     0.006 C 
ENDBRANCH   3   8
TORSDOF 1
