REMARK  2 active torsions:
REMARK  status: ('A' for Active; 'I' for Inactive)
REMARK    1  A    between atoms: C5_5  and  O10_10 
REMARK    2  A    between atoms: C9_9  and  O10_10 
ROOT
HETATM    1  C1  UNL     1     -32.346  10.371   0.969  1.00 20.00     0.012 C 
HETATM    2  C2  UNL     1     -32.283   9.503   1.795  1.00 20.00    -0.110 C 
HETATM    3  C3  UNL     1     -32.210   7.031   2.328  1.00 20.00     0.053 A 
HETATM    4  C4  UNL     1     -32.207   8.467   2.782  1.00 20.00     0.095 A 
HETATM    5  C5  UNL     1     -33.417   7.599   3.016  1.00 20.00     0.139 A 
ENDROOT
BRANCH   5   6
HETATM    6  O10 UNL     1     -33.628   7.172   4.353  1.00 20.00    -0.375 OA
BRANCH   6   7
HETATM    7  C9  UNL     1     -34.329   5.929   4.396  1.00 20.00     0.050 C 
HETATM    8  C6  UNL     1     -33.499   4.877   3.662  1.00 20.00     0.045 C 
HETATM    9  C7  UNL     1     -34.501   5.549   5.865  1.00 20.00     0.045 C 
HETATM   10  C8  UNL     1     -35.689   6.114   3.726  1.00 20.00     0.045 C 
ENDBRANCH   6   7
ENDBRANCH   5   6
TORSDOF 2
