REMARK  0 active torsions:
REMARK  status: ('A' for Active; 'I' for Inactive)
ROOT
HETATM    1  C1  UNL     1     -33.559   5.509   3.118  1.00 20.00     0.223 C 
HETATM    2  C2  UNL     1     -34.100   7.693   3.852  1.00 20.00     0.130 C 
HETATM    3  C3  UNL     1     -34.734   5.396   4.077  1.00 20.00     0.079 C 
HETATM    4  C4  UNL     1     -34.657   6.710   4.881  1.00 20.00     0.012 C 
HETATM    5  C5  UNL     1     -34.715   4.110   4.883  1.00 20.00     0.020 C 
HETATM    6  C6  UNL     1     -33.757   6.644   6.118  1.00 20.00     0.012 C 
HETATM    7  C7  UNL     1     -32.277   7.444   2.123  1.00 20.00     0.152 C 
HETATM    8  N8  UNL     1     -33.255   6.866   3.020  1.00 20.00    -0.356 N 
HETATM    9  O9  UNL     1     -33.038   4.577   2.523  1.00 20.00    -0.273 OA
ENDROOT
TORSDOF 0
