REMARK  1 active torsions:
REMARK  status: ('A' for Active; 'I' for Inactive)
REMARK    1  A    between atoms: C3_3  and  C8_8 
ROOT
HETATM    1  C1  UNL     1     -32.750   9.092   2.083  1.00 20.00    -0.079 C 
HETATM    2  C2  UNL     1     -32.431   9.533   0.864  1.00 20.00    -0.028 C 
HETATM    3  C4  UNL     1     -34.145   8.875   2.614  1.00 20.00     0.039 C 
HETATM    4  C5  UNL     1     -31.770   7.227   3.356  1.00 20.00     0.023 C 
HETATM    5  C6  UNL     1     -32.620   9.191   4.410  1.00 20.00     0.014 C 
HETATM    6  C7  UNL     1     -31.788   8.758   3.201  1.00 20.00     0.015 C 
HETATM    7  C8  UNL     1     -33.157   6.927   3.961  1.00 20.00     0.077 C 
HETATM    8  C9  UNL     1     -33.824   8.322   4.021  1.00 20.00     0.003 C 
HETATM    9  C10 UNL     1     -33.429   9.856  -0.198  1.00 20.00     0.036 C 
ENDROOT
BRANCH   7  10
HETATM   10  C3  UNL     1     -33.940   5.921   3.178  1.00 20.00     0.223 C 
HETATM   11  O11 UNL     1     -35.023   6.198   2.673  1.00 20.00    -0.279 OA
HETATM   12 CL12 UNL     1     -33.132   4.385   3.094  1.00 20.00    -0.043 Cl
ENDBRANCH   7  10
TORSDOF 1
