REMARK  0 active torsions:
REMARK  status: ('A' for Active; 'I' for Inactive)
ROOT
HETATM    1  C1  UNL     1     -36.973   6.342   3.357  1.00 20.00     0.015 C 
HETATM    2  C2  UNL     1     -35.801   6.209   3.578  1.00 20.00    -0.075 C 
HETATM    3  C3  UNL     1     -33.177   6.348   1.796  1.00 20.00     0.034 C 
HETATM    4  C4  UNL     1     -33.944   6.729   6.101  1.00 20.00     0.034 C 
HETATM    5  C5  UNL     1     -33.688   5.256   2.724  1.00 20.00     0.057 C 
HETATM    6  C6  UNL     1     -34.140   5.480   5.254  1.00 20.00     0.057 C 
HETATM    7  C7  UNL     1     -32.717   7.419   2.771  1.00 20.00     0.275 C 
HETATM    8  C8  UNL     1     -33.146   7.632   5.175  1.00 20.00     0.275 C 
HETATM    9  C9  UNL     1     -34.357   6.045   3.850  1.00 20.00     0.221 C 
HETATM   10  N10 UNL     1     -33.715   7.380   3.846  1.00 20.00     0.110 N 
ENDROOT
TORSDOF 0
