REMARK  1 active torsions:
REMARK  status: ('A' for Active; 'I' for Inactive)
REMARK    1  A    between atoms: C2_2  and  C3_3 
ROOT
HETATM    1  C1  UNL     1     -33.947   6.140   3.586  1.00 20.00    -0.043 C 
HETATM    2  C2  UNL     1     -33.403   6.695   2.503  1.00 20.00     0.055 C 
HETATM    3  C4  UNL     1     -34.913   4.994   3.787  1.00 20.00     0.040 C 
HETATM    4  C5  UNL     1     -35.144   5.634   5.171  1.00 20.00     0.046 C 
HETATM    5  C6  UNL     1     -33.815   6.423   5.072  1.00 20.00     0.199 C 
HETATM    6  F9  UNL     1     -33.873   7.703   5.508  1.00 20.00    -0.245 F 
ENDROOT
BRANCH   2   7
HETATM    7  C3  UNL     1     -32.461   7.841   2.624  1.00 20.00     0.145 C 
HETATM    8  C7  UNL     1     -32.861   9.123   1.941  1.00 20.00     0.096 C 
HETATM    9  O8  UNL     1     -31.418   7.763   3.269  1.00 20.00    -0.294 OA
ENDBRANCH   2   7
TORSDOF 1
