REMARK  1 active torsions:
REMARK  status: ('A' for Active; 'I' for Inactive)
REMARK    1  A    between atoms: C1_1  and  C4_4 
ROOT
HETATM    1  C1  UNL     1     -33.300   7.909   3.278  1.00 20.00    -0.049 C 
HETATM    2  C2  UNL     1     -33.012   8.665   2.392  1.00 20.00     0.008 C 
HETATM    3 CL8  UNL     1     -32.590   9.770   1.097  1.00 20.00    -0.023 Cl
ENDROOT
BRANCH   1   4
HETATM    4  C4  UNL     1     -33.645   7.007   4.337  1.00 20.00     0.147 A 
HETATM    5  C3  UNL     1     -33.783   5.522   4.065  1.00 20.00     0.166 A 
HETATM    6  C5  UNL     1     -33.568   4.910   2.726  1.00 20.00     0.044 C 
HETATM    7  O7  UNL     1     -34.925   6.381   4.148  1.00 20.00    -0.356 OA
HETATM    8  C6  UNL     1     -33.411   7.473   5.738  1.00 20.00     0.063 C 
ENDBRANCH   1   4
TORSDOF 1
