REMARK  0 active torsions:
REMARK  status: ('A' for Active; 'I' for Inactive)
ROOT
HETATM    1  C1  UNL     1     -32.682   8.301   4.465  1.00 20.00     0.057 C 
HETATM    2  C2  UNL     1     -34.417   5.231   5.569  1.00 20.00    -0.019 C 
HETATM    3  C3  UNL     1     -33.914   6.252   4.864  1.00 20.00    -0.051 C 
HETATM    4  C4  UNL     1     -33.356   7.507   5.316  1.00 20.00    -0.052 C 
HETATM    5  C5  UNL     1     -32.412   7.881   3.060  1.00 20.00     0.150 C 
HETATM    6  C6  UNL     1     -34.877   4.122   4.678  1.00 20.00     0.028 C 
HETATM    7  C7  UNL     1     -32.761   6.463   2.652  1.00 20.00     0.092 C 
HETATM    8  C8  UNL     1     -34.225   4.475   3.339  1.00 20.00     0.013 C 
HETATM    9  C9  UNL     1     -34.006   5.989   3.388  1.00 20.00     0.026 C 
HETATM   10  C10 UNL     1     -33.568   7.910   6.747  1.00 20.00     0.049 C 
HETATM   11  O11 UNL     1     -31.851   8.657   2.288  1.00 20.00    -0.293 OA
ENDROOT
TORSDOF 0
