REMARK  1 active torsions:
REMARK  status: ('A' for Active; 'I' for Inactive)
REMARK    1  A    between atoms: C1_1  and  C7_7 
ROOT
HETATM    1  C2  UNL     1     -34.278   3.912   4.035  1.00 20.00     0.001 C 
HETATM    2  C3  UNL     1     -32.999   7.536   5.233  1.00 20.00     0.014 C 
HETATM    3  C4  UNL     1     -34.435   4.535   5.412  1.00 20.00     0.005 C 
HETATM    4  C5  UNL     1     -33.612   5.025   3.245  1.00 20.00     0.006 C 
HETATM    5  C6  UNL     1     -34.183   7.012   6.036  1.00 20.00     0.006 C 
HETATM    6  C7  UNL     1     -33.536   7.572   3.807  1.00 20.00     0.076 C 
HETATM    7  C8  UNL     1     -34.850   5.981   5.125  1.00 20.00    -0.010 C 
HETATM    8  C9  UNL     1     -34.360   6.288   3.689  1.00 20.00     0.002 C 
ENDROOT
BRANCH   6   9
HETATM    9  C1  UNL     1     -32.455   7.700   2.782  1.00 20.00     0.223 C 
HETATM   10  O10 UNL     1     -31.557   6.869   2.686  1.00 20.00    -0.279 OA
HETATM   11 CL11 UNL     1     -32.648   9.121   1.801  1.00 20.00    -0.043 Cl
ENDBRANCH   6   9
TORSDOF 1
