REMARK  1 active torsions:
REMARK  status: ('A' for Active; 'I' for Inactive)
REMARK    1  A    between atoms: C4_4  and  C5_5 
ROOT
HETATM    1  C1  UNL     1     -33.858   5.652   3.352  1.00 20.00    -0.022 C 
HETATM    2  C2  UNL     1     -32.583   5.825   2.948  1.00 20.00    -0.021 C 
HETATM    3  C3  UNL     1     -34.373   7.990   2.747  1.00 20.00    -0.006 C 
HETATM    4  C4  UNL     1     -33.096   8.155   2.352  1.00 20.00     0.009 C 
HETATM    5  C6  UNL     1     -33.680   7.429   5.038  1.00 20.00     0.013 C 
HETATM    6  C7  UNL     1     -32.200   7.627   4.570  1.00 20.00     0.014 C 
HETATM    7  C8  UNL     1     -34.533   6.933   3.836  1.00 20.00     0.031 C 
HETATM    8  C9  UNL     1     -32.089   7.264   3.062  1.00 20.00     0.045 C 
ENDROOT
BRANCH   4   9
HETATM    9  C5  UNL     1     -32.721   9.122   1.333  1.00 20.00     0.248 C 
HETATM   10  O10 UNL     1     -32.166   8.729   0.295  1.00 20.00    -0.274 OA
HETATM   11 CL11 UNL     1     -33.084  10.810   1.650  1.00 20.00    -0.039 Cl
ENDBRANCH   4   9
TORSDOF 1
