REMARK  2 active torsions:
REMARK  status: ('A' for Active; 'I' for Inactive)
REMARK    1  A    between atoms: C1_1  and  C7_7 
REMARK    2  A    between atoms: C4_4  and  C7_7 
ROOT
HETATM    1  C6  UNL     1     -33.228   7.137   5.816  1.00 20.00     0.018 C 
HETATM    2  C7  UNL     1     -33.359   7.067   4.296  1.00 20.00     0.055 C 
ENDROOT
BRANCH   2   3
HETATM    3  C1  UNL     1     -33.895   5.708   3.855  1.00 20.00     0.127 C 
HETATM    4  C5  UNL     1     -34.775   4.972   4.834  1.00 20.00     0.091 C 
HETATM    5  O8  UNL     1     -33.612   5.210   2.765  1.00 20.00    -0.298 OA
ENDBRANCH   2   3
BRANCH   2   6
HETATM    6  C4  UNL     1     -32.017   7.339   3.626  1.00 20.00    -0.004 A 
HETATM    7  C2  UNL     1     -31.966   7.930   2.245  1.00 20.00     0.006 A 
HETATM    8  C3  UNL     1     -31.542   8.752   3.430  1.00 20.00     0.006 A 
ENDBRANCH   2   6
TORSDOF 2
