REMARK  1 active torsions:
REMARK  status: ('A' for Active; 'I' for Inactive)
REMARK    1  A    between atoms: C6_6  and  N10_10 
ROOT
HETATM    1  C1  UNL     1     -32.655   8.317   1.186  1.00 20.00     0.064 C 
HETATM    2  C2  UNL     1     -31.921   8.140   3.562  1.00 20.00     0.021 C 
HETATM    3  C3  UNL     1     -32.980   7.748   4.589  1.00 20.00     0.037 C 
HETATM    4  C4  UNL     1     -33.472   6.478   2.642  1.00 20.00     0.055 C 
HETATM    5  C5  UNL     1     -32.295   7.393   2.270  1.00 20.00     0.095 C 
HETATM    6  C6  UNL     1     -33.375   6.342   4.158  1.00 20.00     0.223 C 
HETATM    7  N9  UNL     1     -32.940   9.047   0.331  1.00 20.00    -0.197 NA
ENDROOT
BRANCH   6   8
HETATM    8  N10 UNL     1     -34.618   5.897   4.763  1.00 20.00     0.084 N 
HETATM    9  C7  UNL     1     -34.512   5.885   6.225  1.00 20.00     0.309 C 
HETATM   10  C8  UNL     1     -34.987   4.564   4.275  1.00 20.00     0.309 C 
ENDBRANCH   6   8
TORSDOF 1
