REMARK  2 active torsions:
REMARK  status: ('A' for Active; 'I' for Inactive)
REMARK    1  A    between atoms: C3_3  and  C7_7 
REMARK    2  A    between atoms: C6_6  and  O11_11 
ROOT
HETATM    1  C1  UNL     1     -32.860   4.607   2.596  1.00 20.00    -0.028 C 
HETATM    2  C2  UNL     1     -32.564   5.913   2.651  1.00 20.00     0.002 C 
HETATM    3  C4  UNL     1     -33.788   3.933   3.560  1.00 20.00     0.028 C 
HETATM    4  C5  UNL     1     -34.124   4.800   4.778  1.00 20.00     0.023 C 
HETATM    5  C6  UNL     1     -33.148   6.850   3.671  1.00 20.00     0.158 C 
HETATM    6  C7  UNL     1     -34.390   6.272   4.403  1.00 20.00     0.039 C 
HETATM    7  C8  UNL     1     -35.683   6.407   3.581  1.00 20.00     0.026 C 
ENDROOT
BRANCH   6   8
HETATM    8  C3  UNL     1     -34.593   7.026   5.696  1.00 20.00     0.243 C 
HETATM    9  O10 UNL     1     -33.886   7.963   6.050  1.00 20.00    -0.306 OA
ENDBRANCH   6   8
BRANCH   5  10
HETATM   10  O11 UNL     1     -33.478   8.069   3.006  1.00 20.00    -0.386 OA
HETATM   11  C9  UNL     1     -32.331   8.884   2.825  1.00 20.00     0.202 C 
ENDBRANCH   5  10
TORSDOF 2
