REMARK  1 active torsions:
REMARK  status: ('A' for Active; 'I' for Inactive)
REMARK    1  A    between atoms: C8_8  and  C9_9 
ROOT
HETATM    1  C1  UNL     1     -32.269   8.606   1.008  1.00 20.00     0.218 C 
HETATM    2  C8  UNL     1     -32.985   7.806   1.743  1.00 20.00     0.044 C 
HETATM    3  O10 UNL     1     -31.622   9.328   0.343  1.00 20.00    -0.284 OA
ENDROOT
BRANCH   2   4
HETATM    4  C9  UNL     1     -32.478   7.060   2.943  1.00 20.00     0.057 C 
HETATM    5  C6  UNL     1     -33.138   7.548   4.207  1.00 20.00    -0.014 C 
HETATM    6  C4  UNL     1     -34.167   7.028   4.891  1.00 20.00    -0.003 C 
HETATM    7  C2  UNL     1     -34.965   5.883   4.540  1.00 20.00    -0.000 C 
HETATM    8  C3  UNL     1     -34.622   4.855   3.756  1.00 20.00    -0.000 C 
HETATM    9  C5  UNL     1     -33.372   4.646   3.073  1.00 20.00    -0.003 C 
HETATM   10  C7  UNL     1     -32.479   5.573   2.701  1.00 20.00    -0.014 C 
ENDBRANCH   2   4
TORSDOF 1
