REMARK  2 active torsions:
REMARK  status: ('A' for Active; 'I' for Inactive)
REMARK    1  A    between atoms: C4_4  and  C5_5 
REMARK    2  A    between atoms: C9_9  and  C11_11 
ROOT
HETATM    1  C1  UNL     1     -33.016   9.760  -0.759  1.00 20.00     0.012 C 
HETATM    2  C2  UNL     1     -33.028   9.578   0.428  1.00 20.00    -0.117 C 
HETATM    3  C11 UNL     1     -33.051   9.364   1.877  1.00 20.00     0.098 C 
ENDROOT
BRANCH   3   4
HETATM    4  C9  UNL     1     -32.047   8.283   2.290  1.00 20.00     0.000 C 
HETATM    5  C6  UNL     1     -31.660   8.410   3.776  1.00 20.00     0.033 C 
HETATM    6  C3  UNL     1     -32.642   7.775   4.720  1.00 20.00    -0.016 C 
HETATM    7  C4  UNL     1     -33.594   6.926   4.310  1.00 20.00    -0.016 C 
HETATM    8  C7  UNL     1     -33.775   6.496   2.886  1.00 20.00     0.042 C 
HETATM    9  C8  UNL     1     -32.583   6.873   1.998  1.00 20.00     0.010 C 
BRANCH   7  10
HETATM   10  C5  UNL     1     -34.499   6.376   5.323  1.00 20.00     0.151 C 
HETATM   11  C10 UNL     1     -35.573   5.420   4.870  1.00 20.00     0.096 C 
HETATM   12  O12 UNL     1     -34.383   6.696   6.508  1.00 20.00    -0.293 OA
ENDBRANCH   7  10
ENDBRANCH   3   4
TORSDOF 2
