REMARK  1 active torsions:
REMARK  status: ('A' for Active; 'I' for Inactive)
REMARK    1  A    between atoms: C1_1  and  C3_3 
ROOT
HETATM    1  C1  UNL     1     -33.548   7.517   3.783  1.00 20.00    -0.010 C 
HETATM    2  C2  UNL     1     -33.900   6.256   3.486  1.00 20.00    -0.066 C 
HETATM    3  C4  UNL     1     -33.607   8.072   5.183  1.00 20.00     0.042 C 
HETATM    4  C5  UNL     1     -33.752   5.498   2.202  1.00 20.00     0.035 C 
HETATM    5  C6  UNL     1     -34.259   7.137   6.210  1.00 20.00     0.005 C 
HETATM    6  C7  UNL     1     -33.237   4.156   2.706  1.00 20.00     0.005 C 
HETATM    7  C8  UNL     1     -33.921   5.670   5.941  1.00 20.00     0.009 C 
HETATM    8  C9  UNL     1     -33.922   3.920   4.052  1.00 20.00     0.009 C 
HETATM    9  C10 UNL     1     -34.392   5.294   4.538  1.00 20.00     0.015 C 
ENDROOT
BRANCH   1  10
HETATM   10  C3  UNL     1     -33.043   8.424   2.745  1.00 20.00     0.152 C 
HETATM   11  C11 UNL     1     -31.791   8.027   2.008  1.00 20.00     0.096 C 
HETATM   12  O12 UNL     1     -33.630   9.478   2.497  1.00 20.00    -0.293 OA
ENDBRANCH   1  10
TORSDOF 1
