REMARK  2 active torsions:
REMARK  status: ('A' for Active; 'I' for Inactive)
REMARK    1  A    between atoms: C3_3  and  C5_5 
REMARK    2  A    between atoms: C4_4  and  C9_9 
ROOT
HETATM    1  C1  UNL     1     -34.681   4.675   3.849  1.00 20.00     0.005 C 
HETATM    2  C2  UNL     1     -33.396   4.469   3.585  1.00 20.00     0.132 C 
HETATM    3  C4  UNL     1     -35.104   5.941   3.195  1.00 20.00     0.050 C 
HETATM    4  C5  UNL     1     -33.866   6.224   2.325  1.00 20.00     0.204 C 
HETATM    5  O11 UNL     1     -32.775   5.408   2.794  1.00 20.00    -0.350 OA
ENDROOT
BRANCH   3   6
HETATM    6  C9  UNL     1     -35.458   7.004   4.229  1.00 20.00    -0.012 C 
HETATM    7  C7  UNL     1     -36.878   6.797   4.756  1.00 20.00     0.010 C 
HETATM    8  C8  UNL     1     -34.455   6.992   5.383  1.00 20.00     0.010 C 
ENDBRANCH   3   6
BRANCH   4   9
HETATM    9  C3  UNL     1     -33.381   7.638   2.338  1.00 20.00     0.152 C 
HETATM   10  C6  UNL     1     -32.002   7.876   2.893  1.00 20.00     0.093 C 
HETATM   11  O10 UNL     1     -34.074   8.562   1.913  1.00 20.00    -0.296 OA
ENDBRANCH   4   9
TORSDOF 2
