REMARK  1 active torsions:
REMARK  status: ('A' for Active; 'I' for Inactive)
REMARK    1  A    between atoms: C1_1  and  C6_6 
ROOT
HETATM    1  C1  UNL     1     -32.749   8.057   2.509  1.00 20.00    -0.100 C 
HETATM    2  C2  UNL     1     -32.545   9.113   1.975  1.00 20.00    -0.111 C 
HETATM    3  C7  UNL     1     -32.297  10.399   1.326  1.00 20.00     0.112 C 
ENDROOT
BRANCH   1   4
HETATM    4  C6  UNL     1     -32.998   6.769   3.159  1.00 20.00     0.090 C 
HETATM    5  C4  UNL     1     -33.453   6.916   4.596  1.00 20.00     0.072 C 
HETATM    6  C3  UNL     1     -34.300   5.687   4.708  1.00 20.00     0.004 C 
HETATM    7  C8  UNL     1     -34.684   5.148   6.047  1.00 20.00     0.065 C 
HETATM    8  N9  UNL     1     -34.705   5.148   3.599  1.00 20.00    -0.297 NA
HETATM    9  C5  UNL     1     -34.153   6.002   2.527  1.00 20.00     0.166 C 
ENDBRANCH   1   4
TORSDOF 1
