REMARK  1 active torsions:
REMARK  status: ('A' for Active; 'I' for Inactive)
REMARK    1  A    between atoms: C3_3  and  C7_7 
ROOT
HETATM    1  C1  UNL     1     -32.699   7.585   4.797  1.00 20.00    -0.029 C 
HETATM    2  C2  UNL     1     -32.031   7.794   3.655  1.00 20.00    -0.026 C 
HETATM    3  C4  UNL     1     -33.983   6.812   4.876  1.00 20.00     0.039 C 
HETATM    4  C5  UNL     1     -33.977   6.833   2.344  1.00 20.00     0.020 C 
HETATM    5  C6  UNL     1     -32.508   7.304   2.312  1.00 20.00     0.004 C 
HETATM    6  C7  UNL     1     -34.308   6.024   3.601  1.00 20.00     0.059 C 
HETATM    7  C9  UNL     1     -32.329   8.385   1.245  1.00 20.00     0.014 C 
ENDROOT
BRANCH   6   8
HETATM    8  C3  UNL     1     -33.593   4.700   3.585  1.00 20.00     0.127 C 
HETATM    9  C8  UNL     1     -33.862   3.772   4.739  1.00 20.00     0.091 C 
HETATM   10  O10 UNL     1     -32.829   4.391   2.672  1.00 20.00    -0.298 OA
ENDBRANCH   6   8
TORSDOF 1
