REMARK  2 active torsions:
REMARK  status: ('A' for Active; 'I' for Inactive)
REMARK    1  A    between atoms: C2_2  and  C7_7 
REMARK    2  A    between atoms: C3_3  and  C6_6 
ROOT
HETATM    1  C4  UNL     1     -33.202   7.380   5.671  1.00 20.00     0.014 C 
HETATM    2  C5  UNL     1     -34.025   6.096   5.889  1.00 20.00     0.015 C 
HETATM    3  C6  UNL     1     -33.808   7.468   4.247  1.00 20.00     0.067 C 
HETATM    4  C7  UNL     1     -34.078   5.922   4.340  1.00 20.00    -0.011 C 
HETATM    5  C10 UNL     1     -35.439   5.488   3.808  1.00 20.00     0.021 C 
ENDROOT
BRANCH   4   6
HETATM    6  C2  UNL     1     -32.989   5.059   3.797  1.00 20.00    -0.084 C 
HETATM    7  C1  UNL     1     -32.066   4.498   4.592  1.00 20.00     0.015 C 
HETATM    8  C8  UNL     1     -32.987   4.852   2.311  1.00 20.00     0.043 C 
ENDBRANCH   4   6
BRANCH   3   9
HETATM    9  C3  UNL     1     -32.923   8.006   3.119  1.00 20.00     0.128 C 
HETATM   10  C9  UNL     1     -31.577   8.551   3.516  1.00 20.00     0.091 C 
HETATM   11  O11 UNL     1     -33.293   7.993   1.946  1.00 20.00    -0.298 OA
ENDBRANCH   3   9
TORSDOF 2
