REMARK  3 active torsions:
REMARK  status: ('A' for Active; 'I' for Inactive)
REMARK    1  A    between atoms: C3_3  and  C7_7 
REMARK    2  A    between atoms: C4_4  and  O11_11 
REMARK    3  A    between atoms: C7_7  and  C8_8 
ROOT
HETATM    1  C1  UNL     1     -32.504   6.064   2.409  1.00 20.00     0.180 C 
HETATM    2  C2  UNL     1     -32.136   8.076   3.838  1.00 20.00     0.180 C 
HETATM    3  C3  UNL     1     -32.199   7.565   2.396  1.00 20.00     0.034 C 
HETATM    4  C4  UNL     1     -33.524   6.297   4.522  1.00 20.00     0.412 C 
HETATM    5  O9  UNL     1     -33.667   5.792   3.190  1.00 20.00    -0.339 OA
HETATM    6  O10 UNL     1     -33.317   7.712   4.555  1.00 20.00    -0.339 OA
ENDROOT
BRANCH   3   7
HETATM    7  C7  UNL     1     -33.271   8.323   1.605  1.00 20.00     0.008 C 
BRANCH   7   8
HETATM    8  C8  UNL     1     -32.782   9.708   1.189  1.00 20.00    -0.004 C 
HETATM    9  C5  UNL     1     -31.529   9.620   0.333  1.00 20.00     0.005 C 
ENDBRANCH   7   8
ENDBRANCH   3   7
BRANCH   4  10
HETATM   10  O11 UNL     1     -34.682   5.965   5.286  1.00 20.00    -0.344 OA
HETATM   11  C6  UNL     1     -34.653   4.609   5.704  1.00 20.00     0.207 C 
ENDBRANCH   4  10
TORSDOF 3
