REMARK  0 active torsions:
REMARK  status: ('A' for Active; 'I' for Inactive)
ROOT
HETATM    1  C1  UNL     1     -32.730   7.728   3.955  1.00 20.00     0.352 C 
HETATM    2  C2  UNL     1     -34.229   6.052   3.920  1.00 20.00     0.451 C 
HETATM    3  C3  UNL     1     -33.224   5.839   2.839  1.00 20.00     0.451 C 
HETATM    4  O4  UNL     1     -34.096   7.422   4.266  1.00 20.00    -0.294 OA
HETATM    5  O5  UNL     1     -32.129   6.666   3.203  1.00 20.00    -0.294 OA
HETATM    6  F6  UNL     1     -33.945   5.312   5.014  1.00 20.00    -0.166 F 
HETATM    7  F7  UNL     1     -35.487   5.780   3.531  1.00 20.00    -0.166 F 
HETATM    8  F8  UNL     1     -33.687   6.258   1.641  1.00 20.00    -0.166 F 
HETATM    9  F9  UNL     1     -32.834   4.557   2.725  1.00 20.00    -0.166 F 
ENDROOT
TORSDOF 0
