REMARK  2 active torsions:
REMARK  status: ('A' for Active; 'I' for Inactive)
REMARK    1  A    between atoms: C1_1  and  C6_6 
REMARK    2  A    between atoms: C7_7  and  C9_9 
ROOT
HETATM    1  C2  UNL     1     -34.323   7.362   4.920  1.00 20.00     0.012 C 
HETATM    2  C3  UNL     1     -34.699   6.119   2.722  1.00 20.00     0.012 C 
HETATM    3  C4  UNL     1     -32.835   7.478   4.582  1.00 20.00     0.005 C 
HETATM    4  C5  UNL     1     -33.206   6.245   2.414  1.00 20.00     0.005 C 
HETATM    5  C6  UNL     1     -35.025   6.210   4.209  1.00 20.00     0.047 C 
HETATM    6  C7  UNL     1     -32.554   7.466   3.075  1.00 20.00    -0.015 C 
ENDROOT
BRANCH   5   7
HETATM    7  C1  UNL     1     -34.648   4.897   4.875  1.00 20.00     0.235 C 
HETATM    8  O10 UNL     1     -34.628   3.821   4.287  1.00 20.00    -0.306 OA
ENDBRANCH   5   7
BRANCH   6   9
HETATM    9  C9  UNL     1     -32.987   8.773   2.406  1.00 20.00     0.000 C 
HETATM   10  C8  UNL     1     -32.662   8.781   0.949  1.00 20.00     0.005 C 
ENDBRANCH   6   9
TORSDOF 2
