REMARK  1 active torsions:
REMARK  status: ('A' for Active; 'I' for Inactive)
REMARK    1  A    between atoms: C3_3  and  C8_8 
ROOT
HETATM    1  C1  UNL     1     -34.209   4.762   4.917  1.00 20.00    -0.025 C 
HETATM    2  C2  UNL     1     -34.722   5.962   5.224  1.00 20.00    -0.022 C 
HETATM    3  C4  UNL     1     -34.791   5.775   2.922  1.00 20.00     0.021 C 
HETATM    4  C5  UNL     1     -32.469   5.749   3.459  1.00 20.00     0.063 C 
HETATM    5  C6  UNL     1     -33.720   4.837   3.490  1.00 20.00     0.012 C 
HETATM    6  C7  UNL     1     -34.565   6.841   4.003  1.00 20.00     0.059 C 
HETATM    7  C8  UNL     1     -33.058   7.141   3.822  1.00 20.00     0.202 C 
HETATM    8  F11 UNL     1     -32.528   7.582   4.991  1.00 20.00    -0.231 F 
ENDROOT
BRANCH   7   9
HETATM    9  C3  UNL     1     -32.838   8.160   2.748  1.00 20.00     0.338 C 
HETATM   10  O9  UNL     1     -31.745   8.518   2.334  1.00 20.00    -0.256 OA
HETATM   11  F10 UNL     1     -33.921   8.696   2.167  1.00 20.00    -0.161 F 
ENDBRANCH   7   9
TORSDOF 1
