REMARK  1 active torsions:
REMARK  status: ('A' for Active; 'I' for Inactive)
REMARK    1  A    between atoms: C4_4  and  C10_10 
ROOT
HETATM    1  C1  UNL     1     -31.213   8.084   2.336  1.00 20.00     0.174 C 
HETATM    2  C2  UNL     1     -31.987   8.350   1.093  1.00 20.00     0.025 A 
HETATM    3  C3  UNL     1     -33.418   8.360   1.475  1.00 20.00     0.030 A 
HETATM    4  C4  UNL     1     -33.474   8.104   2.949  1.00 20.00     0.130 C 
HETATM    5  C5  UNL     1     -32.806   9.605   0.857  1.00 20.00    -0.035 A 
HETATM    6  C6  UNL     1     -32.574  10.837   1.693  1.00 20.00     0.016 C 
HETATM    7  C7  UNL     1     -33.184   9.917  -0.570  1.00 20.00     0.016 C 
HETATM    8  O11 UNL     1     -32.122   8.203   3.444  1.00 20.00    -0.385 OA
ENDROOT
BRANCH   4   9
HETATM    9  C10 UNL     1     -34.005   6.716   3.277  1.00 20.00     0.007 C 
HETATM   10  C8  UNL     1     -33.136   5.636   2.632  1.00 20.00     0.012 C 
HETATM   11  C9  UNL     1     -34.079   6.507   4.790  1.00 20.00     0.012 C 
ENDBRANCH   4   9
TORSDOF 1
