REMARK  0 active torsions:
REMARK  status: ('A' for Active; 'I' for Inactive)
ROOT
HETATM    1  C1  UNL     1     -33.096   7.331   2.348  1.00 20.00     0.011 C 
HETATM    2  C2  UNL     1     -33.253   4.747   2.646  1.00 20.00     0.011 C 
HETATM    3  C3  UNL     1     -32.980   7.951   3.541  1.00 20.00     0.007 C 
HETATM    4  C4  UNL     1     -33.676   4.150   3.780  1.00 20.00     0.007 C 
HETATM    5  C5  UNL     1     -34.130   6.985   5.889  1.00 20.00     0.042 C 
HETATM    6  C6  UNL     1     -34.495   5.469   5.962  1.00 20.00     0.042 C 
HETATM    7  C7  UNL     1     -33.933   6.076   2.467  1.00 20.00     0.270 C 
HETATM    8  C8  UNL     1     -33.456   6.983   4.549  1.00 20.00     0.247 C 
HETATM    9  C9  UNL     1     -34.692   5.007   4.493  1.00 20.00     0.247 C 
HETATM   10  N10 UNL     1     -34.551   6.291   3.793  1.00 20.00     0.116 N 
ENDROOT
TORSDOF 0
