REMARK  0 active torsions:
REMARK  status: ('A' for Active; 'I' for Inactive)
ROOT
HETATM    1  C1  UNL     1     -34.764   4.912   5.511  1.00 20.00     0.004 A 
HETATM    2  C2  UNL     1     -34.162   6.062   5.862  1.00 20.00     0.031 A 
HETATM    3  C3  UNL     1     -34.699   4.438   4.146  1.00 20.00     0.017 A 
HETATM    4  C4  UNL     1     -31.954   7.940   1.915  1.00 20.00     0.044 A 
HETATM    5  C5  UNL     1     -32.839   8.021   5.227  1.00 20.00     0.146 A 
HETATM    6  C6  UNL     1     -34.025   5.163   3.240  1.00 20.00     0.093 A 
HETATM    7  C7  UNL     1     -33.429   6.855   4.874  1.00 20.00     0.053 A 
HETATM    8  C8  UNL     1     -32.723   7.037   2.522  1.00 20.00     0.136 A 
HETATM    9  C9  UNL     1     -32.136   8.263   3.219  1.00 20.00     0.069 A 
HETATM   10  N10 UNL     1     -32.129   8.797   4.336  1.00 20.00    -0.260 NA
HETATM   11  N11 UNL     1     -33.368   6.362   3.530  1.00 20.00    -0.333 N 
ENDROOT
TORSDOF 0
