REMARK  1 active torsions:
REMARK  status: ('A' for Active; 'I' for Inactive)
REMARK    1  A    between atoms: C1_1  and  C4_4 
ROOT
HETATM    1  C2  UNL     1     -34.836   6.415   3.290  1.00 20.00     0.041 A 
HETATM    2  C3  UNL     1     -33.843   5.454   3.868  1.00 20.00     0.100 A 
HETATM    3  C4  UNL     1     -33.744   6.925   4.211  1.00 20.00     0.050 A 
HETATM    4  C5  UNL     1     -34.154   7.328   5.605  1.00 20.00     0.026 C 
HETATM    5 CL8  UNL     1     -32.694   4.675   2.810  1.00 20.00    -0.124 Cl
ENDROOT
BRANCH   3   6
HETATM    6  C1  UNL     1     -32.671   7.733   3.586  1.00 20.00     0.228 C 
HETATM    7  O6  UNL     1     -31.742   8.191   4.244  1.00 20.00    -0.279 OA
HETATM    8 CL7  UNL     1     -32.908   7.923   1.875  1.00 20.00    -0.043 Cl
ENDBRANCH   3   6
TORSDOF 1
