REMARK  1 active torsions:
REMARK  status: ('A' for Active; 'I' for Inactive)
REMARK    1  A    between atoms: C7_7  and  C10_10 
ROOT
HETATM    1  C1  UNL     1     -32.423   9.681   1.133  1.00 20.00     0.015 C 
HETATM    2  C2  UNL     1     -32.854   8.647   1.565  1.00 20.00    -0.085 C 
HETATM    3  C3  UNL     1     -32.748   5.092   2.847  1.00 20.00    -0.018 C 
HETATM    4  C4  UNL     1     -33.772   5.140   3.717  1.00 20.00    -0.059 C 
HETATM    5  C5  UNL     1     -32.306   6.295   2.072  1.00 20.00     0.072 C 
HETATM    6  C6  UNL     1     -33.382   7.383   2.093  1.00 20.00     0.203 C 
HETATM    7  C7  UNL     1     -34.503   6.446   3.981  1.00 20.00     0.151 C 
HETATM    8  C8  UNL     1     -34.256   3.904   4.418  1.00 20.00     0.046 C 
HETATM    9  O11 UNL     1     -33.798   7.582   3.445  1.00 20.00    -0.364 OA
ENDROOT
BRANCH   7  10
HETATM   10  C10 UNL     1     -34.693   6.739   5.467  1.00 20.00     0.032 C 
HETATM   11  C9  UNL     1     -33.387   6.808   6.188  1.00 20.00     0.008 C 
ENDBRANCH   7  10
TORSDOF 1
