REMARK  1 active torsions:
REMARK  status: ('A' for Active; 'I' for Inactive)
REMARK    1  A    between atoms: C1_1  and  C8_8 
ROOT
HETATM    1  C2  UNL     1     -32.155   6.984   3.687  1.00 20.00     0.013 A 
HETATM    2  C3  UNL     1     -33.569   6.227   2.230  1.00 20.00     0.013 A 
HETATM    3  C4  UNL     1     -34.199   7.703   3.685  1.00 20.00     0.013 A 
HETATM    4  C5  UNL     1     -32.642   5.589   3.272  1.00 20.00     0.006 A 
HETATM    5  C6  UNL     1     -33.274   7.070   4.732  1.00 20.00     0.006 A 
HETATM    6  C7  UNL     1     -34.692   6.311   3.271  1.00 20.00     0.006 A 
HETATM    7  C8  UNL     1     -33.079   7.620   2.641  1.00 20.00     0.033 A 
HETATM    8  C9  UNL     1     -33.768   5.665   4.325  1.00 20.00    -0.031 A 
HETATM    9  C11 UNL     1     -34.151   4.577   5.262  1.00 20.00     0.016 C 
ENDROOT
BRANCH   7  10
HETATM   10  C1  UNL     1     -32.693   8.713   1.695  1.00 20.00     0.133 C 
HETATM   11  C10 UNL     1     -31.564   8.418   0.744  1.00 20.00     0.091 C 
HETATM   12  O12 UNL     1     -33.271   9.799   1.692  1.00 20.00    -0.297 OA
ENDBRANCH   7  10
TORSDOF 1
