REMARK  1 active torsions:
REMARK  status: ('A' for Active; 'I' for Inactive)
REMARK    1  A    between atoms: C1_1  and  C6_6 
ROOT
HETATM    1  C2  UNL     1     -33.287   7.039   2.204  1.00 20.00     0.001 C 
HETATM    2  C3  UNL     1     -32.619   5.701   2.468  1.00 20.00     0.001 C 
HETATM    3  C4  UNL     1     -33.810   7.434   3.578  1.00 20.00     0.018 C 
HETATM    4  C5  UNL     1     -33.539   5.000   3.465  1.00 20.00     0.018 C 
HETATM    5  C6  UNL     1     -34.322   6.117   4.183  1.00 20.00     0.032 C 
HETATM    6  C7  UNL     1     -35.792   5.957   3.886  1.00 20.00     0.025 C 
ENDROOT
BRANCH   5   7
HETATM    7  C1  UNL     1     -34.132   6.080   5.698  1.00 20.00     0.227 C 
HETATM    8  O8  UNL     1     -34.478   5.112   6.368  1.00 20.00    -0.279 OA
HETATM    9 CL9  UNL     1     -33.393   7.533   6.299  1.00 20.00    -0.043 Cl
ENDBRANCH   5   7
TORSDOF 1
