REMARK  0 active torsions:
REMARK  status: ('A' for Active; 'I' for Inactive)
ROOT
HETATM    1  C1  UNL     1     -33.117   9.671   1.588  1.00 20.00     0.013 C 
HETATM    2  C2  UNL     1     -32.928   8.661   2.209  1.00 20.00    -0.104 C 
HETATM    3  C3  UNL     1     -33.539   6.921   5.304  1.00 20.00     0.048 C 
HETATM    4  C4  UNL     1     -32.892   7.716   4.443  1.00 20.00    -0.001 C 
HETATM    5  C5  UNL     1     -34.073   5.611   4.861  1.00 20.00     0.149 C 
HETATM    6  C6  UNL     1     -33.797   5.160   3.444  1.00 20.00     0.085 C 
HETATM    7  C7  UNL     1     -33.704   6.350   2.496  1.00 20.00     0.034 C 
HETATM    8  C8  UNL     1     -32.696   7.416   2.974  1.00 20.00     0.037 C 
HETATM    9  C9  UNL     1     -31.249   6.955   2.742  1.00 20.00     0.034 C 
HETATM   10  O10 UNL     1     -34.671   4.894   5.661  1.00 20.00    -0.293 OA
ENDROOT
TORSDOF 0
