REMARK  2 active torsions:
REMARK  status: ('A' for Active; 'I' for Inactive)
REMARK    1  A    between atoms: C3_3  and  C5_5 
REMARK    2  A    between atoms: C3_3  and  O11_11 
ROOT
HETATM    1  C1  UNL     1     -32.320   4.450   2.633  1.00 20.00     0.012 C 
HETATM    2  C2  UNL     1     -32.953   5.463   2.517  1.00 20.00    -0.111 C 
HETATM    3  C4  UNL     1     -33.711   6.674   2.378  1.00 20.00     0.087 A 
HETATM    4  C5  UNL     1     -34.279   7.368   3.595  1.00 20.00     0.111 A 
HETATM    5  C6  UNL     1     -33.133   8.005   2.829  1.00 20.00    -0.019 A 
HETATM    6  C7  UNL     1     -33.455   9.216   1.987  1.00 20.00     0.017 C 
HETATM    7  C8  UNL     1     -31.757   8.064   3.451  1.00 20.00     0.017 C 
ENDROOT
BRANCH   4   8
HETATM    8  C3  UNL     1     -34.081   6.828   4.948  1.00 20.00     0.264 C 
HETATM    9  O10 UNL     1     -33.203   7.203   5.713  1.00 20.00    -0.265 OA
BRANCH   8  10
HETATM   10  O11 UNL     1     -35.015   5.866   5.196  1.00 20.00    -0.326 OA
HETATM   11  C9  UNL     1     -34.937   5.252   6.486  1.00 20.00     0.213 C 
ENDBRANCH   8  10
ENDBRANCH   4   8
TORSDOF 2
