REMARK  1 active torsions:
REMARK  status: ('A' for Active; 'I' for Inactive)
REMARK    1  A    between atoms: C5_5  and  C7_7 
ROOT
HETATM    1  C1  UNL     1     -33.725   7.097   6.221  1.00 20.00    -0.026 A 
HETATM    2  C2  UNL     1     -32.969   7.626   5.249  1.00 20.00    -0.013 A 
HETATM    3  C3  UNL     1     -34.178   5.089   4.773  1.00 20.00    -0.019 A 
HETATM    4  C4  UNL     1     -33.422   5.605   3.787  1.00 20.00    -0.071 A 
HETATM    5  C6  UNL     1     -34.443   5.790   6.075  1.00 20.00     0.054 A 
HETATM    6  C7  UNL     1     -32.777   6.966   3.913  1.00 20.00     0.123 A 
HETATM    7  C8  UNL     1     -33.145   4.832   2.527  1.00 20.00     0.044 C 
ENDROOT
BRANCH   6   8
HETATM    8  C5  UNL     1     -33.413   7.881   2.910  1.00 20.00     0.230 C 
HETATM    9  O9  UNL     1     -34.615   8.128   2.934  1.00 20.00    -0.279 OA
HETATM   10 CL10 UNL     1     -32.259   8.506   1.772  1.00 20.00    -0.043 Cl
ENDBRANCH   6   8
TORSDOF 1
