REMARK  1 active torsions:
REMARK  status: ('A' for Active; 'I' for Inactive)
REMARK    1  A    between atoms: C8_8  and  C9_9 
ROOT
HETATM    1  C1  UNL     1     -33.800   6.768   5.811  1.00 20.00     0.008 A 
HETATM    2  C2  UNL     1     -33.162   7.986   3.692  1.00 20.00     0.026 A 
HETATM    3  C3  UNL     1     -33.718   6.416   2.098  1.00 20.00     0.026 A 
HETATM    4  C4  UNL     1     -34.313   5.602   6.242  1.00 20.00    -0.022 A 
HETATM    5  C5  UNL     1     -34.516   4.759   3.835  1.00 20.00    -0.011 A 
HETATM    6  C6  UNL     1     -33.639   6.946   4.397  1.00 20.00    -0.026 A 
HETATM    7  C7  UNL     1     -34.004   5.926   3.423  1.00 20.00    -0.029 A 
HETATM    8  C8  UNL     1     -33.215   7.649   2.276  1.00 20.00     0.003 A 
HETATM    9  C10 UNL     1     -34.726   4.474   5.311  1.00 20.00     0.055 A 
ENDROOT
BRANCH   8  10
HETATM   10  C9  UNL     1     -32.785   8.520   1.195  1.00 20.00     0.269 C 
HETATM   11  O11 UNL     1     -32.328   9.647   1.383  1.00 20.00    -0.301 OA
ENDBRANCH   8  10
TORSDOF 1
