REMARK  1 active torsions:
REMARK  status: ('A' for Active; 'I' for Inactive)
REMARK    1  A    between atoms: C2_2  and  C6_6 
ROOT
HETATM    1  C1  UNL     1     -33.099   6.745   3.072  1.00 20.00    -0.067 C 
HETATM    2  C3  UNL     1     -32.615   7.924   2.661  1.00 20.00    -0.085 C 
HETATM    3  C4  UNL     1     -32.727   5.422   2.459  1.00 20.00     0.036 C 
HETATM    4  C5  UNL     1     -33.374   4.400   3.389  1.00 20.00     0.009 C 
HETATM    5  C6  UNL     1     -34.116   6.560   4.169  1.00 20.00     0.080 C 
HETATM    6  C7  UNL     1     -34.607   5.126   3.930  1.00 20.00    -0.004 C 
HETATM    7  C8  UNL     1     -33.018   9.218   3.306  1.00 20.00     0.043 C 
HETATM    8  C9  UNL     1     -31.638   8.030   1.527  1.00 20.00     0.043 C 
HETATM    9  C10 UNL     1     -35.233   4.437   5.133  1.00 20.00     0.011 C 
ENDROOT
BRANCH   5  10
HETATM   10  C2  UNL     1     -33.408   6.761   5.477  1.00 20.00     0.240 C 
HETATM   11  O11 UNL     1     -33.964   7.168   6.491  1.00 20.00    -0.306 OA
ENDBRANCH   5  10
TORSDOF 1
