REMARK  1 active torsions:
REMARK  status: ('A' for Active; 'I' for Inactive)
REMARK    1  A    between atoms: C5_5  and  C6_6 
ROOT
HETATM    1  C1  UNL     1     -33.074   9.519   1.390  1.00 20.00    -0.003 A 
HETATM    2  C2  UNL     1     -31.699   9.070   1.363  1.00 20.00    -0.003 A 
HETATM    3  C3  UNL     1     -33.757   8.724   2.235  1.00 20.00    -0.012 A 
HETATM    4  C4  UNL     1     -31.589   8.015   2.192  1.00 20.00    -0.012 A 
HETATM    5  C6  UNL     1     -32.966   7.250   4.254  1.00 20.00     0.073 A 
HETATM    6  C7  UNL     1     -32.884   7.688   2.820  1.00 20.00     0.013 A 
HETATM    7  C8  UNL     1     -33.336   6.280   3.132  1.00 20.00    -0.021 A 
HETATM    8  C9  UNL     1     -32.393   5.124   2.884  1.00 20.00     0.017 C 
HETATM    9  C10 UNL     1     -34.784   5.900   2.915  1.00 20.00     0.017 C 
ENDROOT
BRANCH   5  10
HETATM   10  C5  UNL     1     -33.995   7.783   5.158  1.00 20.00     0.237 C 
HETATM   11  O11 UNL     1     -34.400   7.184   6.149  1.00 20.00    -0.306 OA
ENDBRANCH   5  10
TORSDOF 1
