REMARK  1 active torsions:
REMARK  status: ('A' for Active; 'I' for Inactive)
REMARK    1  A    between atoms: C3_3  and  C4_4 
ROOT
HETATM    1  C1  UNL     1     -32.820   7.512   4.393  1.00 20.00    -0.018 A 
HETATM    2  C2  UNL     1     -31.695   8.034   3.875  1.00 20.00    -0.025 A 
HETATM    3  C4  UNL     1     -33.340   7.031   3.052  1.00 20.00     0.084 A 
HETATM    4  C5  UNL     1     -31.994   7.549   2.469  1.00 20.00     0.018 A 
HETATM    5  C7  UNL     1     -32.103   8.631   1.405  1.00 20.00     0.015 C 
ENDROOT
BRANCH   3   6
HETATM    6  C3  UNL     1     -33.600   5.521   3.075  1.00 20.00     0.131 C 
HETATM    7  C6  UNL     1     -34.737   5.043   3.937  1.00 20.00     0.091 C 
HETATM    8  O8  UNL     1     -32.914   4.738   2.419  1.00 20.00    -0.298 OA
ENDBRANCH   3   6
TORSDOF 1
