REMARK  1 active torsions:
REMARK  status: ('A' for Active; 'I' for Inactive)
REMARK    1  A    between atoms: C2_2  and  C4_4 
ROOT
HETATM    1  C1  UNL     1     -31.921   8.240   1.547  1.00 20.00     0.065 C 
HETATM    2  C3  UNL     1     -32.252   7.422   2.678  1.00 20.00     0.113 A 
HETATM    3  C4  UNL     1     -33.535   6.621   2.643  1.00 20.00     0.082 A 
HETATM    4  C5  UNL     1     -33.403   7.795   3.596  1.00 20.00    -0.019 A 
HETATM    5  C7  UNL     1     -33.211   7.543   5.072  1.00 20.00     0.017 C 
HETATM    6  C8  UNL     1     -34.246   9.014   3.306  1.00 20.00     0.017 C 
HETATM    7  N9  UNL     1     -31.653   8.900   0.631  1.00 20.00    -0.197 NA
ENDROOT
BRANCH   3   8
HETATM    8  C2  UNL     1     -33.532   5.240   3.144  1.00 20.00     0.129 C 
HETATM    9  C6  UNL     1     -32.506   4.309   2.556  1.00 20.00     0.091 C 
HETATM   10  O10 UNL     1     -34.328   4.863   4.003  1.00 20.00    -0.298 OA
ENDBRANCH   3   8
TORSDOF 1
