REMARK  1 active torsions:
REMARK  status: ('A' for Active; 'I' for Inactive)
REMARK    1  A    between atoms: C1_1  and  C5_5 
ROOT
HETATM    1  C2  UNL     1     -32.430   7.268   3.906  1.00 20.00     0.026 C 
HETATM    2  C3  UNL     1     -34.389   7.789   3.265  1.00 20.00     0.026 C 
HETATM    3  C4  UNL     1     -33.410   6.098   2.426  1.00 20.00     0.026 C 
HETATM    4  C5  UNL     1     -33.776   6.504   3.874  1.00 20.00     0.022 C 
HETATM    5  C6  UNL     1     -33.021   7.633   2.483  1.00 20.00    -0.041 C 
HETATM    6  C8  UNL     1     -32.447   8.490   1.424  1.00 20.00     0.015 C 
ENDROOT
BRANCH   4   7
HETATM    7  C1  UNL     1     -34.354   5.644   4.941  1.00 20.00     0.131 C 
HETATM    8  C7  UNL     1     -34.614   4.206   4.584  1.00 20.00     0.091 C 
HETATM    9  O9  UNL     1     -34.605   6.087   6.061  1.00 20.00    -0.298 OA
ENDBRANCH   4   7
TORSDOF 1
