REMARK  1 active torsions:
REMARK  status: ('A' for Active; 'I' for Inactive)
REMARK    1  A    between atoms: C1_1  and  C6_6 
ROOT
HETATM    1  C2  UNL     1     -34.816   4.897   5.170  1.00 20.00     0.005 C 
HETATM    2  C3  UNL     1     -34.230   3.923   4.135  1.00 20.00     0.005 C 
HETATM    3  C4  UNL     1     -34.157   7.317   4.381  1.00 20.00     0.018 C 
HETATM    4  C5  UNL     1     -34.187   5.935   2.399  1.00 20.00     0.018 C 
HETATM    5  C6  UNL     1     -33.977   7.373   2.864  1.00 20.00     0.073 C 
HETATM    6  C7  UNL     1     -33.708   5.914   4.788  1.00 20.00    -0.010 C 
HETATM    7  C8  UNL     1     -33.496   5.111   3.483  1.00 20.00    -0.010 C 
ENDROOT
BRANCH   5   8
HETATM    8  C1  UNL     1     -32.608   7.870   2.496  1.00 20.00     0.223 C 
HETATM    9  O9  UNL     1     -31.642   7.702   3.234  1.00 20.00    -0.279 OA
HETATM   10 CL10 UNL     1     -32.595   8.673   0.956  1.00 20.00    -0.043 Cl
ENDBRANCH   5   8
TORSDOF 1
