REMARK  1 active torsions:
REMARK  status: ('A' for Active; 'I' for Inactive)
REMARK    1  A    between atoms: C5_5  and  C8_8 
ROOT
HETATM    1  C1  UNL     1     -34.490   6.271   6.369  1.00 20.00    -0.027 C 
HETATM    2  C2  UNL     1     -33.838   7.424   6.180  1.00 20.00    -0.029 C 
HETATM    3  C3  UNL     1     -34.791   5.411   4.003  1.00 20.00    -0.020 C 
HETATM    4  C4  UNL     1     -34.527   6.502   3.254  1.00 20.00    -0.076 C 
HETATM    5  C6  UNL     1     -34.420   5.107   5.427  1.00 20.00     0.054 C 
HETATM    6  C7  UNL     1     -32.944   7.650   5.005  1.00 20.00     0.043 C 
HETATM    7  C8  UNL     1     -33.694   7.706   3.667  1.00 20.00     0.086 C 
HETATM    8  C9  UNL     1     -35.151   6.593   1.877  1.00 20.00     0.044 C 
ENDROOT
BRANCH   7   9
HETATM    9  C5  UNL     1     -32.649   7.915   2.605  1.00 20.00     0.131 C 
HETATM   10  C10 UNL     1     -32.690   9.223   1.863  1.00 20.00     0.091 C 
HETATM   11  O11 UNL     1     -31.802   7.058   2.357  1.00 20.00    -0.298 OA
ENDBRANCH   7   9
TORSDOF 1
