REMARK  1 active torsions:
REMARK  status: ('A' for Active; 'I' for Inactive)
REMARK    1  A    between atoms: C2_2  and  C5_5 
ROOT
HETATM    1  C1  UNL     1     -33.010   7.490   3.962  1.00 20.00     0.270 A 
HETATM    2  C2  UNL     1     -33.616   6.132   3.717  1.00 20.00     0.181 A 
HETATM    3  O6  UNL     1     -34.171   7.324   3.139  1.00 20.00    -0.336 OA
HETATM    4 CL7  UNL     1     -31.525   8.009   3.213  1.00 20.00    -0.091 Cl
HETATM    5 CL8  UNL     1     -32.838   4.993   2.621  1.00 20.00    -0.084 Cl
ENDROOT
BRANCH   2   6
HETATM    6  C5  UNL     1     -34.505   5.507   4.789  1.00 20.00     0.032 C 
HETATM    7  C3  UNL     1     -34.311   3.993   4.832  1.00 20.00     0.014 C 
HETATM    8  C4  UNL     1     -34.214   6.125   6.155  1.00 20.00     0.014 C 
ENDBRANCH   2   6
TORSDOF 1
