REMARK  0 active torsions:
REMARK  status: ('A' for Active; 'I' for Inactive)
ROOT
HETATM    1  C1  UNL     1     -32.855   5.635   2.550  1.00 20.00     0.012 A 
HETATM    2  C2  UNL     1     -33.423   6.828   6.218  1.00 20.00     0.006 A 
HETATM    3  C3  UNL     1     -32.328   7.916   3.098  1.00 20.00     0.101 C 
HETATM    4  C4  UNL     1     -33.073   6.924   2.277  1.00 20.00     0.016 A 
HETATM    5  C5  UNL     1     -33.444   7.317   4.967  1.00 20.00     0.035 A 
HETATM    6  C6  UNL     1     -34.375   4.490   5.726  1.00 20.00     0.015 A 
HETATM    7  C7  UNL     1     -34.166   6.135   2.834  1.00 20.00     0.017 A 
HETATM    8  C8  UNL     1     -34.452   5.801   6.458  1.00 20.00     0.015 A 
HETATM    9  C9  UNL     1     -34.586   6.659   4.181  1.00 20.00     0.048 A 
HETATM   10  C10 UNL     1     -35.168   5.624   5.128  1.00 20.00     0.004 A 
HETATM   11  N11 UNL     1     -32.508   8.124   4.370  1.00 20.00    -0.269 NA
ENDROOT
TORSDOF 0
