REMARK  1 active torsions:
REMARK  status: ('A' for Active; 'I' for Inactive)
REMARK    1  A    between atoms: C1_1  and  C2_2 
ROOT
HETATM    1  C2  UNL     1     -32.259   7.075   2.256  1.00 20.00     0.100 A 
HETATM    2  C3  UNL     1     -32.513   8.541   2.025  1.00 20.00     0.104 A 
HETATM    3  C4  UNL     1     -31.507   8.116   3.071  1.00 20.00    -0.017 A 
HETATM    4  C5  UNL     1     -30.028   8.257   2.810  1.00 20.00     0.017 C 
HETATM    5  C6  UNL     1     -31.884   8.354   4.513  1.00 20.00     0.017 C 
HETATM    6 CL9  UNL     1     -32.028   9.269   0.515  1.00 20.00    -0.123 Cl
ENDROOT
BRANCH   1   7
HETATM    7  C1  UNL     1     -33.309   6.253   2.872  1.00 20.00     0.225 C 
HETATM    8  O7  UNL     1     -34.043   6.695   3.751  1.00 20.00    -0.279 OA
HETATM    9 CL8  UNL     1     -33.355   4.647   2.209  1.00 20.00    -0.043 Cl
ENDBRANCH   1   7
TORSDOF 1
