REMARK  3 active torsions:
REMARK  status: ('A' for Active; 'I' for Inactive)
REMARK    1  A    between atoms: C4_4  and  C5_5 
REMARK    2  A    between atoms: C6_6  and  C9_9 
REMARK    3  A    between atoms: C7_7  and  C10_10 
ROOT
HETATM    1  C1  UNL     1     -34.242   6.138   6.281  1.00 20.00    -0.029 C 
HETATM    2  C2  UNL     1     -33.680   7.269   5.847  1.00 20.00    -0.021 C 
HETATM    3  C8  UNL     1     -34.622   5.232   5.160  1.00 20.00     0.039 C 
HETATM    4  C9  UNL     1     -33.595   7.321   4.353  1.00 20.00     0.041 C 
HETATM    5  C10 UNL     1     -33.956   5.880   3.939  1.00 20.00     0.062 C 
ENDROOT
BRANCH   4   6
HETATM    6  C6  UNL     1     -32.239   7.718   3.866  1.00 20.00    -0.017 C 
HETATM    7  C5  UNL     1     -32.022   8.352   2.704  1.00 20.00    -0.004 C 
BRANCH   7   8
HETATM    8  C4  UNL     1     -33.083   8.719   1.795  1.00 20.00    -0.011 C 
HETATM    9  C3  UNL     1     -32.871   9.351   0.635  1.00 20.00     0.011 C 
ENDBRANCH   7   8
ENDBRANCH   4   6
BRANCH   5  10
HETATM   10  C7  UNL     1     -34.884   5.884   2.763  1.00 20.00     0.236 C 
HETATM   11  O11 UNL     1     -34.583   6.344   1.666  1.00 20.00    -0.306 OA
ENDBRANCH   5  10
TORSDOF 3
