REMARK  1 active torsions:
REMARK  status: ('A' for Active; 'I' for Inactive)
REMARK    1  A    between atoms: C7_7  and  C9_9 
ROOT
HETATM    1  C1  UNL     1     -34.730   5.564   5.898  1.00 20.00    -0.004 A 
HETATM    2  C2  UNL     1     -34.054   6.799   6.197  1.00 20.00    -0.004 A 
HETATM    3  C3  UNL     1     -34.966   5.179   4.637  1.00 20.00    -0.017 A 
HETATM    4  C4  UNL     1     -33.675   7.645   5.230  1.00 20.00    -0.020 A 
HETATM    5  C5  UNL     1     -33.509   5.303   2.628  1.00 20.00    -0.021 C 
HETATM    6  C6  UNL     1     -32.457   6.083   2.374  1.00 20.00    -0.017 C 
HETATM    7  C8  UNL     1     -34.560   5.997   3.441  1.00 20.00     0.039 A 
HETATM    8  C9  UNL     1     -32.601   7.446   2.959  1.00 20.00     0.086 C 
HETATM    9  C10 UNL     1     -33.920   7.385   3.762  1.00 20.00     0.034 A 
ENDROOT
BRANCH   8  10
HETATM   10  C7  UNL     1     -32.687   8.409   1.816  1.00 20.00     0.131 C 
HETATM   11  C11 UNL     1     -32.150   9.795   2.056  1.00 20.00     0.091 C 
HETATM   12  O12 UNL     1     -33.170   8.083   0.732  1.00 20.00    -0.298 OA
ENDBRANCH   8  10
TORSDOF 1
