REMARK  1 active torsions:
REMARK  status: ('A' for Active; 'I' for Inactive)
REMARK    1  A    between atoms: C1_1  and  C3_3 
ROOT
HETATM    1  C2  UNL     1     -35.223   5.633   3.618  1.00 20.00     0.103 A 
HETATM    2  C3  UNL     1     -34.209   5.898   4.703  1.00 20.00     0.073 A 
HETATM    3  C5  UNL     1     -34.467   5.296   6.059  1.00 20.00     0.036 C 
HETATM    4  S7  UNL     1     -33.745   4.771   3.454  1.00 20.00    -0.149 SA
ENDROOT
BRANCH   2   5
HETATM    5  C1  UNL     1     -33.476   7.180   4.650  1.00 20.00     0.142 C 
HETATM    6  C4  UNL     1     -33.245   7.772   3.286  1.00 20.00     0.092 C 
HETATM    7  O6  UNL     1     -33.076   7.738   5.671  1.00 20.00    -0.297 OA
ENDBRANCH   2   5
TORSDOF 1
