REMARK  4 active torsions:
REMARK  status: ('A' for Active; 'I' for Inactive)
REMARK    1  A    between atoms: C1_1  and  C4_4 
REMARK    2  A    between atoms: C5_5  and  C8_8 
REMARK    3  A    between atoms: C8_8  and  C10_10 
REMARK    4  A    between atoms: C9_9  and  C10_10 
ROOT
HETATM    1  C2  UNL     1     -33.397   5.646   2.366  1.00 20.00     0.016 C 
HETATM    2  C3  UNL     1     -33.637   7.221   3.781  1.00 20.00     0.016 C 
HETATM    3  C4  UNL     1     -34.363   5.873   3.554  1.00 20.00     0.055 C 
HETATM    4  C5  UNL     1     -33.253   7.187   2.280  1.00 20.00    -0.013 C 
ENDROOT
BRANCH   4   5
HETATM    5  C8  UNL     1     -31.883   7.722   1.917  1.00 20.00     0.005 C 
BRANCH   5   6
HETATM    6  C10 UNL     1     -31.733   9.197   2.295  1.00 20.00     0.000 C 
BRANCH   6   7
HETATM    7  C9  UNL     1     -32.787  10.064   1.606  1.00 20.00    -0.005 C 
HETATM    8  C7  UNL     1     -32.659   9.997   0.092  1.00 20.00     0.005 C 
ENDBRANCH   6   7
ENDBRANCH   5   6
ENDBRANCH   4   5
BRANCH   3   9
HETATM    9  C1  UNL     1     -34.257   4.892   4.664  1.00 20.00     0.127 C 
HETATM   10  C6  UNL     1     -34.360   5.438   6.063  1.00 20.00     0.091 C 
HETATM   11  O11 UNL     1     -34.096   3.691   4.451  1.00 20.00    -0.298 OA
ENDBRANCH   3   9
TORSDOF 4
