REMARK  1 active torsions:
REMARK  status: ('A' for Active; 'I' for Inactive)
REMARK    1  A    between atoms: C10_10  and  O11_11 
ROOT
HETATM    1  C1  UNL     1     -32.314   4.598   2.419  1.00 20.00     0.012 C 
HETATM    2  C2  UNL     1     -32.318   8.748   1.842  1.00 20.00     0.015 C 
HETATM    3  C3  UNL     1     -33.248   5.291   2.717  1.00 20.00    -0.108 C 
HETATM    4  C4  UNL     1     -33.055   8.208   2.621  1.00 20.00    -0.078 C 
HETATM    5  C5  UNL     1     -34.609   5.378   5.513  1.00 20.00     0.002 C 
HETATM    6  C6  UNL     1     -34.185   6.762   5.993  1.00 20.00     0.004 C 
HETATM    7  C7  UNL     1     -35.269   5.430   4.134  1.00 20.00     0.021 C 
HETATM    8  C8  UNL     1     -33.303   7.478   4.968  1.00 20.00     0.053 C 
HETATM    9  C9  UNL     1     -34.399   6.145   3.083  1.00 20.00     0.111 C 
HETATM   10  C10 UNL     1     -33.962   7.546   3.579  1.00 20.00     0.134 C 
ENDROOT
BRANCH  10  11
HETATM   11  O11 UNL     1     -35.133   8.363   3.709  1.00 20.00    -0.376 OA
HETATM   12  H23 UNL     1     -35.522   8.420   2.824  1.00 20.00     0.211 HD
ENDBRANCH  10  11
TORSDOF 1
