REMARK  1 active torsions:
REMARK  status: ('A' for Active; 'I' for Inactive)
REMARK    1  A    between atoms: C2_2  and  C9_9 
ROOT
HETATM    1  C1  UNL     1     -32.939   7.284   4.228  1.00 20.00     0.144 C 
HETATM    2  C3  UNL     1     -33.928   6.791   5.265  1.00 20.00     0.084 C 
HETATM    3  C4  UNL     1     -32.659   4.425   3.835  1.00 20.00     0.002 C 
HETATM    4  C5  UNL     1     -34.092   4.394   4.381  1.00 20.00     0.005 C 
HETATM    5  C6  UNL     1     -32.475   5.403   2.664  1.00 20.00     0.027 C 
HETATM    6  C7  UNL     1     -34.744   6.403   3.046  1.00 20.00     0.031 C 
HETATM    7  C8  UNL     1     -34.754   5.785   4.445  1.00 20.00    -0.006 C 
HETATM    8  C9  UNL     1     -33.256   6.711   2.857  1.00 20.00     0.097 C 
HETATM    9  O10 UNL     1     -32.005   8.035   4.476  1.00 20.00    -0.297 OA
ENDROOT
BRANCH   8  10
HETATM   10  C2  UNL     1     -33.050   7.661   1.721  1.00 20.00     0.234 C 
HETATM   11  O11 UNL     1     -33.969   7.983   0.974  1.00 20.00    -0.279 OA
HETATM   12 CL12 UNL     1     -31.405   8.211   1.618  1.00 20.00    -0.043 Cl
ENDBRANCH   8  10
TORSDOF 1
