REMARK  1 active torsions:
REMARK  status: ('A' for Active; 'I' for Inactive)
REMARK    1  A    between atoms: C2_2  and  C3_3 
ROOT
HETATM    1  C1  UNL     1     -32.769   5.638   3.140  1.00 20.00     0.011 C 
HETATM    2  C2  UNL     1     -33.215   6.879   3.375  1.00 20.00     0.004 C 
HETATM    3  C4  UNL     1     -33.523   4.436   3.631  1.00 20.00     0.195 C 
HETATM    4  C5  UNL     1     -34.495   7.136   4.105  1.00 20.00     0.069 C 
HETATM    5  C6  UNL     1     -35.342   5.866   4.167  1.00 20.00     0.172 C 
HETATM    6  O8  UNL     1     -34.532   4.769   4.594  1.00 20.00    -0.387 OA
ENDROOT
BRANCH   2   7
HETATM    7  C3  UNL     1     -32.433   8.010   2.877  1.00 20.00     0.248 C 
HETATM    8  O7  UNL     1     -31.556   8.499   3.599  1.00 20.00    -0.274 OA
HETATM    9 CL9  UNL     1     -32.808   8.593   1.269  1.00 20.00    -0.039 Cl
ENDBRANCH   2   7
TORSDOF 1
