REMARK  1 active torsions:
REMARK  status: ('A' for Active; 'I' for Inactive)
REMARK    1  A    between atoms: C3_3  and  C7_7 
ROOT
HETATM    1  C1  UNL     1     -32.431   7.935   4.711  1.00 20.00    -0.020 C 
HETATM    2  C2  UNL     1     -33.503   7.771   5.504  1.00 20.00    -0.086 C 
HETATM    3  C4  UNL     1     -34.729   7.011   5.058  1.00 20.00     0.049 C 
HETATM    4  C5  UNL     1     -33.706   6.983   2.737  1.00 20.00     0.023 C 
HETATM    5  C6  UNL     1     -32.340   7.417   3.299  1.00 20.00     0.005 C 
HETATM    6  C7  UNL     1     -34.547   6.218   3.758  1.00 20.00     0.091 C 
HETATM    7  C8  UNL     1     -33.549   8.331   6.896  1.00 20.00     0.043 C 
HETATM    8  C9  UNL     1     -31.706   8.461   2.378  1.00 20.00     0.014 C 
ENDROOT
BRANCH   6   9
HETATM    9  C3  UNL     1     -33.939   4.871   4.028  1.00 20.00     0.177 C 
HETATM   10  O10 UNL     1     -34.179   4.390   5.170  1.00 20.00    -0.648 OA
HETATM   11  O11 UNL     1     -33.266   4.393   3.072  1.00 20.00    -0.648 OA
ENDBRANCH   6   9
TORSDOF 1
