REMARK  1 active torsions:
REMARK  status: ('A' for Active; 'I' for Inactive)
REMARK    1  A    between atoms: C1_1  and  C7_7 
ROOT
HETATM    1  C2  UNL     1     -34.400   7.006   6.147  1.00 20.00     0.001 C 
HETATM    2  C3  UNL     1     -33.350   6.359   1.895  1.00 20.00     0.014 C 
HETATM    3  C4  UNL     1     -34.776   5.796   5.300  1.00 20.00     0.005 C 
HETATM    4  C5  UNL     1     -33.335   7.701   5.310  1.00 20.00     0.006 C 
HETATM    5  C6  UNL     1     -33.982   5.389   2.882  1.00 20.00     0.006 C 
HETATM    6  C7  UNL     1     -32.839   7.490   2.786  1.00 20.00     0.076 C 
HETATM    7  C8  UNL     1     -34.711   6.304   3.860  1.00 20.00    -0.010 C 
HETATM    8  C9  UNL     1     -33.894   7.611   3.891  1.00 20.00     0.002 C 
ENDROOT
BRANCH   6   9
HETATM    9  C1  UNL     1     -32.713   8.769   2.022  1.00 20.00     0.223 C 
HETATM   10  O10 UNL     1     -33.359   9.768   2.325  1.00 20.00    -0.279 OA
HETATM   11 CL11 UNL     1     -31.579   8.640   0.712  1.00 20.00    -0.043 Cl
ENDBRANCH   6   9
TORSDOF 1
