REMARK  1 active torsions:
REMARK  status: ('A' for Active; 'I' for Inactive)
REMARK    1  A    between atoms: C5_5  and  C7_7 
ROOT
HETATM    1  C1  UNL     1     -34.468   6.832   5.955  1.00 20.00    -0.026 A 
HETATM    2  C2  UNL     1     -34.361   7.617   4.874  1.00 20.00    -0.013 A 
HETATM    3  C3  UNL     1     -34.241   4.796   4.495  1.00 20.00    -0.019 A 
HETATM    4  C4  UNL     1     -34.132   5.570   3.399  1.00 20.00    -0.071 A 
HETATM    5  C6  UNL     1     -34.401   5.336   5.886  1.00 20.00     0.054 A 
HETATM    6  C7  UNL     1     -34.167   7.077   3.486  1.00 20.00     0.123 A 
HETATM    7  C8  UNL     1     -34.030   4.967   2.025  1.00 20.00     0.044 C 
ENDROOT
BRANCH   6   8
HETATM    8  C5  UNL     1     -32.837   7.602   3.035  1.00 20.00     0.230 C 
HETATM    9  O9  UNL     1     -31.795   7.300   3.610  1.00 20.00    -0.279 OA
HETATM   10 CL10 UNL     1     -32.980   8.644   1.652  1.00 20.00    -0.043 Cl
ENDBRANCH   6   8
TORSDOF 1
