REMARK  2 active torsions:
REMARK  status: ('A' for Active; 'I' for Inactive)
REMARK    1  A    between atoms: C1_1  and  C4_4 
REMARK    2  A    between atoms: C1_1  and  C6_6 
ROOT
HETATM    1  C1  UNL     1     -32.971   6.856   3.025  1.00 20.00     0.145 C 
HETATM    2  O7  UNL     1     -32.682   5.750   2.584  1.00 20.00    -0.296 OA
ENDROOT
BRANCH   1   3
HETATM    3  C4  UNL     1     -32.162   8.046   2.624  1.00 20.00     0.057 A 
HETATM    4  C2  UNL     1     -31.984   8.329   1.169  1.00 20.00     0.013 A 
HETATM    5  C3  UNL     1     -32.866   9.207   2.005  1.00 20.00     0.013 A 
ENDBRANCH   1   3
BRANCH   1   6
HETATM    6  C6  UNL     1     -34.130   7.118   3.957  1.00 20.00     0.123 C 
HETATM    7  C5  UNL     1     -33.681   7.626   5.313  1.00 20.00     0.030 C 
HETATM    8 BR8  UNL     1     -35.030   5.404   4.165  1.00 20.00    -0.084 Br
ENDBRANCH   1   6
TORSDOF 2
