REMARK  2 active torsions:
REMARK  status: ('A' for Active; 'I' for Inactive)
REMARK    1  A    between atoms: C7_7  and  O10_10 
REMARK    2  A    between atoms: C9_9  and  O10_10 
ROOT
HETATM    1  C1  UNL     1     -33.199   7.709   5.951  1.00 20.00     0.015 C 
HETATM    2  C2  UNL     1     -33.420   7.321   4.837  1.00 20.00    -0.079 C 
HETATM    3  C3  UNL     1     -33.468   4.443   3.685  1.00 20.00     0.004 C 
HETATM    4  C4  UNL     1     -34.943   4.808   3.856  1.00 20.00     0.004 C 
HETATM    5  C5  UNL     1     -32.794   5.673   3.081  1.00 20.00     0.051 C 
HETATM    6  C6  UNL     1     -35.087   6.240   3.347  1.00 20.00     0.051 C 
HETATM    7  C7  UNL     1     -33.691   6.845   3.472  1.00 20.00     0.122 C 
ENDROOT
BRANCH   7   8
HETATM    8  O10 UNL     1     -33.546   7.919   2.555  1.00 20.00    -0.368 OA
BRANCH   8   9
HETATM    9  C9  UNL     1     -32.232   8.461   2.586  1.00 20.00     0.165 C 
HETATM   10  C8  UNL     1     -32.143   9.597   1.590  1.00 20.00     0.033 C 
ENDBRANCH   8   9
ENDBRANCH   7   8
TORSDOF 2
