REMARK  1 active torsions:
REMARK  status: ('A' for Active; 'I' for Inactive)
REMARK    1  A    between atoms: C3_3  and  C6_6 
ROOT
HETATM    1  C1  UNL     1     -32.250  10.412   0.145  1.00 20.00    -0.030 A 
HETATM    2  C2  UNL     1     -31.943   9.123  -0.071  1.00 20.00    -0.025 A 
HETATM    3  C4  UNL     1     -32.437  10.645   1.624  1.00 20.00     0.033 A 
HETATM    4  C5  UNL     1     -31.861   8.318   1.158  1.00 20.00     0.024 A 
HETATM    5  C6  UNL     1     -33.082   8.111   2.020  1.00 20.00     0.068 A 
HETATM    6  C7  UNL     1     -32.182   9.297   2.271  1.00 20.00     0.009 A 
ENDROOT
BRANCH   5   7
HETATM    7  C3  UNL     1     -33.087   7.007   2.988  1.00 20.00     0.128 C 
HETATM    8  C8  UNL     1     -33.366   7.366   4.422  1.00 20.00     0.091 C 
HETATM    9  O9  UNL     1     -32.877   5.845   2.643  1.00 20.00    -0.298 OA
ENDBRANCH   5   7
TORSDOF 1
