REMARK  2 active torsions:
REMARK  status: ('A' for Active; 'I' for Inactive)
REMARK    1  A    between atoms: C3_3  and  C5_5 
REMARK    2  A    between atoms: C3_3  and  O11_11 
ROOT
HETATM    1  C1  UNL     1     -32.753   4.210   2.301  1.00 20.00     0.013 C 
HETATM    2  C2  UNL     1     -33.106   5.260   2.764  1.00 20.00    -0.096 C 
HETATM    3  C4  UNL     1     -35.008   6.676   3.617  1.00 20.00     0.044 A 
HETATM    4  C5  UNL     1     -33.529   6.521   3.319  1.00 20.00     0.118 A 
HETATM    5  C6  UNL     1     -34.039   6.563   4.767  1.00 20.00    -0.018 A 
HETATM    6  C7  UNL     1     -33.796   7.800   5.599  1.00 20.00     0.017 C 
HETATM    7  C8  UNL     1     -34.072   5.296   5.589  1.00 20.00     0.017 C 
ENDROOT
BRANCH   4   8
HETATM    8  C3  UNL     1     -32.817   7.697   2.777  1.00 20.00     0.280 C 
HETATM    9  O10 UNL     1     -31.608   7.864   2.858  1.00 20.00    -0.263 OA
BRANCH   8  10
HETATM   10  O11 UNL     1     -33.713   8.541   2.188  1.00 20.00    -0.325 OA
HETATM   11  C9  UNL     1     -33.155   9.729   1.619  1.00 20.00     0.213 C 
ENDBRANCH   8  10
ENDBRANCH   4   8
TORSDOF 2
