REMARK  2 active torsions:
REMARK  status: ('A' for Active; 'I' for Inactive)
REMARK    1  A    between atoms: C1_1  and  C7_7 
REMARK    2  A    between atoms: C4_4  and  C7_7 
ROOT
HETATM    1  C6  UNL     1     -33.913   5.817   2.617  1.00 20.00     0.018 C 
HETATM    2  C7  UNL     1     -33.207   6.513   3.778  1.00 20.00     0.055 C 
ENDROOT
BRANCH   2   3
HETATM    3  C1  UNL     1     -32.426   7.730   3.293  1.00 20.00     0.127 C 
HETATM    4  C5  UNL     1     -32.521   8.060   1.824  1.00 20.00     0.091 C 
HETATM    5  O8  UNL     1     -31.725   8.407   4.045  1.00 20.00    -0.298 OA
ENDBRANCH   2   3
BRANCH   2   6
HETATM    6  C4  UNL     1     -34.208   6.930   4.849  1.00 20.00    -0.004 A 
HETATM    7  C2  UNL     1     -34.694   5.931   5.862  1.00 20.00     0.006 A 
HETATM    8  C3  UNL     1     -33.777   7.045   6.284  1.00 20.00     0.006 A 
ENDBRANCH   2   6
TORSDOF 2
