REMARK  1 active torsions:
REMARK  status: ('A' for Active; 'I' for Inactive)
REMARK    1  A    between atoms: C4_4  and  C6_6 
ROOT
HETATM    1  C1  UNL     1     -33.921   6.792   6.010  1.00 20.00     0.009 A 
HETATM    2  C2  UNL     1     -34.265   5.505   5.904  1.00 20.00     0.082 A 
HETATM    3  C3  UNL     1     -33.775   7.612   4.843  1.00 20.00     0.037 A 
HETATM    4  C4  UNL     1     -33.992   7.061   3.645  1.00 20.00     0.079 A 
HETATM    5  C5  UNL     1     -34.504   4.900   4.577  1.00 20.00     0.288 A 
HETATM    6  O10 UNL     1     -34.821   3.720   4.476  1.00 20.00    -0.260 OA
HETATM    7  O11 UNL     1     -34.357   5.711   3.481  1.00 20.00    -0.276 OA
ENDROOT
BRANCH   4   8
HETATM    8  C6  UNL     1     -33.875   7.799   2.386  1.00 20.00     0.039 C 
HETATM    9  C7  UNL     1     -32.755   8.400   1.949  1.00 20.00    -0.085 C 
HETATM   10  C8  UNL     1     -32.596   9.165   0.665  1.00 20.00     0.043 C 
HETATM   11  C9  UNL     1     -31.500   8.336   2.782  1.00 20.00     0.043 C 
ENDBRANCH   4   8
TORSDOF 1
