REMARK  1 active torsions:
REMARK  status: ('A' for Active; 'I' for Inactive)
REMARK    1  A    between atoms: C3_3  and  C7_7 
ROOT
HETATM    1  C1  UNL     1     -33.278   7.156   4.323  1.00 20.00    -0.019 C 
HETATM    2  C2  UNL     1     -33.912   6.076   3.832  1.00 20.00    -0.087 C 
HETATM    3  C4  UNL     1     -34.202   5.921   2.362  1.00 20.00     0.034 C 
HETATM    4  C5  UNL     1     -34.061   7.227   1.581  1.00 20.00     0.017 C 
HETATM    5  C6  UNL     1     -32.755   8.292   3.475  1.00 20.00     0.015 C 
HETATM    6  C7  UNL     1     -32.778   7.965   1.967  1.00 20.00     0.062 C 
HETATM    7  C8  UNL     1     -34.375   4.958   4.719  1.00 20.00     0.043 C 
HETATM    8  C10 UNL     1     -31.335   8.660   3.923  1.00 20.00     0.015 C 
ENDROOT
BRANCH   6   9
HETATM    9  C3  UNL     1     -32.687   9.229   1.164  1.00 20.00     0.127 C 
HETATM   10  C9  UNL     1     -31.511   9.356   0.234  1.00 20.00     0.091 C 
HETATM   11  O11 UNL     1     -33.532  10.117   1.261  1.00 20.00    -0.298 OA
ENDBRANCH   6   9
TORSDOF 1
