REMARK  1 active torsions:
REMARK  status: ('A' for Active; 'I' for Inactive)
REMARK    1  A    between atoms: C1_1  and  C3_3 
ROOT
HETATM    1  C1  UNL     1     -33.786   5.735   3.567  1.00 20.00    -0.007 C 
HETATM    2  C2  UNL     1     -33.554   6.471   4.665  1.00 20.00    -0.016 C 
HETATM    3  C4  UNL     1     -33.285   6.306   2.274  1.00 20.00     0.058 C 
HETATM    4  C5  UNL     1     -32.236   7.367   2.624  1.00 20.00     0.052 C 
HETATM    5  C6  UNL     1     -33.935   6.199   6.083  1.00 20.00     0.056 C 
HETATM    6  C7  UNL     1     -32.192   8.512   1.626  1.00 20.00     0.022 C 
HETATM    7  S9  UNL     1     -32.689   7.948   4.298  1.00 20.00    -0.129 SA
ENDROOT
BRANCH   1   8
HETATM    8  C3  UNL     1     -34.488   4.454   3.555  1.00 20.00     0.266 C 
HETATM    9  O8  UNL     1     -34.468   3.678   4.505  1.00 20.00    -0.302 OA
ENDBRANCH   1   8
TORSDOF 1
