REMARK  1 active torsions:
REMARK  status: ('A' for Active; 'I' for Inactive)
REMARK    1  A    between atoms: C2_2  and  C3_3 
ROOT
HETATM    1  C1  UNL     1     -33.358   6.911   2.588  1.00 20.00     0.050 C 
HETATM    2  C2  UNL     1     -32.811   7.806   1.761  1.00 20.00     0.082 C 
HETATM    3  C4  UNL     1     -33.324   6.984   4.080  1.00 20.00     0.071 C 
HETATM    4  C5  UNL     1     -34.492   5.103   3.284  1.00 20.00     0.179 C 
HETATM    5  C6  UNL     1     -34.520   6.117   4.415  1.00 20.00     0.012 C 
HETATM    6  C8  UNL     1     -34.462   5.491   5.796  1.00 20.00     0.012 C 
HETATM    7  O10 UNL     1     -34.087   5.828   2.112  1.00 20.00    -0.355 OA
ENDROOT
BRANCH   2   8
HETATM    8  C3  UNL     1     -32.093   8.995   2.293  1.00 20.00     0.147 C 
HETATM    9  C7  UNL     1     -32.121  10.238   1.443  1.00 20.00     0.096 C 
HETATM   10  O9  UNL     1     -31.524   8.983   3.382  1.00 20.00    -0.294 OA
ENDBRANCH   2   8
TORSDOF 1
