REMARK  1 active torsions:
REMARK  status: ('A' for Active; 'I' for Inactive)
REMARK    1  A    between atoms: C1_1  and  C5_5 
ROOT
HETATM    1  C2  UNL     1     -34.059   7.950   4.613  1.00 20.00     0.015 C 
HETATM    2  C3  UNL     1     -34.095   6.558   5.242  1.00 20.00     0.026 C 
HETATM    3  C4  UNL     1     -33.661   6.210   2.925  1.00 20.00     0.038 C 
HETATM    4  C5  UNL     1     -33.682   7.730   3.142  1.00 20.00     0.074 C 
HETATM    5  C6  UNL     1     -34.478   5.634   4.086  1.00 20.00     0.034 C 
HETATM    6  C7  UNL     1     -35.982   5.654   3.796  1.00 20.00     0.032 C 
HETATM    7 CL10 UNL     1     -33.992   3.951   4.434  1.00 20.00    -0.120 Cl
ENDROOT
BRANCH   4   8
HETATM    8  C1  UNL     1     -32.354   8.342   2.816  1.00 20.00     0.223 C 
HETATM    9  O8  UNL     1     -31.330   8.013   3.407  1.00 20.00    -0.279 OA
HETATM   10 CL9  UNL     1     -32.471   9.522   1.546  1.00 20.00    -0.043 Cl
ENDBRANCH   4   8
TORSDOF 1
