REMARK  1 active torsions:
REMARK  status: ('A' for Active; 'I' for Inactive)
REMARK    1  A    between atoms: C1_1  and  C4_4 
ROOT
HETATM    1  C1  UNL     1     -33.056   6.819   2.550  1.00 20.00    -0.068 C 
HETATM    2  C2  UNL     1     -32.423   7.678   1.998  1.00 20.00    -0.108 C 
HETATM    3  C6  UNL     1     -31.652   8.723   1.326  1.00 20.00     0.112 C 
ENDROOT
BRANCH   1   4
HETATM    4  C4  UNL     1     -33.820   5.782   3.218  1.00 20.00     0.129 C 
HETATM    5  C5  UNL     1     -34.164   6.039   4.734  1.00 20.00     0.016 C 
HETATM    6  C3  UNL     1     -35.612   5.769   4.269  1.00 20.00     0.182 C 
HETATM    7  C8  UNL     1     -33.988   7.472   5.251  1.00 20.00     0.021 C 
HETATM    8  C9  UNL     1     -33.634   5.034   5.752  1.00 20.00     0.021 C 
HETATM    9  O10 UNL     1     -35.232   5.926   2.878  1.00 20.00    -0.366 OA
HETATM   10  C7  UNL     1     -33.332   4.398   2.796  1.00 20.00     0.061 C 
ENDBRANCH   1   4
TORSDOF 1
