REMARK  1 active torsions:
REMARK  status: ('A' for Active; 'I' for Inactive)
REMARK    1  A    between atoms: C6_6  and  N10_10 
ROOT
HETATM    1  C1  UNL     1     -32.689   9.050   1.260  1.00 20.00     0.064 C 
HETATM    2  C2  UNL     1     -32.800   6.573   1.383  1.00 20.00     0.021 C 
HETATM    3  C3  UNL     1     -33.349   5.877   2.628  1.00 20.00     0.037 C 
HETATM    4  C4  UNL     1     -32.294   7.861   3.402  1.00 20.00     0.055 C 
HETATM    5  C5  UNL     1     -32.101   7.851   1.879  1.00 20.00     0.095 C 
HETATM    6  C6  UNL     1     -33.547   7.015   3.623  1.00 20.00     0.223 C 
HETATM    7  N9  UNL     1     -33.153   9.995   0.772  1.00 20.00    -0.197 NA
ENDROOT
BRANCH   6   8
HETATM    8  N10 UNL     1     -33.685   6.560   4.996  1.00 20.00     0.084 N 
HETATM    9  C7  UNL     1     -34.841   5.670   5.136  1.00 20.00     0.309 C 
HETATM   10  C8  UNL     1     -33.812   7.698   5.912  1.00 20.00     0.309 C 
ENDBRANCH   6   8
TORSDOF 1
