REMARK  2 active torsions:
REMARK  status: ('A' for Active; 'I' for Inactive)
REMARK    1  A    between atoms: C5_5  and  C7_7 
REMARK    2  A    between atoms: C7_7  and  O8_8 
ROOT
HETATM    1  C1  UNL     1     -32.830   7.671   4.635  1.00 20.00     0.013 C 
HETATM    2  C2  UNL     1     -34.265   6.533   2.888  1.00 20.00     0.013 C 
HETATM    3  C3  UNL     1     -31.749   7.919   3.585  1.00 20.00     0.079 C 
HETATM    4  C4  UNL     1     -33.184   6.780   1.839  1.00 20.00     0.079 C 
HETATM    5  C5  UNL     1     -33.670   6.429   4.300  1.00 20.00     0.009 C 
HETATM    6  C6  UNL     1     -32.338   7.993   2.187  1.00 20.00     0.243 C 
HETATM    7  F9  UNL     1     -33.099   9.114   2.080  1.00 20.00    -0.206 F 
HETATM    8  F10 UNL     1     -31.337   8.121   1.281  1.00 20.00    -0.206 F 
ENDROOT
BRANCH   5   9
HETATM    9  C7  UNL     1     -34.774   6.231   5.337  1.00 20.00     0.168 C 
BRANCH   9  10
HETATM   10  O8  UNL     1     -35.524   5.085   4.980  1.00 20.00    -0.400 OA
HETATM   11  H22 UNL     1     -36.219   4.977   5.652  1.00 20.00     0.209 HD
ENDBRANCH   9  10
ENDBRANCH   5   9
TORSDOF 2
