REMARK  2 active torsions:
REMARK  status: ('A' for Active; 'I' for Inactive)
REMARK    1  A    between atoms: C1_1  and  C5_5 
REMARK    2  A    between atoms: C3_3  and  C6_6 
ROOT
HETATM    1  C1  UNL     1     -32.628   7.649   2.332  1.00 20.00    -0.053 C 
HETATM    2  C2  UNL     1     -31.894   7.946   1.430  1.00 20.00     0.106 C 
HETATM    3  F9  UNL     1     -31.076   8.277   0.425  1.00 20.00    -0.144 F 
ENDROOT
BRANCH   1   4
HETATM    4  C5  UNL     1     -33.494   7.300   3.395  1.00 20.00     0.114 A 
HETATM    5  C6  UNL     1     -33.670   5.920   3.725  1.00 20.00     0.108 A 
HETATM    6  C7  UNL     1     -33.053   6.889   4.582  1.00 20.00     0.186 A 
HETATM    7  F10 UNL     1     -33.700   7.202   5.725  1.00 20.00    -0.235 F 
BRANCH   5   8
HETATM    8  C3  UNL     1     -34.828   5.387   3.966  1.00 20.00    -0.080 C 
HETATM    9  C4  UNL     1     -35.899   4.894   4.188  1.00 20.00     0.272 C 
HETATM   10  O8  UNL     1     -36.949   4.411   4.406  1.00 20.00    -0.274 OA
ENDBRANCH   5   8
ENDBRANCH   1   4
TORSDOF 2
