REMARK  1 active torsions:
REMARK  status: ('A' for Active; 'I' for Inactive)
REMARK    1  A    between atoms: C1_1  and  C4_4 
ROOT
HETATM    1  C2  UNL     1     -33.607   7.964   5.560  1.00 20.00     0.014 C 
HETATM    2  C3  UNL     1     -34.393   6.656   5.688  1.00 20.00     0.012 C 
HETATM    3  C4  UNL     1     -32.745   7.290   4.471  1.00 20.00     0.064 C 
HETATM    4  C5  UNL     1     -34.803   6.084   3.132  1.00 20.00    -0.000 A 
HETATM    5  C6  UNL     1     -33.908   6.361   4.308  1.00 20.00    -0.019 A 
HETATM    6  C7  UNL     1     -33.900   4.983   3.676  1.00 20.00    -0.035 A 
HETATM    7  C9  UNL     1     -34.619   6.665   1.774  1.00 20.00     0.011 C 
HETATM    8  C10 UNL     1     -32.680   4.543   2.908  1.00 20.00     0.016 C 
HETATM    9  C11 UNL     1     -34.582   3.847   4.400  1.00 20.00     0.016 C 
ENDROOT
BRANCH   3  10
HETATM   10  C1  UNL     1     -32.337   8.144   3.274  1.00 20.00     0.128 C 
HETATM   11  C8  UNL     1     -33.203   9.335   2.965  1.00 20.00     0.091 C 
HETATM   12  O12 UNL     1     -31.347   7.872   2.595  1.00 20.00    -0.298 OA
ENDBRANCH   3  10
TORSDOF 1
