REMARK  1 active torsions:
REMARK  status: ('A' for Active; 'I' for Inactive)
REMARK    1  A    between atoms: C5_5  and  C9_9 
ROOT
HETATM    1  C1  UNL     1     -31.078   9.054   0.162  1.00 20.00    -0.021 C 
HETATM    2  C2  UNL     1     -31.598   7.834  -0.045  1.00 20.00    -0.024 C 
HETATM    3  C3  UNL     1     -32.730   9.537   1.925  1.00 20.00    -0.065 C 
HETATM    4  C4  UNL     1     -32.690  10.285   3.033  1.00 20.00     0.016 C 
HETATM    5  C6  UNL     1     -33.312   9.341  -0.322  1.00 20.00     0.023 C 
HETATM    6  C7  UNL     1     -32.219   9.962   0.554  1.00 20.00     0.038 C 
HETATM    7  C8  UNL     1     -33.091   7.924   0.232  1.00 20.00     0.028 C 
HETATM    8  C9  UNL     1     -33.346   8.141   1.759  1.00 20.00     0.046 C 
HETATM    9  C11 UNL     1     -34.833   8.093   2.118  1.00 20.00     0.029 C 
ENDROOT
BRANCH   8  10
HETATM   10  C5  UNL     1     -32.606   7.130   2.601  1.00 20.00     0.136 C 
HETATM   11  C10 UNL     1     -33.097   5.709   2.539  1.00 20.00     0.092 C 
HETATM   12  O12 UNL     1     -31.647   7.451   3.301  1.00 20.00    -0.297 OA
ENDBRANCH   8  10
TORSDOF 1
