REMARK  2 active torsions:
REMARK  status: ('A' for Active; 'I' for Inactive)
REMARK    1  A    between atoms: C4_4  and  C10_10 
REMARK    2  A    between atoms: C5_5  and  C10_10 
ROOT
HETATM    1  C1  UNL     1     -32.285  10.697   1.018  1.00 20.00    -0.026 C 
HETATM    2  C2  UNL     1     -33.519  10.446   1.479  1.00 20.00    -0.024 C 
HETATM    3  C6  UNL     1     -33.257   9.186  -0.434  1.00 20.00     0.018 C 
HETATM    4  C7  UNL     1     -31.641   8.305   1.082  1.00 20.00     0.030 C 
HETATM    5  C8  UNL     1     -31.885   9.523   0.157  1.00 20.00     0.010 C 
HETATM    6  C9  UNL     1     -33.933   9.091   0.943  1.00 20.00     0.028 C 
HETATM    7  C10 UNL     1     -33.074   7.989   1.627  1.00 20.00     0.044 C 
ENDROOT
BRANCH   7   8
HETATM    8  C4  UNL     1     -33.526   6.601   1.288  1.00 20.00    -0.019 C 
HETATM    9  C3  UNL     1     -32.912   5.490   1.709  1.00 20.00     0.008 C 
ENDBRANCH   7   8
BRANCH   7  10
HETATM   10  C5  UNL     1     -33.139   8.048   3.128  1.00 20.00     0.136 C 
HETATM   11  C11 UNL     1     -34.486   7.810   3.756  1.00 20.00     0.092 C 
HETATM   12  O12 UNL     1     -32.141   8.277   3.809  1.00 20.00    -0.297 OA
ENDBRANCH   7  10
TORSDOF 2
