REMARK  3 active torsions:
REMARK  status: ('A' for Active; 'I' for Inactive)
REMARK    1  A    between atoms: C1_1  and  C7_7 
REMARK    2  A    between atoms: C7_7  and  O10_10 
REMARK    3  A    between atoms: C8_8  and  N9_9 
ROOT
HETATM    1  C1  UNL     1     -33.716   6.007   3.147  1.00 20.00     0.032 C 
HETATM    2  C2  UNL     1     -32.391   5.496   2.629  1.00 20.00     0.068 C 
HETATM    3  N9  UNL     1     -34.031   7.255   3.235  1.00 20.00    -0.287 NA
ENDROOT
BRANCH   1   4
HETATM    4  C7  UNL     1     -34.774   4.990   3.557  1.00 20.00     0.161 C 
HETATM    5  C3  UNL     1     -34.136   3.716   4.083  1.00 20.00     0.045 C 
BRANCH   4   6
HETATM    6  O10 UNL     1     -35.599   5.551   4.561  1.00 20.00    -0.390 OA
HETATM    7  H27 UNL     1     -36.260   4.878   4.797  1.00 20.00     0.210 HD
ENDBRANCH   4   6
ENDBRANCH   1   4
BRANCH   3   8
HETATM    8  C8  UNL     1     -33.056   8.252   2.819  1.00 20.00     0.043 C 
HETATM    9  C4  UNL     1     -32.729   8.020   1.344  1.00 20.00     0.039 C 
HETATM   10  C5  UNL     1     -33.682   9.632   3.020  1.00 20.00     0.039 C 
HETATM   11  C6  UNL     1     -31.807   8.096   3.685  1.00 20.00     0.039 C 
ENDBRANCH   3   8
TORSDOF 3
