REMARK  2 active torsions:
REMARK  status: ('A' for Active; 'I' for Inactive)
REMARK    1  A    between atoms: C3_3  and  C4_4 
REMARK    2  A    between atoms: C3_3  and  O10_10 
ROOT
HETATM    1  C1  UNL     1     -32.653   6.714   2.966  1.00 20.00    -0.065 A 
HETATM    2  C2  UNL     1     -32.516   5.468   2.566  1.00 20.00    -0.027 C 
HETATM    3  C4  UNL     1     -32.141   8.030   2.906  1.00 20.00     0.122 A 
HETATM    4  C5  UNL     1     -33.406   7.616   3.744  1.00 20.00     0.029 A 
HETATM    5  C6  UNL     1     -33.424   4.336   2.963  1.00 20.00     0.036 C 
HETATM    6  C7  UNL     1     -33.343   7.594   5.230  1.00 20.00     0.016 C 
ENDROOT
BRANCH   3   7
HETATM    7  C3  UNL     1     -32.331   8.726   1.633  1.00 20.00     0.267 C 
HETATM    8  O9  UNL     1     -32.496   8.160   0.561  1.00 20.00    -0.265 OA
BRANCH   7   9
HETATM    9  O10 UNL     1     -32.291  10.073   1.840  1.00 20.00    -0.326 OA
HETATM   10  C8  UNL     1     -32.463  10.880   0.671  1.00 20.00     0.213 C 
ENDBRANCH   7   9
ENDBRANCH   3   7
TORSDOF 2
