REMARK  3 active torsions:
REMARK  status: ('A' for Active; 'I' for Inactive)
REMARK    1  A    between atoms: C2_2  and  N9_9 
REMARK    2  A    between atoms: C6_6  and  N9_9 
REMARK    3  A    between atoms: C7_7  and  N9_9 
ROOT
HETATM    1  C1  UNL     1     -33.107   8.604   2.017  1.00 20.00     0.036 C 
HETATM    2  C2  UNL     1     -33.478   7.689   2.698  1.00 20.00     0.024 C 
HETATM    3  C3  UNL     1     -32.682   9.651   1.238  1.00 20.00     0.154 C 
HETATM    4  N8  UNL     1     -32.322  10.536   0.580  1.00 20.00    -0.182 NA
ENDROOT
BRANCH   2   5
HETATM    5  N9  UNL     1     -33.927   6.579   3.523  1.00 20.00    -0.342 N 
BRANCH   5   6
HETATM    6  C6  UNL     1     -33.835   6.736   4.960  1.00 20.00     0.128 C 
HETATM    7  C4  UNL     1     -34.331   5.521   5.667  1.00 20.00     0.027 C 
ENDBRANCH   5   6
BRANCH   5   8
HETATM    8  C7  UNL     1     -33.827   5.248   2.963  1.00 20.00     0.128 C 
HETATM    9  C5  UNL     1     -32.414   4.910   2.628  1.00 20.00     0.027 C 
ENDBRANCH   5   8
ENDBRANCH   2   5
TORSDOF 3
