REMARK  2 active torsions:
REMARK  status: ('A' for Active; 'I' for Inactive)
REMARK    1  A    between atoms: C3_3  and  C8_8 
REMARK    2  A    between atoms: C9_9  and  N11_11 
ROOT
HETATM    1  C1  UNL     1     -32.785   9.297   1.383  1.00 20.00     0.089 C 
HETATM    2  C9  UNL     1     -31.876   8.184   1.650  1.00 20.00     0.395 C 
HETATM    3  N10 UNL     1     -33.505  10.182   1.168  1.00 20.00    -0.195 NA
ENDROOT
BRANCH   2   4
HETATM    4  N11 UNL     1     -32.419   7.304   2.684  1.00 20.00     0.101 N 
HETATM    5  C6  UNL     1     -32.619   8.045   3.937  1.00 20.00     0.274 C 
HETATM    6  C4  UNL     1     -33.135   7.125   5.045  1.00 20.00     0.039 C 
HETATM    7  C8  UNL     1     -34.420   6.416   4.622  1.00 20.00     0.011 C 
HETATM    8  C5  UNL     1     -34.225   5.720   3.276  1.00 20.00     0.039 C 
HETATM    9  C7  UNL     1     -33.672   6.686   2.227  1.00 20.00     0.274 C 
BRANCH   7  10
HETATM   10  C3  UNL     1     -34.819   5.408   5.655  1.00 20.00    -0.032 C 
HETATM   11  C2  UNL     1     -34.062   4.366   6.016  1.00 20.00     0.007 C 
ENDBRANCH   7  10
ENDBRANCH   2   4
TORSDOF 2
