REMARK  1 active torsions:
REMARK  status: ('A' for Active; 'I' for Inactive)
REMARK    1  A    between atoms: C1_1  and  C6_6 
ROOT
HETATM    1  C2  UNL     1     -34.560   6.637   5.760  1.00 20.00     0.002 C 
HETATM    2  C3  UNL     1     -33.351   7.337   5.139  1.00 20.00     0.013 C 
HETATM    3  C4  UNL     1     -35.252   5.643   4.822  1.00 20.00     0.020 C 
HETATM    4  C5  UNL     1     -33.659   6.121   2.914  1.00 20.00     0.033 C 
HETATM    5  C6  UNL     1     -33.474   7.471   3.625  1.00 20.00     0.073 C 
HETATM    6  C7  UNL     1     -34.319   5.037   3.777  1.00 20.00     0.083 C 
HETATM    7 CL10 UNL     1     -33.076   4.016   4.570  1.00 20.00    -0.125 Cl
ENDROOT
BRANCH   5   8
HETATM    8  C1  UNL     1     -32.261   8.159   3.077  1.00 20.00     0.223 C 
HETATM    9  O8  UNL     1     -31.156   8.030   3.597  1.00 20.00    -0.279 OA
HETATM   10 CL9  UNL     1     -32.628   9.115   1.674  1.00 20.00    -0.043 Cl
ENDBRANCH   5   8
TORSDOF 1
