REMARK  1 active torsions:
REMARK  status: ('A' for Active; 'I' for Inactive)
REMARK    1  A    between atoms: C2_2  and  C6_6 
ROOT
HETATM    1  C1  UNL     1     -31.043   8.354   3.878  1.00 20.00     0.074 C 
HETATM    2  C3  UNL     1     -32.258   7.223   2.032  1.00 20.00     0.031 C 
HETATM    3  C4  UNL     1     -32.634   5.907   2.704  1.00 20.00     0.025 C 
HETATM    4  C5  UNL     1     -32.290   8.308   3.106  1.00 20.00     0.154 C 
HETATM    5  C6  UNL     1     -33.897   6.176   3.506  1.00 20.00     0.117 C 
HETATM    6  N8  UNL     1     -30.057   8.390   4.489  1.00 20.00    -0.196 NA
HETATM    7  S10 UNL     1     -33.703   7.857   4.164  1.00 20.00    -0.137 SA
ENDROOT
BRANCH   5   8
HETATM    8  C2  UNL     1     -34.056   5.235   4.651  1.00 20.00     0.136 C 
HETATM    9  C7  UNL     1     -34.232   3.780   4.311  1.00 20.00     0.092 C 
HETATM   10  O9  UNL     1     -34.041   5.628   5.816  1.00 20.00    -0.297 OA
ENDBRANCH   5   8
TORSDOF 1
