REMARK  0 active torsions:
REMARK  status: ('A' for Active; 'I' for Inactive)
ROOT
HETATM    1  C1  UNL     1     -33.845   7.118   6.377  1.00 20.00     0.027 C 
HETATM    2  C2  UNL     1     -33.178   8.162   5.639  1.00 20.00     0.027 C 
HETATM    3  C3  UNL     1     -34.012   6.033   5.530  1.00 20.00     0.012 C 
HETATM    4  C4  UNL     1     -32.976   7.667   4.377  1.00 20.00     0.012 C 
HETATM    5  C5  UNL     1     -34.409   4.608   5.703  1.00 20.00     0.057 C 
HETATM    6  C6  UNL     1     -32.284   7.925   3.096  1.00 20.00     0.059 C 
HETATM    7  C7  UNL     1     -34.414   3.830   4.364  1.00 20.00     0.008 C 
HETATM    8  C8  UNL     1     -32.213   6.483   2.489  1.00 20.00     0.032 C 
HETATM    9  C9  UNL     1     -33.285   4.258   3.398  1.00 20.00     0.026 C 
HETATM   10  C10 UNL     1     -33.432   5.742   3.076  1.00 20.00     0.090 C 
HETATM   11  N11 UNL     1     -33.613   6.474   4.320  1.00 20.00    -0.349 N 
ENDROOT
TORSDOF 0
