REMARK  2 active torsions:
REMARK  status: ('A' for Active; 'I' for Inactive)
REMARK    1  A    between atoms: C3_3  and  C10_10 
REMARK    2  A    between atoms: C7_7  and  O11_11 
ROOT
HETATM    1  C1  UNL     1     -32.273   8.910   0.076  1.00 20.00     0.012 C 
HETATM    2  C2  UNL     1     -32.394   8.857   1.270  1.00 20.00    -0.113 C 
HETATM    3  C10 UNL     1     -32.536   8.804   2.726  1.00 20.00     0.127 C 
ENDROOT
BRANCH   3   4
HETATM    4  C3  UNL     1     -33.214   7.538   3.126  1.00 20.00    -0.060 C 
HETATM    5  C4  UNL     1     -33.507   7.096   4.361  1.00 20.00    -0.052 C 
HETATM    6  C7  UNL     1     -34.187   5.756   4.308  1.00 20.00     0.147 C 
HETATM    7  C8  UNL     1     -33.194   7.726   5.675  1.00 20.00     0.046 C 
HETATM    8  C5  UNL     1     -34.612   5.650   2.844  1.00 20.00     0.045 C 
HETATM    9  C6  UNL     1     -33.658   6.562   2.065  1.00 20.00     0.014 C 
HETATM   10  C9  UNL     1     -32.490   5.791   1.459  1.00 20.00     0.015 C 
BRANCH   6  11
HETATM   11  O11 UNL     1     -35.336   5.701   5.137  1.00 20.00    -0.391 OA
HETATM   12  H25 UNL     1     -35.710   4.810   5.043  1.00 20.00     0.210 HD
ENDBRANCH   6  11
ENDBRANCH   3   4
TORSDOF 2
