REMARK  2 active torsions:
REMARK  status: ('A' for Active; 'I' for Inactive)
REMARK    1  A    between atoms: C1_1  and  C4_4 
REMARK    2  A    between atoms: C2_2  and  N10_10 
ROOT
HETATM    1  C5  UNL     1     -34.794   5.344   5.376  1.00 20.00     0.003 C 
HETATM    2  C6  UNL     1     -34.001   4.677   4.255  1.00 20.00     0.029 C 
HETATM    3  C7  UNL     1     -34.099   6.608   5.871  1.00 20.00     0.029 C 
HETATM    4  C8  UNL     1     -33.705   5.648   3.120  1.00 20.00     0.251 C 
HETATM    5  C9  UNL     1     -33.803   7.572   4.730  1.00 20.00     0.251 C 
HETATM    6  N10 UNL     1     -33.001   6.858   3.674  1.00 20.00    -0.006 N 
HETATM    7  H24 UNL     1     -32.118   6.544   4.103  1.00 20.00     0.297 HD
ENDROOT
BRANCH   6   8
HETATM    8  C2  UNL     1     -32.610   7.782   2.593  1.00 20.00     0.118 C 
HETATM    9  C1  UNL     1     -32.292   8.535   1.713  1.00 20.00    -0.049 C 
BRANCH   9  10
HETATM   10  C4  UNL     1     -31.911   9.422   0.672  1.00 20.00     0.056 C 
HETATM   11  C3  UNL     1     -32.785  10.255   0.099  1.00 20.00     0.021 C 
ENDBRANCH   9  10
ENDBRANCH   6   8
TORSDOF 2
