REMARK  2 active torsions:
REMARK  status: ('A' for Active; 'I' for Inactive)
REMARK    1  A    between atoms: C3_3  and  C8_8 
REMARK    2  A    between atoms: C8_8  and  C10_10 
ROOT
HETATM    1  C1  UNL     1     -32.348  10.654   0.493  1.00 20.00    -0.026 C 
HETATM    2  C2  UNL     1     -33.432  10.435   1.252  1.00 20.00    -0.024 C 
HETATM    3  C4  UNL     1     -33.231   8.624  -0.152  1.00 20.00     0.018 C 
HETATM    4  C5  UNL     1     -31.268   8.534   1.197  1.00 20.00     0.025 C 
HETATM    5  C6  UNL     1     -31.871   9.310  -0.000  1.00 20.00     0.010 C 
HETATM    6  C7  UNL     1     -33.660   8.936   1.289  1.00 20.00     0.024 C 
HETATM    7  C8  UNL     1     -32.514   8.271   2.108  1.00 20.00     0.020 C 
ENDROOT
BRANCH   7   8
HETATM    8  C3  UNL     1     -32.350   8.901   3.467  1.00 20.00     0.241 C 
HETATM    9  O11 UNL     1     -31.439   8.617   4.238  1.00 20.00    -0.306 OA
ENDBRANCH   7   8
BRANCH   7  10
HETATM   10  C10 UNL     1     -32.747   6.776   2.339  1.00 20.00     0.013 C 
HETATM   11  C9  UNL     1     -33.969   6.532   3.160  1.00 20.00     0.006 C 
ENDBRANCH   7  10
TORSDOF 2
