REMARK  1 active torsions:
REMARK  status: ('A' for Active; 'I' for Inactive)
REMARK    1  A    between atoms: C5_5  and  C7_7 
ROOT
HETATM    1  C1  UNL     1     -34.076   3.985   5.180  1.00 20.00    -0.003 A 
HETATM    2  C2  UNL     1     -34.631   5.207   5.724  1.00 20.00    -0.003 A 
HETATM    3  C3  UNL     1     -33.585   4.256   3.957  1.00 20.00    -0.012 A 
HETATM    4  C4  UNL     1     -34.461   6.185   4.815  1.00 20.00    -0.012 A 
HETATM    5  C6  UNL     1     -34.145   6.122   2.241  1.00 20.00     0.032 A 
HETATM    6  C7  UNL     1     -32.782   6.449   2.814  1.00 20.00     0.072 A 
HETATM    7  C8  UNL     1     -33.780   5.673   3.616  1.00 20.00     0.006 A 
ENDROOT
BRANCH   6   8
HETATM    8  C5  UNL     1     -32.464   7.843   3.146  1.00 20.00     0.128 C 
HETATM    9  C9  UNL     1     -32.688   8.865   2.065  1.00 20.00     0.091 C 
HETATM   10  O10 UNL     1     -32.036   8.161   4.255  1.00 20.00    -0.298 OA
ENDBRANCH   6   8
TORSDOF 1
