REMARK  1 active torsions:
REMARK  status: ('A' for Active; 'I' for Inactive)
REMARK    1  A    between atoms: C3_3  and  C6_6 
ROOT
HETATM    1  C1  UNL     1     -35.053   5.854   5.322  1.00 20.00    -0.030 C 
HETATM    2  C2  UNL     1     -35.096   5.478   4.037  1.00 20.00    -0.026 C 
HETATM    3  C4  UNL     1     -34.177   6.959   5.831  1.00 20.00     0.032 C 
HETATM    4  C5  UNL     1     -34.275   6.126   2.951  1.00 20.00     0.018 C 
HETATM    5  C6  UNL     1     -33.730   7.500   3.405  1.00 20.00     0.098 C 
HETATM    6  C7  UNL     1     -33.121   7.444   4.815  1.00 20.00    -0.000 C 
HETATM    7  C8  UNL     1     -33.196   5.129   2.505  1.00 20.00     0.015 C 
HETATM    8  C9  UNL     1     -32.563   8.797   5.270  1.00 20.00     0.011 C 
ENDROOT
BRANCH   5   9
HETATM    9  C3  UNL     1     -32.738   8.008   2.371  1.00 20.00     0.178 C 
HETATM   10  O10 UNL     1     -31.683   7.324   2.255  1.00 20.00    -0.648 OA
HETATM   11  O11 UNL     1     -33.098   9.053   1.760  1.00 20.00    -0.648 OA
ENDBRANCH   5   9
TORSDOF 1
