REMARK  2 active torsions:
REMARK  status: ('A' for Active; 'I' for Inactive)
REMARK    1  A    between atoms: C1_1  and  N9_9 
REMARK    2  A    between atoms: C4_4  and  C8_8 
ROOT
HETATM    1  C2  UNL     1     -33.931   7.732   3.941  1.00 20.00     0.031 C 
HETATM    2  C3  UNL     1     -32.600   6.098   2.806  1.00 20.00     0.130 C 
HETATM    3  C4  UNL     1     -32.518   7.506   3.389  1.00 20.00     0.005 C 
HETATM    4  C5  UNL     1     -34.333   6.353   4.475  1.00 20.00     0.083 C 
HETATM    5  C6  UNL     1     -33.961   6.170   5.944  1.00 20.00     0.032 C 
HETATM    6  N9  UNL     1     -33.598   5.424   3.621  1.00 20.00    -0.355 N 
ENDROOT
BRANCH   3   7
HETATM    7  C8  UNL     1     -32.100   8.553   2.372  1.00 20.00     0.002 C 
HETATM    8  C7  UNL     1     -33.035   8.604   1.204  1.00 20.00     0.005 C 
ENDBRANCH   3   7
BRANCH   6   9
HETATM    9  C1  UNL     1     -33.872   4.080   3.521  1.00 20.00     0.351 C 
HETATM   10  O10 UNL     1     -34.695   3.445   4.170  1.00 20.00    -0.284 OA
ENDBRANCH   6   9
TORSDOF 2
