REMARK  1 active torsions:
REMARK  status: ('A' for Active; 'I' for Inactive)
REMARK    1  A    between atoms: C9_9  and  O10_10 
ROOT
HETATM    1  C1  UNL     1     -32.282  10.143   1.477  1.00 20.00     0.012 C 
HETATM    2  C2  UNL     1     -32.637   9.034   1.771  1.00 20.00    -0.112 C 
HETATM    3  C3  UNL     1     -34.047   5.561   3.905  1.00 20.00     0.007 C 
HETATM    4  C4  UNL     1     -32.574   5.626   3.476  1.00 20.00     0.009 C 
HETATM    5  C5  UNL     1     -34.542   7.647   2.604  1.00 20.00     0.024 C 
HETATM    6  C6  UNL     1     -33.071   7.676   2.131  1.00 20.00     0.071 C 
HETATM    7  C7  UNL     1     -34.440   7.047   4.020  1.00 20.00     0.016 C 
HETATM    8  C8  UNL     1     -32.313   7.144   3.371  1.00 20.00     0.030 C 
HETATM    9  C9  UNL     1     -33.154   7.698   4.529  1.00 20.00     0.127 C 
ENDROOT
BRANCH   9  10
HETATM   10  O10 UNL     1     -32.757   7.220   5.797  1.00 20.00    -0.395 OA
HETATM   11  H22 UNL     1     -31.937   7.685   6.038  1.00 20.00     0.210 HD
ENDBRANCH   9  10
TORSDOF 1
