REMARK  0 active torsions:
REMARK  status: ('A' for Active; 'I' for Inactive)
ROOT
HETATM    1  C1  UNL     1     -32.291   9.510   0.747  1.00 20.00     0.017 C 
HETATM    2  C2  UNL     1     -32.197   8.648   1.577  1.00 20.00    -0.057 C 
HETATM    3  C3  UNL     1     -32.083   7.596   2.589  1.00 20.00     0.342 C 
HETATM    4  C4  UNL     1     -33.525   7.629   4.346  1.00 20.00     0.150 C 
HETATM    5  C5  UNL     1     -33.599   6.287   3.648  1.00 20.00     0.150 C 
HETATM    6  C6  UNL     1     -33.554   7.551   5.859  1.00 20.00     0.042 C 
HETATM    7  C7  UNL     1     -35.000   5.722   3.522  1.00 20.00     0.042 C 
HETATM    8  O8  UNL     1     -32.265   8.149   3.902  1.00 20.00    -0.343 OA
HETATM    9  O9  UNL     1     -33.065   6.577   2.351  1.00 20.00    -0.343 OA
ENDROOT
TORSDOF 0
