REMARK  3 active torsions:
REMARK  status: ('A' for Active; 'I' for Inactive)
REMARK    1  A    between atoms: C7_7  and  C8_8 
REMARK    2  A    between atoms: C8_8  and  N10_10 
REMARK    3  A    between atoms: C9_9  and  N10_10 
ROOT
HETATM    1  C1  UNL     1     -33.972   4.568   5.983  1.00 20.00     0.015 C 
HETATM    2  C2  UNL     1     -33.852   5.057   4.892  1.00 20.00    -0.076 C 
HETATM    3  C4  UNL     1     -32.938   4.693   2.638  1.00 20.00     0.063 C 
HETATM    4  C5  UNL     1     -35.087   5.946   2.957  1.00 20.00     0.063 C 
HETATM    5  C9  UNL     1     -33.705   5.657   3.550  1.00 20.00     0.213 C 
ENDROOT
BRANCH   5   6
HETATM    6  N10 UNL     1     -32.967   6.900   3.667  1.00 20.00     0.104 N 
HETATM    7  C6  UNL     1     -33.384   7.645   4.860  1.00 20.00     0.312 C 
BRANCH   6   8
HETATM    8  C8  UNL     1     -33.146   7.729   2.471  1.00 20.00     0.273 C 
BRANCH   8   9
HETATM    9  C7  UNL     1     -32.000   8.714   2.271  1.00 20.00     0.026 C 
HETATM   10  C3  UNL     1     -32.188   9.594   1.043  1.00 20.00     0.007 C 
ENDBRANCH   8   9
ENDBRANCH   6   8
ENDBRANCH   5   6
TORSDOF 3
