REMARK  0 active torsions:
REMARK  status: ('A' for Active; 'I' for Inactive)
ROOT
HETATM    1  C1  UNL     1     -34.700   5.480   6.064  1.00 20.00     0.020 A 
HETATM    2  C2  UNL     1     -34.451   4.661   4.925  1.00 20.00     0.038 A 
HETATM    3  C3  UNL     1     -34.345   6.782   5.749  1.00 20.00     0.093 A 
HETATM    4  C4  UNL     1     -33.955   5.505   3.974  1.00 20.00     0.073 A 
HETATM    5  C5  UNL     1     -33.365   7.749   3.628  1.00 20.00     0.085 A 
HETATM    6  C6  UNL     1     -33.157   7.205   2.398  1.00 20.00     0.065 A 
HETATM    7  C7  UNL     1     -32.050   7.840   3.025  1.00 20.00     0.061 A 
HETATM    8  N8  UNL     1     -33.845   6.768   4.475  1.00 20.00    -0.337 N 
HETATM    9  S9  UNL     1     -33.472   5.480   2.313  1.00 20.00    -0.097 SA
ENDROOT
TORSDOF 0
