REMARK  2 active torsions:
REMARK  status: ('A' for Active; 'I' for Inactive)
REMARK    1  A    between atoms: C1_1  and  C8_8 
REMARK    2  A    between atoms: C2_2  and  C9_9 
ROOT
HETATM    1  C3  UNL     1     -33.955   6.986   5.320  1.00 20.00     0.082 C 
HETATM    2  C6  UNL     1     -34.880   5.561   3.450  1.00 20.00     0.040 A 
HETATM    3  C7  UNL     1     -33.444   5.171   3.638  1.00 20.00     0.040 A 
HETATM    4  C9  UNL     1     -33.885   6.582   3.946  1.00 20.00     0.112 A 
HETATM    5  N10 UNL     1     -34.012   7.313   6.432  1.00 20.00    -0.195 NA
ENDROOT
BRANCH   4   6
HETATM    6  C2  UNL     1     -33.483   7.628   3.050  1.00 20.00    -0.081 C 
HETATM    7  C1  UNL     1     -33.146   8.504   2.300  1.00 20.00    -0.100 C 
BRANCH   7   8
HETATM    8  C8  UNL     1     -32.736   9.570   1.387  1.00 20.00     0.065 A 
HETATM    9  C4  UNL     1     -33.165   9.469  -0.038  1.00 20.00     0.018 A 
HETATM   10  C5  UNL     1     -31.732   9.238   0.336  1.00 20.00     0.018 A 
ENDBRANCH   7   8
ENDBRANCH   4   6
TORSDOF 2
