REMARK  1 active torsions:
REMARK  status: ('A' for Active; 'I' for Inactive)
REMARK    1  A    between atoms: C5_5  and  N8_8 
ROOT
HETATM    1  C1  UNL     1     -32.177   8.155   3.856  1.00 20.00     0.069 A 
HETATM    2  C2  UNL     1     -32.816   7.311   4.670  1.00 20.00     0.095 A 
HETATM    3  C3  UNL     1     -32.456   7.601   2.512  1.00 20.00     0.168 A 
HETATM    4  C6  UNL     1     -33.315   6.355   2.607  1.00 20.00     0.211 A 
HETATM    5  N8  UNL     1     -33.481   6.271   4.055  1.00 20.00    -0.354 N 
HETATM    6  O9  UNL     1     -32.039   8.096   1.477  1.00 20.00    -0.291 OA
ENDROOT
BRANCH   5   7
HETATM    7  C5  UNL     1     -34.196   5.295   4.675  1.00 20.00    -0.002 C 
HETATM    8  C4  UNL     1     -34.294   4.072   4.137  1.00 20.00     0.038 C 
HETATM    9  C7  UNL     1     -34.850   5.674   5.967  1.00 20.00     0.067 C 
ENDBRANCH   5   7
TORSDOF 1
