REMARK  2 active torsions:
REMARK  status: ('A' for Active; 'I' for Inactive)
REMARK    1  A    between atoms: C1_1  and  N9_9 
REMARK    2  A    between atoms: C4_4  and  C8_8 
ROOT
HETATM    1  C2  UNL     1     -32.475   6.828   2.337  1.00 20.00     0.031 C 
HETATM    2  C3  UNL     1     -34.128   7.891   3.690  1.00 20.00     0.130 C 
HETATM    3  C4  UNL     1     -32.883   8.206   2.869  1.00 20.00     0.005 C 
HETATM    4  C5  UNL     1     -32.802   5.881   3.500  1.00 20.00     0.083 C 
HETATM    5  C6  UNL     1     -33.211   4.501   3.000  1.00 20.00     0.032 C 
HETATM    6  N9  UNL     1     -33.859   6.571   4.237  1.00 20.00    -0.355 N 
ENDROOT
BRANCH   3   7
HETATM    7  C8  UNL     1     -33.129   9.224   1.770  1.00 20.00     0.002 C 
HETATM    8  C7  UNL     1     -31.901   9.476   0.953  1.00 20.00     0.005 C 
ENDBRANCH   3   7
BRANCH   6   9
HETATM    9  C1  UNL     1     -34.440   6.107   5.395  1.00 20.00     0.351 C 
HETATM   10  O10 UNL     1     -34.267   5.013   5.920  1.00 20.00    -0.284 OA
ENDBRANCH   6   9
TORSDOF 2
