REMARK  1 active torsions:
REMARK  status: ('A' for Active; 'I' for Inactive)
REMARK    1  A    between atoms: C3_3  and  C6_6 
ROOT
HETATM    1  C1  UNL     1     -35.097   5.949   5.088  1.00 20.00     0.005 C 
HETATM    2  C2  UNL     1     -35.560   6.056   3.831  1.00 20.00     0.040 C 
HETATM    3  C4  UNL     1     -33.704   6.332   5.471  1.00 20.00     0.033 C 
HETATM    4  C5  UNL     1     -33.041   7.143   4.363  1.00 20.00     0.049 C 
HETATM    5  C6  UNL     1     -33.382   6.576   2.980  1.00 20.00     0.116 C 
HETATM    6  C7  UNL     1     -36.967   5.710   3.461  1.00 20.00     0.076 C 
HETATM    7  C8  UNL     1     -32.718   5.228   2.694  1.00 20.00     0.054 C 
HETATM    8  O10 UNL     1     -34.797   6.483   2.760  1.00 20.00    -0.338 OA
ENDROOT
BRANCH   5   9
HETATM    9  C3  UNL     1     -32.964   7.557   1.922  1.00 20.00     0.269 C 
HETATM   10  O9  UNL     1     -32.020   8.329   2.051  1.00 20.00    -0.304 OA
ENDBRANCH   5   9
TORSDOF 1
