REMARK  2 active torsions:
REMARK  status: ('A' for Active; 'I' for Inactive)
REMARK    1  A    between atoms: C4_4  and  C6_6 
REMARK    2  A    between atoms: C7_7  and  O10_10 
ROOT
HETATM    1  C1  UNL     1     -32.530   8.336   2.054  1.00 20.00     0.218 C 
HETATM    2  C4  UNL     1     -32.420   7.828   3.246  1.00 20.00     0.043 C 
HETATM    3  O9  UNL     1     -32.629   8.796   0.976  1.00 20.00    -0.284 OA
ENDROOT
BRANCH   2   4
HETATM    4  C6  UNL     1     -33.540   7.695   4.223  1.00 20.00     0.064 C 
HETATM    5  C3  UNL     1     -33.099   7.780   5.655  1.00 20.00    -0.020 C 
HETATM    6  C2  UNL     1     -33.770   6.920   6.427  1.00 20.00    -0.027 C 
HETATM    7  C5  UNL     1     -34.749   6.110   5.637  1.00 20.00     0.059 C 
HETATM    8  C7  UNL     1     -34.276   6.340   4.196  1.00 20.00     0.135 C 
BRANCH   8   9
HETATM    9  O10 UNL     1     -33.406   5.262   3.848  1.00 20.00    -0.389 OA
HETATM   10  C8  UNL     1     -33.286   5.131   2.441  1.00 20.00     0.202 C 
ENDBRANCH   8   9
ENDBRANCH   2   4
TORSDOF 2
