REMARK  1 active torsions:
REMARK  status: ('A' for Active; 'I' for Inactive)
REMARK    1  A    between atoms: C2_2  and  C3_3 
ROOT
HETATM    1  C1  UNL     1     -33.083   5.595   2.790  1.00 20.00    -0.015 C 
HETATM    2  C2  UNL     1     -33.126   6.831   3.296  1.00 20.00    -0.012 C 
HETATM    3  C4  UNL     1     -34.000   4.682   3.537  1.00 20.00     0.032 C 
HETATM    4  C5  UNL     1     -34.062   6.959   4.460  1.00 20.00     0.022 C 
HETATM    5  C6  UNL     1     -34.907   5.673   4.288  1.00 20.00    -0.007 C 
HETATM    6  C8  UNL     1     -33.299   7.068   5.778  1.00 20.00     0.015 C 
HETATM    7  C9  UNL     1     -35.505   5.080   5.555  1.00 20.00     0.011 C 
ENDROOT
BRANCH   2   8
HETATM    8  C3  UNL     1     -32.343   7.929   2.755  1.00 20.00     0.151 C 
HETATM    9  C7  UNL     1     -32.563   8.329   1.312  1.00 20.00     0.096 C 
HETATM   10  O10 UNL     1     -31.508   8.524   3.451  1.00 20.00    -0.293 OA
ENDBRANCH   2   8
TORSDOF 1
