REMARK  0 active torsions:
REMARK  status: ('A' for Active; 'I' for Inactive)
ROOT
HETATM    1  C1  UNL     1     -32.730   7.924   2.946  1.00 20.00     0.066 C 
HETATM    2  C2  UNL     1     -33.653   4.167   5.083  1.00 20.00     0.031 C 
HETATM    3  C3  UNL     1     -33.583   4.289   3.558  1.00 20.00     0.009 C 
HETATM    4  C4  UNL     1     -34.803   4.993   5.676  1.00 20.00     0.272 C 
HETATM    5  C5  UNL     1     -33.762   7.123   5.064  1.00 20.00     0.292 C 
HETATM    6  C6  UNL     1     -35.265   6.121   3.607  1.00 20.00     0.278 C 
HETATM    7  C7  UNL     1     -32.975   6.745   3.794  1.00 20.00     0.127 C 
HETATM    8  C8  UNL     1     -33.886   5.724   3.089  1.00 20.00     0.033 C 
HETATM    9  N9  UNL     1     -32.537   8.853   2.278  1.00 20.00    -0.197 NA
HETATM   10  N10 UNL     1     -35.004   6.315   5.045  1.00 20.00     0.090 N 
ENDROOT
TORSDOF 0
