REMARK  1 active torsions:
REMARK  status: ('A' for Active; 'I' for Inactive)
REMARK    1  A    between atoms: C1_1  and  C4_4 
ROOT
HETATM    1  C2  UNL     1     -33.822   6.617   2.550  1.00 20.00     0.225 A 
HETATM    2  C3  UNL     1     -32.699   5.664   2.765  1.00 20.00     0.225 A 
HETATM    3  C4  UNL     1     -33.133   6.569   3.896  1.00 20.00     0.099 A 
HETATM    4  C5  UNL     1     -32.221   7.721   4.234  1.00 20.00     0.031 C 
HETATM    5  F7  UNL     1     -35.097   6.089   2.448  1.00 20.00    -0.245 F 
HETATM    6  F8  UNL     1     -33.010   4.318   2.847  1.00 20.00    -0.245 F 
ENDROOT
BRANCH   3   7
HETATM    7  C1  UNL     1     -33.875   5.948   5.018  1.00 20.00     0.233 C 
HETATM    8  O6  UNL     1     -34.246   4.778   4.977  1.00 20.00    -0.279 OA
HETATM    9 CL9  UNL     1     -34.131   7.059   6.329  1.00 20.00    -0.043 Cl
ENDBRANCH   3   7
TORSDOF 1
