REMARK  1 active torsions:
REMARK  status: ('A' for Active; 'I' for Inactive)
REMARK    1  A    between atoms: C3_3  and  C6_6 
ROOT
HETATM    1  C1  UNL     1     -32.258   7.809   4.513  1.00 20.00    -0.023 C 
HETATM    2  C2  UNL     1     -32.566   7.344   3.293  1.00 20.00    -0.071 C 
HETATM    3  C4  UNL     1     -33.193   7.297   5.560  1.00 20.00     0.033 C 
HETATM    4  C5  UNL     1     -34.374   6.797   4.715  1.00 20.00     0.005 C 
HETATM    5  C6  UNL     1     -33.764   6.424   3.339  1.00 20.00     0.043 C 
HETATM    6  C7  UNL     1     -31.819   7.639   2.038  1.00 20.00     0.044 C 
HETATM    7  C9  UNL     1     -35.185   5.710   5.411  1.00 20.00     0.011 C 
HETATM    8  C10 UNL     1     -34.768   6.629   2.206  1.00 20.00     0.029 C 
ENDROOT
BRANCH   5   9
HETATM    9  C3  UNL     1     -33.215   5.020   3.291  1.00 20.00     0.136 C 
HETATM   10  C8  UNL     1     -33.648   4.162   2.133  1.00 20.00     0.092 C 
HETATM   11  O11 UNL     1     -32.447   4.598   4.155  1.00 20.00    -0.297 OA
ENDBRANCH   5   9
TORSDOF 1
