REMARK  1 active torsions:
REMARK  status: ('A' for Active; 'I' for Inactive)
REMARK    1  A    between atoms: C1_1  and  C8_8 
ROOT
HETATM    1  C2  UNL     1     -33.585   5.496   4.878  1.00 20.00     0.005 C 
HETATM    2  C3  UNL     1     -33.775   6.934   5.383  1.00 20.00     0.006 C 
HETATM    3  C4  UNL     1     -34.872   6.730   3.303  1.00 20.00     0.010 C 
HETATM    4  C5  UNL     1     -32.595   6.310   2.719  1.00 20.00     0.023 C 
HETATM    5  C6  UNL     1     -33.820   5.626   3.362  1.00 20.00    -0.013 C 
HETATM    6  C7  UNL     1     -34.001   7.726   4.083  1.00 20.00     0.003 C 
HETATM    7  C8  UNL     1     -32.711   7.771   3.215  1.00 20.00     0.036 C 
HETATM    8  C9  UNL     1     -31.454   8.242   3.946  1.00 20.00     0.025 C 
ENDROOT
BRANCH   7   9
HETATM    9  C1  UNL     1     -32.939   8.723   2.065  1.00 20.00     0.227 C 
HETATM   10  O10 UNL     1     -33.941   9.428   1.999  1.00 20.00    -0.279 OA
HETATM   11 CL11 UNL     1     -31.642   8.674   0.910  1.00 20.00    -0.043 Cl
ENDBRANCH   7   9
TORSDOF 1
