REMARK  1 active torsions:
REMARK  status: ('A' for Active; 'I' for Inactive)
REMARK    1  A    between atoms: C4_4  and  C5_5 
ROOT
HETATM    1  C1  UNL     1     -33.432   4.801   3.207  1.00 20.00    -0.021 C 
HETATM    2  C2  UNL     1     -33.946   4.502   4.407  1.00 20.00    -0.025 C 
HETATM    3  C3  UNL     1     -33.146   7.851   3.935  1.00 20.00    -0.015 C 
HETATM    4  C4  UNL     1     -33.464   7.265   2.766  1.00 20.00    -0.009 C 
HETATM    5  C6  UNL     1     -33.382   7.325   5.328  1.00 20.00     0.028 C 
HETATM    6  C7  UNL     1     -34.690   6.581   5.653  1.00 20.00     0.012 C 
HETATM    7  C8  UNL     1     -35.493   5.905   3.343  1.00 20.00     0.022 C 
HETATM    8  C9  UNL     1     -34.170   5.949   2.572  1.00 20.00     0.045 C 
HETATM    9  C10 UNL     1     -35.091   5.415   4.738  1.00 20.00     0.009 C 
ENDROOT
BRANCH   4  10
HETATM   10  C5  UNL     1     -33.079   8.005   1.555  1.00 20.00     0.152 C 
HETATM   11  C11 UNL     1     -33.034   9.507   1.633  1.00 20.00     0.096 C 
HETATM   12  O12 UNL     1     -32.811   7.403   0.516  1.00 20.00    -0.293 OA
ENDBRANCH   4  10
TORSDOF 1
