REMARK  1 active torsions:
REMARK  status: ('A' for Active; 'I' for Inactive)
REMARK    1  A    between atoms: C2_2  and  C3_3 
ROOT
HETATM    1  C1  UNL     1     -34.324   7.824   2.776  1.00 20.00    -0.010 A 
HETATM    2  C2  UNL     1     -33.088   8.317   2.610  1.00 20.00    -0.016 A 
HETATM    3  C4  UNL     1     -32.195   7.893   3.741  1.00 20.00     0.048 A 
HETATM    4  C5  UNL     1     -34.477   7.041   4.015  1.00 20.00     0.022 A 
HETATM    5  C6  UNL     1     -33.092   7.076   4.656  1.00 20.00     0.007 A 
HETATM    6  C7  UNL     1     -33.730   5.749   4.278  1.00 20.00    -0.036 A 
HETATM    7  C9  UNL     1     -34.238   4.892   5.414  1.00 20.00     0.016 C 
HETATM    8  C10 UNL     1     -33.178   4.937   3.133  1.00 20.00     0.016 C 
ENDROOT
BRANCH   2   9
HETATM    9  C3  UNL     1     -32.667   9.126   1.483  1.00 20.00     0.151 C 
HETATM   10  C8  UNL     1     -31.541   8.618   0.606  1.00 20.00     0.096 C 
HETATM   11  O11 UNL     1     -33.207  10.216   1.236  1.00 20.00    -0.293 OA
ENDBRANCH   2   9
TORSDOF 1
