REMARK  3 active torsions:
REMARK  status: ('A' for Active; 'I' for Inactive)
REMARK    1  A    between atoms: C1_1  and  C3_3 
REMARK    2  A    between atoms: C2_2  and  N8_8 
REMARK    3  A    between atoms: C4_4  and  C5_5 
ROOT
HETATM    1  C1  UNL     1     -33.014   7.600   4.292  1.00 20.00    -0.056 C 
HETATM    2  C2  UNL     1     -32.638   8.163   3.302  1.00 20.00     0.012 C 
ENDROOT
BRANCH   1   3
HETATM    3  C3  UNL     1     -33.457   6.936   5.469  1.00 20.00     0.069 C 
HETATM    4  C4  UNL     1     -34.319   5.916   5.408  1.00 20.00     0.050 C 
BRANCH   4   5
HETATM    5  C5  UNL     1     -34.814   5.477   4.089  1.00 20.00     0.259 C 
HETATM    6  O9  UNL     1     -34.057   5.076   3.213  1.00 20.00    -0.302 OA
ENDBRANCH   4   5
ENDBRANCH   1   3
BRANCH   2   7
HETATM    7  N8  UNL     1     -32.186   8.838   2.115  1.00 20.00    -0.350 N 
HETATM    8  C6  UNL     1     -33.049   9.859   1.540  1.00 20.00     0.159 C 
HETATM    9  C7  UNL     1     -31.301   8.116   1.213  1.00 20.00     0.159 C 
ENDBRANCH   2   7
TORSDOF 3
