REMARK  2 active torsions:
REMARK  status: ('A' for Active; 'I' for Inactive)
REMARK    1  A    between atoms: C5_5  and  C7_7 
REMARK    2  A    between atoms: C5_5  and  O11_11 
ROOT
HETATM    1  C1  UNL     1     -33.718   9.702   1.854  1.00 20.00     0.003 A 
HETATM    2  C2  UNL     1     -33.529   9.229   3.088  1.00 20.00    -0.007 A 
HETATM    3  C3  UNL     1     -32.813   9.085   0.922  1.00 20.00    -0.066 A 
HETATM    4  C4  UNL     1     -32.788   9.294  -0.397  1.00 20.00     0.019 C 
HETATM    5  C6  UNL     1     -31.900   8.165   1.692  1.00 20.00     0.061 A 
HETATM    6  C7  UNL     1     -32.451   8.185   3.135  1.00 20.00     0.066 A 
HETATM    7  C8  UNL     1     -31.373   8.500   4.166  1.00 20.00     0.031 C 
ENDROOT
BRANCH   6   8
HETATM    8  C5  UNL     1     -33.132   6.887   3.477  1.00 20.00     0.271 C 
HETATM    9  O10 UNL     1     -33.115   5.895   2.761  1.00 20.00    -0.264 OA
BRANCH   8  10
HETATM   10  O11 UNL     1     -33.753   7.002   4.686  1.00 20.00    -0.326 OA
HETATM   11  C9  UNL     1     -34.444   5.833   5.136  1.00 20.00     0.213 C 
ENDBRANCH   8  10
ENDBRANCH   6   8
TORSDOF 2
