REMARK  4 active torsions:
REMARK  status: ('A' for Active; 'I' for Inactive)
REMARK    1  A    between atoms: C5_5  and  N8_8 
REMARK    2  A    between atoms: C6_6  and  C7_7 
REMARK    3  A    between atoms: C6_6  and  N8_8 
REMARK    4  A    between atoms: C7_7  and  O9_9 
ROOT
HETATM    1  C1  UNL     1     -34.293   5.165   5.797  1.00 20.00     0.013 C 
HETATM    2  C2  UNL     1     -34.223   5.572   4.669  1.00 20.00    -0.087 C 
HETATM    3  C5  UNL     1     -34.143   6.067   3.293  1.00 20.00     0.364 C 
ENDROOT
BRANCH   3   4
HETATM    4  N8  UNL     1     -32.954   6.899   3.112  1.00 20.00     0.097 N 
HETATM    5  C3  UNL     1     -32.743   7.750   4.283  1.00 20.00     0.311 C 
BRANCH   4   6
HETATM    6  C6  UNL     1     -33.079   7.714   1.904  1.00 20.00     0.299 C 
BRANCH   6   7
HETATM    7  C7  UNL     1     -31.797   8.495   1.681  1.00 20.00     0.197 C 
BRANCH   7   8
HETATM    8  O9  UNL     1     -31.911   9.259   0.487  1.00 20.00    -0.394 OA
HETATM    9  C4  UNL     1     -32.647  10.455   0.702  1.00 20.00     0.201 C 
ENDBRANCH   7   8
ENDBRANCH   6   7
ENDBRANCH   4   6
ENDBRANCH   3   4
TORSDOF 4
