REMARK  0 active torsions:
REMARK  status: ('A' for Active; 'I' for Inactive)
ROOT
HETATM    1  C1  UNL     1     -32.647   8.733   1.952  1.00 20.00     0.014 C 
HETATM    2  C2  UNL     1     -32.734   7.721   2.592  1.00 20.00    -0.081 C 
HETATM    3  C3  UNL     1     -35.635   5.957   4.127  1.00 20.00     0.035 C 
HETATM    4  C4  UNL     1     -33.928   4.323   4.888  1.00 20.00     0.035 C 
HETATM    5  C5  UNL     1     -33.386   6.752   4.796  1.00 20.00     0.053 C 
HETATM    6  C6  UNL     1     -35.093   5.833   2.695  1.00 20.00     0.274 C 
HETATM    7  C7  UNL     1     -33.520   4.173   3.413  1.00 20.00     0.274 C 
HETATM    8  C8  UNL     1     -32.841   6.478   3.377  1.00 20.00     0.300 C 
HETATM    9  C9  UNL     1     -34.490   5.733   5.125  1.00 20.00    -0.008 C 
HETATM   10  N10 UNL     1     -33.660   5.452   2.677  1.00 20.00     0.104 N 
ENDROOT
TORSDOF 0
