REMARK  1 active torsions:
REMARK  status: ('A' for Active; 'I' for Inactive)
REMARK    1  A    between atoms: C10_10  and  O13_13 
ROOT
HETATM    1  C1  UNL     1     -32.560   8.797   1.140  1.00 20.00     0.099 C 
HETATM    2  C2  UNL     1     -33.812   6.814   1.847  1.00 20.00     0.023 A 
HETATM    3  C3  UNL     1     -34.336   5.990   2.845  1.00 20.00     0.012 A 
HETATM    4  C4  UNL     1     -32.863   8.309   3.515  1.00 20.00     0.030 A 
HETATM    5  C5  UNL     1     -33.081   7.965   2.180  1.00 20.00     0.045 A 
HETATM    6  C6  UNL     1     -34.121   6.343   4.167  1.00 20.00    -0.023 A 
HETATM    7  C7  UNL     1     -33.395   7.493   4.499  1.00 20.00    -0.048 A 
HETATM    8  C8  UNL     1     -33.266   7.633   5.983  1.00 20.00     0.042 C 
HETATM    9  C9  UNL     1     -34.392   6.704   6.471  1.00 20.00     0.041 C 
HETATM   10  C10 UNL     1     -34.554   5.612   5.401  1.00 20.00     0.154 C 
HETATM   11  N12 UNL     1     -32.138   9.472   0.295  1.00 20.00    -0.191 NA
ENDROOT
BRANCH  10  12
HETATM   12  O13 UNL     1     -33.676   4.532   5.677  1.00 20.00    -0.386 OA
HETATM   13  C11 UNL     1     -33.965   3.396   4.869  1.00 20.00     0.202 C 
ENDBRANCH  10  12
TORSDOF 1
