REMARK  1 active torsions:
REMARK  status: ('A' for Active; 'I' for Inactive)
REMARK    1  A    between atoms: C2_2  and  C3_3 
ROOT
HETATM    1  C1  UNL     1     -33.319   7.368   4.858  1.00 20.00    -0.009 C 
HETATM    2  C2  UNL     1     -33.069   7.108   3.539  1.00 20.00    -0.007 C 
HETATM    3  C4  UNL     1     -33.893   3.682   4.751  1.00 20.00     0.002 C 
HETATM    4  C5  UNL     1     -34.070   4.842   5.771  1.00 20.00     0.009 C 
HETATM    5  C6  UNL     1     -33.399   4.361   3.435  1.00 20.00     0.015 C 
HETATM    6  C7  UNL     1     -33.222   5.887   5.107  1.00 20.00     0.021 C 
HETATM    7  C8  UNL     1     -33.835   5.802   3.646  1.00 20.00    -0.007 C 
HETATM    8  C10 UNL     1     -35.324   5.984   3.282  1.00 20.00     0.021 C 
ENDROOT
BRANCH   2   9
HETATM    9  C3  UNL     1     -32.742   8.056   2.486  1.00 20.00     0.152 C 
HETATM   10  C9  UNL     1     -31.997   9.318   2.861  1.00 20.00     0.096 C 
HETATM   11  O11 UNL     1     -33.069   7.844   1.311  1.00 20.00    -0.293 OA
ENDBRANCH   2   9
TORSDOF 1
