REMARK  3 active torsions:
REMARK  status: ('A' for Active; 'I' for Inactive)
REMARK    1  A    between atoms: C8_8  and  C9_9 
REMARK    2  A    between atoms: C8_8  and  O11_11 
REMARK    3  A    between atoms: N10_10  and  O11_11 
ROOT
HETATM    1  C1  UNL     1     -32.994   7.094   4.293  1.00 20.00     0.107 A 
HETATM    2  C2  UNL     1     -33.614   5.848   3.674  1.00 20.00     0.049 A 
HETATM    3  C3  UNL     1     -33.365   7.586   5.648  1.00 20.00     0.031 C 
HETATM    4  C4  UNL     1     -34.706   5.104   4.400  1.00 20.00     0.036 C 
HETATM    5  C5  UNL     1     -32.717   4.960   2.850  1.00 20.00     0.036 C 
HETATM    6  N10 UNL     1     -33.964   7.205   3.210  1.00 20.00    -0.180 NA
ENDROOT
BRANCH   6   7
HETATM    7  O11 UNL     1     -33.248   7.517   1.987  1.00 20.00    -0.302 OA
BRANCH   7   8
HETATM    8  C8  UNL     1     -32.966   8.910   1.996  1.00 20.00     0.197 C 
BRANCH   8   9
HETATM    9  C9  UNL     1     -32.208   9.297   0.723  1.00 20.00     0.003 C 
HETATM   10  C6  UNL     1     -30.883   8.540   0.612  1.00 20.00     0.011 C 
HETATM   11  C7  UNL     1     -33.071   9.040  -0.510  1.00 20.00     0.011 C 
ENDBRANCH   8   9
ENDBRANCH   7   8
ENDBRANCH   6   7
TORSDOF 3
