REMARK  3 active torsions:
REMARK  status: ('A' for Active; 'I' for Inactive)
REMARK    1  A    between atoms: C2_2  and  C5_5 
REMARK    2  A    between atoms: C3_3  and  C6_6 
REMARK    3  A    between atoms: C3_3  and  O10_10 
ROOT
HETATM    1  C4  UNL     1     -32.261   8.787   4.116  1.00 20.00     0.025 A 
HETATM    2  C5  UNL     1     -31.597   8.475   2.804  1.00 20.00     0.028 A 
HETATM    3  C6  UNL     1     -32.135   7.358   3.665  1.00 20.00     0.094 A 
ENDROOT
BRANCH   3   4
HETATM    4  C3  UNL     1     -33.345   6.616   3.286  1.00 20.00     0.263 C 
HETATM    5  O9  UNL     1     -33.734   6.483   2.134  1.00 20.00    -0.265 OA
BRANCH   4   6
HETATM    6  O10 UNL     1     -33.942   6.117   4.405  1.00 20.00    -0.326 OA
HETATM    7  C8  UNL     1     -35.140   5.367   4.180  1.00 20.00     0.213 C 
ENDBRANCH   4   6
ENDBRANCH   3   4
BRANCH   2   8
HETATM    8  C2  UNL     1     -32.268   8.852   1.569  1.00 20.00    -0.088 C 
HETATM    9  C1  UNL     1     -32.013   8.236   0.406  1.00 20.00     0.014 C 
HETATM   10  C7  UNL     1     -33.263   9.970   1.672  1.00 20.00     0.043 C 
ENDBRANCH   2   8
TORSDOF 3
