REMARK  3 active torsions:
REMARK  status: ('A' for Active; 'I' for Inactive)
REMARK    1  A    between atoms: C1_1  and  C2_2 
REMARK    2  A    between atoms: C4_4  and  C9_9 
REMARK    3  A    between atoms: C5_5  and  C9_9 
ROOT
HETATM    1  C2  UNL     1     -31.627   8.371   1.175  1.00 20.00    -0.004 C 
HETATM    2  C4  UNL     1     -32.570   8.119   2.097  1.00 20.00    -0.015 C 
ENDROOT
BRANCH   2   3
HETATM    3  C9  UNL     1     -32.355   7.210   3.278  1.00 20.00     0.073 C 
HETATM    4  C8  UNL     1     -32.563   7.951   4.593  1.00 20.00     0.022 C 
BRANCH   3   5
HETATM    5  C5  UNL     1     -33.325   6.033   3.189  1.00 20.00     0.130 C 
HETATM    6  C7  UNL     1     -32.846   4.823   2.426  1.00 20.00     0.091 C 
HETATM    7  O10 UNL     1     -34.456   6.064   3.673  1.00 20.00    -0.298 OA
ENDBRANCH   3   5
ENDBRANCH   2   3
BRANCH   1   8
HETATM    8  C1  UNL     1     -31.840   9.246   0.045  1.00 20.00    -0.005 C 
HETATM    9  C3  UNL     1     -32.522  10.398   0.128  1.00 20.00    -0.031 C 
HETATM   10  C6  UNL     1     -33.136  10.908   1.390  1.00 20.00     0.036 C 
ENDBRANCH   1   8
TORSDOF 3
