REMARK  1 active torsions:
REMARK  status: ('A' for Active; 'I' for Inactive)
REMARK    1  A    between atoms: C1_1  and  C4_4 
ROOT
HETATM    1  C2  UNL     1     -32.216  10.092   1.641  1.00 20.00     0.014 A 
HETATM    2  C3  UNL     1     -31.679   8.855   0.988  1.00 20.00     0.014 A 
HETATM    3  C4  UNL     1     -32.914   8.775   1.844  1.00 20.00     0.066 A 
ENDROOT
BRANCH   3   4
HETATM    4  C1  UNL     1     -32.841   8.114   3.151  1.00 20.00     0.193 C 
HETATM    5  O5  UNL     1     -31.844   8.174   3.856  1.00 20.00    -0.286 OA
HETATM    6  I6  UNL     1     -34.458   7.031   3.867  1.00 20.00    -0.001 I 
ENDBRANCH   3   4
TORSDOF 1
