REMARK  0 active torsions:
REMARK  status: ('A' for Active; 'I' for Inactive)
ROOT
HETATM    1  C1  UNL     1     -33.287   4.646   2.362  1.00 20.00     0.037 C 
HETATM    2  C2  UNL     1     -32.396   4.289   3.567  1.00 20.00     0.019 C 
HETATM    3  C3  UNL     1     -35.347   6.002   3.180  1.00 20.00     0.051 C 
HETATM    4  C4  UNL     1     -34.350   6.910   5.304  1.00 20.00     0.052 C 
HETATM    5  C5  UNL     1     -33.948   6.037   2.494  1.00 20.00     0.224 C 
HETATM    6  C6  UNL     1     -33.008   6.536   4.658  1.00 20.00     0.237 C 
HETATM    7  C7  UNL     1     -32.856   4.989   4.847  1.00 20.00     0.081 C 
HETATM    8  C8  UNL     1     -35.328   5.900   4.718  1.00 20.00     0.052 C 
HETATM    9  C9  UNL     1     -33.136   8.300   2.933  1.00 20.00     0.310 C 
HETATM   10  N10 UNL     1     -32.988   6.880   3.219  1.00 20.00     0.094 N 
HETATM   11  S11 UNL     1     -34.530   4.367   5.254  1.00 20.00    -0.157 SA
ENDROOT
TORSDOF 0
