REMARK  0 active torsions:
REMARK  status: ('A' for Active; 'I' for Inactive)
ROOT
HETATM    1  C1  UNL     1     -33.974   7.298   5.992  1.00 20.00     0.017 C 
HETATM    2  C2  UNL     1     -33.596   7.567   4.885  1.00 20.00    -0.082 C 
HETATM    3  C3  UNL     1     -33.147   7.887   3.569  1.00 20.00     0.000 C 
HETATM    4  C4  UNL     1     -32.916   6.927   2.650  1.00 20.00    -0.041 C 
HETATM    5  C5  UNL     1     -32.957   9.344   3.224  1.00 20.00     0.083 C 
HETATM    6  C6  UNL     1     -32.424   7.287   1.261  1.00 20.00     0.307 C 
HETATM    7  C7  UNL     1     -32.874   9.625   1.708  1.00 20.00     0.223 C 
HETATM    8  C8  UNL     1     -33.120   5.450   2.870  1.00 20.00     0.046 C 
HETATM    9  C9  UNL     1     -32.481  11.094   1.507  1.00 20.00     0.043 C 
HETATM   10  C10 UNL     1     -31.644   8.932  -0.303  1.00 20.00     0.310 C 
HETATM   11  N11 UNL     1     -31.926   8.668   1.109  1.00 20.00     0.092 N 
ENDROOT
TORSDOF 0
