REMARK  3 active torsions:
REMARK  status: ('A' for Active; 'I' for Inactive)
REMARK    1  A    between atoms: C1_1  and  C10_10 
REMARK    2  A    between atoms: C7_7  and  C8_8 
REMARK    3  A    between atoms: C9_9  and  C10_10 
ROOT
HETATM    1  C2  UNL     1     -33.523   4.746   3.298  1.00 20.00     0.006 C 
HETATM    2  C3  UNL     1     -35.662   5.980   3.627  1.00 20.00     0.006 C 
HETATM    3  C4  UNL     1     -32.910   5.991   2.617  1.00 20.00     0.019 C 
HETATM    4  C5  UNL     1     -35.051   7.224   2.952  1.00 20.00     0.019 C 
HETATM    5  C7  UNL     1     -34.565   5.180   4.357  1.00 20.00    -0.010 C 
HETATM    6  C10 UNL     1     -33.529   7.280   3.217  1.00 20.00     0.040 C 
ENDROOT
BRANCH   6   7
HETATM    7  C1  UNL     1     -32.958   8.499   2.558  1.00 20.00     0.228 C 
HETATM    8  O11 UNL     1     -33.308   9.631   2.880  1.00 20.00    -0.279 OA
HETATM    9 CL12 UNL     1     -31.789   8.096   1.337  1.00 20.00    -0.043 Cl
ENDBRANCH   6   7
BRANCH   6  10
HETATM   10  C9  UNL     1     -33.226   7.259   4.712  1.00 20.00     0.007 A 
HETATM   11  C6  UNL     1     -34.246   7.427   5.810  1.00 20.00     0.011 A 
HETATM   12  C8  UNL     1     -33.832   6.045   5.370  1.00 20.00    -0.005 A 
ENDBRANCH   6  10
TORSDOF 3
