REMARK  2 active torsions:
REMARK  status: ('A' for Active; 'I' for Inactive)
REMARK    1  A    between atoms: C1_1  and  C7_7 
REMARK    2  A    between atoms: C1_1  and  C9_9 
ROOT
HETATM    1  C2  UNL     1     -34.191   4.741   5.076  1.00 20.00     0.000 C 
HETATM    2  C3  UNL     1     -34.314   6.128   5.698  1.00 20.00     0.001 C 
HETATM    3  C4  UNL     1     -34.304   4.799   3.556  1.00 20.00     0.001 C 
HETATM    4  C5  UNL     1     -33.294   7.104   5.111  1.00 20.00     0.017 C 
HETATM    5  C6  UNL     1     -33.284   5.761   2.948  1.00 20.00     0.017 C 
HETATM    6  C7  UNL     1     -33.331   7.155   3.581  1.00 20.00     0.018 C 
HETATM    7  C8  UNL     1     -34.595   7.881   3.124  1.00 20.00     0.023 C 
ENDROOT
BRANCH   6   8
HETATM    8  C1  UNL     1     -32.216   8.046   3.033  1.00 20.00     0.148 C 
HETATM    9  O10 UNL     1     -31.434   8.611   3.796  1.00 20.00    -0.296 OA
BRANCH   8  10
HETATM   10  C9  UNL     1     -32.157   8.173   1.529  1.00 20.00     0.193 C 
HETATM   11 CL11 UNL     1     -32.370   9.858   1.033  1.00 20.00    -0.123 Cl
ENDBRANCH   8  10
ENDBRANCH   6   8
TORSDOF 2
