REMARK  0 active torsions:
REMARK  status: ('A' for Active; 'I' for Inactive)
ROOT
HETATM    1  C1  UNL     1     -33.946   5.919   5.693  1.00 20.00     0.057 C 
HETATM    2  C2  UNL     1     -32.403   8.753   3.892  1.00 20.00    -0.019 C 
HETATM    3  C3  UNL     1     -33.102   7.664   4.238  1.00 20.00    -0.051 C 
HETATM    4  C4  UNL     1     -33.443   7.158   5.549  1.00 20.00    -0.052 C 
HETATM    5  C5  UNL     1     -34.086   4.997   4.529  1.00 20.00     0.150 C 
HETATM    6  C6  UNL     1     -32.289   8.882   2.407  1.00 20.00     0.028 C 
HETATM    7  C7  UNL     1     -33.490   5.420   3.200  1.00 20.00     0.092 C 
HETATM    8  C8  UNL     1     -32.705   7.494   1.916  1.00 20.00     0.013 C 
HETATM    9  C9  UNL     1     -33.595   6.927   3.026  1.00 20.00     0.026 C 
HETATM   10  C10 UNL     1     -33.246   8.056   6.736  1.00 20.00     0.049 C 
HETATM   11  O11 UNL     1     -34.612   3.896   4.682  1.00 20.00    -0.293 OA
ENDROOT
TORSDOF 0
