REMARK  0 active torsions:
REMARK  status: ('A' for Active; 'I' for Inactive)
ROOT
HETATM    1  C1  UNL     1     -35.975   6.031   3.800  1.00 20.00     0.095 C 
HETATM    2  C2  UNL     1     -33.398   4.513   2.830  1.00 20.00     0.005 C 
HETATM    3  C3  UNL     1     -31.845   8.300   4.462  1.00 20.00     0.032 C 
HETATM    4  C4  UNL     1     -34.019   4.572   4.224  1.00 20.00     0.051 C 
HETATM    5  C5  UNL     1     -32.458   5.693   2.621  1.00 20.00     0.036 C 
HETATM    6  C6  UNL     1     -32.199   8.192   2.982  1.00 20.00     0.037 C 
HETATM    7  C7  UNL     1     -32.806   7.364   5.184  1.00 20.00     0.275 C 
HETATM    8  C8  UNL     1     -34.686   5.928   4.516  1.00 20.00     0.329 C 
HETATM    9  C9  UNL     1     -33.176   7.024   2.890  1.00 20.00     0.224 C 
HETATM   10  N10 UNL     1     -36.987   6.112   3.238  1.00 20.00    -0.195 NA
HETATM   11  N11 UNL     1     -33.847   7.087   4.195  1.00 20.00     0.111 N 
ENDROOT
TORSDOF 0
