REMARK  3 active torsions:
REMARK  status: ('A' for Active; 'I' for Inactive)
REMARK    1  A    between atoms: C1_1  and  C7_7 
REMARK    2  A    between atoms: C1_1  and  O10_10 
REMARK    3  A    between atoms: C6_6  and  C7_7 
ROOT
HETATM    1  C4  UNL     1     -33.532   5.244   2.809  1.00 20.00     0.021 A 
HETATM    2  C5  UNL     1     -34.696   6.178   2.935  1.00 20.00     0.021 A 
HETATM    3  C7  UNL     1     -33.411   6.479   3.678  1.00 20.00     0.051 A 
ENDROOT
BRANCH   3   4
HETATM    4  C1  UNL     1     -32.579   7.586   3.140  1.00 20.00     0.267 C 
HETATM    5  O9  UNL     1     -31.582   8.027   3.696  1.00 20.00    -0.264 OA
BRANCH   4   6
HETATM    6  O10 UNL     1     -33.100   8.014   1.955  1.00 20.00    -0.326 OA
HETATM    7  C8  UNL     1     -32.393   9.085   1.322  1.00 20.00     0.213 C 
ENDBRANCH   4   6
ENDBRANCH   3   4
BRANCH   3   8
HETATM    8  C6  UNL     1     -33.354   6.343   5.212  1.00 20.00     0.004 A 
HETATM    9  C2  UNL     1     -33.641   7.491   6.139  1.00 20.00     0.006 A 
HETATM   10  C3  UNL     1     -34.587   6.325   6.071  1.00 20.00     0.006 A 
ENDBRANCH   3   8
TORSDOF 3
