REMARK  0 active torsions:
REMARK  status: ('A' for Active; 'I' for Inactive)
ROOT
HETATM    1  C1  UNL     1     -33.282   7.838   4.724  1.00 20.00     0.029 C 
HETATM    2  C2  UNL     1     -33.618   6.475   5.328  1.00 20.00     0.046 C 
HETATM    3  C3  UNL     1     -32.289   7.686   3.581  1.00 20.00     0.167 C 
HETATM    4  C4  UNL     1     -32.976   5.463   3.109  1.00 20.00     0.209 C 
HETATM    5  C5  UNL     1     -33.998   5.454   4.249  1.00 20.00     0.134 C 
HETATM    6  O6  UNL     1     -32.784   6.783   2.593  1.00 20.00    -0.388 OA
HETATM    7 CL7  UNL     1     -34.078   3.816   4.972  1.00 20.00    -0.099 Cl
HETATM    8 CL8  UNL     1     -35.627   5.840   3.587  1.00 20.00    -0.099 Cl
ENDROOT
TORSDOF 0
