REMARK  1 active torsions:
REMARK  status: ('A' for Active; 'I' for Inactive)
REMARK    1  A    between atoms: C1_1  and  C7_7 
ROOT
HETATM    1  C2  UNL     1     -32.954   5.130   3.390  1.00 20.00     0.048 C 
HETATM    2  C3  UNL     1     -33.740   6.523   5.301  1.00 20.00     0.048 C 
HETATM    3  C4  UNL     1     -34.000   4.082   3.776  1.00 20.00     0.273 C 
HETATM    4  C5  UNL     1     -34.761   5.430   5.627  1.00 20.00     0.273 C 
HETATM    5  C6  UNL     1     -35.108   6.086   3.434  1.00 20.00     0.288 C 
HETATM    6  C7  UNL     1     -33.668   6.425   3.777  1.00 20.00     0.042 C 
HETATM    7  N8  UNL     1     -35.148   4.877   4.298  1.00 20.00     0.089 N 
ENDROOT
BRANCH   6   8
HETATM    8  C1  UNL     1     -33.142   7.651   3.112  1.00 20.00     0.242 C 
HETATM    9  O9  UNL     1     -31.984   8.040   3.229  1.00 20.00    -0.306 OA
ENDBRANCH   6   8
TORSDOF 1
