REMARK  2 active torsions:
REMARK  status: ('A' for Active; 'I' for Inactive)
REMARK    1  A    between atoms: C2_2  and  C3_3 
REMARK    2  A    between atoms: C4_4  and  C5_5 
ROOT
HETATM    1  C1  UNL     1     -32.544   9.149   0.316  1.00 20.00     0.087 C 
HETATM    2  C2  UNL     1     -32.349   8.965   1.712  1.00 20.00     0.093 C 
HETATM    3  N8  UNL     1     -32.700   9.302  -0.823  1.00 20.00    -0.192 NA
ENDROOT
BRANCH   2   4
HETATM    4  C3  UNL     1     -32.939   7.960   2.374  1.00 20.00     0.012 C 
HETATM    5  C4  UNL     1     -32.764   7.743   3.793  1.00 20.00     0.017 C 
BRANCH   5   6
HETATM    6  C5  UNL     1     -33.350   6.740   4.459  1.00 20.00     0.084 C 
HETATM    7  N9  UNL     1     -34.177   5.787   3.956  1.00 20.00    -0.398 N 
HETATM    8  C6  UNL     1     -33.847   4.366   4.037  1.00 20.00     0.148 C 
HETATM    9  C7  UNL     1     -35.541   6.099   3.535  1.00 20.00     0.148 C 
ENDBRANCH   5   6
ENDBRANCH   2   4
TORSDOF 2
