REMARK  1 active torsions:
REMARK  status: ('A' for Active; 'I' for Inactive)
REMARK    1  A    between atoms: C3_3  and  C8_8 
ROOT
HETATM    1  C1  UNL     1     -32.153   9.146   2.544  1.00 20.00    -0.025 C 
HETATM    2  C2  UNL     1     -32.470   8.431   1.455  1.00 20.00    -0.024 C 
HETATM    3  C4  UNL     1     -31.440   6.993   2.926  1.00 20.00     0.018 C 
HETATM    4  C5  UNL     1     -32.027   8.177   3.698  1.00 20.00     0.013 C 
HETATM    5  C6  UNL     1     -32.570   6.984   1.883  1.00 20.00     0.024 C 
HETATM    6  C7  UNL     1     -33.458   7.670   4.051  1.00 20.00     0.005 C 
HETATM    7  C8  UNL     1     -33.824   6.786   2.794  1.00 20.00     0.027 C 
HETATM    8  C10 UNL     1     -33.483   6.950   5.397  1.00 20.00     0.012 C 
HETATM    9  C11 UNL     1     -35.136   7.233   2.138  1.00 20.00     0.024 C 
ENDROOT
BRANCH   7  10
HETATM   10  C3  UNL     1     -33.984   5.318   3.114  1.00 20.00     0.132 C 
HETATM   11  C9  UNL     1     -35.151   4.939   3.985  1.00 20.00     0.091 C 
HETATM   12  O12 UNL     1     -33.201   4.474   2.681  1.00 20.00    -0.298 OA
ENDBRANCH   7  10
TORSDOF 1
