REMARK  3 active torsions:
REMARK  status: ('A' for Active; 'I' for Inactive)
REMARK    1  A    between atoms: C2_2  and  C6_6 
REMARK    2  A    between atoms: C3_3  and  C5_5 
REMARK    3  A    between atoms: C3_3  and  O10_10 
ROOT
HETATM    1  C4  UNL     1     -31.547   8.126   3.583  1.00 20.00     0.033 A 
HETATM    2  C5  UNL     1     -31.962   6.901   2.815  1.00 20.00     0.101 A 
HETATM    3  C6  UNL     1     -31.442   8.122   2.074  1.00 20.00     0.023 A 
HETATM    4  C7  UNL     1     -30.068   8.038   1.466  1.00 20.00     0.023 C 
ENDROOT
BRANCH   2   5
HETATM    5  C3  UNL     1     -33.382   6.527   2.771  1.00 20.00     0.263 C 
HETATM    6  O9  UNL     1     -34.135   6.802   1.846  1.00 20.00    -0.265 OA
BRANCH   5   7
HETATM    7  O10 UNL     1     -33.709   5.843   3.905  1.00 20.00    -0.326 OA
HETATM    8  C8  UNL     1     -35.072   5.417   3.994  1.00 20.00     0.213 C 
ENDBRANCH   5   7
ENDBRANCH   2   5
BRANCH   3   9
HETATM    9  C2  UNL     1     -32.400   8.962   1.344  1.00 20.00     0.093 C 
HETATM   10  C1  UNL     1     -32.875   8.718   0.117  1.00 20.00     0.052 C 
HETATM   11  F11 UNL     1     -32.840  10.080   1.968  1.00 20.00    -0.211 F 
ENDBRANCH   3   9
TORSDOF 3
