REMARK  3 active torsions:
REMARK  status: ('A' for Active; 'I' for Inactive)
REMARK    1  A    between atoms: C1_1  and  C7_7 
REMARK    2  A    between atoms: C1_1  and  N9_9 
REMARK    3  A    between atoms: C7_7  and  C8_8 
ROOT
HETATM    1  C2  UNL     1     -34.168   4.762   3.433  1.00 20.00     0.021 C 
HETATM    2  C3  UNL     1     -34.998   5.790   4.186  1.00 20.00     0.021 C 
HETATM    3  C4  UNL     1     -33.308   5.625   2.515  1.00 20.00     0.123 C 
HETATM    4  C5  UNL     1     -34.005   6.923   4.422  1.00 20.00     0.123 C 
HETATM    5  N9  UNL     1     -33.114   6.859   3.268  1.00 20.00    -0.375 N 
ENDROOT
BRANCH   5   6
HETATM    6  C1  UNL     1     -32.218   7.825   2.938  1.00 20.00     0.075 C 
HETATM    7  S10 UNL     1     -31.478   8.785   4.088  1.00 20.00    -0.066 SA
BRANCH   6   8
HETATM    8  C7  UNL     1     -31.925   7.953   1.459  1.00 20.00     0.069 C 
BRANCH   8   9
HETATM    9  C8  UNL     1     -32.886   8.940   0.795  1.00 20.00     0.002 C 
HETATM   10  C6  UNL     1     -32.797  10.317   1.433  1.00 20.00     0.005 C 
ENDBRANCH   8   9
ENDBRANCH   6   8
ENDBRANCH   5   6
TORSDOF 3
