REMARK  2 active torsions:
REMARK  status: ('A' for Active; 'I' for Inactive)
REMARK    1  A    between atoms: C5_5  and  O12_12 
REMARK    2  A    between atoms: C6_6  and  C11_11 
ROOT
HETATM    1  C1  UNL     1     -31.857   8.001   4.311  1.00 20.00    -0.021 C 
HETATM    2  C2  UNL     1     -32.973   7.449   4.819  1.00 20.00    -0.059 C 
HETATM    3  C3  UNL     1     -31.802   8.716   2.993  1.00 20.00     0.032 C 
HETATM    4  C4  UNL     1     -34.315   8.568   2.963  1.00 20.00     0.042 C 
HETATM    5  C5  UNL     1     -34.304   7.545   4.108  1.00 20.00     0.149 C 
HETATM    6  C6  UNL     1     -33.039   8.470   2.116  1.00 20.00    -0.005 C 
HETATM    7  C7  UNL     1     -32.963   6.729   6.137  1.00 20.00     0.046 C 
ENDROOT
BRANCH   6   8
HETATM    8  C11 UNL     1     -33.077   9.452   0.947  1.00 20.00    -0.018 C 
HETATM    9  C8  UNL     1     -33.166  10.889   1.456  1.00 20.00     0.010 C 
HETATM   10  C9  UNL     1     -31.851   9.273   0.055  1.00 20.00     0.010 C 
ENDBRANCH   6   8
BRANCH   5  11
HETATM   11  O12 UNL     1     -34.642   6.267   3.568  1.00 20.00    -0.386 OA
HETATM   12  C10 UNL     1     -36.033   6.171   3.303  1.00 20.00     0.202 C 
ENDBRANCH   5  11
TORSDOF 2
