REMARK  0 active torsions:
REMARK  status: ('A' for Active; 'I' for Inactive)
ROOT
HETATM    1  C1  UNL     1     -33.962   4.679   3.519  1.00 20.00     0.088 C 
HETATM    2  C2  UNL     1     -33.101   6.686   2.501  1.00 20.00    -0.041 C 
HETATM    3  C3  UNL     1     -32.852   7.360   3.778  1.00 20.00    -0.050 C 
HETATM    4  C4  UNL     1     -33.613   5.449   2.383  1.00 20.00     0.101 C 
HETATM    5  C5  UNL     1     -33.489   7.082   4.927  1.00 20.00    -0.081 C 
HETATM    6  C6  UNL     1     -32.720   7.477   1.265  1.00 20.00     0.044 C 
HETATM    7  C7  UNL     1     -31.836   8.474   3.704  1.00 20.00     0.040 C 
HETATM    8  C8  UNL     1     -32.215   9.539   2.669  1.00 20.00     0.009 C 
HETATM    9  C9  UNL     1     -32.984   8.979   1.456  1.00 20.00    -0.014 C 
HETATM   10  C10 UNL     1     -33.183   7.813   6.199  1.00 20.00     0.043 C 
HETATM   11  C11 UNL     1     -34.546   6.021   5.009  1.00 20.00     0.043 C 
HETATM   12  C12 UNL     1     -32.653   9.765   0.188  1.00 20.00     0.010 C 
HETATM   13  N13 UNL     1     -34.250   4.041   4.444  1.00 20.00    -0.192 NA
ENDROOT
TORSDOF 0
