REMARK  0 active torsions:
REMARK  status: ('A' for Active; 'I' for Inactive)
ROOT
HETATM    1  C1  UNL     1     -32.930   7.871   3.508  1.00 20.00     0.086 C 
HETATM    2  C2  UNL     1     -33.573   7.032   4.325  1.00 20.00    -0.064 C 
HETATM    3  C3  UNL     1     -32.982   7.649   2.049  1.00 20.00     0.283 C 
HETATM    4  C4  UNL     1     -33.536   7.060   5.824  1.00 20.00     0.035 C 
HETATM    5  C5  UNL     1     -34.249   5.769   6.230  1.00 20.00     0.005 C 
HETATM    6  C6  UNL     1     -34.149   4.857   5.007  1.00 20.00     0.016 C 
HETATM    7  C7  UNL     1     -33.556   5.339   2.569  1.00 20.00     0.192 C 
HETATM    8  C8  UNL     1     -34.289   5.813   3.818  1.00 20.00     0.002 C 
HETATM    9  C9  UNL     1     -35.762   6.128   3.511  1.00 20.00     0.022 C 
HETATM   10  O10 UNL     1     -32.653   8.535   1.268  1.00 20.00    -0.260 OA
HETATM   11  O11 UNL     1     -33.414   6.427   1.625  1.00 20.00    -0.317 OA
ENDROOT
TORSDOF 0
