REMARK  1 active torsions:
REMARK  status: ('A' for Active; 'I' for Inactive)
REMARK    1  A    between atoms: C4_4  and  C7_7 
ROOT
HETATM    1  C1  UNL     1     -32.564   9.531   1.907  1.00 20.00     0.075 C 
HETATM    2  C2  UNL     1     -31.569   8.280   3.813  1.00 20.00     0.105 C 
HETATM    3  C3  UNL     1     -32.037   8.235   2.364  1.00 20.00     0.164 C 
HETATM    4  C4  UNL     1     -33.931   6.982   3.928  1.00 20.00     0.113 C 
HETATM    5  N8  UNL     1     -32.979  10.552   1.546  1.00 20.00    -0.196 NA
HETATM    6  S9  UNL     1     -33.031   8.239   4.884  1.00 20.00    -0.151 SA
HETATM    7  S10 UNL     1     -33.294   6.923   2.218  1.00 20.00    -0.133 SA
ENDROOT
BRANCH   4   8
HETATM    8  C7  UNL     1     -33.768   5.615   4.581  1.00 20.00     0.001 C 
HETATM    9  C5  UNL     1     -34.309   5.631   6.010  1.00 20.00     0.011 C 
HETATM   10  C6  UNL     1     -34.469   4.536   3.757  1.00 20.00     0.011 C 
ENDBRANCH   4   8
TORSDOF 1
