REMARK  1 active torsions:
REMARK  status: ('A' for Active; 'I' for Inactive)
REMARK    1  A    between atoms: C7_7  and  N9_9 
ROOT
HETATM    1  C1  UNL     1     -34.451   4.676   3.894  1.00 20.00     0.004 A 
HETATM    2  C2  UNL     1     -34.484   5.558   4.899  1.00 20.00     0.042 A 
HETATM    3  C3  UNL     1     -33.637   4.905   2.736  1.00 20.00     0.018 A 
HETATM    4  C4  UNL     1     -32.896   6.015   2.650  1.00 20.00     0.097 A 
HETATM    5  C5  UNL     1     -33.660   6.819   4.836  1.00 20.00     0.106 A 
HETATM    6  N9  UNL     1     -32.888   6.968   3.661  1.00 20.00    -0.324 N 
HETATM    7  S10 UNL     1     -33.722   7.915   6.126  1.00 20.00    -0.060 SA
ENDROOT
BRANCH   6   8
HETATM    8  C7  UNL     1     -32.065   8.041   3.393  1.00 20.00     0.093 C 
HETATM    9  C6  UNL     1     -32.234   8.836   2.330  1.00 20.00    -0.013 C 
HETATM   10  C8  UNL     1     -33.322   8.651   1.324  1.00 20.00     0.037 C 
ENDBRANCH   6   8
TORSDOF 1
