REMARK  0 active torsions:
REMARK  status: ('A' for Active; 'I' for Inactive)
ROOT
HETATM    1  C1  UNL     1     -33.708   6.521   4.726  1.00 20.00     0.076 A 
HETATM    2  C2  UNL     1     -34.236   5.591   3.876  1.00 20.00     0.123 A 
HETATM    3  C3  UNL     1     -33.360   7.566   2.885  1.00 20.00     0.073 A 
HETATM    4  C4  UNL     1     -34.516   4.685   5.727  1.00 20.00     0.097 A 
HETATM    5  C5  UNL     1     -33.830   6.025   6.098  1.00 20.00     0.109 A 
HETATM    6  C6  UNL     1     -32.940   8.600   1.913  1.00 20.00     0.079 C 
HETATM    7  N7  UNL     1     -33.199   7.661   4.196  1.00 20.00    -0.248 NA
HETATM    8  N8  UNL     1     -34.733   4.469   4.452  1.00 20.00    -0.255 NA
HETATM    9  S9  UNL     1     -34.119   6.118   2.285  1.00 20.00    -0.053 SA
ENDROOT
TORSDOF 0
