REMARK  1 active torsions:
REMARK  status: ('A' for Active; 'I' for Inactive)
REMARK    1  A    between atoms: C8_8  and  C11_11 
ROOT
HETATM    1  C1  UNL     1     -33.466   5.696   2.576  1.00 20.00    -0.079 C 
HETATM    2  C2  UNL     1     -33.054   8.943   1.702  1.00 20.00     0.132 C 
HETATM    3  C3  UNL     1     -33.190   4.406   2.756  1.00 20.00     0.015 C 
HETATM    4  C4  UNL     1     -34.468   6.484   1.679  1.00 20.00     0.047 C 
HETATM    5  C5  UNL     1     -31.845   9.116   2.626  1.00 20.00     0.080 C 
HETATM    6  C6  UNL     1     -31.574   7.654   3.135  1.00 20.00     0.022 C 
HETATM    7  C7  UNL     1     -33.286   7.441   1.656  1.00 20.00     0.072 C 
HETATM    8  C8  UNL     1     -32.959   7.001   3.161  1.00 20.00    -0.004 C 
HETATM    9  O12 UNL     1     -33.652   9.853   1.149  1.00 20.00    -0.298 OA
ENDROOT
BRANCH   8  10
HETATM   10  C11 UNL     1     -33.773   7.457   4.381  1.00 20.00    -0.009 C 
HETATM   11  C9  UNL     1     -34.907   6.478   4.656  1.00 20.00     0.011 C 
HETATM   12  C10 UNL     1     -32.867   7.596   5.599  1.00 20.00     0.011 C 
ENDBRANCH   8  10
TORSDOF 1
