REMARK  1 active torsions:
REMARK  status: ('A' for Active; 'I' for Inactive)
REMARK    1  A    between atoms: C5_5  and  N7_7 
ROOT
HETATM    1  C1  UNL     1     -32.370   7.551   3.214  1.00 20.00     0.332 C 
HETATM    2  N7  UNL     1     -33.038   7.147   4.088  1.00 20.00    -0.241 NA
HETATM    3  O8  UNL     1     -31.694   7.960   2.342  1.00 20.00    -0.260 OA
ENDROOT
BRANCH   2   4
HETATM    4  C5  UNL     1     -34.278   6.495   3.645  1.00 20.00     0.126 C 
HETATM    5  C3  UNL     1     -33.920   5.280   2.789  1.00 20.00     0.029 C 
HETATM    6  C2  UNL     1     -33.901   4.075   3.734  1.00 20.00     0.003 C 
HETATM    7  C4  UNL     1     -34.303   4.593   5.113  1.00 20.00     0.018 C 
HETATM    8  C6  UNL     1     -34.992   5.925   4.860  1.00 20.00     0.083 C 
HETATM    9 BR9  UNL     1     -36.885   5.643   4.465  1.00 20.00    -0.089 Br
ENDBRANCH   2   4
TORSDOF 1
