REMARK  1 active torsions:
REMARK  status: ('A' for Active; 'I' for Inactive)
REMARK    1  A    between atoms: C2_2  and  C3_3 
ROOT
HETATM    1  C1  UNL     1     -33.378   7.865   5.391  1.00 20.00    -0.016 C 
HETATM    2  C2  UNL     1     -33.210   7.466   4.127  1.00 20.00    -0.020 C 
HETATM    3  C4  UNL     1     -33.958   6.773   6.228  1.00 20.00     0.032 C 
HETATM    4  C5  UNL     1     -33.647   6.051   3.901  1.00 20.00     0.021 C 
HETATM    5  C6  UNL     1     -34.490   5.791   5.172  1.00 20.00    -0.007 C 
HETATM    6  C7  UNL     1     -34.463   5.835   2.631  1.00 20.00     0.015 C 
HETATM    7  C8  UNL     1     -34.438   4.344   5.641  1.00 20.00     0.011 C 
ENDROOT
BRANCH   2   8
HETATM    8  C3  UNL     1     -32.604   8.327   3.125  1.00 20.00     0.265 C 
HETATM    9  O9  UNL     1     -32.438   7.981   1.956  1.00 20.00    -0.302 OA
ENDBRANCH   2   8
TORSDOF 1
