REMARK  1 active torsions:
REMARK  status: ('A' for Active; 'I' for Inactive)
REMARK    1  A    between atoms: C3_3  and  C6_6 
ROOT
HETATM    1  C1  UNL     1     -33.565   7.910   3.262  1.00 20.00    -0.009 C 
HETATM    2  C2  UNL     1     -32.864   7.682   2.138  1.00 20.00    -0.086 C 
HETATM    3  C4  UNL     1     -32.896   6.348   1.436  1.00 20.00     0.037 C 
HETATM    4  C5  UNL     1     -34.632   5.599   3.116  1.00 20.00     0.023 C 
HETATM    5  C6  UNL     1     -34.469   6.900   3.904  1.00 20.00     0.110 C 
HETATM    6  C7  UNL     1     -33.384   5.186   2.319  1.00 20.00    -0.014 C 
HETATM    7  C8  UNL     1     -32.019   8.745   1.501  1.00 20.00     0.043 C 
HETATM    8  C9  UNL     1     -32.260   4.664   3.220  1.00 20.00     0.010 C 
ENDROOT
BRANCH   5   9
HETATM    9  C3  UNL     1     -33.933   6.650   5.301  1.00 20.00     0.180 C 
HETATM   10  O10 UNL     1     -33.240   7.586   5.788  1.00 20.00    -0.647 OA
HETATM   11  O11 UNL     1     -34.252   5.534   5.799  1.00 20.00    -0.647 OA
ENDBRANCH   5   9
TORSDOF 1
