REMARK  3 active torsions:
REMARK  status: ('A' for Active; 'I' for Inactive)
REMARK    1  A    between atoms: C1_1  and  C2_2 
REMARK    2  A    between atoms: C1_1  and  O11_11 
REMARK    3  A    between atoms: C8_8  and  N9_9 
ROOT
HETATM    1  C2  UNL     1     -32.264   7.649   2.646  1.00 20.00     0.355 A 
HETATM    2  C3  UNL     1     -31.708   9.044   2.848  1.00 20.00     0.264 A 
HETATM    3  C4  UNL     1     -31.963   9.823   4.091  1.00 20.00     0.046 C 
HETATM    4  N9  UNL     1     -32.812   8.802   1.931  1.00 20.00     0.115 N 
ENDROOT
BRANCH   1   5
HETATM    5  C1  UNL     1     -33.230   7.062   3.576  1.00 20.00     0.294 C 
HETATM    6  O10 UNL     1     -33.228   7.263   4.783  1.00 20.00    -0.263 OA
BRANCH   5   7
HETATM    7  O11 UNL     1     -34.105   6.275   2.888  1.00 20.00    -0.325 OA
HETATM    8  C7  UNL     1     -35.110   5.634   3.681  1.00 20.00     0.213 C 
ENDBRANCH   5   7
ENDBRANCH   1   5
BRANCH   4   9
HETATM    9  C8  UNL     1     -32.414   8.848   0.529  1.00 20.00     0.216 C 
HETATM   10  C5  UNL     1     -32.566  10.272   0.014  1.00 20.00     0.042 C 
HETATM   11  C6  UNL     1     -33.272   7.869  -0.259  1.00 20.00     0.042 C 
ENDBRANCH   4   9
TORSDOF 3
