REMARK  1 active torsions:
REMARK  status: ('A' for Active; 'I' for Inactive)
REMARK    1  A    between atoms: C3_3  and  N9_9 
ROOT
HETATM    1  C1  UNL     1     -34.108   6.876   4.982  1.00 20.00     0.079 C 
HETATM    2  C4  UNL     1     -34.895   5.648   5.448  1.00 20.00     0.070 C 
HETATM    3  C5  UNL     1     -34.070   4.367   5.320  1.00 20.00     0.007 C 
HETATM    4  C6  UNL     1     -34.161   3.724   3.939  1.00 20.00     0.002 C 
HETATM    5  C7  UNL     1     -33.608   4.581   2.804  1.00 20.00     0.020 C 
HETATM    6  C8  UNL     1     -34.307   5.931   2.661  1.00 20.00     0.129 C 
HETATM    7  N9  UNL     1     -33.792   6.933   3.614  1.00 20.00    -0.352 N 
HETATM    8  S10 UNL     1     -33.681   8.014   6.162  1.00 20.00    -0.065 SA
ENDROOT
BRANCH   7   9
HETATM    9  C3  UNL     1     -32.979   7.912   3.070  1.00 20.00     0.081 C 
HETATM   10  C2  UNL     1     -32.212   7.705   1.997  1.00 20.00     0.030 C 
ENDBRANCH   7   9
TORSDOF 1
