REMARK  0 active torsions:
REMARK  status: ('A' for Active; 'I' for Inactive)
ROOT
HETATM    1  C1  UNL     1     -33.719   4.308   3.920  1.00 20.00     0.001 C 
HETATM    2  C2  UNL     1     -35.032   4.922   4.401  1.00 20.00     0.001 C 
HETATM    3  C3  UNL     1     -33.158   5.267   2.870  1.00 20.00     0.011 C 
HETATM    4  C4  UNL     1     -35.243   6.170   3.551  1.00 20.00     0.011 C 
HETATM    5  C5  UNL     1     -33.153   7.388   4.321  1.00 20.00     0.096 C 
HETATM    6  C6  UNL     1     -33.871   7.557   1.939  1.00 20.00     0.096 C 
HETATM    7  C7  UNL     1     -33.828   6.626   3.160  1.00 20.00    -0.022 C 
HETATM    8  S8  UNL     1     -31.661   8.204   3.687  1.00 20.00    -0.097 SA
HETATM    9  S9  UNL     1     -32.222   8.274   1.719  1.00 20.00    -0.097 SA
ENDROOT
TORSDOF 0
