REMARK  0 active torsions:
REMARK  status: ('A' for Active; 'I' for Inactive)
ROOT
HETATM    1  C1  UNL     1     -34.115   6.030   4.531  1.00 20.00     0.082 C 
HETATM    2  C2  UNL     1     -33.904   6.875   3.527  1.00 20.00    -0.050 C 
HETATM    3  C3  UNL     1     -33.801   4.695   3.990  1.00 20.00     0.171 C 
HETATM    4  C4  UNL     1     -33.709   8.351   3.488  1.00 20.00     0.036 C 
HETATM    5  C5  UNL     1     -33.238   4.790   2.590  1.00 20.00     0.094 C 
HETATM    6  C6  UNL     1     -32.876   8.535   2.209  1.00 20.00     0.005 C 
HETATM    7  C7  UNL     1     -32.369   7.136   1.826  1.00 20.00     0.010 C 
HETATM    8  C8  UNL     1     -33.525   6.238   2.228  1.00 20.00     0.023 C 
HETATM    9  O9  UNL     1     -33.934   3.654   4.616  1.00 20.00    -0.291 OA
HETATM   10 CL10 UNL     1     -34.424   6.339   6.155  1.00 20.00    -0.080 Cl
ENDROOT
TORSDOF 0
