REMARK  1 active torsions:
REMARK  status: ('A' for Active; 'I' for Inactive)
REMARK    1  A    between atoms: C6_6  and  C8_8 
ROOT
HETATM    1  C1  UNL     1     -34.192   6.115   6.161  1.00 20.00     0.061 C 
HETATM    2  C2  UNL     1     -34.015   6.502   3.016  1.00 20.00     0.066 C 
HETATM    3  C3  UNL     1     -34.104   7.571   5.721  1.00 20.00     0.170 C 
HETATM    4  C4  UNL     1     -34.967   5.287   5.184  1.00 20.00     0.153 A 
HETATM    5  C5  UNL     1     -34.869   5.469   3.687  1.00 20.00     0.153 A 
HETATM    6  C6  UNL     1     -32.760   6.920   3.791  1.00 20.00     0.123 C 
HETATM    7  O9  UNL     1     -33.023   7.856   4.838  1.00 20.00    -0.386 OA
HETATM    8  O10 UNL     1     -34.164   4.423   4.363  1.00 20.00    -0.375 OA
ENDROOT
BRANCH   6   9
HETATM    9  C8  UNL     1     -31.769   7.609   2.853  1.00 20.00     0.027 C 
HETATM   10  C7  UNL     1     -32.367   8.816   2.209  1.00 20.00     0.007 C 
ENDBRANCH   6   9
TORSDOF 1
