REMARK  1 active torsions:
REMARK  status: ('A' for Active; 'I' for Inactive)
REMARK    1  A    between atoms: C4_4  and  C10_10 
ROOT
HETATM    1  C1  UNL     1     -33.766   5.892   2.930  1.00 20.00     0.132 C 
HETATM    2  C2  UNL     1     -33.127   6.822   1.932  1.00 20.00     0.087 C 
HETATM    3  C3  UNL     1     -34.062   8.091   3.777  1.00 20.00     0.021 C 
HETATM    4  C4  UNL     1     -34.378   6.625   4.098  1.00 20.00     0.059 C 
HETATM    5  C5  UNL     1     -32.901   8.096   2.759  1.00 20.00    -0.041 C 
HETATM    6  C6  UNL     1     -31.533   8.055   3.458  1.00 20.00     0.015 C 
HETATM    7  C7  UNL     1     -32.961   9.345   1.873  1.00 20.00     0.015 C 
HETATM    8  O11 UNL     1     -33.805   4.675   2.792  1.00 20.00    -0.298 OA
ENDROOT
BRANCH   4   9
HETATM    9  C10 UNL     1     -33.840   6.199   5.454  1.00 20.00    -0.011 C 
HETATM   10  C8  UNL     1     -34.484   7.012   6.580  1.00 20.00     0.010 C 
HETATM   11  C9  UNL     1     -34.065   4.703   5.688  1.00 20.00     0.010 C 
ENDBRANCH   4   9
TORSDOF 1
