REMARK  4 active torsions:
REMARK  status: ('A' for Active; 'I' for Inactive)
REMARK    1  A    between atoms: C1_1  and  C6_6 
REMARK    2  A    between atoms: C1_1  and  C7_7 
REMARK    3  A    between atoms: C6_6  and  C8_8 
REMARK    4  A    between atoms: C7_7  and  C9_9 
ROOT
HETATM    1  C1  UNL     1     -32.799   7.516   2.807  1.00 20.00     0.161 C 
HETATM    2  O10 UNL     1     -31.817   8.140   3.210  1.00 20.00    -0.295 OA
ENDROOT
BRANCH   1   3
HETATM    3  C6  UNL     1     -33.511   7.868   1.510  1.00 20.00     0.085 C 
BRANCH   3   4
HETATM    4  C8  UNL     1     -32.862   9.036   0.753  1.00 20.00    -0.016 C 
HETATM    5  C2  UNL     1     -31.412   8.721   0.377  1.00 20.00     0.010 C 
HETATM    6  C3  UNL     1     -32.911  10.305   1.606  1.00 20.00     0.010 C 
ENDBRANCH   3   4
ENDBRANCH   1   3
BRANCH   1   7
HETATM    7  C7  UNL     1     -33.340   6.334   3.593  1.00 20.00     0.242 C 
HETATM    8  F11 UNL     1     -33.813   5.378   2.741  1.00 20.00    -0.241 F 
BRANCH   7   9
HETATM    9  C9  UNL     1     -34.459   6.720   4.570  1.00 20.00     0.019 C 
HETATM   10  C4  UNL     1     -34.985   5.505   5.338  1.00 20.00     0.012 C 
HETATM   11  C5  UNL     1     -33.952   7.773   5.558  1.00 20.00     0.012 C 
ENDBRANCH   7   9
ENDBRANCH   1   7
TORSDOF 4
