REMARK  0 active torsions:
REMARK  status: ('A' for Active; 'I' for Inactive)
ROOT
HETATM    1  C1  UNL     1     -32.162   9.978   0.889  1.00 20.00    -0.004 C 
HETATM    2  C2  UNL     1     -31.551   8.690   0.701  1.00 20.00    -0.003 C 
HETATM    3  C3  UNL     1     -33.294  10.105   1.590  1.00 20.00    -0.025 C 
HETATM    4  C4  UNL     1     -31.957   7.613   1.389  1.00 20.00    -0.009 C 
HETATM    5  C5  UNL     1     -32.437   7.715   3.812  1.00 20.00     0.140 C 
HETATM    6  C6  UNL     1     -33.983   8.922   2.215  1.00 20.00     0.048 C 
HETATM    7  C7  UNL     1     -33.340   7.526   5.019  1.00 20.00     0.079 C 
HETATM    8  C8  UNL     1     -34.257   6.324   4.871  1.00 20.00     0.008 C 
HETATM    9  C9  UNL     1     -34.978   6.314   3.527  1.00 20.00     0.006 C 
HETATM   10  C10 UNL     1     -33.992   6.365   2.341  1.00 20.00     0.001 C 
HETATM   11  C11 UNL     1     -33.090   7.645   2.409  1.00 20.00     0.044 C 
HETATM   12  C12 UNL     1     -33.215   5.038   2.259  1.00 20.00     0.011 C 
HETATM   13  O13 UNL     1     -31.249   7.999   3.981  1.00 20.00    -0.297 OA
ENDROOT
TORSDOF 0
