REMARK  0 active torsions:
REMARK  status: ('A' for Active; 'I' for Inactive)
ROOT
HETATM    1  C1  UNL     1     -33.129   8.964   1.743  1.00 20.00    -0.004 C 
HETATM    2  C2  UNL     1     -34.447   8.517   2.114  1.00 20.00    -0.003 C 
HETATM    3  C3  UNL     1     -32.038   8.279   2.107  1.00 20.00    -0.025 C 
HETATM    4  C4  UNL     1     -34.629   7.530   3.003  1.00 20.00    -0.009 C 
HETATM    5  C5  UNL     1     -33.383   7.471   5.067  1.00 20.00     0.140 C 
HETATM    6  C6  UNL     1     -32.118   7.018   2.926  1.00 20.00     0.048 C 
HETATM    7  C7  UNL     1     -34.376   7.053   6.131  1.00 20.00     0.079 C 
HETATM    8  C8  UNL     1     -34.455   5.545   6.241  1.00 20.00     0.008 C 
HETATM    9  C9  UNL     1     -34.794   4.920   4.897  1.00 20.00     0.006 C 
HETATM   10  C10 UNL     1     -33.731   5.262   3.838  1.00 20.00     0.001 C 
HETATM   11  C11 UNL     1     -33.480   6.798   3.677  1.00 20.00     0.044 C 
HETATM   12  C12 UNL     1     -34.117   4.562   2.523  1.00 20.00     0.011 C 
HETATM   13  O13 UNL     1     -32.613   8.408   5.292  1.00 20.00    -0.297 OA
ENDROOT
TORSDOF 0
