REMARK  1 active torsions:
REMARK  status: ('A' for Active; 'I' for Inactive)
REMARK    1  A    between atoms: C8_8  and  C11_11 
ROOT
HETATM    1  C1  UNL     1     -34.133   5.933   4.754  1.00 20.00    -0.081 C 
HETATM    2  C2  UNL     1     -33.952   6.393   6.001  1.00 20.00     0.015 C 
HETATM    3  C3  UNL     1     -35.505   5.855   4.119  1.00 20.00     0.061 C 
HETATM    4  C4  UNL     1     -33.196   4.059   3.353  1.00 20.00     0.039 C 
HETATM    5  C5  UNL     1     -35.507   6.208   2.625  1.00 20.00     0.239 C 
HETATM    6  C6  UNL     1     -34.056   4.217   2.091  1.00 20.00     0.236 C 
HETATM    7  C7  UNL     1     -32.972   5.490   3.880  1.00 20.00     0.046 C 
HETATM    8  C8  UNL     1     -32.973   6.285   2.576  1.00 20.00     0.199 C 
HETATM    9  N12 UNL     1     -34.237   5.726   1.946  1.00 20.00    -0.066 N 
HETATM   10  H32 UNL     1     -34.278   5.978   0.949  1.00 20.00     0.280 HD
ENDROOT
BRANCH   8  11
HETATM   11  C11 UNL     1     -32.954   7.802   2.657  1.00 20.00     0.009 C 
HETATM   12  C9  UNL     1     -31.723   8.292   3.420  1.00 20.00     0.011 C 
HETATM   13  C10 UNL     1     -32.993   8.421   1.258  1.00 20.00     0.011 C 
ENDBRANCH   8  11
TORSDOF 1
