REMARK  2 active torsions:
REMARK  status: ('A' for Active; 'I' for Inactive)
REMARK    1  A    between atoms: C1_1  and  C4_4 
REMARK    2  A    between atoms: C1_1  and  C5_5 
ROOT
HETATM    1  C1  UNL     1     -33.399   6.869   4.738  1.00 20.00     0.163 C 
HETATM    2  O6  UNL     1     -33.678   7.282   5.866  1.00 20.00    -0.295 OA
ENDROOT
BRANCH   1   3
HETATM    3  C4  UNL     1     -32.342   7.542   3.882  1.00 20.00     0.194 C 
HETATM    4 CL7  UNL     1     -33.058   8.161   2.383  1.00 20.00    -0.122 Cl
ENDBRANCH   1   3
BRANCH   1   5
HETATM    5  C5  UNL     1     -34.130   5.654   4.142  1.00 20.00     0.091 C 
HETATM    6  C2  UNL     1     -33.224   4.899   3.166  1.00 20.00     0.041 C 
HETATM    7  C3  UNL     1     -35.431   6.041   3.441  1.00 20.00     0.041 C 
HETATM    8 CL8  UNL     1     -34.497   4.573   5.526  1.00 20.00    -0.112 Cl
ENDBRANCH   1   5
TORSDOF 2
