REMARK  1 active torsions:
REMARK  status: ('A' for Active; 'I' for Inactive)
REMARK    1  A    between atoms: C3_3  and  C6_6 
ROOT
HETATM    1  C1  UNL     1     -33.534   7.309   4.624  1.00 20.00     0.134 C 
HETATM    2  C2  UNL     1     -31.672   8.419   3.596  1.00 20.00     0.137 C 
HETATM    3  C3  UNL     1     -32.322   7.788   2.373  1.00 20.00     0.075 C 
HETATM    4  N7  UNL     1     -32.268   7.826   4.769  1.00 20.00    -0.374 N 
HETATM    5  S8  UNL     1     -34.450   6.689   5.861  1.00 20.00    -0.053 SA
HETATM    6  S9  UNL     1     -34.015   7.408   2.939  1.00 20.00    -0.094 SA
HETATM    7  H20 UNL     1     -31.818   7.879   5.678  1.00 20.00     0.161 HD
ENDROOT
BRANCH   3   8
HETATM    8  C6  UNL     1     -32.326   8.701   1.160  1.00 20.00    -0.007 C 
HETATM    9  C4  UNL     1     -33.123   9.977   1.439  1.00 20.00     0.011 C 
HETATM   10  C5  UNL     1     -30.898   9.051   0.735  1.00 20.00     0.011 C 
ENDBRANCH   3   8
TORSDOF 1
