REMARK  2 active torsions:
REMARK  status: ('A' for Active; 'I' for Inactive)
REMARK    1  A    between atoms: C2_2  and  C5_5 
REMARK    2  A    between atoms: C7_7  and  C10_10 
ROOT
HETATM    1  C1  UNL     1     -32.927   7.077   2.163  1.00 20.00    -0.006 A 
HETATM    2  C2  UNL     1     -33.453   6.542   3.268  1.00 20.00     0.005 A 
HETATM    3  C3  UNL     1     -33.185   7.512   4.347  1.00 20.00     0.159 A 
HETATM    4  C6  UNL     1     -32.411   8.699   3.844  1.00 20.00     0.092 A 
HETATM    5  C7  UNL     1     -32.278   8.418   2.345  1.00 20.00     0.019 A 
HETATM    6  O11 UNL     1     -33.540   7.361   5.506  1.00 20.00    -0.292 OA
ENDROOT
BRANCH   5   7
HETATM    7  C10 UNL     1     -32.953   9.488   1.495  1.00 20.00    -0.015 C 
HETATM    8  C8  UNL     1     -32.299  10.850   1.721  1.00 20.00     0.010 C 
HETATM    9  C9  UNL     1     -32.904   9.111   0.015  1.00 20.00     0.010 C 
ENDBRANCH   5   7
BRANCH   2  10
HETATM   10  C5  UNL     1     -34.130   5.299   3.423  1.00 20.00     0.004 C 
HETATM   11  C4  UNL     1     -34.597   4.925   4.636  1.00 20.00     0.012 C 
ENDBRANCH   2  10
TORSDOF 2
