REMARK  2 active torsions:
REMARK  status: ('A' for Active; 'I' for Inactive)
REMARK    1  A    between atoms: C7_7  and  C10_10 
REMARK    2  A    between atoms: C9_9  and  C10_10 
ROOT
HETATM    1  C1  UNL     1     -32.499   9.833   0.677  1.00 20.00     0.012 C 
HETATM    2  C2  UNL     1     -32.396   8.941   1.475  1.00 20.00    -0.117 C 
HETATM    3  C9  UNL     1     -32.265   7.850   2.449  1.00 20.00     0.093 C 
ENDROOT
BRANCH   3   4
HETATM    4  C10 UNL     1     -33.535   7.724   3.270  1.00 20.00     0.020 C 
BRANCH   4   5
HETATM    5  C7  UNL     1     -33.410   6.604   4.290  1.00 20.00     0.023 C 
HETATM    6  C4  UNL     1     -34.465   6.741   5.405  1.00 20.00     0.008 C 
HETATM    7  C3  UNL     1     -34.660   5.312   5.901  1.00 20.00     0.004 C 
HETATM    8  C5  UNL     1     -34.648   4.486   4.615  1.00 20.00     0.041 C 
HETATM    9  C8  UNL     1     -33.681   5.224   3.736  1.00 20.00     0.086 A 
HETATM   10  C6  UNL     1     -33.349   4.762   2.335  1.00 20.00     0.207 A 
HETATM   11  O11 UNL     1     -32.485   4.482   3.440  1.00 20.00    -0.375 OA
ENDBRANCH   4   5
ENDBRANCH   3   4
TORSDOF 2
