REMARK  3 active torsions:
REMARK  status: ('A' for Active; 'I' for Inactive)
REMARK    1  A    between atoms: C1_1  and  C9_9 
REMARK    2  A    between atoms: C1_1  and  O11_11 
REMARK    3  A    between atoms: C8_8  and  C9_9 
ROOT
HETATM    1  C2  UNL     1     -34.094   6.002   6.200  1.00 20.00     0.005 C 
HETATM    2  C3  UNL     1     -34.099   4.589   5.591  1.00 20.00     0.005 C 
HETATM    3  C4  UNL     1     -35.326   6.862   4.212  1.00 20.00     0.005 C 
HETATM    4  C5  UNL     1     -35.332   5.451   3.604  1.00 20.00     0.005 C 
HETATM    5  C6  UNL     1     -33.979   6.910   4.958  1.00 20.00    -0.010 C 
HETATM    6  C7  UNL     1     -33.987   4.866   4.078  1.00 20.00    -0.010 C 
HETATM    7  C8  UNL     1     -33.043   6.078   4.069  1.00 20.00     0.003 C 
ENDROOT
BRANCH   7   8
HETATM    8  C9  UNL     1     -32.711   6.664   2.705  1.00 20.00     0.115 C 
BRANCH   8   9
HETATM    9  C1  UNL     1     -31.902   7.930   2.819  1.00 20.00     0.139 C 
HETATM   10  O10 UNL     1     -31.107   8.202   3.706  1.00 20.00    -0.650 OA
BRANCH   9  11
HETATM   11  O11 UNL     1     -32.180   8.753   1.776  1.00 20.00    -0.776 OA
HETATM   12  H25 UNL     1     -31.667   9.588   1.822  1.00 20.00     0.167 HD
ENDBRANCH   9  11
ENDBRANCH   8   9
ENDBRANCH   7   8
TORSDOF 3
