REMARK  1 active torsions:
REMARK  status: ('A' for Active; 'I' for Inactive)
REMARK    1  A    between atoms: C2_2  and  C10_10 
ROOT
HETATM    1  C1  UNL     1     -33.230   7.129   5.478  1.00 20.00    -0.017 C 
HETATM    2  C2  UNL     1     -33.156   7.047   4.133  1.00 20.00    -0.068 C 
HETATM    3  C3  UNL     1     -34.213   4.745   3.819  1.00 20.00     0.135 C 
HETATM    4  C4  UNL     1     -34.112   4.090   5.180  1.00 20.00     0.080 C 
HETATM    5  C5  UNL     1     -34.762   5.104   6.135  1.00 20.00     0.017 C 
HETATM    6  C6  UNL     1     -34.611   6.511   5.543  1.00 20.00     0.024 C 
HETATM    7  C7  UNL     1     -34.458   6.271   4.025  1.00 20.00     0.092 C 
HETATM    8  O11 UNL     1     -34.067   4.134   2.766  1.00 20.00    -0.297 OA
ENDROOT
BRANCH   2   9
HETATM    9  C10 UNL     1     -32.103   7.483   3.097  1.00 20.00     0.007 C 
HETATM   10  C8  UNL     1     -32.801   7.785   1.790  1.00 20.00     0.014 C 
HETATM   11  C9  UNL     1     -31.338   8.673   3.631  1.00 20.00     0.014 C 
ENDBRANCH   2   9
TORSDOF 1
