REMARK  1 active torsions:
REMARK  status: ('A' for Active; 'I' for Inactive)
REMARK    1  A    between atoms: C7_7  and  N8_8 
ROOT
HETATM    1  C1  UNL     1     -33.640   4.261   4.071  1.00 20.00     0.005 C 
HETATM    2  C2  UNL     1     -32.919   5.124   5.116  1.00 20.00     0.007 C 
HETATM    3  C3  UNL     1     -35.195   5.786   5.032  1.00 20.00     0.011 C 
HETATM    4  C4  UNL     1     -34.378   6.316   2.851  1.00 20.00     0.027 C 
HETATM    5  C5  UNL     1     -34.858   5.121   3.697  1.00 20.00    -0.013 C 
HETATM    6  C6  UNL     1     -33.796   6.390   5.188  1.00 20.00     0.006 C 
HETATM    7  C7  UNL     1     -33.693   7.220   3.891  1.00 20.00     0.097 C 
ENDROOT
BRANCH   7   8
HETATM    8  N8  UNL     1     -32.352   7.629   3.508  1.00 20.00    -0.131 NA
HETATM    9 CL9  UNL     1     -32.339   8.538   1.994  1.00 20.00    -0.005 Cl
HETATM   10 CL10 UNL     1     -31.552   8.561   4.777  1.00 20.00    -0.005 Cl
ENDBRANCH   7   8
TORSDOF 1
