REMARK  1 active torsions:
REMARK  status: ('A' for Active; 'I' for Inactive)
REMARK    1  A    between atoms: C2_2  and  C4_4 
ROOT
HETATM    1  C1  UNL     1     -34.608   6.438   5.715  1.00 20.00     0.171 A 
HETATM    2  C2  UNL     1     -35.160   6.067   4.352  1.00 20.00     0.175 A 
HETATM    3  C3  UNL     1     -33.261   7.036   5.913  1.00 20.00     0.044 C 
HETATM    4  O5  UNL     1     -34.600   5.087   5.241  1.00 20.00    -0.352 OA
HETATM    5 CL6  UNL     1     -36.916   6.094   4.165  1.00 20.00    -0.084 Cl
ENDROOT
BRANCH   2   6
HETATM    6  C4  UNL     1     -34.374   6.269   3.098  1.00 20.00     0.172 C 
HETATM    7 CL7  UNL     1     -33.178   4.964   2.872  1.00 20.00    -0.126 Cl
ENDBRANCH   2   6
TORSDOF 1
