REMARK  0 active torsions:
REMARK  status: ('A' for Active; 'I' for Inactive)
ROOT
HETATM    1  C1  UNL     1     -33.499   7.169   5.990  1.00 20.00     0.013 C 
HETATM    2  C2  UNL     1     -33.340   7.649   4.529  1.00 20.00     0.035 C 
HETATM    3  C3  UNL     1     -34.586   6.099   6.247  1.00 20.00     0.074 C 
HETATM    4  C4  UNL     1     -34.419   4.367   3.903  1.00 20.00     0.108 C 
HETATM    5  C5  UNL     1     -33.127   6.466   3.670  1.00 20.00     0.152 A 
HETATM    6  C6  UNL     1     -34.433   5.757   3.427  1.00 20.00     0.160 A 
HETATM    7  O7  UNL     1     -33.647   6.277   2.360  1.00 20.00    -0.375 OA
HETATM    8  S8  UNL     1     -34.179   4.359   5.739  1.00 20.00    -0.166 SA
ENDROOT
TORSDOF 0
