REMARK  0 active torsions:
REMARK  status: ('A' for Active; 'I' for Inactive)
ROOT
HETATM    1  C1  UNL     1     -34.443   6.301   4.968  1.00 20.00    -0.021 C 
HETATM    2  C2  UNL     1     -34.079   5.090   4.511  1.00 20.00    -0.087 C 
HETATM    3  C3  UNL     1     -34.028   7.586   4.310  1.00 20.00     0.068 C 
HETATM    4  C4  UNL     1     -33.239   4.926   3.267  1.00 20.00     0.036 C 
HETATM    5  C5  UNL     1     -33.226   6.163   2.361  1.00 20.00     0.045 C 
HETATM    6  C6  UNL     1     -32.365   8.648   2.619  1.00 20.00     0.153 A 
HETATM    7  C7  UNL     1     -33.060   7.417   3.169  1.00 20.00     0.090 A 
HETATM    8  C8  UNL     1     -34.470   3.826   5.219  1.00 20.00     0.043 C 
HETATM    9  C9  UNL     1     -31.794   8.724   1.249  1.00 20.00     0.042 C 
HETATM   10  O10 UNL     1     -31.697   7.733   3.497  1.00 20.00    -0.369 OA
ENDROOT
TORSDOF 0
