REMARK  1 active torsions:
REMARK  status: ('A' for Active; 'I' for Inactive)
REMARK    1  A    between atoms: C7_7  and  C11_11 
ROOT
HETATM    1  C1  UNL     1     -34.159   6.129   5.109  1.00 20.00     0.131 C 
HETATM    2  C2  UNL     1     -33.864   7.610   5.152  1.00 20.00     0.079 C 
HETATM    3  C3  UNL     1     -32.673   7.914   4.259  1.00 20.00     0.017 C 
HETATM    4  C4  UNL     1     -32.266   6.058   2.516  1.00 20.00     0.016 A 
HETATM    5  C5  UNL     1     -34.540   5.567   3.746  1.00 20.00     0.056 C 
HETATM    6  C6  UNL     1     -33.761   6.188   2.618  1.00 20.00     0.006 A 
HETATM    7  C7  UNL     1     -32.877   7.405   2.846  1.00 20.00    -0.032 A 
HETATM    8  C8  UNL     1     -34.436   4.045   3.713  1.00 20.00     0.018 C 
HETATM    9  O12 UNL     1     -34.166   5.452   6.136  1.00 20.00    -0.298 OA
ENDROOT
BRANCH   7  10
HETATM   10  C11 UNL     1     -32.864   8.466   1.781  1.00 20.00    -0.014 C 
HETATM   11  C9  UNL     1     -31.540   9.244   1.780  1.00 20.00     0.010 C 
HETATM   12  C10 UNL     1     -33.112   7.866   0.389  1.00 20.00     0.010 C 
ENDBRANCH   7  10
TORSDOF 1
