REMARK  1 active torsions:
REMARK  status: ('A' for Active; 'I' for Inactive)
REMARK    1  A    between atoms: C4_4  and  C5_5 
ROOT
HETATM    1  C1  UNL     1     -32.450  10.301   0.465  1.00 20.00     0.015 C 
HETATM    2  C2  UNL     1     -32.256   9.263   1.035  1.00 20.00    -0.083 C 
HETATM    3  C3  UNL     1     -32.026   8.027   1.714  1.00 20.00     0.229 A 
HETATM    4  C4  UNL     1     -33.168   7.340   2.417  1.00 20.00     0.177 A 
HETATM    5  O6  UNL     1     -32.211   8.124   3.136  1.00 20.00    -0.361 OA
ENDROOT
BRANCH   4   6
HETATM    6  C5  UNL     1     -33.121   5.885   2.715  1.00 20.00     0.150 C 
HETATM    7 CL7  UNL     1     -34.264   5.450   4.017  1.00 20.00    -0.128 Cl
ENDBRANCH   4   6
TORSDOF 1
