REMARK  1 active torsions:
REMARK  status: ('A' for Active; 'I' for Inactive)
REMARK    1  A    between atoms: C6_6  and  C9_9 
ROOT
HETATM    1  C1  UNL     1     -32.908   5.217   2.896  1.00 20.00     0.302 C 
HETATM    2  C2  UNL     1     -32.224   6.200   3.858  1.00 20.00     0.303 C 
HETATM    3  C3  UNL     1     -35.039   5.824   3.788  1.00 20.00     0.307 C 
HETATM    4  C4  UNL     1     -34.124   7.023   1.911  1.00 20.00     0.308 C 
HETATM    5  C5  UNL     1     -34.381   6.844   4.746  1.00 20.00     0.247 C 
HETATM    6  C6  UNL     1     -33.472   8.031   2.886  1.00 20.00     0.251 C 
HETATM    7  C7  UNL     1     -34.206   6.279   6.158  1.00 20.00     0.045 C 
HETATM    8  N10 UNL     1     -34.263   5.686   2.534  1.00 20.00     0.094 N 
HETATM    9  N11 UNL     1     -33.105   7.352   4.163  1.00 20.00     0.102 N 
ENDROOT
BRANCH   6  10
HETATM   10  C9  UNL     1     -32.295   8.771   2.246  1.00 20.00     0.033 C 
HETATM   11  C8  UNL     1     -32.709   9.495   1.009  1.00 20.00     0.007 C 
ENDBRANCH   6  10
TORSDOF 1
