REMARK  1 active torsions:
REMARK  status: ('A' for Active; 'I' for Inactive)
REMARK    1  A    between atoms: C3_3  and  C7_7 
ROOT
HETATM    1  C1  UNL     1     -35.011   6.198   4.962  1.00 20.00     0.089 C 
HETATM    2  C2  UNL     1     -34.851   5.098   3.921  1.00 20.00     0.053 C 
HETATM    3  C3  UNL     1     -32.752   6.850   3.621  1.00 20.00     0.112 C 
HETATM    4  C4  UNL     1     -34.266   3.803   4.481  1.00 20.00     0.022 C 
HETATM    5  S8  UNL     1     -33.381   6.896   5.327  1.00 20.00    -0.152 SA
HETATM    6  S9  UNL     1     -33.785   5.751   2.595  1.00 20.00    -0.148 SA
ENDROOT
BRANCH   3   7
HETATM    7  C7  UNL     1     -32.756   8.253   3.029  1.00 20.00     0.001 C 
HETATM    8  C5  UNL     1     -31.882   9.193   3.860  1.00 20.00     0.011 C 
HETATM    9  C6  UNL     1     -32.281   8.228   1.576  1.00 20.00     0.011 C 
ENDBRANCH   3   7
TORSDOF 1
