REMARK  1 active torsions:
REMARK  status: ('A' for Active; 'I' for Inactive)
REMARK    1  A    between atoms: C5_5  and  C10_10 
ROOT
HETATM    1  C1  UNL     1     -33.574   6.825   4.785  1.00 20.00     0.166 C 
HETATM    2  C2  UNL     1     -33.233   8.129   4.096  1.00 20.00     0.086 C 
HETATM    3  C3  UNL     1     -32.848   6.820   1.967  1.00 20.00     0.009 C 
HETATM    4  C4  UNL     1     -33.119   5.514   2.713  1.00 20.00     0.052 C 
HETATM    5  C5  UNL     1     -32.289   7.889   2.917  1.00 20.00    -0.004 C 
HETATM    6  C6  UNL     1     -34.059   5.685   3.906  1.00 20.00     0.159 C 
HETATM    7  C7  UNL     1     -35.507   5.923   3.495  1.00 20.00     0.060 C 
HETATM    8  O11 UNL     1     -33.528   6.716   6.010  1.00 20.00    -0.294 OA
HETATM    9  F12 UNL     1     -34.035   4.512   4.609  1.00 20.00    -0.235 F 
ENDROOT
BRANCH   5  10
HETATM   10  C10 UNL     1     -32.026   9.192   2.166  1.00 20.00    -0.018 C 
HETATM   11  C8  UNL     1     -31.056   8.960   1.009  1.00 20.00     0.010 C 
HETATM   12  C9  UNL     1     -33.335   9.791   1.656  1.00 20.00     0.010 C 
ENDBRANCH   5  10
TORSDOF 1
