REMARK  2 active torsions:
REMARK  status: ('A' for Active; 'I' for Inactive)
REMARK    1  A    between atoms: C3_3  and  C5_5 
REMARK    2  A    between atoms: C3_3  and  O9_9 
ROOT
HETATM    1  C1  UNL     1     -34.360   5.693   6.205  1.00 20.00    -0.002 A 
HETATM    2  C2  UNL     1     -34.381   6.744   5.389  1.00 20.00     0.013 A 
HETATM    3  C4  UNL     1     -34.679   4.462   5.445  1.00 20.00     0.196 A 
HETATM    4  C5  UNL     1     -34.719   6.301   4.017  1.00 20.00     0.244 A 
HETATM    5  O8  UNL     1     -34.916   4.884   4.088  1.00 20.00    -0.368 OA
ENDROOT
BRANCH   4   6
HETATM    6  C3  UNL     1     -33.557   6.557   3.114  1.00 20.00     0.291 C 
HETATM    7  O7  UNL     1     -32.918   5.677   2.553  1.00 20.00    -0.262 OA
BRANCH   6   8
HETATM    8  O9  UNL     1     -33.336   7.899   3.024  1.00 20.00    -0.324 OA
HETATM    9  C6  UNL     1     -32.244   8.288   2.185  1.00 20.00     0.213 C 
ENDBRANCH   6   8
ENDBRANCH   4   6
TORSDOF 2
