REMARK  0 active torsions:
REMARK  status: ('A' for Active; 'I' for Inactive)
ROOT
HETATM    1  C1  UNL     1     -32.471   8.530   4.768  1.00 20.00     0.050 C 
HETATM    2  C2  UNL     1     -32.094   9.163   3.652  1.00 20.00    -0.014 C 
HETATM    3  C3  UNL     1     -33.455   7.422   4.717  1.00 20.00     0.188 C 
HETATM    4  C4  UNL     1     -33.963   8.090   2.352  1.00 20.00     0.064 C 
HETATM    5  C5  UNL     1     -32.638   8.885   2.268  1.00 20.00    -0.026 C 
HETATM    6  C6  UNL     1     -33.918   6.930   3.352  1.00 20.00     0.164 C 
HETATM    7  C7  UNL     1     -31.574   8.120   1.462  1.00 20.00     0.019 C 
HETATM    8  C8  UNL     1     -32.919  10.222   1.556  1.00 20.00     0.019 C 
HETATM    9  C9  UNL     1     -35.287   6.264   3.454  1.00 20.00     0.060 C 
HETATM   10  O10 UNL     1     -33.808   6.890   5.769  1.00 20.00    -0.290 OA
HETATM   11  F11 UNL     1     -33.050   5.985   2.889  1.00 20.00    -0.235 F 
ENDROOT
TORSDOF 0
