REMARK  1 active torsions:
REMARK  status: ('A' for Active; 'I' for Inactive)
REMARK    1  A    between atoms: C4_4  and  C7_7 
ROOT
HETATM    1  C1  UNL     1     -32.173   9.155   0.986  1.00 20.00     0.075 C 
HETATM    2  C2  UNL     1     -31.721   7.912   3.065  1.00 20.00     0.105 C 
HETATM    3  C3  UNL     1     -32.586   8.960   2.380  1.00 20.00     0.164 C 
HETATM    4  C4  UNL     1     -34.194   7.470   4.037  1.00 20.00     0.113 C 
HETATM    5  N8  UNL     1     -31.846   9.310  -0.117  1.00 20.00    -0.196 NA
HETATM    6  S9  UNL     1     -32.489   7.554   4.663  1.00 20.00    -0.151 SA
HETATM    7  S10 UNL     1     -34.321   8.409   2.479  1.00 20.00    -0.133 SA
ENDROOT
BRANCH   4   8
HETATM    8  C7  UNL     1     -34.591   6.019   3.796  1.00 20.00     0.001 C 
HETATM    9  C5  UNL     1     -33.661   5.367   2.773  1.00 20.00     0.011 C 
HETATM   10  C6  UNL     1     -34.582   5.231   5.105  1.00 20.00     0.011 C 
ENDBRANCH   4   8
TORSDOF 1
