REMARK  0 active torsions:
REMARK  status: ('A' for Active; 'I' for Inactive)
ROOT
HETATM    1  C1  UNL     1     -33.525   7.171   2.263  1.00 20.00     0.024 A 
HETATM    2  C2  UNL     1     -33.918   6.890   3.605  1.00 20.00    -0.016 A 
HETATM    3  C3  UNL     1     -33.018   7.418   4.509  1.00 20.00    -0.007 A 
HETATM    4  C4  UNL     1     -32.350   7.891   2.205  1.00 20.00    -0.020 A 
HETATM    5  C5  UNL     1     -35.148   6.151   4.044  1.00 20.00     0.311 C 
HETATM    6  C6  UNL     1     -33.137   7.263   5.990  1.00 20.00     0.077 C 
HETATM    7  C7  UNL     1     -34.541   6.733   6.345  1.00 20.00     0.277 C 
HETATM    8  C8  UNL     1     -31.624   8.371   1.010  1.00 20.00     0.056 C 
HETATM    9  C9  UNL     1     -34.287   4.436   5.555  1.00 20.00     0.310 C 
HETATM   10  N10 UNL     1     -35.046   5.680   5.442  1.00 20.00     0.088 N 
HETATM   11  S11 UNL     1     -31.724   8.228   3.763  1.00 20.00    -0.099 SA
ENDROOT
TORSDOF 0
