REMARK  0 active torsions:
REMARK  status: ('A' for Active; 'I' for Inactive)
ROOT
HETATM    1  C1  UNL     1     -32.505   7.596   4.199  1.00 20.00     0.218 C 
HETATM    2  C2  UNL     1     -33.105   7.739   5.582  1.00 20.00     0.105 C 
HETATM    3  C3  UNL     1     -33.930   6.462   5.794  1.00 20.00     0.040 C 
HETATM    4  C4  UNL     1     -34.550   4.490   4.210  1.00 20.00     0.033 A 
HETATM    5  C5  UNL     1     -35.520   5.597   3.915  1.00 20.00     0.033 A 
HETATM    6  C6  UNL     1     -34.132   5.923   4.405  1.00 20.00     0.033 A 
HETATM    7  N7  UNL     1     -33.173   6.559   3.566  1.00 20.00    -0.352 N 
HETATM    8  O8  UNL     1     -31.624   8.304   3.736  1.00 20.00    -0.274 OA
HETATM    9  H17 UNL     1     -32.996   6.283   2.606  1.00 20.00     0.163 HD
ENDROOT
TORSDOF 0
