REMARK  0 active torsions:
REMARK  status: ('A' for Active; 'I' for Inactive)
ROOT
HETATM    1  C1  UNL     1     -33.172   6.905   4.345  1.00 20.00     0.117 A 
HETATM    2  C2  UNL     1     -34.046   6.451   3.444  1.00 20.00    -0.042 A 
HETATM    3  C3  UNL     1     -32.291   7.845   3.647  1.00 20.00     0.186 A 
HETATM    4  C4  UNL     1     -35.078   5.438   3.797  1.00 20.00     0.039 C 
HETATM    5  C5  UNL     1     -33.895   7.029   2.075  1.00 20.00     0.049 A 
HETATM    6  C6  UNL     1     -34.755   4.828   5.167  1.00 20.00     0.031 C 
HETATM    7  C7  UNL     1     -34.248   5.898   6.142  1.00 20.00     0.176 C 
HETATM    8  C8  UNL     1     -32.651   7.929   2.179  1.00 20.00     0.062 A 
HETATM    9  C9  UNL     1     -32.917   9.361   1.749  1.00 20.00     0.018 C 
HETATM   10  O10 UNL     1     -31.390   8.463   4.194  1.00 20.00    -0.290 OA
HETATM   11  O11 UNL     1     -33.080   6.589   5.666  1.00 20.00    -0.347 OA
ENDROOT
TORSDOF 0
