REMARK  0 active torsions:
REMARK  status: ('A' for Active; 'I' for Inactive)
ROOT
HETATM    1  C1  UNL     1     -33.196   6.988   4.182  1.00 20.00     0.146 C 
HETATM    2  C2  UNL     1     -33.284   7.287   2.689  1.00 20.00     0.084 C 
HETATM    3  C3  UNL     1     -33.537   4.803   2.973  1.00 20.00     0.034 C 
HETATM    4  C4  UNL     1     -35.287   5.895   3.294  1.00 20.00     0.034 C 
HETATM    5  C5  UNL     1     -34.130   6.065   2.235  1.00 20.00    -0.004 C 
HETATM    6  C6  UNL     1     -34.032   5.640   4.211  1.00 20.00     0.079 C 
HETATM    7  O7  UNL     1     -32.626   7.655   5.022  1.00 20.00    -0.296 OA
HETATM    8 BR8  UNL     1     -34.241   4.812   5.890  1.00 20.00    -0.077 Br
ENDROOT
TORSDOF 0
