REMARK  2 active torsions:
REMARK  status: ('A' for Active; 'I' for Inactive)
REMARK    1  A    between atoms: C3_3  and  C4_4 
REMARK    2  A    between atoms: C4_4  and  C5_5 
ROOT
HETATM    1  C1  UNL     1     -32.235   9.063   1.529  1.00 20.00    -0.151 C 
HETATM    2  C2  UNL     1     -32.769   9.814   0.615  1.00 20.00     0.096 C 
HETATM    3  C3  UNL     1     -31.698   8.312   2.443  1.00 20.00     0.103 C 
ENDROOT
BRANCH   3   4
HETATM    4  C4  UNL     1     -32.527   7.717   3.514  1.00 20.00     0.188 C 
HETATM    5  O9  UNL     1     -32.355   7.933   4.706  1.00 20.00    -0.290 OA
BRANCH   4   6
HETATM    6  C5  UNL     1     -33.597   6.828   3.062  1.00 20.00     0.230 A 
HETATM    7  C6  UNL     1     -34.458   6.052   4.039  1.00 20.00     0.088 A 
HETATM    8  C7  UNL     1     -35.796   5.558   3.586  1.00 20.00     0.049 C 
HETATM    9  C8  UNL     1     -34.258   6.180   5.516  1.00 20.00     0.049 C 
HETATM   10  O10 UNL     1     -33.355   5.442   3.357  1.00 20.00    -0.362 OA
ENDBRANCH   4   6
ENDBRANCH   3   4
TORSDOF 2
