REMARK  1 active torsions:
REMARK  status: ('A' for Active; 'I' for Inactive)
REMARK    1  A    between atoms: C4_4  and  C9_9 
ROOT
HETATM    1  C1  UNL     1     -33.915   7.133   5.036  1.00 20.00     0.174 C 
HETATM    2  C2  UNL     1     -34.096   5.200   3.342  1.00 20.00     0.083 C 
HETATM    3  C3  UNL     1     -34.566   5.789   4.679  1.00 20.00     0.015 C 
HETATM    4  C4  UNL     1     -32.518   7.440   3.096  1.00 20.00     0.108 C 
HETATM    5  C5  UNL     1     -34.385   4.797   5.830  1.00 20.00     0.012 C 
HETATM    6  C6  UNL     1     -31.228   8.006   3.696  1.00 20.00     0.058 C 
HETATM    7  O10 UNL     1     -33.647   7.895   3.863  1.00 20.00    -0.369 OA
HETATM    8  S11 UNL     1     -32.369   5.614   2.973  1.00 20.00    -0.131 SA
ENDROOT
BRANCH   4   9
HETATM    9  C9  UNL     1     -32.713   7.998   1.683  1.00 20.00     0.022 C 
HETATM   10  C7  UNL     1     -33.544   9.275   1.728  1.00 20.00     0.013 C 
HETATM   11  C8  UNL     1     -31.363   8.252   1.023  1.00 20.00     0.013 C 
ENDBRANCH   4   9
TORSDOF 1
