REMARK  3 active torsions:
REMARK  status: ('A' for Active; 'I' for Inactive)
REMARK    1  A    between atoms: C1_1  and  C7_7 
REMARK    2  A    between atoms: C2_2  and  C8_8 
REMARK    3  A    between atoms: C7_7  and  C9_9 
ROOT
HETATM    1  C1  UNL     1     -33.091   7.606   2.851  1.00 20.00     0.062 A 
HETATM    2  C2  UNL     1     -33.106   6.691   4.042  1.00 20.00     0.064 A 
HETATM    3  S10 UNL     1     -32.806   5.935   2.517  1.00 20.00    -0.157 SA
ENDROOT
BRANCH   1   4
HETATM    4  C7  UNL     1     -31.943   8.585   2.650  1.00 20.00     0.020 C 
BRANCH   4   5
HETATM    5  C9  UNL     1     -32.043   9.391   1.343  1.00 20.00    -0.022 C 
HETATM    6  C5  UNL     1     -32.046   8.494   0.104  1.00 20.00     0.009 C 
HETATM    7  C6  UNL     1     -33.308  10.253   1.360  1.00 20.00     0.009 C 
ENDBRANCH   4   5
ENDBRANCH   1   4
BRANCH   2   8
HETATM    8  C8  UNL     1     -34.386   6.385   4.739  1.00 20.00    -0.008 C 
HETATM    9  C3  UNL     1     -35.419   5.748   3.790  1.00 20.00     0.011 C 
HETATM   10  C4  UNL     1     -34.173   5.458   5.950  1.00 20.00     0.011 C 
ENDBRANCH   2   8
TORSDOF 3
