REMARK  1 active torsions:
REMARK  status: ('A' for Active; 'I' for Inactive)
REMARK    1  A    between atoms: C4_4  and  C8_8 
ROOT
HETATM    1  C1  UNL     1     -31.973   9.219   2.520  1.00 20.00     0.302 C 
HETATM    2  C2  UNL     1     -31.448   8.079   3.401  1.00 20.00     0.302 C 
HETATM    3  C3  UNL     1     -33.749   7.777   1.732  1.00 20.00     0.307 C 
HETATM    4  C4  UNL     1     -33.216   6.634   2.622  1.00 20.00     0.250 C 
HETATM    5  C6  UNL     1     -33.174   9.774   0.505  1.00 20.00     0.310 C 
HETATM    6  C7  UNL     1     -33.346   7.686   4.856  1.00 20.00     0.310 C 
HETATM    7  N9  UNL     1     -32.665   8.689   1.341  1.00 20.00     0.088 N 
HETATM    8  N10 UNL     1     -32.490   7.124   3.811  1.00 20.00     0.092 N 
ENDROOT
BRANCH   4   9
HETATM    9  C8  UNL     1     -34.339   5.648   2.960  1.00 20.00     0.033 C 
HETATM   10  C5  UNL     1     -33.822   4.473   3.717  1.00 20.00     0.007 C 
ENDBRANCH   4   9
TORSDOF 1
