REMARK  3 active torsions:
REMARK  status: ('A' for Active; 'I' for Inactive)
REMARK    1  A    between atoms: C2_2  and  C6_6 
REMARK    2  A    between atoms: C3_3  and  C7_7 
REMARK    3  A    between atoms: C7_7  and  C8_8 
ROOT
HETATM    1  C1  UNL     1     -32.903   5.974   2.834  1.00 20.00     0.100 C 
HETATM    2  C2  UNL     1     -32.932   8.514   2.524  1.00 20.00     0.172 A 
HETATM    3  C3  UNL     1     -32.674   7.283   3.369  1.00 20.00     0.175 A 
HETATM    4  N9  UNL     1     -33.089   4.914   2.400  1.00 20.00    -0.194 NA
HETATM    5  O10 UNL     1     -31.613   7.986   2.699  1.00 20.00    -0.353 OA
ENDROOT
BRANCH   3   6
HETATM    6  C7  UNL     1     -32.629   7.417   4.857  1.00 20.00     0.056 C 
BRANCH   6   7
HETATM    7  C8  UNL     1     -34.027   7.345   5.493  1.00 20.00    -0.000 C 
HETATM    8  C5  UNL     1     -34.742   6.042   5.171  1.00 20.00     0.005 C 
ENDBRANCH   6   7
ENDBRANCH   3   6
BRANCH   2   9
HETATM    9  C6  UNL     1     -33.438   8.457   1.125  1.00 20.00     0.032 C 
HETATM   10  C4  UNL     1     -32.728   9.415   0.201  1.00 20.00     0.007 C 
ENDBRANCH   2   9
TORSDOF 3
