REMARK  1 active torsions:
REMARK  status: ('A' for Active; 'I' for Inactive)
REMARK    1  A    between atoms: C4_4  and  C7_7 
ROOT
HETATM    1  C1  UNL     1     -34.265   5.796   4.885  1.00 20.00     0.268 C 
HETATM    2  C2  UNL     1     -34.664   4.762   3.873  1.00 20.00     0.184 C 
HETATM    3  C3  UNL     1     -32.631   6.016   2.463  1.00 20.00     0.107 C 
HETATM    4  C4  UNL     1     -33.581   7.096   2.962  1.00 20.00     0.144 C 
HETATM    5  O8  UNL     1     -34.424   5.627   6.090  1.00 20.00    -0.264 OA
HETATM    6  O9  UNL     1     -33.764   6.957   4.387  1.00 20.00    -0.314 OA
HETATM    7  S10 UNL     1     -33.291   4.350   2.774  1.00 20.00    -0.157 SA
ENDROOT
BRANCH   4   8
HETATM    8  C7  UNL     1     -32.995   8.482   2.721  1.00 20.00     0.008 C 
HETATM    9  C5  UNL     1     -31.681   8.652   3.482  1.00 20.00     0.012 C 
HETATM   10  C6  UNL     1     -32.783   8.725   1.227  1.00 20.00     0.012 C 
ENDBRANCH   4   8
TORSDOF 1
