REMARK  2 active torsions:
REMARK  status: ('A' for Active; 'I' for Inactive)
REMARK    1  A    between atoms: C1_1  and  C3_3 
REMARK    2  A    between atoms: C3_3  and  C5_5 
ROOT
HETATM    1  C1  UNL     1     -33.352   5.688   3.410  1.00 20.00     0.212 C 
HETATM    2  C2  UNL     1     -34.116   5.170   4.375  1.00 20.00     0.228 C 
HETATM    3  F7  UNL     1     -32.940   4.939   2.365  1.00 20.00    -0.198 F 
HETATM    4  F8  UNL     1     -34.498   3.875   4.327  1.00 20.00    -0.189 F 
HETATM    5 CL9  UNL     1     -34.640   6.130   5.708  1.00 20.00    -0.048 Cl
ENDROOT
BRANCH   1   6
HETATM    6  C3  UNL     1     -32.889   7.102   3.388  1.00 20.00     0.191 C 
HETATM    7  O6  UNL     1     -32.696   7.728   4.427  1.00 20.00    -0.290 OA
BRANCH   6   8
HETATM    8  C5  UNL     1     -32.674   7.711   2.014  1.00 20.00     0.082 C 
HETATM    9  C4  UNL     1     -32.225   9.160   2.083  1.00 20.00     0.013 C 
ENDBRANCH   6   8
ENDBRANCH   1   6
TORSDOF 2
