REMARK  1 active torsions:
REMARK  status: ('A' for Active; 'I' for Inactive)
REMARK    1  A    between atoms: C7_7  and  C10_10 
ROOT
HETATM    1  C1  UNL     1     -33.348   5.136   3.198  1.00 20.00     0.011 C 
HETATM    2  C2  UNL     1     -32.496   5.868   2.468  1.00 20.00    -0.020 C 
HETATM    3  C3  UNL     1     -33.995   5.661   4.378  1.00 20.00     0.000 C 
HETATM    4  C4  UNL     1     -33.596   7.016   4.877  1.00 20.00     0.159 C 
HETATM    5  C5  UNL     1     -34.922   4.975   5.061  1.00 20.00     0.027 C 
HETATM    6  C6  UNL     1     -32.316   7.597   4.305  1.00 20.00     0.092 C 
HETATM    7  C7  UNL     1     -32.116   7.284   2.815  1.00 20.00     0.019 C 
HETATM    8  O11 UNL     1     -34.227   7.606   5.752  1.00 20.00    -0.292 OA
ENDROOT
BRANCH   7   9
HETATM    9  C10 UNL     1     -32.892   8.262   1.930  1.00 20.00    -0.015 C 
HETATM   10  C8  UNL     1     -34.319   8.429   2.444  1.00 20.00     0.010 C 
HETATM   11  C9  UNL     1     -32.179   9.609   1.872  1.00 20.00     0.010 C 
ENDBRANCH   7   9
TORSDOF 1
