REMARK  0 active torsions:
REMARK  status: ('A' for Active; 'I' for Inactive)
ROOT
HETATM    1  C1  UNL     1     -34.106   8.153   2.088  1.00 20.00    -0.029 C 
HETATM    2  C2  UNL     1     -34.652   7.585   3.168  1.00 20.00    -0.013 C 
HETATM    3  C3  UNL     1     -33.809   5.370   3.755  1.00 20.00     0.139 C 
HETATM    4  C4  UNL     1     -32.635   7.909   2.019  1.00 20.00     0.032 C 
HETATM    5  C5  UNL     1     -34.400   4.673   4.956  1.00 20.00     0.079 C 
HETATM    6  C6  UNL     1     -34.844   5.844   5.823  1.00 20.00     0.009 C 
HETATM    7  C7  UNL     1     -33.839   6.949   5.509  1.00 20.00     0.022 C 
HETATM    8  C8  UNL     1     -32.290   7.418   3.443  1.00 20.00     0.004 C 
HETATM    9  C9  UNL     1     -33.626   6.866   3.993  1.00 20.00     0.041 C 
HETATM   10  C10 UNL     1     -31.703   8.571   4.266  1.00 20.00     0.011 C 
HETATM   11  O11 UNL     1     -33.518   4.784   2.719  1.00 20.00    -0.297 OA
ENDROOT
TORSDOF 0
