REMARK  1 active torsions:
REMARK  status: ('A' for Active; 'I' for Inactive)
REMARK    1  A    between atoms: C8_8  and  C11_11 
ROOT
HETATM    1  C1  UNL     1     -31.732   7.881   3.413  1.00 20.00     0.071 C 
HETATM    2  C2  UNL     1     -33.488   5.064   4.293  1.00 20.00    -0.004 A 
HETATM    3  C3  UNL     1     -33.942   6.026   5.277  1.00 20.00    -0.004 A 
HETATM    4  C4  UNL     1     -33.407   5.402   2.994  1.00 20.00    -0.020 A 
HETATM    5  C5  UNL     1     -34.288   7.272   4.904  1.00 20.00    -0.020 A 
HETATM    6  C6  UNL     1     -33.806   6.725   2.465  1.00 20.00     0.041 A 
HETATM    7  C7  UNL     1     -34.284   7.737   3.499  1.00 20.00     0.041 A 
HETATM    8  C8  UNL     1     -32.998   7.984   2.729  1.00 20.00     0.067 A 
HETATM    9  N12 UNL     1     -30.713   7.799   3.963  1.00 20.00    -0.196 NA
ENDROOT
BRANCH   8  10
HETATM   10  C11 UNL     1     -33.028   9.054   1.667  1.00 20.00     0.001 C 
HETATM   11  C9  UNL     1     -32.782  10.443   2.270  1.00 20.00     0.011 C 
HETATM   12  C10 UNL     1     -31.996   8.774   0.567  1.00 20.00     0.011 C 
ENDBRANCH   8  10
TORSDOF 1
