REMARK  1 active torsions:
REMARK  status: ('A' for Active; 'I' for Inactive)
REMARK    1  A    between atoms: C2_2  and  C4_4 
ROOT
HETATM    1  C1  UNL     1     -34.332   4.879   4.496  1.00 20.00     0.171 A 
HETATM    2  C2  UNL     1     -33.683   6.182   4.078  1.00 20.00     0.175 A 
HETATM    3  C3  UNL     1     -34.646   4.528   5.907  1.00 20.00     0.044 C 
HETATM    4  O5  UNL     1     -35.101   5.971   3.978  1.00 20.00    -0.352 OA
HETATM    5 CL6  UNL     1     -33.104   7.304   5.305  1.00 20.00    -0.084 Cl
ENDROOT
BRANCH   2   6
HETATM    6  C4  UNL     1     -32.999   6.267   2.752  1.00 20.00     0.172 C 
HETATM    7 CL7  UNL     1     -32.836   7.962   2.221  1.00 20.00    -0.126 Cl
ENDBRANCH   2   6
TORSDOF 1
