REMARK  1 active torsions:
REMARK  status: ('A' for Active; 'I' for Inactive)
REMARK    1  A    between atoms: C3_3  and  C7_7 
ROOT
HETATM    1  C1  UNL     1     -33.382   7.528   3.020  1.00 20.00     0.255 C 
HETATM    2  C2  UNL     1     -34.607   6.725   4.684  1.00 20.00     0.157 C 
HETATM    3  C3  UNL     1     -34.465   5.669   3.604  1.00 20.00     0.164 C 
HETATM    4  C4  UNL     1     -34.456   6.254   6.117  1.00 20.00     0.043 C 
HETATM    5  O8  UNL     1     -33.582   7.661   4.355  1.00 20.00    -0.314 OA
HETATM    6  O9  UNL     1     -34.002   6.441   2.493  1.00 20.00    -0.313 OA
HETATM    7  S10 UNL     1     -32.477   8.573   2.131  1.00 20.00    -0.025 SA
ENDROOT
BRANCH   3   8
HETATM    8  C7  UNL     1     -33.458   4.558   3.873  1.00 20.00     0.010 C 
HETATM    9  C5  UNL     1     -34.037   3.514   4.831  1.00 20.00     0.012 C 
HETATM   10  C6  UNL     1     -33.019   3.889   2.568  1.00 20.00     0.012 C 
ENDBRANCH   3   8
TORSDOF 1
