REMARK  0 active torsions:
REMARK  status: ('A' for Active; 'I' for Inactive)
ROOT
HETATM    1  C1  UNL     1     -33.491   4.339   3.706  1.00 20.00    -0.025 A 
HETATM    2  C2  UNL     1     -32.666   4.805   2.752  1.00 20.00    -0.020 A 
HETATM    3  C3  UNL     1     -34.643   6.530   4.519  1.00 20.00     0.014 C 
HETATM    4  C4  UNL     1     -33.404   7.395   4.303  1.00 20.00     0.070 C 
HETATM    5  C5  UNL     1     -31.975   8.544   1.311  1.00 20.00     0.197 C 
HETATM    6  C6  UNL     1     -33.250   9.290   1.592  1.00 20.00     0.197 C 
HETATM    7  C7  UNL     1     -34.533   5.416   3.474  1.00 20.00     0.021 A 
HETATM    8  C8  UNL     1     -33.590   5.946   2.362  1.00 20.00     0.078 A 
HETATM    9  C9  UNL     1     -33.208   7.367   2.788  1.00 20.00     0.171 C 
HETATM   10  O10 UNL     1     -31.857   7.667   2.430  1.00 20.00    -0.352 OA
HETATM   11  O11 UNL     1     -34.104   8.296   2.158  1.00 20.00    -0.352 OA
ENDROOT
TORSDOF 0
