REMARK  1 active torsions:
REMARK  status: ('A' for Active; 'I' for Inactive)
REMARK    1  A    between atoms: C6_6  and  C8_8 
ROOT
HETATM    1  C1  UNL     1     -34.080   6.334   5.989  1.00 20.00     0.061 C 
HETATM    2  C2  UNL     1     -33.297   6.340   2.729  1.00 20.00     0.066 C 
HETATM    3  C3  UNL     1     -33.443   7.722   5.730  1.00 20.00     0.170 C 
HETATM    4  C4  UNL     1     -34.640   5.857   4.707  1.00 20.00     0.153 A 
HETATM    5  C5  UNL     1     -33.484   5.392   3.844  1.00 20.00     0.153 A 
HETATM    6  C6  UNL     1     -33.091   7.772   3.313  1.00 20.00     0.123 C 
HETATM    7  O9  UNL     1     -32.500   7.750   4.636  1.00 20.00    -0.386 OA
HETATM    8  O10 UNL     1     -34.591   4.560   4.138  1.00 20.00    -0.375 OA
ENDROOT
BRANCH   6   9
HETATM    9  C8  UNL     1     -32.160   8.582   2.416  1.00 20.00     0.027 C 
HETATM   10  C7  UNL     1     -32.706   8.719   1.031  1.00 20.00     0.007 C 
ENDBRANCH   6   9
TORSDOF 1
