REMARK  1 active torsions:
REMARK  status: ('A' for Active; 'I' for Inactive)
REMARK    1  A    between atoms: C7_7  and  C11_11 
ROOT
HETATM    1  C1  UNL     1     -33.874   5.365   5.394  1.00 20.00    -0.021 C 
HETATM    2  C2  UNL     1     -33.566   6.633   5.054  1.00 20.00    -0.053 C 
HETATM    3  C3  UNL     1     -34.026   4.280   4.358  1.00 20.00     0.034 C 
HETATM    4  C4  UNL     1     -32.719   5.765   2.847  1.00 20.00     0.050 C 
HETATM    5  C5  UNL     1     -35.030   5.740   2.520  1.00 20.00     0.174 C 
HETATM    6  C6  UNL     1     -33.886   4.800   2.911  1.00 20.00     0.016 C 
HETATM    7  C7  UNL     1     -33.347   6.959   3.578  1.00 20.00     0.087 C 
HETATM    8  C8  UNL     1     -33.506   7.725   6.078  1.00 20.00     0.046 C 
HETATM    9  O12 UNL     1     -34.666   7.059   2.989  1.00 20.00    -0.375 OA
ENDROOT
BRANCH   7  10
HETATM   10  C11 UNL     1     -32.574   8.244   3.301  1.00 20.00     0.016 C 
HETATM   11  C9  UNL     1     -31.193   8.194   3.953  1.00 20.00     0.013 C 
HETATM   12  C10 UNL     1     -32.447   8.484   1.798  1.00 20.00     0.013 C 
ENDBRANCH   7  10
TORSDOF 1
