REMARK  0 active torsions:
REMARK  status: ('A' for Active; 'I' for Inactive)
ROOT
HETATM    1  C1  UNL     1     -33.081   5.227   2.491  1.00 20.00     0.098 A 
HETATM    2  C2  UNL     1     -33.096   6.509   2.999  1.00 20.00     0.136 A 
HETATM    3  C3  UNL     1     -34.058   5.477   4.678  1.00 20.00     0.253 A 
HETATM    4  N4  UNL     1     -33.656   6.654   4.253  1.00 20.00    -0.201 NA
HETATM    5  F5  UNL     1     -34.644   5.319   5.873  1.00 20.00    -0.176 F 
HETATM    6  S6  UNL     1     -33.793   4.152   3.621  1.00 20.00    -0.048 SA
HETATM    7 CL7  UNL     1     -32.473   7.874   2.170  1.00 20.00    -0.062 Cl
ENDROOT
TORSDOF 0
