REMARK  1 active torsions:
REMARK  status: ('A' for Active; 'I' for Inactive)
REMARK    1  A    between atoms: C4_4  and  C10_10 
ROOT
HETATM    1  C1  UNL     1     -33.428   4.697   2.715  1.00 20.00    -0.003 C 
HETATM    2  C2  UNL     1     -32.883   6.016   2.483  1.00 20.00     0.011 C 
HETATM    3  C3  UNL     1     -33.917   4.157   3.838  1.00 20.00    -0.026 C 
HETATM    4  C4  UNL     1     -32.729   7.070   3.301  1.00 20.00    -0.009 C 
HETATM    5  C5  UNL     1     -33.214   7.106   4.714  1.00 20.00     0.156 C 
HETATM    6  C6  UNL     1     -34.123   4.810   5.167  1.00 20.00     0.035 C 
HETATM    7  C7  UNL     1     -34.429   6.294   5.090  1.00 20.00     0.087 C 
HETATM    8  O11 UNL     1     -32.660   7.829   5.542  1.00 20.00    -0.293 OA
ENDROOT
BRANCH   4   9
HETATM    9  C10 UNL     1     -32.023   8.316   2.842  1.00 20.00     0.014 C 
HETATM   10  C8  UNL     1     -31.530   8.140   1.411  1.00 20.00     0.015 C 
HETATM   11  C9  UNL     1     -32.940   9.527   2.962  1.00 20.00     0.015 C 
ENDBRANCH   4   9
TORSDOF 1
