REMARK  1 active torsions:
REMARK  status: ('A' for Active; 'I' for Inactive)
REMARK    1  A    between atoms: C2_2  and  C6_6 
ROOT
HETATM    1  C3  UNL     1     -33.929   6.710   5.589  1.00 20.00     0.003 C 
HETATM    2  C4  UNL     1     -33.636   7.714   4.475  1.00 20.00     0.011 C 
HETATM    3  C5  UNL     1     -35.055   5.759   5.189  1.00 20.00     0.034 C 
HETATM    4  C6  UNL     1     -33.091   7.018   3.213  1.00 20.00     0.039 C 
HETATM    5  C7  UNL     1     -34.884   5.190   3.820  1.00 20.00     0.151 A 
HETATM    6  C8  UNL     1     -33.950   5.836   2.829  1.00 20.00     0.158 A 
HETATM    7  O9  UNL     1     -33.602   4.629   3.540  1.00 20.00    -0.375 OA
ENDROOT
BRANCH   4   8
HETATM    8  C2  UNL     1     -32.926   8.025   2.112  1.00 20.00    -0.030 C 
HETATM    9  C1  UNL     1     -31.749   8.347   1.563  1.00 20.00     0.007 C 
ENDBRANCH   4   8
TORSDOF 1
