REMARK  2 active torsions:
REMARK  status: ('A' for Active; 'I' for Inactive)
REMARK    1  A    between atoms: C1_1  and  C5_5 
REMARK    2  A    between atoms: C2_2  and  C3_3 
ROOT
HETATM    1  C1  UNL     1     -33.600   6.883   4.862  1.00 20.00     0.134 C 
HETATM    2  C2  UNL     1     -32.920   7.759   4.114  1.00 20.00     0.166 C 
HETATM    3  F7  UNL     1     -32.223   8.764   4.686  1.00 20.00    -0.202 F 
ENDROOT
BRANCH   1   4
HETATM    4  C5  UNL     1     -34.395   5.745   4.323  1.00 20.00     0.410 C 
HETATM    5  F8  UNL     1     -34.995   4.996   5.283  1.00 20.00    -0.167 F 
HETATM    6  F9  UNL     1     -33.618   4.900   3.598  1.00 20.00    -0.167 F 
HETATM    7  F10 UNL     1     -35.379   6.179   3.495  1.00 20.00    -0.167 F 
ENDBRANCH   1   4
BRANCH   2   8
HETATM    8  C3  UNL     1     -32.842   7.746   2.631  1.00 20.00     0.183 C 
HETATM    9  C4  UNL     1     -32.034   8.801   1.922  1.00 20.00     0.099 C 
HETATM   10  O6  UNL     1     -33.439   6.872   2.003  1.00 20.00    -0.290 OA
ENDBRANCH   2   8
TORSDOF 2
