REMARK  1 active torsions:
REMARK  status: ('A' for Active; 'I' for Inactive)
REMARK    1  A    between atoms: C5_5  and  C10_10 
ROOT
HETATM    1  C1  UNL     1     -32.083   7.883   4.440  1.00 20.00     0.046 C 
HETATM    2  C2  UNL     1     -31.613   7.782   3.192  1.00 20.00    -0.018 C 
HETATM    3  C3  UNL     1     -33.525   7.679   4.713  1.00 20.00     0.149 C 
HETATM    4  C4  UNL     1     -34.458   7.423   3.547  1.00 20.00     0.088 C 
HETATM    5  C5  UNL     1     -32.446   7.423   1.989  1.00 20.00     0.015 C 
HETATM    6  C6  UNL     1     -33.761   6.710   2.382  1.00 20.00    -0.003 C 
HETATM    7  C7  UNL     1     -33.513   5.233   2.722  1.00 20.00     0.011 C 
HETATM    8  O11 UNL     1     -33.947   7.778   5.864  1.00 20.00    -0.293 OA
ENDROOT
BRANCH   5   9
HETATM    9  C10 UNL     1     -32.710   8.682   1.159  1.00 20.00    -0.015 C 
HETATM   10  C8  UNL     1     -33.028   9.864   2.070  1.00 20.00     0.010 C 
HETATM   11  C9  UNL     1     -31.513   8.994   0.267  1.00 20.00     0.010 C 
ENDBRANCH   5   9
TORSDOF 1
