REMARK  1 active torsions:
REMARK  status: ('A' for Active; 'I' for Inactive)
REMARK    1  A    between atoms: C7_7  and  C10_10 
ROOT
HETATM    1  C1  UNL     1     -34.329   5.659   5.842  1.00 20.00    -0.004 C 
HETATM    2  C2  UNL     1     -34.172   7.060   5.531  1.00 20.00    -0.004 C 
HETATM    3  C3  UNL     1     -34.562   4.653   4.987  1.00 20.00    -0.019 C 
HETATM    4  C4  UNL     1     -33.847   7.651   4.371  1.00 20.00    -0.014 C 
HETATM    5  C5  UNL     1     -33.420   5.541   3.033  1.00 20.00     0.138 C 
HETATM    6  C6  UNL     1     -34.630   4.765   3.502  1.00 20.00     0.106 C 
HETATM    7  C7  UNL     1     -33.545   7.063   3.017  1.00 20.00     0.081 C 
HETATM    8  O11 UNL     1     -32.384   4.956   2.716  1.00 20.00    -0.297 OA
ENDROOT
BRANCH   7   9
HETATM    9  C10 UNL     1     -32.277   7.698   2.441  1.00 20.00    -0.008 C 
HETATM   10  C8  UNL     1     -32.598   9.047   1.803  1.00 20.00     0.010 C 
HETATM   11  C9  UNL     1     -31.217   7.853   3.528  1.00 20.00     0.010 C 
ENDBRANCH   7   9
TORSDOF 1
