REMARK  3 active torsions:
REMARK  status: ('A' for Active; 'I' for Inactive)
REMARK    1  A    between atoms: C1_1  and  C7_7 
REMARK    2  A    between atoms: C1_1  and  N9_9 
REMARK    3  A    between atoms: C7_7  and  C8_8 
ROOT
HETATM    1  C1  UNL     1     -33.720   6.548   3.534  1.00 20.00     0.075 C 
HETATM    2  S10 UNL     1     -33.155   5.233   2.617  1.00 20.00    -0.066 SA
ENDROOT
BRANCH   1   3
HETATM    3  C7  UNL     1     -33.936   7.877   2.780  1.00 20.00     0.077 C 
BRANCH   3   4
HETATM    4  C8  UNL     1     -32.670   8.560   2.183  1.00 20.00    -0.045 C 
HETATM    5  C2  UNL     1     -33.102   9.928   1.611  1.00 20.00     0.015 C 
HETATM    6  C3  UNL     1     -32.035   7.750   1.044  1.00 20.00     0.015 C 
HETATM    7  C4  UNL     1     -31.602   8.813   3.262  1.00 20.00     0.015 C 
ENDBRANCH   3   4
ENDBRANCH   1   3
BRANCH   1   8
HETATM    8  N9  UNL     1     -33.974   6.496   4.911  1.00 20.00    -0.384 N 
HETATM    9  C5  UNL     1     -33.825   7.632   5.821  1.00 20.00     0.149 C 
HETATM   10  C6  UNL     1     -34.278   5.240   5.603  1.00 20.00     0.149 C 
ENDBRANCH   1   8
TORSDOF 3
