REMARK  0 active torsions:
REMARK  status: ('A' for Active; 'I' for Inactive)
ROOT
HETATM    1  C1  UNL     1     -33.706   6.840   5.038  1.00 20.00     0.161 C 
HETATM    2  C2  UNL     1     -32.465   7.508   4.496  1.00 20.00     0.091 C 
HETATM    3  C3  UNL     1     -32.465   7.281   2.998  1.00 20.00     0.084 C 
HETATM    4  C4  UNL     1     -34.214   5.677   4.207  1.00 20.00     0.141 C 
HETATM    5  C5  UNL     1     -35.647   5.912   3.753  1.00 20.00     0.053 C 
HETATM    6  O6  UNL     1     -34.222   7.189   6.097  1.00 20.00    -0.295 OA
HETATM    7  S7  UNL     1     -33.083   5.598   2.785  1.00 20.00    -0.135 SA
HETATM    8 CL8  UNL     1     -34.088   4.205   5.191  1.00 20.00    -0.099 Cl
ENDROOT
TORSDOF 0
