REMARK  2 active torsions:
REMARK  status: ('A' for Active; 'I' for Inactive)
REMARK    1  A    between atoms: C1_1  and  C2_2 
REMARK    2  A    between atoms: C1_1  and  C3_3 
ROOT
HETATM    1  C1  UNL     1     -33.078   6.514   3.011  1.00 20.00     0.280 C 
HETATM    2  O4  UNL     1     -32.574   5.550   2.433  1.00 20.00    -0.284 OA
ENDROOT
BRANCH   1   3
HETATM    3  C2  UNL     1     -34.140   6.324   4.062  1.00 20.00     0.344 C 
HETATM    4  F5  UNL     1     -33.731   6.812   5.264  1.00 20.00    -0.224 F 
HETATM    5 CL9  UNL     1     -34.466   4.594   4.225  1.00 20.00    -0.081 Cl
ENDBRANCH   1   3
BRANCH   1   6
HETATM    6  C3  UNL     1     -32.632   7.917   2.713  1.00 20.00     0.455 C 
HETATM    7  F6  UNL     1     -33.286   8.831   3.472  1.00 20.00    -0.163 F 
HETATM    8  F7  UNL     1     -32.841   8.256   1.415  1.00 20.00    -0.163 F 
HETATM    9  F8  UNL     1     -31.306   8.088   2.952  1.00 20.00    -0.163 F 
ENDBRANCH   1   6
TORSDOF 2
