REMARK  1 active torsions:
REMARK  status: ('A' for Active; 'I' for Inactive)
REMARK    1  A    between atoms: C6_6  and  C11_11 
ROOT
HETATM    1  C1  UNL     1     -33.758   6.291   4.656  1.00 20.00     0.136 C 
HETATM    2  C2  UNL     1     -32.716   7.420   4.714  1.00 20.00     0.085 C 
HETATM    3  C3  UNL     1     -34.155   7.515   1.350  1.00 20.00     0.006 C 
HETATM    4  C4  UNL     1     -34.690   6.386   2.224  1.00 20.00     0.018 C 
HETATM    5  C5  UNL     1     -32.603   7.319   3.170  1.00 20.00     0.012 C 
HETATM    6  C6  UNL     1     -33.352   8.364   2.333  1.00 20.00    -0.006 C 
HETATM    7  C7  UNL     1     -33.514   6.047   3.147  1.00 20.00     0.021 C 
HETATM    8  C8  UNL     1     -32.827   4.734   2.814  1.00 20.00     0.024 C 
HETATM    9  O12 UNL     1     -34.491   5.788   5.482  1.00 20.00    -0.297 OA
ENDROOT
BRANCH   6  10
HETATM   10  C11 UNL     1     -32.396   9.323   1.646  1.00 20.00    -0.018 C 
HETATM   11  C9  UNL     1     -31.368   8.554   0.819  1.00 20.00     0.010 C 
HETATM   12  C10 UNL     1     -33.163  10.309   0.769  1.00 20.00     0.010 C 
ENDBRANCH   6  10
TORSDOF 1
