REMARK  3 active torsions:
REMARK  status: ('A' for Active; 'I' for Inactive)
REMARK    1  A    between atoms: C1_1  and  C5_5 
REMARK    2  A    between atoms: C1_1  and  C6_6 
REMARK    3  A    between atoms: C4_4  and  C5_5 
ROOT
HETATM    1  C1  UNL     1     -33.006   7.098   3.118  1.00 20.00     0.137 C 
HETATM    2  O7  UNL     1     -32.916   7.364   4.317  1.00 20.00    -0.297 OA
ENDROOT
BRANCH   1   3
HETATM    3  C5  UNL     1     -32.118   7.744   2.071  1.00 20.00     0.083 C 
BRANCH   3   4
HETATM    4  C4  UNL     1     -32.291   9.227   1.969  1.00 20.00    -0.008 A 
HETATM    5  C2  UNL     1     -31.846   9.957   0.732  1.00 20.00     0.005 A 
HETATM    6  C3  UNL     1     -33.312   9.807   1.030  1.00 20.00     0.005 A 
ENDBRANCH   3   4
ENDBRANCH   1   3
BRANCH   1   7
HETATM    7  C6  UNL     1     -34.000   6.080   2.626  1.00 20.00     0.163 C 
HETATM    8 BR8  UNL     1     -34.305   4.848   4.084  1.00 20.00    -0.089 Br
ENDBRANCH   1   7
TORSDOF 3
