REMARK  2 active torsions:
REMARK  status: ('A' for Active; 'I' for Inactive)
REMARK    1  A    between atoms: C2_2  and  C3_3 
REMARK    2  A    between atoms: C3_3  and  O11_11 
ROOT
HETATM    1  C1  UNL     1     -32.685   7.426   3.834  1.00 20.00    -0.069 C 
HETATM    2  C2  UNL     1     -33.421   6.752   4.715  1.00 20.00     0.084 C 
HETATM    3  C4  UNL     1     -31.483   8.393   3.939  1.00 20.00     0.040 C 
HETATM    4  C5  UNL     1     -33.029   8.983   0.479  1.00 20.00     0.001 C 
HETATM    5  C6  UNL     1     -33.743   7.926   1.358  1.00 20.00     0.009 C 
HETATM    6  C7  UNL     1     -31.817   9.467   1.311  1.00 20.00     0.005 C 
HETATM    7  C8  UNL     1     -32.656   7.551   2.335  1.00 20.00     0.019 C 
HETATM    8  C9  UNL     1     -32.199   9.002   2.699  1.00 20.00    -0.002 C 
ENDROOT
BRANCH   2   9
HETATM    9  C3  UNL     1     -34.548   5.867   4.353  1.00 20.00     0.165 C 
HETATM   10  O10 UNL     1     -34.904   5.679   3.199  1.00 20.00    -0.647 OA
BRANCH   9  11
HETATM   11  O11 UNL     1     -35.132   5.300   5.431  1.00 20.00    -0.773 OA
HETATM   12  H23 UNL     1     -35.879   4.715   5.180  1.00 20.00     0.167 HD
ENDBRANCH   9  11
ENDBRANCH   2   9
TORSDOF 2
