REMARK  0 active torsions:
REMARK  status: ('A' for Active; 'I' for Inactive)
ROOT
HETATM    1  C1  UNL     1     -33.042   7.749   4.907  1.00 20.00     0.147 A 
HETATM    2  C2  UNL     1     -34.836   4.402   4.608  1.00 20.00     0.168 A 
HETATM    3  C3  UNL     1     -33.760   6.519   4.905  1.00 20.00     0.061 A 
HETATM    4  C4  UNL     1     -33.505   5.871   3.729  1.00 20.00     0.134 A 
HETATM    5  N5  UNL     1     -32.286   8.074   3.855  1.00 20.00    -0.220 NA
HETATM    6  N6  UNL     1     -34.108   4.665   3.542  1.00 20.00    -0.244 NA
HETATM    7  S7  UNL     1     -34.837   5.575   5.880  1.00 20.00    -0.078 SA
HETATM    8  S8  UNL     1     -32.421   6.817   2.744  1.00 20.00     0.032 SA
ENDROOT
TORSDOF 0
