REMARK  0 active torsions:
REMARK  status: ('A' for Active; 'I' for Inactive)
ROOT
HETATM    1  C1  UNL     1     -31.977   8.357   3.616  1.00 20.00     0.050 C 
HETATM    2  C2  UNL     1     -31.883   8.838   2.372  1.00 20.00    -0.014 C 
HETATM    3  C3  UNL     1     -33.014   7.358   3.963  1.00 20.00     0.188 C 
HETATM    4  C4  UNL     1     -34.041   7.701   1.711  1.00 20.00     0.064 C 
HETATM    5  C5  UNL     1     -32.806   8.496   1.223  1.00 20.00    -0.026 C 
HETATM    6  C6  UNL     1     -33.784   6.695   2.836  1.00 20.00     0.164 C 
HETATM    7  C7  UNL     1     -32.021   7.724   0.148  1.00 20.00     0.019 C 
HETATM    8  C8  UNL     1     -33.305   9.809   0.584  1.00 20.00     0.019 C 
HETATM    9  C9  UNL     1     -33.061   5.426   2.405  1.00 20.00     0.060 C 
HETATM   10  O10 UNL     1     -33.196   7.051   5.140  1.00 20.00    -0.290 OA
HETATM   11  F11 UNL     1     -35.014   6.299   3.293  1.00 20.00    -0.235 F 
ENDROOT
TORSDOF 0
