REMARK  4 active torsions:
REMARK  status: ('A' for Active; 'I' for Inactive)
REMARK    1  A    between atoms: C3_3  and  C4_4 
REMARK    2  A    between atoms: C4_4  and  C5_5 
REMARK    3  A    between atoms: C5_5  and  C6_6 
REMARK    4  A    between atoms: C6_6  and  C7_7 
ROOT
HETATM    1  C1  UNL     1     -33.194   9.516   0.438  1.00 20.00     0.087 C 
HETATM    2  C2  UNL     1     -33.017   9.085   1.779  1.00 20.00     0.089 C 
HETATM    3  C3  UNL     1     -31.862   8.551   2.199  1.00 20.00    -0.016 C 
HETATM    4  N8  UNL     1     -33.343   9.868  -0.658  1.00 20.00    -0.192 NA
ENDROOT
BRANCH   3   5
HETATM    5  C4  UNL     1     -31.628   8.076   3.605  1.00 20.00     0.028 C 
BRANCH   5   6
HETATM    6  C5  UNL     1     -32.937   7.635   4.267  1.00 20.00     0.005 C 
BRANCH   6   7
HETATM    7  C6  UNL     1     -33.612   6.518   3.466  1.00 20.00     0.015 C 
BRANCH   7   8
HETATM    8  C7  UNL     1     -34.962   6.096   4.038  1.00 20.00     0.114 C 
HETATM    9 CL9  UNL     1     -34.817   5.466   5.695  1.00 20.00    -0.130 Cl
ENDBRANCH   7   8
ENDBRANCH   6   7
ENDBRANCH   5   6
ENDBRANCH   3   5
TORSDOF 4
