REMARK  1 active torsions:
REMARK  status: ('A' for Active; 'I' for Inactive)
REMARK    1  A    between atoms: C3_3  and  C8_8 
ROOT
HETATM    1  C1  UNL     1     -33.454   5.667   3.479  1.00 20.00     0.145 C 
HETATM    2  C4  UNL     1     -32.532   6.683   2.830  1.00 20.00     0.088 C 
HETATM    3  C5  UNL     1     -33.887   7.454   5.168  1.00 20.00     0.028 C 
HETATM    4  C6  UNL     1     -33.592   8.569   4.158  1.00 20.00     0.011 C 
HETATM    5  C7  UNL     1     -34.446   6.203   4.499  1.00 20.00     0.151 C 
HETATM    6  C8  UNL     1     -33.225   8.046   2.759  1.00 20.00     0.014 C 
HETATM    7  O9  UNL     1     -33.386   4.477   3.174  1.00 20.00    -0.296 OA
HETATM    8 CL10 UNL     1     -34.754   4.949   5.723  1.00 20.00    -0.117 Cl
ENDROOT
BRANCH   6   9
HETATM    9  C3  UNL     1     -32.392   9.046   2.019  1.00 20.00    -0.032 C 
HETATM   10  C2  UNL     1     -32.772   9.644   0.885  1.00 20.00     0.007 C 
ENDBRANCH   6   9
TORSDOF 1
