REMARK  1 active torsions:
REMARK  status: ('A' for Active; 'I' for Inactive)
REMARK    1  A    between atoms: C6_6  and  C10_10 
ROOT
HETATM    1  C1  UNL     1     -32.930   6.699   0.982  1.00 20.00     0.054 A 
HETATM    2  C2  UNL     1     -32.836   8.491   2.768  1.00 20.00     0.060 A 
HETATM    3  C3  UNL     1     -32.870   5.769   1.940  1.00 20.00     0.025 A 
HETATM    4  C4  UNL     1     -32.778   7.550   3.724  1.00 20.00    -0.037 A 
HETATM    5  C5  UNL     1     -32.954   8.131   1.337  1.00 20.00     0.172 A 
HETATM    6  C6  UNL     1     -32.840   6.064   3.418  1.00 20.00     0.147 A 
HETATM    7  C7  UNL     1     -32.604   7.946   5.165  1.00 20.00     0.047 C 
HETATM    8  O11 UNL     1     -33.053   8.996   0.473  1.00 20.00    -0.289 OA
HETATM    9  F12 UNL     1     -31.733   5.457   3.948  1.00 20.00    -0.233 F 
ENDROOT
BRANCH   6  10
HETATM   10  C10 UNL     1     -34.060   5.409   4.073  1.00 20.00     0.026 C 
HETATM   11  C8  UNL     1     -35.348   5.989   3.496  1.00 20.00     0.014 C 
HETATM   12  C9  UNL     1     -34.017   3.896   3.885  1.00 20.00     0.014 C 
ENDBRANCH   6  10
TORSDOF 1
