REMARK  1 active torsions:
REMARK  status: ('A' for Active; 'I' for Inactive)
REMARK    1  A    between atoms: C6_6  and  C7_7 
ROOT
HETATM    1  C1  UNL     1     -32.925   7.471   2.894  1.00 20.00     0.146 C 
HETATM    2  C2  UNL     1     -33.677   6.311   2.223  1.00 20.00     0.091 C 
HETATM    3  C5  UNL     1     -33.866   7.457   4.116  1.00 20.00     0.160 C 
HETATM    4  C7  UNL     1     -34.348   6.030   3.619  1.00 20.00    -0.010 C 
HETATM    5  C8  UNL     1     -35.879   5.977   3.504  1.00 20.00     0.018 C 
HETATM    6  O9  UNL     1     -31.962   8.136   2.576  1.00 20.00    -0.296 OA
HETATM    7 CL10 UNL     1     -33.039   7.639   5.686  1.00 20.00    -0.116 Cl
ENDROOT
BRANCH   4   8
HETATM    8  C6  UNL     1     -33.813   4.799   4.362  1.00 20.00    -0.004 A 
HETATM    9  C3  UNL     1     -34.217   4.446   5.767  1.00 20.00     0.006 A 
HETATM   10  C4  UNL     1     -34.643   3.572   4.621  1.00 20.00     0.006 A 
ENDBRANCH   4   8
TORSDOF 1
