REMARK  1 active torsions:
REMARK  status: ('A' for Active; 'I' for Inactive)
REMARK    1  A    between atoms: C7_7  and  C10_10 
ROOT
HETATM    1  C1  UNL     1     -33.241   7.327   6.301  1.00 20.00    -0.023 C 
HETATM    2  C2  UNL     1     -33.781   7.932   5.188  1.00 20.00    -0.012 C 
HETATM    3  C3  UNL     1     -35.158   5.857   3.953  1.00 20.00     0.140 C 
HETATM    4  C4  UNL     1     -35.319   4.558   4.769  1.00 20.00     0.080 C 
HETATM    5  C5  UNL     1     -34.239   4.704   5.904  1.00 20.00     0.017 C 
HETATM    6  C6  UNL     1     -34.213   6.201   6.102  1.00 20.00     0.028 C 
HETATM    7  C7  UNL     1     -33.909   6.550   4.560  1.00 20.00     0.048 C 
HETATM    8  O11 UNL     1     -35.881   6.191   3.027  1.00 20.00    -0.297 OA
ENDROOT
BRANCH   7   9
HETATM    9  C10 UNL     1     -32.647   6.160   3.763  1.00 20.00    -0.002 C 
HETATM   10  C8  UNL     1     -33.016   5.209   2.634  1.00 20.00     0.011 C 
HETATM   11  C9  UNL     1     -31.962   7.409   3.228  1.00 20.00     0.011 C 
ENDBRANCH   7   9
TORSDOF 1
