REMARK  1 active torsions:
REMARK  status: ('A' for Active; 'I' for Inactive)
REMARK    1  A    between atoms: C3_3  and  C8_8 
ROOT
HETATM    1  C1  UNL     1     -34.302   5.326   4.754  1.00 20.00     0.145 C 
HETATM    2  C4  UNL     1     -34.157   6.696   5.380  1.00 20.00     0.080 C 
HETATM    3  C5  UNL     1     -33.134   7.513   4.602  1.00 20.00     0.016 C 
HETATM    4  C6  UNL     1     -34.433   6.593   2.583  1.00 20.00     0.036 C 
HETATM    5  C7  UNL     1     -34.212   5.233   3.244  1.00 20.00     0.152 C 
HETATM    6  C8  UNL     1     -33.570   7.741   3.145  1.00 20.00     0.009 C 
HETATM    7  O9  UNL     1     -34.497   4.328   5.448  1.00 20.00    -0.296 OA
HETATM    8 CL10 UNL     1     -32.627   4.536   2.844  1.00 20.00    -0.117 Cl
ENDROOT
BRANCH   6   9
HETATM    9  C3  UNL     1     -32.389   8.032   2.267  1.00 20.00    -0.032 C 
HETATM   10  C2  UNL     1     -32.199   9.192   1.629  1.00 20.00     0.007 C 
ENDBRANCH   6   9
TORSDOF 1
