REMARK  1 active torsions:
REMARK  status: ('A' for Active; 'I' for Inactive)
REMARK    1  A    between atoms: C5_5  and  C9_9 
ROOT
HETATM    1  C1  UNL     1     -34.202   6.951   5.658  1.00 20.00     0.049 C 
HETATM    2  C2  UNL     1     -33.794   7.726   4.646  1.00 20.00    -0.018 C 
HETATM    3  C3  UNL     1     -34.478   5.513   5.422  1.00 20.00     0.182 C 
HETATM    4  C4  UNL     1     -33.372   5.709   3.200  1.00 20.00     0.054 C 
HETATM    5  C5  UNL     1     -33.529   7.235   3.244  1.00 20.00     0.014 C 
HETATM    6  C6  UNL     1     -34.466   5.016   3.995  1.00 20.00     0.244 C 
HETATM    7  O10 UNL     1     -34.756   4.777   6.366  1.00 20.00    -0.290 OA
HETATM    8  F11 UNL     1     -34.241   3.674   3.954  1.00 20.00    -0.241 F 
ENDROOT
BRANCH   5   9
HETATM    9  C9  UNL     1     -32.286   7.906   2.658  1.00 20.00    -0.015 C 
HETATM   10  C7  UNL     1     -32.632   9.291   2.116  1.00 20.00     0.010 C 
HETATM   11  C8  UNL     1     -31.182   7.998   3.707  1.00 20.00     0.010 C 
ENDBRANCH   5   9
TORSDOF 1
