REMARK  0 active torsions:
REMARK  status: ('A' for Active; 'I' for Inactive)
ROOT
HETATM    1  C1  UNL     1     -33.505   7.543   5.822  1.00 20.00     0.154 A 
HETATM    2  C2  UNL     1     -33.833   6.777   4.730  1.00 20.00     0.005 A 
HETATM    3  C3  UNL     1     -33.444   7.505   3.613  1.00 20.00     0.013 A 
HETATM    4  C4  UNL     1     -32.781   8.609   4.050  1.00 20.00     0.062 A 
HETATM    5  C5  UNL     1     -34.198   4.947   3.262  1.00 20.00     0.143 C 
HETATM    6  C6  UNL     1     -34.324   5.465   4.507  1.00 20.00    -0.027 C 
HETATM    7  C7  UNL     1     -31.952   9.503   3.218  1.00 20.00     0.066 C 
HETATM    8  C8  UNL     1     -32.118   9.104   1.719  1.00 20.00     0.009 C 
HETATM    9  C9  UNL     1     -32.317   7.578   1.462  1.00 20.00     0.038 C 
HETATM   10  C10 UNL     1     -33.545   7.031   2.227  1.00 20.00     0.164 C 
HETATM   11  C11 UNL     1     -34.880   4.730   5.680  1.00 20.00     0.051 C 
HETATM   12  O12 UNL     1     -32.833   8.680   5.410  1.00 20.00    -0.326 OA
HETATM   13  O13 UNL     1     -33.659   5.587   2.145  1.00 20.00    -0.352 OA
ENDROOT
TORSDOF 0
