REMARK  1 active torsions:
REMARK  status: ('A' for Active; 'I' for Inactive)
REMARK    1  A    between atoms: C4_4  and  C9_9 
ROOT
HETATM    1  C1  UNL     1     -31.762   8.725   3.170  1.00 20.00     0.014 A 
HETATM    2  C2  UNL     1     -32.211   8.308   4.359  1.00 20.00     0.075 A 
HETATM    3  C3  UNL     1     -32.854   6.917   2.031  1.00 20.00     0.101 A 
HETATM    4  C4  UNL     1     -32.087   8.015   1.954  1.00 20.00    -0.039 A 
HETATM    5  C5  UNL     1     -33.064   7.087   4.452  1.00 20.00     0.246 A 
HETATM    6  C8  UNL     1     -34.168   5.246   3.247  1.00 20.00     0.159 C 
HETATM    7  N10 UNL     1     -33.341   6.447   3.239  1.00 20.00    -0.329 N 
HETATM    8  O11 UNL     1     -33.463   6.726   5.558  1.00 20.00    -0.268 OA
ENDROOT
BRANCH   4   9
HETATM    9  C9  UNL     1     -31.544   8.552   0.668  1.00 20.00     0.012 C 
HETATM   10  C6  UNL     1     -32.075   9.960   0.412  1.00 20.00     0.015 C 
HETATM   11  C7  UNL     1     -30.016   8.542   0.676  1.00 20.00     0.015 C 
ENDBRANCH   4   9
TORSDOF 1
