REMARK  3 active torsions:
REMARK  status: ('A' for Active; 'I' for Inactive)
REMARK    1  A    between atoms: C4_4  and  C8_8 
REMARK    2  A    between atoms: C7_7  and  C11_11 
REMARK    3  A    between atoms: C8_8  and  O12_12 
ROOT
HETATM    1  C1  UNL     1     -32.645   6.523   2.292  1.00 20.00    -0.022 C 
HETATM    2  C2  UNL     1     -32.973   5.857   3.408  1.00 20.00     0.011 C 
HETATM    3  C5  UNL     1     -33.528   8.662   3.308  1.00 20.00     0.012 C 
HETATM    4  C6  UNL     1     -34.487   7.766   4.094  1.00 20.00     0.047 C 
HETATM    5  C7  UNL     1     -33.032   7.957   2.034  1.00 20.00     0.011 C 
HETATM    6  C8  UNL     1     -33.806   6.448   4.516  1.00 20.00     0.092 C 
ENDROOT
BRANCH   6   7
HETATM    7  C4  UNL     1     -34.836   5.466   4.994  1.00 20.00     0.004 C 
HETATM    8  C3  UNL     1     -34.631   4.586   5.980  1.00 20.00     0.010 C 
ENDBRANCH   6   7
BRANCH   6   9
HETATM    9  O12 UNL     1     -32.912   6.716   5.601  1.00 20.00    -0.382 OA
HETATM   10  H30 UNL     1     -33.452   7.096   6.310  1.00 20.00     0.211 HD
ENDBRANCH   6   9
BRANCH   5  11
HETATM   11  C11 UNL     1     -31.865   8.735   1.426  1.00 20.00    -0.015 C 
HETATM   12  C9  UNL     1     -31.416   8.090   0.117  1.00 20.00     0.010 C 
HETATM   13  C10 UNL     1     -32.255  10.194   1.201  1.00 20.00     0.010 C 
ENDBRANCH   5  11
TORSDOF 3
