REMARK  1 active torsions:
REMARK  status: ('A' for Active; 'I' for Inactive)
REMARK    1  A    between atoms: C5_5  and  C7_7 
ROOT
HETATM    1  C1  UNL     1     -35.195   5.508   4.498  1.00 20.00     0.003 C 
HETATM    2  C2  UNL     1     -34.525   6.446   5.497  1.00 20.00     0.003 C 
HETATM    3  C3  UNL     1     -34.233   5.499   3.307  1.00 20.00     0.041 C 
HETATM    4  C4  UNL     1     -33.967   7.570   4.621  1.00 20.00     0.041 C 
HETATM    5  C5  UNL     1     -33.148   7.574   2.088  1.00 20.00     0.167 A 
HETATM    6  C6  UNL     1     -33.630   6.872   3.337  1.00 20.00     0.088 A 
HETATM    7  O8  UNL     1     -32.239   6.916   2.976  1.00 20.00    -0.368 OA
ENDROOT
BRANCH   5   8
HETATM    8  C7  UNL     1     -32.984   9.050   2.016  1.00 20.00     0.120 C 
HETATM    9 BR9  UNL     1     -31.750   9.534   0.582  1.00 20.00    -0.094 Br
ENDBRANCH   5   8
TORSDOF 1
