REMARK  1 active torsions:
REMARK  status: ('A' for Active; 'I' for Inactive)
REMARK    1  A    between atoms: C6_6  and  C10_10 
ROOT
HETATM    1  C1  UNL     1     -33.373   4.448   3.411  1.00 20.00     0.014 C 
HETATM    2  C2  UNL     1     -32.930   5.624   2.526  1.00 20.00     0.039 C 
HETATM    3  C3  UNL     1     -33.661   6.462   4.651  1.00 20.00     0.049 C 
HETATM    4  C4  UNL     1     -35.576   5.589   3.633  1.00 20.00     0.177 C 
HETATM    5  C5  UNL     1     -34.340   5.119   4.408  1.00 20.00    -0.020 C 
HETATM    6  C6  UNL     1     -33.676   6.804   3.167  1.00 20.00     0.064 C 
HETATM    7  C7  UNL     1     -34.644   4.290   5.634  1.00 20.00     0.017 C 
HETATM    8  O11 UNL     1     -35.071   6.662   2.803  1.00 20.00    -0.379 OA
ENDROOT
BRANCH   6   9
HETATM    9  C10 UNL     1     -33.154   8.169   2.790  1.00 20.00     0.012 C 
HETATM   10  C8  UNL     1     -31.697   8.348   3.233  1.00 20.00     0.012 C 
HETATM   11  C9  UNL     1     -33.274   8.411   1.280  1.00 20.00     0.012 C 
ENDBRANCH   6   9
TORSDOF 1
