REMARK  1 active torsions:
REMARK  status: ('A' for Active; 'I' for Inactive)
REMARK    1  A    between atoms: C3_3  and  C9_9 
ROOT
HETATM    1  C1  UNL     1     -33.409   7.001   4.508  1.00 20.00     0.178 C 
HETATM    2  C2  UNL     1     -33.423   4.891   3.085  1.00 20.00     0.087 C 
HETATM    3  C3  UNL     1     -32.680   7.402   2.279  1.00 20.00     0.185 C 
HETATM    4  C4  UNL     1     -34.095   5.641   4.257  1.00 20.00    -0.018 C 
HETATM    5  C5  UNL     1     -33.961   4.780   5.527  1.00 20.00     0.018 C 
HETATM    6  C6  UNL     1     -35.597   5.854   3.975  1.00 20.00     0.018 C 
HETATM    7  O10 UNL     1     -33.477   7.862   3.372  1.00 20.00    -0.374 OA
HETATM    8  S11 UNL     1     -33.315   5.862   1.551  1.00 20.00    -0.136 SA
ENDROOT
BRANCH   3   9
HETATM    9  C9  UNL     1     -32.689   8.491   1.215  1.00 20.00     0.017 C 
HETATM   10  C7  UNL     1     -32.624   9.877   1.857  1.00 20.00     0.013 C 
HETATM   11  C8  UNL     1     -31.530   8.302   0.237  1.00 20.00     0.013 C 
ENDBRANCH   3   9
TORSDOF 1
