REMARK  0 active torsions:
REMARK  status: ('A' for Active; 'I' for Inactive)
ROOT
HETATM    1  C1  UNL     1     -33.952   7.149   5.465  1.00 20.00    -0.028 C 
HETATM    2  C2  UNL     1     -34.981   6.294   5.340  1.00 20.00     0.003 C 
HETATM    3  C3  UNL     1     -34.223   4.642   3.775  1.00 20.00     0.154 C 
HETATM    4  C4  UNL     1     -33.080   7.515   4.288  1.00 20.00     0.032 C 
HETATM    5  C5  UNL     1     -33.025   5.251   3.069  1.00 20.00     0.085 C 
HETATM    6  C6  UNL     1     -34.956   6.656   2.854  1.00 20.00     0.043 C 
HETATM    7  C7  UNL     1     -33.430   6.740   2.991  1.00 20.00    -0.002 C 
HETATM    8  C8  UNL     1     -35.292   5.691   3.999  1.00 20.00     0.115 C 
HETATM    9  O9  UNL     1     -34.276   3.475   4.138  1.00 20.00    -0.295 OA
HETATM   10 CL10 UNL     1     -36.905   5.023   3.877  1.00 20.00    -0.106 Cl
ENDROOT
TORSDOF 0
