REMARK  4 active torsions:
REMARK  status: ('A' for Active; 'I' for Inactive)
REMARK    1  A    between atoms: C1_1  and  C3_3 
REMARK    2  A    between atoms: C2_2  and  C7_7 
REMARK    3  A    between atoms: C2_2  and  C8_8 
REMARK    4  A    between atoms: C3_3  and  C9_9 
ROOT
HETATM    1  C1  UNL     1     -32.931   6.720   2.939  1.00 20.00     0.164 C 
HETATM    2  C2  UNL     1     -34.044   6.494   3.661  1.00 20.00    -0.038 C 
HETATM    3  F11 UNL     1     -32.481   5.765   2.092  1.00 20.00    -0.202 F 
ENDROOT
BRANCH   1   4
HETATM    4  C3  UNL     1     -32.087   7.951   2.932  1.00 20.00     0.187 C 
HETATM    5  O10 UNL     1     -31.514   8.354   3.940  1.00 20.00    -0.290 OA
BRANCH   4   6
HETATM    6  C9  UNL     1     -31.956   8.653   1.591  1.00 20.00     0.082 C 
HETATM    7  C6  UNL     1     -32.499  10.072   1.623  1.00 20.00     0.013 C 
ENDBRANCH   4   6
ENDBRANCH   1   4
BRANCH   2   8
HETATM    8  C7  UNL     1     -34.861   5.220   3.626  1.00 20.00     0.033 C 
HETATM    9  C4  UNL     1     -34.388   4.205   4.656  1.00 20.00     0.010 C 
ENDBRANCH   2   8
BRANCH   2  10
HETATM   10  C8  UNL     1     -34.557   7.566   4.604  1.00 20.00     0.033 C 
HETATM   11  C5  UNL     1     -33.971   7.436   6.004  1.00 20.00     0.010 C 
ENDBRANCH   2  10
TORSDOF 4
