REMARK  1 active torsions:
REMARK  status: ('A' for Active; 'I' for Inactive)
REMARK    1  A    between atoms: C8_8  and  C11_11 
ROOT
HETATM    1  C1  UNL     1     -33.040   8.641   1.972  1.00 20.00    -0.079 C 
HETATM    2  C2  UNL     1     -34.966   6.115   3.150  1.00 20.00     0.132 C 
HETATM    3  C3  UNL     1     -32.207   9.312   1.178  1.00 20.00     0.015 C 
HETATM    4  C4  UNL     1     -34.534   8.812   2.381  1.00 20.00     0.047 C 
HETATM    5  C5  UNL     1     -33.782   5.147   3.225  1.00 20.00     0.080 C 
HETATM    6  C6  UNL     1     -32.620   5.952   2.538  1.00 20.00     0.022 C 
HETATM    7  C7  UNL     1     -34.444   7.294   2.343  1.00 20.00     0.072 C 
HETATM    8  C8  UNL     1     -32.933   7.416   2.861  1.00 20.00    -0.004 C 
HETATM    9  O12 UNL     1     -36.065   5.921   3.644  1.00 20.00    -0.298 OA
ENDROOT
BRANCH   8  10
HETATM   10  C11 UNL     1     -32.551   7.766   4.306  1.00 20.00    -0.009 C 
HETATM   11  C9  UNL     1     -32.345   9.270   4.449  1.00 20.00     0.011 C 
HETATM   12  C10 UNL     1     -33.621   7.270   5.271  1.00 20.00     0.011 C 
ENDBRANCH   8  10
TORSDOF 1
