REMARK  0 active torsions:
REMARK  status: ('A' for Active; 'I' for Inactive)
ROOT
HETATM    1  C1  UNL     1     -33.929   6.915   5.201  1.00 20.00     0.154 C 
HETATM    2  C2  UNL     1     -34.791   5.703   5.475  1.00 20.00     0.081 C 
HETATM    3  C3  UNL     1     -34.237   4.458   4.790  1.00 20.00     0.018 C 
HETATM    4  C4  UNL     1     -33.523   4.699   3.462  1.00 20.00     0.076 C 
HETATM    5  C5  UNL     1     -33.850   7.418   3.772  1.00 20.00     0.212 C 
HETATM    6  O6  UNL     1     -33.379   7.503   6.134  1.00 20.00    -0.295 OA
HETATM    7  S7  UNL     1     -34.205   6.116   2.559  1.00 20.00    -0.141 SA
HETATM    8 CL8  UNL     1     -32.231   8.099   3.490  1.00 20.00    -0.105 Cl
ENDROOT
TORSDOF 0
