REMARK  1 active torsions:
REMARK  status: ('A' for Active; 'I' for Inactive)
REMARK    1  A    between atoms: C7_7  and  C10_10 
ROOT
HETATM    1  C1  UNL     1     -34.217   4.602   2.839  1.00 20.00    -0.017 C 
HETATM    2  C2  UNL     1     -33.058   5.035   3.372  1.00 20.00    -0.019 C 
HETATM    3  C3  UNL     1     -35.788   5.158   4.761  1.00 20.00     0.135 C 
HETATM    4  C4  UNL     1     -34.868   5.297   5.954  1.00 20.00     0.080 C 
HETATM    5  C5  UNL     1     -33.828   6.338   5.511  1.00 20.00     0.022 C 
HETATM    6  C6  UNL     1     -35.042   5.690   3.499  1.00 20.00     0.090 C 
HETATM    7  C7  UNL     1     -33.689   6.285   3.976  1.00 20.00    -0.006 C 
HETATM    8  O11 UNL     1     -36.905   4.657   4.829  1.00 20.00    -0.297 OA
ENDROOT
BRANCH   7   9
HETATM    9  C10 UNL     1     -33.234   7.599   3.361  1.00 20.00    -0.009 C 
HETATM   10  C8  UNL     1     -32.029   8.163   4.115  1.00 20.00     0.011 C 
HETATM   11  C9  UNL     1     -32.897   7.418   1.880  1.00 20.00     0.011 C 
ENDBRANCH   7   9
TORSDOF 1
