REMARK  1 active torsions:
REMARK  status: ('A' for Active; 'I' for Inactive)
REMARK    1  A    between atoms: C7_7  and  C10_10 
ROOT
HETATM    1  C1  UNL     1     -34.398   5.698   5.682  1.00 20.00     0.003 C 
HETATM    2  C2  UNL     1     -33.836   6.902   5.568  1.00 20.00     0.004 C 
HETATM    3  C3  UNL     1     -33.670   4.467   3.634  1.00 20.00     0.036 C 
HETATM    4  C4  UNL     1     -32.735   5.385   2.824  1.00 20.00     0.010 C 
HETATM    5  C5  UNL     1     -34.803   5.245   4.317  1.00 20.00     0.145 C 
HETATM    6  C6  UNL     1     -33.849   7.291   4.123  1.00 20.00     0.149 C 
HETATM    7  C7  UNL     1     -32.567   6.813   3.405  1.00 20.00     0.022 C 
HETATM    8  O11 UNL     1     -34.953   6.501   3.615  1.00 20.00    -0.373 OA
ENDROOT
BRANCH   7   9
HETATM    9  C10 UNL     1     -32.189   7.783   2.282  1.00 20.00    -0.016 C 
HETATM   10  C8  UNL     1     -33.424   8.162   1.470  1.00 20.00     0.010 C 
HETATM   11  C9  UNL     1     -31.517   9.025   2.856  1.00 20.00     0.010 C 
ENDBRANCH   7   9
TORSDOF 1
