REMARK  1 active torsions:
REMARK  status: ('A' for Active; 'I' for Inactive)
REMARK    1  A    between atoms: C4_4  and  C7_7 
ROOT
HETATM    1  C1  UNL     1     -32.826   8.753   0.471  1.00 20.00     0.075 C 
HETATM    2  C2  UNL     1     -31.604   8.585   2.606  1.00 20.00     0.105 C 
HETATM    3  C3  UNL     1     -32.939   8.422   1.895  1.00 20.00     0.164 C 
HETATM    4  C4  UNL     1     -32.981   6.604   3.898  1.00 20.00     0.113 C 
HETATM    5  N8  UNL     1     -32.735   9.014  -0.656  1.00 20.00    -0.196 NA
HETATM    6  S9  UNL     1     -31.744   7.889   4.278  1.00 20.00    -0.151 SA
HETATM    7  S10 UNL     1     -33.431   6.692   2.138  1.00 20.00    -0.133 SA
ENDROOT
BRANCH   4   8
HETATM    8  C7  UNL     1     -34.216   6.810   4.764  1.00 20.00     0.001 C 
HETATM    9  C5  UNL     1     -35.262   5.731   4.479  1.00 20.00     0.011 C 
HETATM   10  C6  UNL     1     -33.843   6.813   6.246  1.00 20.00     0.011 C 
ENDBRANCH   4   8
TORSDOF 1
