REMARK  0 active torsions:
REMARK  status: ('A' for Active; 'I' for Inactive)
ROOT
HETATM    1  C1  UNL     1     -32.530   7.986   1.615  1.00 20.00     0.100 C 
HETATM    2  C2  UNL     1     -33.625   6.186   2.828  1.00 20.00     0.067 A 
HETATM    3  C3  UNL     1     -33.043   7.448   2.838  1.00 20.00     0.056 A 
HETATM    4  C4  UNL     1     -32.970   8.164   4.028  1.00 20.00    -0.001 A 
HETATM    5  C5  UNL     1     -34.115   5.687   4.024  1.00 20.00     0.129 A 
HETATM    6  C6  UNL     1     -33.490   7.578   5.171  1.00 20.00     0.135 A 
HETATM    7  C7  UNL     1     -32.350   9.523   4.071  1.00 20.00     0.053 C 
HETATM    8  N8  UNL     1     -32.114   8.422   0.623  1.00 20.00    -0.191 NA
HETATM    9  N9  UNL     1     -34.062   6.353   5.200  1.00 20.00    -0.224 NA
HETATM   10 CL10 UNL     1     -34.850   4.139   4.107  1.00 20.00    -0.062 Cl
HETATM   11 CL11 UNL     1     -33.462   8.358   6.704  1.00 20.00    -0.062 Cl
ENDROOT
TORSDOF 0
