REMARK  0 active torsions:
REMARK  status: ('A' for Active; 'I' for Inactive)
ROOT
HETATM    1  C1  UNL     1     -32.411   7.430   3.738  1.00 20.00     0.051 C 
HETATM    2  C2  UNL     1     -31.968   8.168   2.537  1.00 20.00     0.058 C 
HETATM    3  C3  UNL     1     -33.190   7.828   1.650  1.00 20.00     0.007 C 
HETATM    4  C4  UNL     1     -33.854   3.945   3.559  1.00 20.00     0.004 C 
HETATM    5  C5  UNL     1     -34.444   4.761   4.742  1.00 20.00     0.036 C 
HETATM    6  C6  UNL     1     -34.143   6.943   2.509  1.00 20.00     0.018 C 
HETATM    7  C7  UNL     1     -32.787   4.859   2.882  1.00 20.00     0.018 C 
HETATM    8  C8  UNL     1     -33.401   5.836   4.875  1.00 20.00     0.169 C 
HETATM    9  C9  UNL     1     -33.169   6.206   3.435  1.00 20.00     0.031 C 
HETATM   10  N10 UNL     1     -32.594   7.930   4.923  1.00 20.00    -0.142 NA
HETATM   11  O11 UNL     1     -33.562   7.059   5.549  1.00 20.00    -0.250 OA
ENDROOT
TORSDOF 0
