REMARK  1 active torsions:
REMARK  status: ('A' for Active; 'I' for Inactive)
REMARK    1  A    between atoms: C3_3  and  C9_9 
ROOT
HETATM    1  C1  UNL     1     -33.870   7.647   4.024  1.00 20.00     0.069 C 
HETATM    2  C2  UNL     1     -34.305   6.208   3.777  1.00 20.00     0.069 C 
HETATM    3  C3  UNL     1     -32.596   7.754   3.198  1.00 20.00     0.076 C 
HETATM    4  C4  UNL     1     -34.721   5.516   5.075  1.00 20.00     0.042 C 
HETATM    5  C5  UNL     1     -35.423   6.086   2.741  1.00 20.00     0.042 C 
HETATM    6  C6  UNL     1     -31.478   8.449   3.977  1.00 20.00     0.043 C 
HETATM    7  N10 UNL     1     -33.096   5.541   3.259  1.00 20.00    -0.187 NA
HETATM    8  N11 UNL     1     -32.194   6.357   2.952  1.00 20.00    -0.186 NA
ENDROOT
BRANCH   3   9
HETATM    9  C9  UNL     1     -32.805   8.455   1.855  1.00 20.00     0.009 C 
HETATM   10  C7  UNL     1     -33.354   9.863   2.066  1.00 20.00     0.012 C 
HETATM   11  C8  UNL     1     -31.500   8.498   1.065  1.00 20.00     0.012 C 
ENDBRANCH   3   9
TORSDOF 1
