REMARK  0 active torsions:
REMARK  status: ('A' for Active; 'I' for Inactive)
ROOT
HETATM    1  C1  UNL     1     -32.929   7.784   1.871  1.00 20.00     0.001 C 
HETATM    2  C2  UNL     1     -34.283   7.203   1.470  1.00 20.00     0.001 C 
HETATM    3  C3  UNL     1     -34.178   3.990   4.810  1.00 20.00     0.004 C 
HETATM    4  C4  UNL     1     -34.494   4.776   6.080  1.00 20.00     0.034 C 
HETATM    5  C5  UNL     1     -32.301   6.770   2.822  1.00 20.00     0.012 C 
HETATM    6  C6  UNL     1     -34.463   5.921   2.284  1.00 20.00     0.012 C 
HETATM    7  C7  UNL     1     -33.064   4.659   4.004  1.00 20.00     0.012 C 
HETATM    8  C8  UNL     1     -34.639   6.241   5.827  1.00 20.00     0.152 A 
HETATM    9  C9  UNL     1     -34.112   6.886   4.569  1.00 20.00     0.159 A 
HETATM   10  C10 UNL     1     -33.490   6.045   3.473  1.00 20.00    -0.012 C 
HETATM   11  O11 UNL     1     -33.380   6.940   5.798  1.00 20.00    -0.375 OA
ENDROOT
TORSDOF 0
