REMARK  2 active torsions:
REMARK  status: ('A' for Active; 'I' for Inactive)
REMARK    1  A    between atoms: C3_3  and  C9_9 
REMARK    2  A    between atoms: C3_3  and  S10_10 
ROOT
HETATM    1  C1  UNL     1     -33.531   8.140   4.348  1.00 20.00     0.010 A 
HETATM    2  C2  UNL     1     -32.578   8.211   3.164  1.00 20.00    -0.025 A 
HETATM    3  C3  UNL     1     -33.570   7.031   3.301  1.00 20.00     0.019 A 
HETATM    4  C4  UNL     1     -33.072   7.927   5.751  1.00 20.00     0.012 C 
HETATM    5  C5  UNL     1     -32.836   9.317   2.158  1.00 20.00     0.017 C 
HETATM    6  C6  UNL     1     -31.097   7.968   3.349  1.00 20.00     0.017 C 
ENDROOT
BRANCH   3   7
HETATM    7  C9  UNL     1     -33.075   5.643   3.639  1.00 20.00    -0.003 C 
HETATM    8  C7  UNL     1     -34.198   4.784   4.229  1.00 20.00     0.011 C 
HETATM    9  C8  UNL     1     -32.480   4.953   2.406  1.00 20.00     0.011 C 
ENDBRANCH   3   7
BRANCH   3  10
HETATM   10  S10 UNL     1     -35.002   6.958   2.250  1.00 20.00    -0.171 SA
HETATM   11  H28 UNL     1     -34.635   5.890   1.520  1.00 20.00     0.102 HD
ENDBRANCH   3  10
TORSDOF 2
