REMARK  1 active torsions:
REMARK  status: ('A' for Active; 'I' for Inactive)
REMARK    1  A    between atoms: C9_9  and  C12_12 
ROOT
HETATM    1  C1  UNL     1     -35.389   6.296   2.370  1.00 20.00     0.012 C 
HETATM    2  C2  UNL     1     -35.723   5.852   3.584  1.00 20.00     0.052 C 
HETATM    3  C3  UNL     1     -31.859   8.304   3.265  1.00 20.00    -0.025 C 
HETATM    4  C4  UNL     1     -32.350   7.352   4.077  1.00 20.00    -0.008 C 
HETATM    5  C5  UNL     1     -33.557   7.717   1.494  1.00 20.00    -0.014 C 
HETATM    6  C6  UNL     1     -34.037   6.786   2.330  1.00 20.00    -0.041 C 
HETATM    7  C7  UNL     1     -34.502   6.003   4.409  1.00 20.00     0.166 C 
HETATM    8  C8  UNL     1     -32.275   8.442   1.817  1.00 20.00     0.054 C 
HETATM    9  C9  UNL     1     -33.287   6.307   3.551  1.00 20.00     0.071 C 
HETATM   10  O13 UNL     1     -34.498   5.840   5.621  1.00 20.00    -0.292 OA
ENDROOT
BRANCH   9  11
HETATM   11  C12 UNL     1     -32.530   4.997   3.288  1.00 20.00     0.002 C 
HETATM   12  C10 UNL     1     -33.489   3.924   2.786  1.00 20.00     0.011 C 
HETATM   13  C11 UNL     1     -31.403   5.230   2.288  1.00 20.00     0.011 C 
ENDBRANCH   9  11
TORSDOF 1
