REMARK  1 active torsions:
REMARK  status: ('A' for Active; 'I' for Inactive)
REMARK    1  A    between atoms: C5_5  and  C8_8 
ROOT
HETATM    1  C1  UNL     1     -32.217   8.362   3.228  1.00 20.00     0.006 A 
HETATM    2  C2  UNL     1     -32.862   7.455   3.957  1.00 20.00     0.076 A 
HETATM    3  C3  UNL     1     -33.412   6.467   3.022  1.00 20.00     0.171 A 
HETATM    4  C4  UNL     1     -33.040   6.801   1.603  1.00 20.00     0.093 A 
HETATM    5  C5  UNL     1     -32.258   8.115   1.747  1.00 20.00     0.020 A 
HETATM    6  O9  UNL     1     -34.074   5.497   3.357  1.00 20.00    -0.291 OA
HETATM    7 CL10 UNL     1     -33.049   7.381   5.629  1.00 20.00    -0.081 Cl
ENDROOT
BRANCH   5   8
HETATM    8  C8  UNL     1     -32.926   9.267   1.005  1.00 20.00    -0.015 C 
HETATM    9  C6  UNL     1     -32.186  10.578   1.268  1.00 20.00     0.010 C 
HETATM   10  C7  UNL     1     -32.989   8.979  -0.494  1.00 20.00     0.010 C 
ENDBRANCH   5   8
TORSDOF 1
