REMARK  1 active torsions:
REMARK  status: ('A' for Active; 'I' for Inactive)
REMARK    1  A    between atoms: C1_1  and  C10_10 
ROOT
HETATM    1  C1  UNL     1     -33.333   6.695   3.992  1.00 20.00     0.025 C 
HETATM    2  C2  UNL     1     -32.628   7.278   3.030  1.00 20.00    -0.038 C 
HETATM    3  C3  UNL     1     -33.105   7.537   5.183  1.00 20.00     0.290 C 
HETATM    4  C4  UNL     1     -32.689   7.227   1.546  1.00 20.00     0.038 C 
HETATM    5  C5  UNL     1     -32.277   8.663   1.171  1.00 20.00     0.007 C 
HETATM    6  C6  UNL     1     -32.299   9.471   2.479  1.00 20.00     0.037 C 
HETATM    7  C7  UNL     1     -31.878   8.447   3.514  1.00 20.00     0.162 C 
HETATM    8  O11 UNL     1     -33.559   7.322   6.294  1.00 20.00    -0.260 OA
HETATM    9  O12 UNL     1     -32.358   8.636   4.832  1.00 20.00    -0.308 OA
ENDROOT
BRANCH   1  10
HETATM   10  C10 UNL     1     -34.318   5.595   3.944  1.00 20.00     0.017 C 
HETATM   11  C8  UNL     1     -33.696   4.325   3.352  1.00 20.00     0.015 C 
HETATM   12  C9  UNL     1     -34.899   5.299   5.333  1.00 20.00     0.015 C 
ENDBRANCH   1  10
TORSDOF 1
