REMARK  1 active torsions:
REMARK  status: ('A' for Active; 'I' for Inactive)
REMARK    1  A    between atoms: C2_2  and  C9_9 
ROOT
HETATM    1  C1  UNL     1     -32.958   7.828   4.515  1.00 20.00     0.057 A 
HETATM    2  C2  UNL     1     -32.740   8.005   3.209  1.00 20.00    -0.069 A 
HETATM    3  C3  UNL     1     -33.633   6.530   4.637  1.00 20.00     0.189 A 
HETATM    4  C4  UNL     1     -33.204   6.881   2.328  1.00 20.00     0.086 A 
HETATM    5  C5  UNL     1     -33.870   5.897   3.291  1.00 20.00     0.167 A 
HETATM    6  C6  UNL     1     -33.299   4.493   3.213  1.00 20.00     0.061 C 
HETATM    7  O10 UNL     1     -33.983   6.061   5.710  1.00 20.00    -0.290 OA
HETATM    8  F11 UNL     1     -35.202   5.841   3.021  1.00 20.00    -0.234 F 
ENDROOT
BRANCH   2   9
HETATM    9  C9  UNL     1     -32.077   9.193   2.602  1.00 20.00     0.006 C 
HETATM   10  C7  UNL     1     -30.799   8.783   1.872  1.00 20.00     0.014 C 
HETATM   11  C8  UNL     1     -33.026   9.928   1.653  1.00 20.00     0.014 C 
ENDBRANCH   2   9
TORSDOF 1
