REMARK  0 active torsions:
REMARK  status: ('A' for Active; 'I' for Inactive)
ROOT
HETATM    1  C1  UNL     1     -33.513   6.949   5.280  1.00 20.00     0.136 C 
HETATM    2  C2  UNL     1     -32.346   7.659   4.646  1.00 20.00     0.080 C 
HETATM    3  C3  UNL     1     -31.974   6.712   3.511  1.00 20.00     0.017 C 
HETATM    4  C4  UNL     1     -33.443   3.661   3.586  1.00 20.00     0.002 C 
HETATM    5  C5  UNL     1     -33.576   4.473   4.866  1.00 20.00     0.018 C 
HETATM    6  C6  UNL     1     -33.078   4.655   2.482  1.00 20.00     0.010 C 
HETATM    7  C7  UNL     1     -34.070   5.845   4.394  1.00 20.00     0.024 C 
HETATM    8  C8  UNL     1     -33.306   6.066   3.061  1.00 20.00    -0.029 C 
HETATM    9  C9  UNL     1     -35.591   5.910   4.307  1.00 20.00     0.024 C 
HETATM   10  C10 UNL     1     -34.007   6.973   2.042  1.00 20.00     0.016 C 
HETATM   11  O11 UNL     1     -33.961   7.242   6.382  1.00 20.00    -0.297 OA
ENDROOT
TORSDOF 0
