REMARK  0 active torsions:
REMARK  status: ('A' for Active; 'I' for Inactive)
ROOT
HETATM    1  C1  UNL     1     -32.366   7.668   3.727  1.00 20.00     0.145 C 
HETATM    2  C2  UNL     1     -33.434   6.944   4.518  1.00 20.00     0.089 C 
HETATM    3  C3  UNL     1     -34.643   4.152   4.644  1.00 20.00     0.002 C 
HETATM    4  C4  UNL     1     -35.329   5.254   3.814  1.00 20.00     0.010 C 
HETATM    5  C5  UNL     1     -33.358   4.427   3.837  1.00 20.00     0.010 C 
HETATM    6  C6  UNL     1     -33.627   6.406   2.156  1.00 20.00     0.037 C 
HETATM    7  C7  UNL     1     -32.288   7.136   2.315  1.00 20.00     0.152 C 
HETATM    8  C8  UNL     1     -33.920   5.855   3.554  1.00 20.00    -0.032 C 
HETATM    9  O9  UNL     1     -31.658   8.552   4.190  1.00 20.00    -0.296 OA
HETATM   10 CL10 UNL     1     -32.107   8.457   1.166  1.00 20.00    -0.117 Cl
ENDROOT
TORSDOF 0
