REMARK  2 active torsions:
REMARK  status: ('A' for Active; 'I' for Inactive)
REMARK    1  A    between atoms: C5_5  and  C6_6 
REMARK    2  A    between atoms: C6_6  and  C7_7 
ROOT
HETATM    1  C1  UNL     1     -35.880   5.878   3.609  1.00 20.00     0.068 C 
HETATM    2  C3  UNL     1     -33.683   4.767   3.676  1.00 20.00     0.031 C 
HETATM    3  C4  UNL     1     -34.313   6.463   5.401  1.00 20.00     0.031 C 
HETATM    4  C7  UNL     1     -34.444   6.080   3.914  1.00 20.00     0.042 C 
HETATM    5  N8  UNL     1     -37.004   5.719   3.370  1.00 20.00    -0.196 NA
ENDROOT
BRANCH   4   6
HETATM    6  C6  UNL     1     -33.872   7.239   3.057  1.00 20.00     0.023 C 
BRANCH   6   7
HETATM    7  C5  UNL     1     -32.401   7.588   3.323  1.00 20.00    -0.003 C 
HETATM    8  C2  UNL     1     -31.957   8.777   2.482  1.00 20.00     0.005 C 
ENDBRANCH   6   7
ENDBRANCH   4   6
TORSDOF 2
