REMARK  1 active torsions:
REMARK  status: ('A' for Active; 'I' for Inactive)
REMARK    1  A    between atoms: C5_5  and  C10_10 
ROOT
HETATM    1  C6  UNL     1     -34.222   4.846   4.807  1.00 20.00     0.005 C 
HETATM    2  C7  UNL     1     -34.226   6.300   5.303  1.00 20.00     0.005 C 
HETATM    3  C8  UNL     1     -33.091   5.526   2.670  1.00 20.00     0.014 C 
HETATM    4  C9  UNL     1     -35.296   6.226   3.193  1.00 20.00     0.010 C 
HETATM    5  C10 UNL     1     -32.992   6.965   3.231  1.00 20.00     0.023 C 
HETATM    6  C11 UNL     1     -34.398   4.997   3.287  1.00 20.00    -0.013 C 
HETATM    7  C12 UNL     1     -34.334   7.110   3.995  1.00 20.00    -0.006 C 
ENDROOT
BRANCH   5   8
HETATM    8  C5  UNL     1     -32.702   7.986   2.144  1.00 20.00    -0.051 A 
HETATM    9  C1  UNL     1     -31.555   7.871   1.366  1.00 20.00     0.026 A 
HETATM   10  C3  UNL     1     -31.337   8.827   0.387  1.00 20.00     0.116 A 
HETATM   11  N13 UNL     1     -32.169   9.864   0.143  1.00 20.00    -0.273 NA
HETATM   12  C4  UNL     1     -33.273   9.944   0.920  1.00 20.00     0.116 A 
HETATM   13  C2  UNL     1     -33.582   9.040   1.923  1.00 20.00     0.026 A 
ENDBRANCH   5   8
TORSDOF 1
