REMARK  2 active torsions:
REMARK  status: ('A' for Active; 'I' for Inactive)
REMARK    1  A    between atoms: C2_2  and  C5_5 
REMARK    2  A    between atoms: C3_3  and  C6_6 
ROOT
HETATM    1  C1  UNL     1     -32.384   7.938   4.411  1.00 20.00     0.204 C 
HETATM    2  C2  UNL     1     -32.759   6.770   3.532  1.00 20.00     0.162 C 
HETATM    3  C3  UNL     1     -31.660   8.307   2.296  1.00 20.00     0.260 C 
HETATM    4  O7  UNL     1     -31.353   8.590   3.668  1.00 20.00    -0.359 OA
HETATM    5  O8  UNL     1     -32.712   7.336   2.220  1.00 20.00    -0.353 OA
ENDROOT
BRANCH   2   6
HETATM    6  C5  UNL     1     -34.131   6.199   3.819  1.00 20.00     0.148 C 
HETATM    7 CL9  UNL     1     -34.225   5.612   5.493  1.00 20.00    -0.128 Cl
ENDBRANCH   2   6
BRANCH   3   8
HETATM    8  C6  UNL     1     -32.096   9.577   1.591  1.00 20.00     0.056 C 
HETATM    9  C4  UNL     1     -32.418   9.338   0.148  1.00 20.00     0.010 C 
ENDBRANCH   3   8
TORSDOF 2
