REMARK  1 active torsions:
REMARK  status: ('A' for Active; 'I' for Inactive)
REMARK    1  A    between atoms: C2_2  and  C7_7 
ROOT
HETATM    1  C3  UNL     1     -33.970   5.315   3.253  1.00 20.00     0.034 C 
HETATM    2  C4  UNL     1     -33.497   6.930   5.112  1.00 20.00     0.034 C 
HETATM    3  C5  UNL     1     -34.890   4.578   4.220  1.00 20.00     0.168 C 
HETATM    4  C6  UNL     1     -34.443   6.106   5.977  1.00 20.00     0.168 C 
HETATM    5  C7  UNL     1     -33.862   6.785   3.640  1.00 20.00     0.011 C 
HETATM    6  O8  UNL     1     -34.441   4.739   5.567  1.00 20.00    -0.391 OA
ENDROOT
BRANCH   5   7
HETATM    7  C2  UNL     1     -32.759   7.414   2.812  1.00 20.00    -0.032 C 
HETATM    8  C1  UNL     1     -32.945   8.437   1.971  1.00 20.00     0.007 C 
ENDBRANCH   5   7
TORSDOF 1
