REMARK  2 active torsions:
REMARK  status: ('A' for Active; 'I' for Inactive)
REMARK    1  A    between atoms: C1_1  and  C5_5 
REMARK    2  A    between atoms: C5_5  and  C6_6 
ROOT
HETATM    1  C2  UNL     1     -35.342   6.213   3.237  1.00 20.00     0.019 C 
HETATM    2  C5  UNL     1     -34.286   7.142   3.840  1.00 20.00     0.071 C 
ENDROOT
BRANCH   2   3
HETATM    3  C1  UNL     1     -34.049   6.682   5.279  1.00 20.00     0.223 C 
HETATM    4  O7  UNL     1     -33.773   7.473   6.178  1.00 20.00    -0.279 OA
HETATM    5 CL8  UNL     1     -34.188   4.956   5.465  1.00 20.00    -0.043 Cl
ENDBRANCH   2   3
BRANCH   2   6
HETATM    6  C6  UNL     1     -32.954   7.154   3.047  1.00 20.00    -0.011 C 
HETATM    7  C3  UNL     1     -32.545   5.755   2.575  1.00 20.00     0.010 C 
HETATM    8  C4  UNL     1     -33.049   8.082   1.829  1.00 20.00     0.010 C 
ENDBRANCH   2   6
TORSDOF 2
