REMARK  3 active torsions:
REMARK  status: ('A' for Active; 'I' for Inactive)
REMARK    1  A    between atoms: C1_1  and  C3_3 
REMARK    2  A    between atoms: C2_2  and  C3_3 
REMARK    3  A    between atoms: C2_2  and  S6_6 
ROOT
HETATM    1  C3  UNL     1     -34.061   6.448   3.593  1.00 20.00     0.192 C 
HETATM    2 CL7  UNL     1     -33.469   5.126   2.529  1.00 20.00    -0.113 Cl
ENDROOT
BRANCH   1   3
HETATM    3  C1  UNL     1     -34.369   5.770   4.937  1.00 20.00     0.192 C 
HETATM    4  O4  UNL     1     -34.348   6.547   5.935  1.00 20.00    -0.647 OA
HETATM    5  O5  UNL     1     -34.603   4.530   4.894  1.00 20.00    -0.647 OA
ENDBRANCH   1   3
BRANCH   1   6
HETATM    6  C2  UNL     1     -33.018   7.559   3.606  1.00 20.00     0.102 C 
BRANCH   6   7
HETATM    7  S6  UNL     1     -32.793   8.274   1.947  1.00 20.00    -0.180 SA
HETATM    8  H11 UNL     1     -31.861   9.166   2.307  1.00 20.00     0.101 HD
ENDBRANCH   6   7
ENDBRANCH   1   6
TORSDOF 3
