REMARK  1 active torsions:
REMARK  status: ('A' for Active; 'I' for Inactive)
REMARK    1  A    between atoms: C1_1  and  C5_5 
ROOT
HETATM    1  C2  UNL     1     -33.756   6.549   5.827  1.00 20.00     0.006 C 
HETATM    2  C3  UNL     1     -34.975   6.834   4.933  1.00 20.00     0.011 C 
HETATM    3  C4  UNL     1     -32.233   7.355   4.045  1.00 20.00     0.017 C 
HETATM    4  C5  UNL     1     -33.461   7.694   3.173  1.00 20.00     0.056 C 
HETATM    5  C6  UNL     1     -32.686   6.090   4.812  1.00 20.00    -0.005 C 
HETATM    6  C7  UNL     1     -34.441   6.520   3.500  1.00 20.00    -0.027 C 
HETATM    7  C8  UNL     1     -33.502   5.299   3.759  1.00 20.00    -0.036 C 
HETATM    8  C9  UNL     1     -35.573   6.321   2.508  1.00 20.00     0.016 C 
HETATM    9  C10 UNL     1     -34.207   4.043   4.318  1.00 20.00     0.016 C 
HETATM   10  C11 UNL     1     -32.660   4.803   2.568  1.00 20.00     0.016 C 
ENDROOT
BRANCH   4  11
HETATM   11  C1  UNL     1     -33.096   7.886   1.731  1.00 20.00     0.236 C 
HETATM   12  O12 UNL     1     -31.998   8.288   1.360  1.00 20.00    -0.306 OA
ENDBRANCH   4  11
TORSDOF 1
