REMARK  2 active torsions:
REMARK  status: ('A' for Active; 'I' for Inactive)
REMARK    1  A    between atoms: C6_6  and  C9_9 
REMARK    2  A    between atoms: C6_6  and  C10_10 
ROOT
HETATM    1  C1  UNL     1     -32.417   5.192   2.747  1.00 20.00     0.047 C 
HETATM    2  C2  UNL     1     -31.770   6.313   2.407  1.00 20.00    -0.014 C 
HETATM    3  C3  UNL     1     -33.704   5.261   3.479  1.00 20.00     0.149 C 
HETATM    4  C4  UNL     1     -34.223   6.617   3.901  1.00 20.00     0.084 C 
HETATM    5  C5  UNL     1     -33.803   7.699   2.914  1.00 20.00     0.021 C 
HETATM    6  C6  UNL     1     -32.279   7.717   2.658  1.00 20.00    -0.023 C 
HETATM    7  O11 UNL     1     -34.290   4.223   3.780  1.00 20.00    -0.293 OA
ENDROOT
BRANCH   6   8
HETATM    8  C9  UNL     1     -31.527   8.311   3.861  1.00 20.00     0.009 C 
HETATM    9  C7  UNL     1     -30.061   8.369   3.607  1.00 20.00     0.006 C 
ENDBRANCH   6   8
BRANCH   6  10
HETATM   10  C10 UNL     1     -32.002   8.591   1.421  1.00 20.00     0.009 C 
HETATM   11  C8  UNL     1     -32.488   9.984   1.624  1.00 20.00     0.006 C 
ENDBRANCH   6  10
TORSDOF 2
