REMARK  3 active torsions:
REMARK  status: ('A' for Active; 'I' for Inactive)
REMARK    1  A    between atoms: C1_1  and  C5_5 
REMARK    2  A    between atoms: C2_2  and  C6_6 
REMARK    3  A    between atoms: C6_6  and  O7_7 
ROOT
HETATM    1  C3  UNL     1     -34.298   5.884   5.956  1.00 20.00     0.060 C 
HETATM    2  C4  UNL     1     -34.138   4.234   4.070  1.00 20.00     0.060 C 
HETATM    3  C6  UNL     1     -34.586   5.637   4.475  1.00 20.00     0.114 C 
ENDROOT
BRANCH   3   4
HETATM    4  C2  UNL     1     -33.916   6.648   3.640  1.00 20.00    -0.068 C 
HETATM    5  C1  UNL     1     -33.368   7.475   2.962  1.00 20.00    -0.088 C 
BRANCH   5   6
HETATM    6  C5  UNL     1     -32.706   8.479   2.134  1.00 20.00     0.208 C 
HETATM    7 CL8  UNL     1     -31.217   9.002   2.944  1.00 20.00    -0.117 Cl
ENDBRANCH   5   6
ENDBRANCH   3   4
BRANCH   3   8
HETATM    8  O7  UNL     1     -35.998   5.710   4.269  1.00 20.00    -0.378 OA
HETATM    9  H17 UNL     1     -36.392   5.030   4.835  1.00 20.00     0.211 HD
ENDBRANCH   3   8
TORSDOF 3
