REMARK  2 active torsions:
REMARK  status: ('A' for Active; 'I' for Inactive)
REMARK    1  A    between atoms: C5_5  and  O8_8 
REMARK    2  A    between atoms: C6_6  and  O8_8 
ROOT
HETATM    1  C1  UNL     1     -33.886   5.845   4.700  1.00 20.00     0.097 C 
HETATM    2  C3  UNL     1     -32.774   5.241   2.588  1.00 20.00     0.062 C 
HETATM    3  C4  UNL     1     -35.009   6.398   2.580  1.00 20.00     0.062 C 
HETATM    4  C6  UNL     1     -33.670   6.253   3.302  1.00 20.00     0.141 C 
HETATM    5  N7  UNL     1     -34.057   5.525   5.802  1.00 20.00    -0.194 NA
ENDROOT
BRANCH   4   6
HETATM    6  O8  UNL     1     -33.014   7.521   3.295  1.00 20.00    -0.367 OA
BRANCH   6   7
HETATM    7  C5  UNL     1     -32.776   7.970   1.970  1.00 20.00     0.165 C 
HETATM    8  C2  UNL     1     -32.081   9.314   2.023  1.00 20.00     0.033 C 
ENDBRANCH   6   7
ENDBRANCH   4   6
TORSDOF 2
