REMARK  0 active torsions:
REMARK  status: ('A' for Active; 'I' for Inactive)
ROOT
HETATM    1  C1  UNL     1     -33.945   6.426   3.802  1.00 20.00     0.148 A 
HETATM    2  C2  UNL     1     -34.431   5.812   6.031  1.00 20.00     0.148 A 
HETATM    3  C3  UNL     1     -33.805   5.178   3.342  1.00 20.00     0.074 A 
HETATM    4  C4  UNL     1     -34.347   4.492   5.833  1.00 20.00     0.074 A 
HETATM    5  O5  UNL     1     -34.246   6.792   5.089  1.00 20.00    -0.334 OA
HETATM    6  S6  UNL     1     -33.981   3.759   4.311  1.00 20.00    -0.110 SA
ENDROOT
TORSDOF 0
