REMARK  0 active torsions:
REMARK  status: ('A' for Active; 'I' for Inactive)
ROOT
HETATM    1  C1  UNL     1     -33.862   5.676   1.743  1.00 20.00     0.017 A 
HETATM    2  C2  UNL     1     -33.442   6.789   1.016  1.00 20.00     0.025 A 
HETATM    3  C3  UNL     1     -32.770   7.926   3.064  1.00 20.00     0.032 A 
HETATM    4  C4  UNL     1     -33.721   5.725   3.118  1.00 20.00     0.016 A 
HETATM    5  C5  UNL     1     -33.191   6.821   3.789  1.00 20.00    -0.038 A 
HETATM    6  C6  UNL     1     -32.899   7.906   1.671  1.00 20.00     0.034 A 
HETATM    7  C7  UNL     1     -34.065   4.709   4.098  1.00 20.00     0.160 A 
HETATM    8  C8  UNL     1     -33.697   5.194   5.479  1.00 20.00     0.093 A 
HETATM    9  C9  UNL     1     -33.147   6.627   5.279  1.00 20.00     0.023 A 
HETATM   10  C10 UNL     1     -33.978   7.663   6.028  1.00 20.00     0.015 C 
HETATM   11  O11 UNL     1     -34.564   3.633   3.823  1.00 20.00    -0.292 OA
HETATM   12 CL12 UNL     1     -32.385   9.268   0.749  1.00 20.00    -0.084 Cl
ENDROOT
TORSDOF 0
