REMARK  0 active torsions:
REMARK  status: ('A' for Active; 'I' for Inactive)
ROOT
HETATM    1  C1  UNL     1     -32.472   7.679   3.796  1.00 20.00     0.066 C 
HETATM    2  C2  UNL     1     -34.236   4.824   5.186  1.00 20.00     0.034 C 
HETATM    3  C3  UNL     1     -34.542   6.291   5.490  1.00 20.00     0.036 C 
HETATM    4  C4  UNL     1     -33.283   5.461   2.949  1.00 20.00     0.053 C 
HETATM    5  C5  UNL     1     -33.590   6.943   3.203  1.00 20.00     0.124 C 
HETATM    6  C6  UNL     1     -34.438   4.766   3.674  1.00 20.00     0.123 C 
HETATM    7  C7  UNL     1     -34.832   6.856   4.098  1.00 20.00     0.139 C 
HETATM    8  N8  UNL     1     -31.587   8.262   4.267  1.00 20.00    -0.197 NA
HETATM    9  O9  UNL     1     -35.508   5.723   3.494  1.00 20.00    -0.379 OA
ENDROOT
TORSDOF 0
