REMARK  1 active torsions:
REMARK  status: ('A' for Active; 'I' for Inactive)
REMARK    1  A    between atoms: C1_1  and  C6_6 
ROOT
HETATM    1  C2  UNL     1     -33.397   4.285   3.371  1.00 20.00     0.005 C 
HETATM    2  C3  UNL     1     -33.119   5.480   2.448  1.00 20.00     0.006 C 
HETATM    3  C4  UNL     1     -33.957   5.836   5.254  1.00 20.00     0.016 C 
HETATM    4  C5  UNL     1     -35.320   5.687   3.303  1.00 20.00     0.010 C 
HETATM    5  C6  UNL     1     -33.700   7.056   4.359  1.00 20.00     0.051 C 
HETATM    6  C7  UNL     1     -34.533   4.801   4.269  1.00 20.00    -0.013 C 
HETATM    7  C8  UNL     1     -34.103   6.550   2.961  1.00 20.00    -0.003 C 
ENDROOT
BRANCH   5   8
HETATM    8  C1  UNL     1     -32.296   7.565   4.437  1.00 20.00     0.236 C 
HETATM    9  O9  UNL     1     -31.720   8.108   3.499  1.00 20.00    -0.306 OA
ENDBRANCH   5   8
TORSDOF 1
