REMARK  3 active torsions:
REMARK  status: ('A' for Active; 'I' for Inactive)
REMARK    1  A    between atoms: C1_1  and  C4_4 
REMARK    2  A    between atoms: C4_4  and  C5_5 
REMARK    3  A    between atoms: C5_5  and  C6_6 
ROOT
HETATM    1  C5  UNL     1     -33.065   6.532   2.734  1.00 20.00     0.035 C 
ENDROOT
BRANCH   1   2
HETATM    2  C4  UNL     1     -33.130   8.061   2.709  1.00 20.00     0.115 C 
BRANCH   2   3
HETATM    3  C1  UNL     1     -32.334   8.724   1.578  1.00 20.00     0.172 C 
HETATM    4  O7  UNL     1     -31.283   8.137   1.204  1.00 20.00    -0.648 OA
HETATM    5  O8  UNL     1     -32.843   9.802   1.154  1.00 20.00    -0.648 OA
ENDBRANCH   2   3
ENDBRANCH   1   2
BRANCH   1   6
HETATM    6  C6  UNL     1     -33.796   5.846   3.913  1.00 20.00     0.030 C 
HETATM    7  C2  UNL     1     -35.298   6.149   3.822  1.00 20.00     0.032 C 
HETATM    8  C3  UNL     1     -33.582   4.329   3.926  1.00 20.00     0.032 C 
HETATM    9 CL9  UNL     1     -33.200   6.514   5.476  1.00 20.00    -0.120 Cl
ENDBRANCH   1   6
TORSDOF 3
