REMARK  1 active torsions:
REMARK  status: ('A' for Active; 'I' for Inactive)
REMARK    1  A    between atoms: C3_3  and  C5_5 
ROOT
HETATM    1  C1  UNL     1     -32.675   5.639   2.763  1.00 20.00    -0.015 C 
HETATM    2  C2  UNL     1     -33.429   5.163   3.758  1.00 20.00    -0.021 C 
HETATM    3  C4  UNL     1     -33.988   7.457   3.526  1.00 20.00     0.032 C 
HETATM    4  C5  UNL     1     -33.063   7.027   2.385  1.00 20.00     0.110 C 
HETATM    5  C6  UNL     1     -34.459   6.156   4.219  1.00 20.00    -0.029 C 
HETATM    6  C7  UNL     1     -35.854   5.739   3.739  1.00 20.00     0.019 C 
HETATM    7  C8  UNL     1     -34.449   6.307   5.742  1.00 20.00     0.019 C 
ENDROOT
BRANCH   4   8
HETATM    8  C3  UNL     1     -31.816   7.879   2.362  1.00 20.00     0.180 C 
HETATM    9  O9  UNL     1     -31.157   7.900   3.438  1.00 20.00    -0.647 OA
HETATM   10  O10 UNL     1     -31.594   8.462   1.263  1.00 20.00    -0.647 OA
ENDBRANCH   4   8
TORSDOF 1
