REMARK  0 active torsions:
REMARK  status: ('A' for Active; 'I' for Inactive)
ROOT
HETATM    1  C1  UNL     1     -34.125   7.295   4.416  1.00 20.00     0.050 C 
HETATM    2  C2  UNL     1     -33.765   5.835   2.341  1.00 20.00     0.050 C 
HETATM    3  C3  UNL     1     -32.638   8.174   2.472  1.00 20.00     0.207 A 
HETATM    4  C4  UNL     1     -34.074   6.113   5.376  1.00 20.00     0.077 C 
HETATM    5  C5  UNL     1     -33.688   4.542   3.145  1.00 20.00     0.077 C 
HETATM    6  C6  UNL     1     -33.358   7.032   3.151  1.00 20.00     0.084 A 
HETATM    7  O7  UNL     1     -31.939   7.209   3.273  1.00 20.00    -0.375 OA
HETATM    8  S8  UNL     1     -34.756   4.605   4.618  1.00 20.00    -0.169 SA
ENDROOT
TORSDOF 0
