REMARK  0 active torsions:
REMARK  status: ('A' for Active; 'I' for Inactive)
ROOT
HETATM    1  C1  UNL     1     -33.843   6.434   5.310  1.00 20.00     0.080 C 
HETATM    2  C2  UNL     1     -35.690   5.617   3.891  1.00 20.00     0.043 C 
HETATM    3  C3  UNL     1     -34.106   4.000   4.996  1.00 20.00     0.043 C 
HETATM    4  C4  UNL     1     -34.258   5.383   4.368  1.00 20.00     0.099 C 
HETATM    5  N5  UNL     1     -33.518   7.262   6.055  1.00 20.00    -0.196 NA
HETATM    6 BR6  UNL     1     -33.081   5.456   2.787  1.00 20.00    -0.070 Br
ENDROOT
TORSDOF 0
