REMARK  2 active torsions:
REMARK  status: ('A' for Active; 'I' for Inactive)
REMARK    1  A    between atoms: C2_2  and  C3_3 
REMARK    2  A    between atoms: C3_3  and  C4_4 
ROOT
HETATM    1  C3  UNL     1     -33.484   6.798   4.537  1.00 20.00     0.254 C 
HETATM    2  O5  UNL     1     -33.679   7.113   5.707  1.00 20.00    -0.283 OA
ENDROOT
BRANCH   1   3
HETATM    3  C2  UNL     1     -32.428   7.436   3.707  1.00 20.00     0.049 C 
HETATM    4  C1  UNL     1     -32.741   8.091   2.586  1.00 20.00     0.015 C 
ENDBRANCH   1   3
BRANCH   1   5
HETATM    5  C4  UNL     1     -34.305   5.739   3.859  1.00 20.00     0.455 C 
HETATM    6  F6  UNL     1     -33.925   5.549   2.571  1.00 20.00    -0.163 F 
HETATM    7  F7  UNL     1     -34.200   4.538   4.484  1.00 20.00    -0.163 F 
HETATM    8  F8  UNL     1     -35.625   6.054   3.836  1.00 20.00    -0.163 F 
ENDBRANCH   1   5
TORSDOF 2
