REMARK  0 active torsions:
REMARK  status: ('A' for Active; 'I' for Inactive)
ROOT
HETATM    1  C1  UNL     1     -35.983   5.875   3.564  1.00 20.00     0.064 C 
HETATM    2  C2  UNL     1     -33.204   7.197   3.072  1.00 20.00     0.128 C 
HETATM    3  C3  UNL     1     -32.898   7.747   4.446  1.00 20.00     0.078 C 
HETATM    4  C4  UNL     1     -33.578   5.731   3.000  1.00 20.00     0.097 C 
HETATM    5  C5  UNL     1     -34.014   7.400   5.420  1.00 20.00     0.009 C 
HETATM    6  C6  UNL     1     -34.330   5.903   5.414  1.00 20.00     0.020 C 
HETATM    7  C7  UNL     1     -34.668   5.376   4.012  1.00 20.00     0.100 C 
HETATM    8  N8  UNL     1     -37.017   6.267   3.211  1.00 20.00    -0.197 NA
HETATM    9  O9  UNL     1     -33.057   7.877   2.057  1.00 20.00    -0.298 OA
ENDROOT
TORSDOF 0
