REMARK  0 active torsions:
REMARK  status: ('A' for Active; 'I' for Inactive)
ROOT
HETATM    1  C1  UNL     1     -32.878   8.760   2.381  1.00 20.00     0.069 C 
HETATM    2  C2  UNL     1     -34.724   5.521   5.349  1.00 20.00     0.000 C 
HETATM    3  C3  UNL     1     -34.711   4.924   3.947  1.00 20.00     0.000 C 
HETATM    4  C4  UNL     1     -33.834   6.734   5.593  1.00 20.00     0.002 C 
HETATM    5  C5  UNL     1     -33.362   4.970   3.238  1.00 20.00     0.002 C 
HETATM    6  C6  UNL     1     -33.832   7.781   4.476  1.00 20.00     0.024 C 
HETATM    7  C7  UNL     1     -33.142   6.281   2.477  1.00 20.00     0.024 C 
HETATM    8  C8  UNL     1     -32.829   7.536   3.322  1.00 20.00     0.045 C 
HETATM    9  C9  UNL     1     -31.447   7.446   3.853  1.00 20.00     0.031 C 
HETATM   10  N10 UNL     1     -32.914   9.680   1.674  1.00 20.00    -0.196 NA
ENDROOT
TORSDOF 0
