REMARK  2 active torsions:
REMARK  status: ('A' for Active; 'I' for Inactive)
REMARK    1  A    between atoms: C2_2  and  C6_6 
REMARK    2  A    between atoms: C6_6  and  N7_7 
ROOT
HETATM    1  C3  UNL     1     -34.918   6.117   4.539  1.00 20.00     0.060 C 
HETATM    2  C4  UNL     1     -33.990   6.384   3.338  1.00 20.00     0.274 C 
HETATM    3  C5  UNL     1     -33.982   7.082   5.294  1.00 20.00     0.274 C 
HETATM    4  N7  UNL     1     -33.649   7.682   3.976  1.00 20.00     0.093 N 
ENDROOT
BRANCH   4   5
HETATM    5  C6  UNL     1     -32.217   7.942   3.878  1.00 20.00     0.317 C 
BRANCH   5   6
HETATM    6  C2  UNL     1     -31.816   8.474   2.530  1.00 20.00     0.007 C 
HETATM    7  C1  UNL     1     -32.646   9.171   1.741  1.00 20.00     0.029 C 
HETATM    8 BR8  UNL     1     -30.035   8.167   2.036  1.00 20.00    -0.055 Br
ENDBRANCH   5   6
ENDBRANCH   4   5
TORSDOF 2
