REMARK  4 active torsions:
REMARK  status: ('A' for Active; 'I' for Inactive)
REMARK    1  A    between atoms: C2_2  and  C3_3 
REMARK    2  A    between atoms: C2_2  and  C4_4 
REMARK    3  A    between atoms: C3_3  and  C5_5 
REMARK    4  A    between atoms: C4_4  and  S6_6 
ROOT
HETATM    1  C2  UNL     1     -32.870   6.722   2.804  1.00 20.00     0.011 C 
ENDROOT
BRANCH   1   2
HETATM    2  C3  UNL     1     -32.987   7.769   1.690  1.00 20.00     0.016 C 
BRANCH   2   3
HETATM    3  C5  UNL     1     -31.982   8.909   1.824  1.00 20.00     0.114 C 
HETATM    4 CL7  UNL     1     -32.165  10.117   0.532  1.00 20.00    -0.130 Cl
ENDBRANCH   2   3
ENDBRANCH   1   2
BRANCH   1   5
HETATM    5  C4  UNL     1     -33.951   5.654   2.659  1.00 20.00     0.073 C 
BRANCH   5   6
HETATM    6  S6  UNL     1     -33.815   4.420   3.984  1.00 20.00    -0.173 SA
HETATM    7  C1  UNL     1     -34.591   5.372   5.310  1.00 20.00     0.089 C 
ENDBRANCH   5   6
ENDBRANCH   1   5
TORSDOF 4
