REMARK  2 active torsions:
REMARK  status: ('A' for Active; 'I' for Inactive)
REMARK    1  A    between atoms: C1_1  and  C6_6 
REMARK    2  A    between atoms: C6_6  and  N7_7 
ROOT
HETATM    1  C3  UNL     1     -34.691   5.790   5.126  1.00 20.00     0.060 C 
HETATM    2  C4  UNL     1     -34.766   5.575   3.602  1.00 20.00     0.274 C 
HETATM    3  C5  UNL     1     -33.635   6.858   4.780  1.00 20.00     0.274 C 
HETATM    4  N7  UNL     1     -34.286   6.973   3.449  1.00 20.00     0.091 N 
ENDROOT
BRANCH   4   5
HETATM    5  C6  UNL     1     -33.284   7.060   2.394  1.00 20.00     0.300 C 
BRANCH   5   6
HETATM    6  C1  UNL     1     -32.785   8.463   2.221  1.00 20.00     0.010 C 
HETATM    7  C2  UNL     1     -32.943   9.167   1.095  1.00 20.00     0.053 C 
HETATM    8 BR8  UNL     1     -32.346  10.907   0.858  1.00 20.00    -0.064 Br
ENDBRANCH   5   6
ENDBRANCH   4   5
TORSDOF 2
