REMARK  3 active torsions:
REMARK  status: ('A' for Active; 'I' for Inactive)
REMARK    1  A    between atoms: C1_1  and  C2_2 
REMARK    2  A    between atoms: C1_1  and  O10_10 
REMARK    3  A    between atoms: C3_3  and  C7_7 
ROOT
HETATM    1  C2  UNL     1     -32.893   8.018   3.286  1.00 20.00     0.256 A 
HETATM    2  C3  UNL     1     -32.244   7.828   1.930  1.00 20.00     0.093 A 
HETATM    3  C4  UNL     1     -32.384   6.542   1.177  1.00 20.00     0.049 C 
HETATM    4  O9  UNL     1     -31.497   7.706   3.147  1.00 20.00    -0.359 OA
ENDROOT
BRANCH   1   5
HETATM    5  C1  UNL     1     -33.668   6.954   3.926  1.00 20.00     0.290 C 
HETATM    6  O8  UNL     1     -34.370   6.157   3.318  1.00 20.00    -0.262 OA
BRANCH   5   7
HETATM    7  O10 UNL     1     -33.480   7.002   5.275  1.00 20.00    -0.324 OA
HETATM    8  C6  UNL     1     -34.185   6.010   6.029  1.00 20.00     0.213 C 
ENDBRANCH   5   7
ENDBRANCH   1   5
BRANCH   2   9
HETATM    9  C7  UNL     1     -31.892   9.039   1.125  1.00 20.00     0.036 C 
HETATM   10  C5  UNL     1     -33.050   9.559   0.316  1.00 20.00     0.008 C 
ENDBRANCH   2   9
TORSDOF 3
