REMARK  0 active torsions:
REMARK  status: ('A' for Active; 'I' for Inactive)
ROOT
HETATM    1  C1  UNL     1     -33.842   7.753   4.487  1.00 20.00    -0.023 C 
HETATM    2  C2  UNL     1     -33.834   6.570   5.118  1.00 20.00    -0.014 C 
HETATM    3  C3  UNL     1     -33.374   5.370   2.933  1.00 20.00     0.144 C 
HETATM    4  C4  UNL     1     -33.891   7.907   3.034  1.00 20.00     0.028 A 
HETATM    5  C5  UNL     1     -33.691   6.644   2.231  1.00 20.00     0.073 A 
HETATM    6  C6  UNL     1     -33.815   5.235   4.403  1.00 20.00     0.031 C 
HETATM    7  C7  UNL     1     -32.667   7.765   2.150  1.00 20.00    -0.029 A 
HETATM    8  C8  UNL     1     -32.825   4.307   5.124  1.00 20.00     0.027 C 
HETATM    9  C9  UNL     1     -35.218   4.617   4.426  1.00 20.00     0.027 C 
HETATM   10  C10 UNL     1     -32.643   8.581   0.879  1.00 20.00     0.016 C 
HETATM   11  C11 UNL     1     -31.298   7.589   2.762  1.00 20.00     0.016 C 
HETATM   12  O12 UNL     1     -32.839   4.463   2.303  1.00 20.00    -0.296 OA
ENDROOT
TORSDOF 0
