REMARK  2 active torsions:
REMARK  status: ('A' for Active; 'I' for Inactive)
REMARK    1  A    between atoms: C3_3  and  C5_5 
REMARK    2  A    between atoms: C4_4  and  C5_5 
ROOT
HETATM    1  C1  UNL     1     -32.183  10.386   1.066  1.00 20.00     0.012 C 
HETATM    2  C2  UNL     1     -32.451   9.269   1.417  1.00 20.00    -0.117 C 
HETATM    3  C4  UNL     1     -32.777   7.900   1.844  1.00 20.00     0.101 C 
ENDROOT
BRANCH   3   4
HETATM    4  C5  UNL     1     -33.281   7.858   3.286  1.00 20.00     0.108 C 
BRANCH   4   5
HETATM    5  C3  UNL     1     -33.648   6.459   3.760  1.00 20.00     0.219 C 
HETATM    6  O6  UNL     1     -33.550   5.464   3.050  1.00 20.00    -0.280 OA
HETATM    7 CL7  UNL     1     -34.243   6.476   5.398  1.00 20.00    -0.044 Cl
ENDBRANCH   4   5
ENDBRANCH   3   4
TORSDOF 2
