REMARK  0 active torsions:
REMARK  status: ('A' for Active; 'I' for Inactive)
ROOT
HETATM    1  C1  UNL     1     -33.704   6.871   4.778  1.00 20.00    -0.032 A 
HETATM    2  C2  UNL     1     -34.239   5.648   4.750  1.00 20.00     0.056 A 
HETATM    3  C3  UNL     1     -33.480   7.232   3.348  1.00 20.00     0.157 A 
HETATM    4  C4  UNL     1     -33.386   7.780   5.905  1.00 20.00     0.048 C 
HETATM    5  C5  UNL     1     -34.675   4.794   5.887  1.00 20.00     0.072 C 
HETATM    6  C6  UNL     1     -32.021   7.463   2.984  1.00 20.00     0.041 C 
HETATM    7  N7  UNL     1     -34.383   5.170   3.469  1.00 20.00    -0.160 NA
HETATM    8  N8  UNL     1     -33.971   6.022   2.633  1.00 20.00    -0.183 NA
ENDROOT
TORSDOF 0
