REMARK  2 active torsions:
REMARK  status: ('A' for Active; 'I' for Inactive)
REMARK    1  A    between atoms: C5_5  and  C6_6 
REMARK    2  A    between atoms: C6_6  and  N7_7 
ROOT
HETATM    1  C1  UNL     1     -32.598   8.391   1.820  1.00 20.00     0.012 C 
HETATM    2  C2  UNL     1     -32.995   7.394   2.358  1.00 20.00    -0.115 C 
HETATM    3  C5  UNL     1     -33.478   6.168   3.013  1.00 20.00     0.128 C 
ENDROOT
BRANCH   3   4
HETATM    4  C6  UNL     1     -34.714   6.427   3.887  1.00 20.00     0.227 C 
HETATM    5  C3  UNL     1     -34.347   6.995   5.259  1.00 20.00     0.043 C 
BRANCH   4   6
HETATM    6  N7  UNL     1     -35.432   5.165   4.083  1.00 20.00     0.084 N 
HETATM    7  C4  UNL     1     -34.599   4.204   4.786  1.00 20.00     0.307 C 
HETATM    8  H18 UNL     1     -36.273   5.349   4.625  1.00 20.00     0.315 HD
ENDBRANCH   4   6
ENDBRANCH   3   4
TORSDOF 2
