REMARK  1 active torsions:
REMARK  status: ('A' for Active; 'I' for Inactive)
REMARK    1  A    between atoms: C3_3  and  C7_7 
ROOT
HETATM    1  C1  UNL     1     -33.626   7.555   5.111  1.00 20.00     0.220 A 
HETATM    2  C2  UNL     1     -33.867   8.222   3.746  1.00 20.00     0.128 A 
HETATM    3  C3  UNL     1     -32.355   8.555   3.776  1.00 20.00     0.100 A 
HETATM    4  N8  UNL     1     -32.303   7.865   5.060  1.00 20.00    -0.355 N 
HETATM    5  O9  UNL     1     -34.297   6.976   5.934  1.00 20.00    -0.274 OA
HETATM    6  H22 UNL     1     -31.563   7.681   5.723  1.00 20.00     0.162 HD
ENDROOT
BRANCH   3   7
HETATM    7  C7  UNL     1     -31.464   7.869   2.732  1.00 20.00    -0.030 C 
HETATM    8  C4  UNL     1     -29.991   8.011   3.142  1.00 20.00     0.016 C 
HETATM    9  C5  UNL     1     -31.680   8.528   1.362  1.00 20.00     0.016 C 
HETATM   10  C6  UNL     1     -31.829   6.380   2.647  1.00 20.00     0.016 C 
ENDBRANCH   3   7
TORSDOF 1
