REMARK  3 active torsions:
REMARK  status: ('A' for Active; 'I' for Inactive)
REMARK    1  A    between atoms: C2_2  and  C3_3 
REMARK    2  A    between atoms: C3_3  and  C4_4 
REMARK    3  A    between atoms: C3_3  and  O5_5 
ROOT
HETATM    1  C3  UNL     1     -33.592   7.017   4.083  1.00 20.00     0.362 C 
HETATM    2  F8  UNL     1     -34.325   8.149   3.903  1.00 20.00    -0.195 F 
ENDROOT
BRANCH   1   3
HETATM    3  C2  UNL     1     -33.755   6.537   5.517  1.00 20.00     0.429 C 
HETATM    4  F6  UNL     1     -34.836   5.725   5.619  1.00 20.00    -0.208 F 
HETATM    5  F7  UNL     1     -33.997   7.589   6.338  1.00 20.00    -0.208 F 
ENDBRANCH   1   3
BRANCH   1   6
HETATM    6  C4  UNL     1     -34.092   5.983   3.092  1.00 20.00     0.455 C 
HETATM    7  F9  UNL     1     -35.402   5.711   3.281  1.00 20.00    -0.165 F 
HETATM    8  F10 UNL     1     -33.414   4.821   3.223  1.00 20.00    -0.165 F 
HETATM    9  F11 UNL     1     -33.940   6.406   1.819  1.00 20.00    -0.165 F 
ENDBRANCH   1   6
BRANCH   1  10
HETATM   10  O5  UNL     1     -32.234   7.296   3.737  1.00 20.00    -0.345 OA
HETATM   11  C1  UNL     1     -32.063   8.143   2.611  1.00 20.00     0.206 C 
ENDBRANCH   1  10
TORSDOF 3
