REMARK  0 active torsions:
REMARK  status: ('A' for Active; 'I' for Inactive)
ROOT
HETATM    1  C1  UNL     1     -33.633   5.204   2.459  1.00 20.00    -0.008 C 
HETATM    2  C2  UNL     1     -34.072   5.209   3.714  1.00 20.00    -0.037 C 
HETATM    3  C3  UNL     1     -33.868   6.442   4.488  1.00 20.00     0.044 C 
HETATM    4  C4  UNL     1     -33.095   7.681   2.714  1.00 20.00     0.246 C 
HETATM    5  C5  UNL     1     -33.022   6.420   1.849  1.00 20.00     0.133 C 
HETATM    6  C6  UNL     1     -34.666   4.176   4.600  1.00 20.00     0.040 C 
HETATM    7  C7  UNL     1     -34.269   6.218   5.914  1.00 20.00     0.060 C 
HETATM    8  C8  UNL     1     -34.286   4.687   5.995  1.00 20.00     0.011 C 
HETATM    9  N9  UNL     1     -33.426   7.570   4.051  1.00 20.00    -0.218 NA
HETATM   10  O10 UNL     1     -32.815   8.766   2.200  1.00 20.00    -0.271 OA
ENDROOT
TORSDOF 0
