REMARK  2 active torsions:
REMARK  status: ('A' for Active; 'I' for Inactive)
REMARK    1  A    between atoms: C1_1  and  C7_7 
REMARK    2  A    between atoms: C7_7  and  C10_10 
ROOT
HETATM    1  C2  UNL     1     -32.807   9.971   0.086  1.00 20.00     0.000 C 
HETATM    2  C3  UNL     1     -31.888   8.771  -0.109  1.00 20.00     0.001 C 
HETATM    3  C4  UNL     1     -32.861  10.402   1.548  1.00 20.00     0.001 C 
HETATM    4  C5  UNL     1     -32.288   7.600   0.790  1.00 20.00     0.021 C 
HETATM    5  C6  UNL     1     -33.271   9.248   2.463  1.00 20.00     0.021 C 
HETATM    6  C7  UNL     1     -32.411   7.997   2.263  1.00 20.00     0.051 C 
ENDROOT
BRANCH   6   7
HETATM    7  C1  UNL     1     -31.019   8.235   2.846  1.00 20.00     0.182 C 
HETATM    8  O11 UNL     1     -30.994   8.570   4.063  1.00 20.00    -0.647 OA
HETATM    9  O12 UNL     1     -30.068   8.066   2.033  1.00 20.00    -0.647 OA
ENDBRANCH   6   7
BRANCH   6  10
HETATM   10  C10 UNL     1     -32.931   6.831   3.105  1.00 20.00    -0.004 C 
HETATM   11  C8  UNL     1     -33.633   7.350   4.356  1.00 20.00     0.011 C 
HETATM   12  C9  UNL     1     -33.870   5.957   2.281  1.00 20.00     0.011 C 
ENDBRANCH   6  10
TORSDOF 2
