REMARK  0 active torsions:
REMARK  status: ('A' for Active; 'I' for Inactive)
ROOT
HETATM    1  C1  UNL     1     -34.339   5.262   5.609  1.00 20.00     0.158 C 
HETATM    2  C2  UNL     1     -33.975   6.517   5.353  1.00 20.00     0.277 C 
HETATM    3  F3  UNL     1     -33.959   7.423   6.354  1.00 20.00    -0.172 F 
HETATM    4  F4  UNL     1     -33.623   6.895   4.106  1.00 20.00    -0.172 F 
HETATM    5 CL5  UNL     1     -34.396   4.032   4.420  1.00 20.00    -0.091 Cl
ENDROOT
TORSDOF 0
