REMARK  2 active torsions:
REMARK  status: ('A' for Active; 'I' for Inactive)
REMARK    1  A    between atoms: C3_3  and  C8_8 
REMARK    2  A    between atoms: C7_7  and  C8_8 
ROOT
HETATM    1  C1  UNL     1     -33.150   8.180   5.050  1.00 20.00     0.018 A 
HETATM    2  C2  UNL     1     -34.041   7.249   5.658  1.00 20.00     0.032 A 
HETATM    3  C3  UNL     1     -32.670   7.723   3.842  1.00 20.00    -0.001 A 
HETATM    4  C4  UNL     1     -34.208   6.116   4.891  1.00 20.00     0.075 A 
HETATM    5  S9  UNL     1     -33.293   6.178   3.445  1.00 20.00    -0.081 SA
HETATM    6 CL10 UNL     1     -35.182   4.749   5.236  1.00 20.00    -0.076 Cl
ENDROOT
BRANCH   3   7
HETATM    7  C8  UNL     1     -31.711   8.405   2.892  1.00 20.00     0.102 C 
HETATM    8 BR11 UNL     1     -30.042   7.381   2.818  1.00 20.00    -0.085 Br
BRANCH   7   9
HETATM    9  C7  UNL     1     -32.261   8.588   1.520  1.00 20.00     0.005 A 
HETATM   10  C5  UNL     1     -33.121   9.779   1.200  1.00 20.00     0.006 A 
HETATM   11  C6  UNL     1     -31.733   9.680   0.632  1.00 20.00     0.006 A 
ENDBRANCH   7   9
ENDBRANCH   3   7
TORSDOF 2
