REMARK  2 active torsions:
REMARK  status: ('A' for Active; 'I' for Inactive)
REMARK    1  A    between atoms: C4_4  and  C10_10 
REMARK    2  A    between atoms: C7_7  and  C10_10 
ROOT
HETATM    1  C1  UNL     1     -31.682   8.399   1.785  1.00 20.00     0.015 A 
HETATM    2  C2  UNL     1     -32.037   7.791   3.024  1.00 20.00     0.017 A 
HETATM    3  C3  UNL     1     -32.762   8.994   1.172  1.00 20.00    -0.021 A 
HETATM    4  C4  UNL     1     -33.376   7.946   3.310  1.00 20.00    -0.002 A 
HETATM    5  C8  UNL     1     -32.804   9.722  -0.115  1.00 20.00     0.056 C 
HETATM    6  S11 UNL     1     -34.198   8.820   2.088  1.00 20.00    -0.099 SA
ENDROOT
BRANCH   4   7
HETATM    7  C10 UNL     1     -34.144   7.454   4.517  1.00 20.00     0.102 C 
HETATM    8 BR12 UNL     1     -32.998   7.589   6.101  1.00 20.00    -0.085 Br
BRANCH   7   9
HETATM    9  C7  UNL     1     -34.663   6.066   4.365  1.00 20.00     0.009 A 
HETATM   10  C5  UNL     1     -34.731   5.428   3.003  1.00 20.00     0.011 A 
HETATM   11  C6  UNL     1     -33.724   4.942   4.012  1.00 20.00    -0.013 A 
HETATM   12  C9  UNL     1     -33.887   3.605   4.647  1.00 20.00     0.010 C 
ENDBRANCH   7   9
ENDBRANCH   4   7
TORSDOF 2
