REMARK  2 active torsions:
REMARK  status: ('A' for Active; 'I' for Inactive)
REMARK    1  A    between atoms: C4_4  and  C10_10 
REMARK    2  A    between atoms: C7_7  and  C10_10 
ROOT
HETATM    1  C1  UNL     1     -32.815  10.638   0.418  1.00 20.00     0.015 A 
HETATM    2  C2  UNL     1     -32.442   9.996   1.634  1.00 20.00     0.017 A 
HETATM    3  C3  UNL     1     -33.440   9.773  -0.453  1.00 20.00    -0.021 A 
HETATM    4  C4  UNL     1     -32.797   8.665   1.646  1.00 20.00     0.002 A 
HETATM    5  C8  UNL     1     -33.972  10.053  -1.805  1.00 20.00     0.056 C 
HETATM    6  S11 UNL     1     -33.576   8.195   0.196  1.00 20.00    -0.098 SA
ENDROOT
BRANCH   4   7
HETATM    7  C10 UNL     1     -32.581   7.635   2.751  1.00 20.00     0.126 C 
HETATM    8 CL12 UNL     1     -31.554   8.384   4.028  1.00 20.00    -0.119 Cl
BRANCH   7   9
HETATM    9  C7  UNL     1     -33.827   7.067   3.335  1.00 20.00     0.013 A 
HETATM   10  C5  UNL     1     -34.521   5.912   2.661  1.00 20.00     0.011 A 
HETATM   11  C6  UNL     1     -33.810   5.701   3.972  1.00 20.00    -0.012 A 
HETATM   12  C9  UNL     1     -34.591   5.446   5.214  1.00 20.00     0.010 C 
ENDBRANCH   7   9
ENDBRANCH   4   7
TORSDOF 2
