REMARK  2 active torsions:
REMARK  status: ('A' for Active; 'I' for Inactive)
REMARK    1  A    between atoms: C4_4  and  C9_9 
REMARK    2  A    between atoms: C7_7  and  C9_9 
ROOT
HETATM    1  C1  UNL     1     -33.772   5.213   3.513  1.00 20.00     0.015 A 
HETATM    2  C2  UNL     1     -33.035   6.175   2.763  1.00 20.00     0.017 A 
HETATM    3  C3  UNL     1     -33.914   5.584   4.832  1.00 20.00    -0.021 A 
HETATM    4  C4  UNL     1     -32.642   7.244   3.538  1.00 20.00    -0.002 A 
HETATM    5  C8  UNL     1     -34.606   4.862   5.922  1.00 20.00     0.056 C 
HETATM    6  S10 UNL     1     -33.160   7.086   5.162  1.00 20.00    -0.099 SA
ENDROOT
BRANCH   4   7
HETATM    7  C9  UNL     1     -31.851   8.465   3.125  1.00 20.00     0.102 C 
HETATM    8 BR11 UNL     1     -30.036   7.918   2.630  1.00 20.00    -0.085 Br
BRANCH   7   9
HETATM    9  C7  UNL     1     -32.477   9.232   2.012  1.00 20.00     0.005 A 
HETATM   10  C5  UNL     1     -31.631  10.098   1.119  1.00 20.00     0.006 A 
HETATM   11  C6  UNL     1     -32.232   8.828   0.584  1.00 20.00     0.006 A 
ENDBRANCH   7   9
ENDBRANCH   4   7
TORSDOF 2
