REMARK  2 active torsions:
REMARK  status: ('A' for Active; 'I' for Inactive)
REMARK    1  A    between atoms: C3_3  and  C8_8 
REMARK    2  A    between atoms: C7_7  and  C8_8 
ROOT
HETATM    1  C1  UNL     1     -33.656   6.070   2.380  1.00 20.00     0.018 A 
HETATM    2  C2  UNL     1     -34.163   5.031   3.213  1.00 20.00     0.032 A 
HETATM    3  C3  UNL     1     -33.315   7.193   3.102  1.00 20.00     0.003 A 
HETATM    4  C4  UNL     1     -34.190   5.399   4.540  1.00 20.00     0.075 A 
HETATM    5  S9  UNL     1     -33.606   6.991   4.778  1.00 20.00    -0.081 SA
HETATM    6 CL10 UNL     1     -34.719   4.468   5.878  1.00 20.00    -0.076 Cl
ENDROOT
BRANCH   3   7
HETATM    7  C8  UNL     1     -32.742   8.512   2.593  1.00 20.00     0.126 C 
HETATM    8 CL11 UNL     1     -31.254   8.883   3.539  1.00 20.00    -0.119 Cl
BRANCH   7   9
HETATM    9  C7  UNL     1     -32.468   8.556   1.130  1.00 20.00     0.009 A 
HETATM   10  C5  UNL     1     -33.566   8.905   0.164  1.00 20.00     0.007 A 
HETATM   11  C6  UNL     1     -32.442   9.873   0.404  1.00 20.00     0.007 A 
ENDBRANCH   7   9
ENDBRANCH   3   7
TORSDOF 2
