REMARK  0 active torsions:
REMARK  status: ('A' for Active; 'I' for Inactive)
ROOT
HETATM    1  C1  UNL     1     -34.323   4.773   5.773  1.00 20.00     0.149 A 
HETATM    2  C2  UNL     1     -34.422   3.945   4.675  1.00 20.00     0.094 A 
HETATM    3  C3  UNL     1     -33.750   6.213   4.221  1.00 20.00     0.145 A 
HETATM    4  N4  UNL     1     -33.937   6.074   5.515  1.00 20.00    -0.244 NA
HETATM    5  S5  UNL     1     -34.021   4.821   3.256  1.00 20.00    -0.049 SA
HETATM    6 CL6  UNL     1     -34.865   2.298   4.603  1.00 20.00    -0.075 Cl
HETATM    7 BR7  UNL     1     -33.207   7.877   3.456  1.00 20.00    -0.021 Br
ENDROOT
TORSDOF 0
