REMARK  2 active torsions:
REMARK  status: ('A' for Active; 'I' for Inactive)
REMARK    1  A    between atoms: C3_3  and  C5_5 
REMARK    2  A    between atoms: C5_5  and  S6_6 
ROOT
HETATM    1  C1  UNL     1     -35.382   5.760   3.863  1.00 20.00     0.010 A 
HETATM    2  C2  UNL     1     -34.468   4.730   4.464  1.00 20.00     0.010 A 
HETATM    3  C3  UNL     1     -33.894   6.016   3.915  1.00 20.00    -0.036 A 
HETATM    4  C4  UNL     1     -33.121   5.950   2.627  1.00 20.00     0.016 C 
ENDROOT
BRANCH   3   5
HETATM    5  C5  UNL     1     -33.388   7.037   4.897  1.00 20.00     0.079 C 
BRANCH   5   6
HETATM    6  S6  UNL     1     -34.273   6.912   6.480  1.00 20.00    -0.181 SA
HETATM    7  H16 UNL     1     -33.613   7.906   7.088  1.00 20.00     0.101 HD
ENDBRANCH   5   6
ENDBRANCH   3   5
TORSDOF 2
