REMARK  1 active torsions:
REMARK  status: ('A' for Active; 'I' for Inactive)
REMARK    1  A    between atoms: C1_1  and  C2_2 
ROOT
HETATM    1  C1  UNL     1     -33.370   6.896   4.333  1.00 20.00     0.384 C 
HETATM    2  F3  UNL     1     -33.313   7.829   3.346  1.00 20.00    -0.181 F 
HETATM    3  F4  UNL     1     -32.081   6.558   4.605  1.00 20.00    -0.181 F 
HETATM    4 CL6  UNL     1     -34.090   7.633   5.780  1.00 20.00    -0.042 Cl
ENDROOT
BRANCH   1   5
HETATM    5  C2  UNL     1     -34.113   5.668   3.820  1.00 20.00     0.336 C 
HETATM    6  F5  UNL     1     -35.368   6.067   3.464  1.00 20.00    -0.199 F 
HETATM    7 CL7  UNL     1     -34.278   4.418   5.080  1.00 20.00    -0.058 Cl
HETATM    8 CL8  UNL     1     -33.333   4.975   2.375  1.00 20.00    -0.058 Cl
ENDBRANCH   1   5
TORSDOF 1
