REMARK  1 active torsions:
REMARK  status: ('A' for Active; 'I' for Inactive)
REMARK    1  A    between atoms: C4_4  and  C7_7 
ROOT
HETATM    1  C1  UNL     1     -32.970   9.254  -0.891  1.00 20.00     0.069 C 
HETATM    2  C6  UNL     1     -32.778  10.926   0.920  1.00 20.00     0.031 C 
HETATM    3  C7  UNL     1     -32.229   9.595   0.356  1.00 20.00     0.128 C 
HETATM    4  N8  UNL     1     -33.551   8.965  -1.852  1.00 20.00    -0.197 NA
ENDROOT
BRANCH   3   5
HETATM    5  C4  UNL     1     -32.233   8.496   1.345  1.00 20.00     0.001 A 
HETATM    6  C2  UNL     1     -31.622   8.450   2.579  1.00 20.00     0.018 A 
HETATM    7  C3  UNL     1     -31.855   7.213   3.246  1.00 20.00     0.032 A 
HETATM    8  C5  UNL     1     -32.637   6.361   2.497  1.00 20.00     0.075 A 
HETATM    9  S9  UNL     1     -33.084   7.052   0.996  1.00 20.00    -0.081 SA
HETATM   10 CL10 UNL     1     -33.161   4.782   2.909  1.00 20.00    -0.076 Cl
ENDBRANCH   3   5
TORSDOF 1
