REMARK  3 active torsions:
REMARK  status: ('A' for Active; 'I' for Inactive)
REMARK    1  A    between atoms: C6_6  and  C8_8 
REMARK    2  A    between atoms: C7_7  and  N10_10 
REMARK    3  A    between atoms: C8_8  and  N10_10 
ROOT
HETATM    1  C1  UNL     1     -30.985   8.221   3.169  1.00 20.00     0.095 C 
HETATM    2  C8  UNL     1     -32.388   7.773   3.010  1.00 20.00     0.330 C 
HETATM    3  N9  UNL     1     -29.879   8.549   3.290  1.00 20.00    -0.195 NA
ENDROOT
BRANCH   2   4
HETATM    4  C6  UNL     1     -33.083   8.480   1.899  1.00 20.00     0.033 A 
HETATM    5  C2  UNL     1     -32.780   9.925   1.614  1.00 20.00     0.008 A 
HETATM    6  C3  UNL     1     -32.330   8.859   0.654  1.00 20.00     0.008 A 
ENDBRANCH   2   4
BRANCH   2   7
HETATM    7  N10 UNL     1     -32.396   6.332   2.820  1.00 20.00     0.106 N 
HETATM    8  H22 UNL     1     -32.164   6.116   1.850  1.00 20.00     0.318 HD
BRANCH   7   9
HETATM    9  C7  UNL     1     -33.703   5.769   3.133  1.00 20.00     0.222 A 
HETATM   10  C4  UNL     1     -33.844   4.308   3.461  1.00 20.00     0.038 A 
HETATM   11  C5  UNL     1     -34.034   5.338   4.536  1.00 20.00     0.038 A 
ENDBRANCH   7   9
ENDBRANCH   2   7
TORSDOF 3
