REMARK  3 active torsions:
REMARK  status: ('A' for Active; 'I' for Inactive)
REMARK    1  A    between atoms: C4_4  and  C7_7 
REMARK    2  A    between atoms: C6_6  and  N9_9 
REMARK    3  A    between atoms: C7_7  and  N9_9 
ROOT
HETATM    1  C1  UNL     1     -32.927   7.226   4.418  1.00 20.00     0.095 C 
HETATM    2  C7  UNL     1     -33.045   6.581   3.090  1.00 20.00     0.330 C 
HETATM    3  N8  UNL     1     -32.840   7.753   5.448  1.00 20.00    -0.195 NA
ENDROOT
BRANCH   2   4
HETATM    4  C4  UNL     1     -34.097   5.526   3.066  1.00 20.00     0.033 A 
HETATM    5  C2  UNL     1     -34.337   4.668   4.278  1.00 20.00     0.008 A 
HETATM    6  C3  UNL     1     -35.356   5.695   3.870  1.00 20.00     0.008 A 
ENDBRANCH   2   4
BRANCH   2   7
HETATM    7  N9  UNL     1     -33.291   7.610   2.095  1.00 20.00     0.101 N 
HETATM    8  H21 UNL     1     -33.697   7.185   1.260  1.00 20.00     0.317 HD
BRANCH   7   9
HETATM    9  C6  UNL     1     -32.056   8.292   1.728  1.00 20.00     0.267 C 
HETATM   10  C5  UNL     1     -32.309   9.359   0.718  1.00 20.00     0.037 C 
ENDBRANCH   7   9
ENDBRANCH   2   7
TORSDOF 3
