REMARK  0 active torsions:
REMARK  status: ('A' for Active; 'I' for Inactive)
ROOT
HETATM    1  C1  UNL     1     -36.247   6.139   3.585  1.00 20.00     0.068 C 
HETATM    2  C2  UNL     1     -32.361   7.979   4.974  1.00 20.00     0.009 A 
HETATM    3  C3  UNL     1     -31.821   8.483   3.789  1.00 20.00     0.024 A 
HETATM    4  C4  UNL     1     -33.292   7.070   2.464  1.00 20.00     0.033 A 
HETATM    5  C5  UNL     1     -33.353   7.017   4.887  1.00 20.00    -0.050 A 
HETATM    6  C6  UNL     1     -33.821   6.570   3.644  1.00 20.00    -0.033 A 
HETATM    7  C7  UNL     1     -32.282   8.031   2.543  1.00 20.00     0.034 A 
HETATM    8  C8  UNL     1     -34.097   6.362   6.006  1.00 20.00     0.041 C 
HETATM    9  C9  UNL     1     -34.714   5.150   5.285  1.00 20.00     0.028 C 
HETATM   10  C10 UNL     1     -34.917   5.557   3.809  1.00 20.00     0.126 C 
HETATM   11  N11 UNL     1     -37.297   6.598   3.408  1.00 20.00    -0.197 NA
HETATM   12 CL12 UNL     1     -31.602   8.675   1.097  1.00 20.00    -0.084 Cl
ENDROOT
TORSDOF 0
