REMARK  2 active torsions:
REMARK  status: ('A' for Active; 'I' for Inactive)
REMARK    1  A    between atoms: C5_5  and  N8_8 
REMARK    2  A    between atoms: C7_7  and  N8_8 
ROOT
HETATM    1  C1  UNL     1     -32.840  10.760   1.381  1.00 20.00     0.013 C 
HETATM    2  C2  UNL     1     -32.778   9.583   1.607  1.00 20.00    -0.087 C 
HETATM    3  C7  UNL     1     -32.701   8.145   1.877  1.00 20.00     0.364 C 
ENDROOT
BRANCH   3   4
HETATM    4  N8  UNL     1     -32.978   7.869   3.286  1.00 20.00     0.099 N 
HETATM    5  C6  UNL     1     -31.810   8.185   4.108  1.00 20.00     0.311 C 
BRANCH   4   6
HETATM    6  C5  UNL     1     -33.367   6.471   3.467  1.00 20.00     0.223 A 
HETATM    7  C3  UNL     1     -34.168   6.052   4.668  1.00 20.00     0.038 A 
HETATM    8  C4  UNL     1     -34.802   6.050   3.308  1.00 20.00     0.038 A 
ENDBRANCH   4   6
ENDBRANCH   3   4
TORSDOF 2
