REMARK  1 active torsions:
REMARK  status: ('A' for Active; 'I' for Inactive)
REMARK    1  A    between atoms: C6_6  and  N8_8 
ROOT
HETATM    1  C1  UNL     1     -32.349   9.503   0.306  1.00 20.00     0.014 C 
HETATM    2  C2  UNL     1     -32.172   9.163   1.444  1.00 20.00    -0.096 C 
HETATM    3  C6  UNL     1     -31.952   8.751   2.833  1.00 20.00     0.243 C 
ENDROOT
BRANCH   3   4
HETATM    4  N8  UNL     1     -32.796   7.642   3.207  1.00 20.00    -0.269 N 
HETATM    5  C4  UNL     1     -33.013   7.180   4.472  1.00 20.00     0.138 A 
HETATM    6  C5  UNL     1     -33.878   6.120   4.341  1.00 20.00     0.070 A 
HETATM    7  C3  UNL     1     -34.117   6.030   2.956  1.00 20.00     0.164 A 
HETATM    8 CL9  UNL     1     -34.525   5.129   5.546  1.00 20.00    -0.081 Cl
HETATM    9  N7  UNL     1     -33.458   6.959   2.258  1.00 20.00    -0.183 NA
ENDBRANCH   3   4
TORSDOF 1
