REMARK  3 active torsions:
REMARK  status: ('A' for Active; 'I' for Inactive)
REMARK    1  A    between atoms: C6_6  and  N11_11 
REMARK    2  A    between atoms: C8_8  and  C9_9 
REMARK    3  A    between atoms: C9_9  and  N11_11 
ROOT
HETATM    1  C1  UNL     1     -32.539   8.957   0.809  1.00 20.00     0.060 C 
HETATM    2  C8  UNL     1     -31.887   8.926   2.127  1.00 20.00     0.153 C 
HETATM    3  N10 UNL     1     -33.051   8.982  -0.232  1.00 20.00    -0.197 NA
ENDROOT
BRANCH   2   4
HETATM    4  C9  UNL     1     -32.643   8.045   3.116  1.00 20.00     0.284 C 
BRANCH   4   5
HETATM    5  N11 UNL     1     -32.714   6.675   2.639  1.00 20.00     0.093 N 
HETATM    6  H27 UNL     1     -31.841   6.195   2.842  1.00 20.00     0.316 HD
BRANCH   5   7
HETATM    7  C6  UNL     1     -33.791   5.966   3.291  1.00 20.00     0.154 C 
HETATM    8  C4  UNL     1     -33.869   6.328   4.779  1.00 20.00     0.041 C 
HETATM    9  C2  UNL     1     -34.568   5.144   5.441  1.00 20.00     0.003 C 
HETATM   10  C3  UNL     1     -34.334   3.944   4.524  1.00 20.00     0.003 C 
HETATM   11  C5  UNL     1     -33.505   4.461   3.351  1.00 20.00     0.041 C 
HETATM   12  C7  UNL     1     -35.106   6.266   2.564  1.00 20.00     0.049 C 
ENDBRANCH   5   7
ENDBRANCH   4   5
ENDBRANCH   2   4
TORSDOF 3
