REMARK  0 active torsions:
REMARK  status: ('A' for Active; 'I' for Inactive)
ROOT
HETATM    1  C1  UNL     1     -32.406   7.606   4.151  1.00 20.00     0.225 C 
HETATM    2  C2  UNL     1     -34.630   5.805   4.805  1.00 20.00     0.021 C 
HETATM    3  C3  UNL     1     -34.610   6.512   3.458  1.00 20.00     0.020 C 
HETATM    4  C4  UNL     1     -34.027   6.714   5.856  1.00 20.00     0.122 C 
HETATM    5  C5  UNL     1     -33.179   6.892   3.031  1.00 20.00     0.034 C 
HETATM    6  C6  UNL     1     -33.260   7.812   1.802  1.00 20.00     0.025 C 
HETATM    7  C7  UNL     1     -32.371   5.636   2.653  1.00 20.00     0.025 C 
HETATM    8  N8  UNL     1     -32.770   7.311   5.448  1.00 20.00    -0.360 N 
HETATM    9  O9  UNL     1     -31.438   8.330   3.905  1.00 20.00    -0.273 OA
HETATM   10  H22 UNL     1     -32.102   7.531   6.180  1.00 20.00     0.162 HD
ENDROOT
TORSDOF 0
