REMARK  1 active torsions:
REMARK  status: ('A' for Active; 'I' for Inactive)
REMARK    1  A    between atoms: C7_7  and  C8_8 
ROOT
HETATM    1  C1  UNL     1     -32.061   8.564   1.231  1.00 20.00     0.012 C 
HETATM    2  C2  UNL     1     -32.229   8.223   2.369  1.00 20.00    -0.117 C 
HETATM    3  C8  UNL     1     -32.435   7.806   3.763  1.00 20.00     0.105 C 
ENDROOT
BRANCH   3   4
HETATM    4  C7  UNL     1     -33.777   7.125   3.946  1.00 20.00     0.066 C 
HETATM    5  C3  UNL     1     -34.012   6.650   5.365  1.00 20.00     0.132 C 
HETATM    6  C4  UNL     1     -34.583   5.255   5.407  1.00 20.00     0.079 C 
HETATM    7  O9  UNL     1     -33.769   7.312   6.366  1.00 20.00    -0.298 OA
HETATM    8  C5  UNL     1     -34.930   5.011   3.943  1.00 20.00     0.008 C 
HETATM    9  C6  UNL     1     -33.891   5.812   3.169  1.00 20.00     0.013 C 
ENDBRANCH   3   4
TORSDOF 1
