REMARK  4 active torsions:
REMARK  status: ('A' for Active; 'I' for Inactive)
REMARK    1  A    between atoms: C6_6  and  N10_10 
REMARK    2  A    between atoms: C7_7  and  C8_8 
REMARK    3  A    between atoms: C7_7  and  C9_9 
REMARK    4  A    between atoms: C8_8  and  N10_10 
ROOT
HETATM    1  C1  UNL     1     -34.530   5.065   5.701  1.00 20.00     0.013 C 
HETATM    2  C2  UNL     1     -34.541   5.373   4.540  1.00 20.00    -0.087 C 
HETATM    3  C6  UNL     1     -34.559   5.750   3.125  1.00 20.00     0.364 C 
ENDROOT
BRANCH   3   4
HETATM    4  N10 UNL     1     -33.188   5.891   2.607  1.00 20.00     0.095 N 
HETATM    5  C5  UNL     1     -32.476   4.611   2.751  1.00 20.00     0.310 C 
BRANCH   4   6
HETATM    6  C8  UNL     1     -32.487   6.958   3.265  1.00 20.00     0.273 C 
BRANCH   6   7
HETATM    7  C7  UNL     1     -32.907   8.335   2.757  1.00 20.00     0.034 C 
BRANCH   7   8
HETATM    8  C9  UNL     1     -32.698   8.564   1.246  1.00 20.00    -0.021 C 
HETATM    9  C3  UNL     1     -31.214   8.408   0.901  1.00 20.00     0.009 C 
HETATM   10  C4  UNL     1     -33.191   9.938   0.790  1.00 20.00     0.009 C 
ENDBRANCH   7   8
ENDBRANCH   6   7
ENDBRANCH   4   6
ENDBRANCH   3   4
TORSDOF 4
