REMARK  3 active torsions:
REMARK  status: ('A' for Active; 'I' for Inactive)
REMARK    1  A    between atoms: C5_5  and  C8_8 
REMARK    2  A    between atoms: C8_8  and  C9_9 
REMARK    3  A    between atoms: C9_9  and  C10_10 
ROOT
HETATM    1  C1  UNL     1     -33.962   6.662   4.862  1.00 20.00     0.131 C 
HETATM    2  C2  UNL     1     -34.921   5.664   5.461  1.00 20.00     0.079 C 
HETATM    3  C3  UNL     1     -34.627   4.413   4.643  1.00 20.00     0.008 C 
HETATM    4  C4  UNL     1     -34.215   4.942   3.275  1.00 20.00     0.013 C 
HETATM    5  C5  UNL     1     -33.319   6.141   3.593  1.00 20.00     0.055 C 
HETATM    6  O11 UNL     1     -33.737   7.763   5.350  1.00 20.00    -0.298 OA
ENDROOT
BRANCH   5   7
HETATM    7  C8  UNL     1     -33.288   7.168   2.479  1.00 20.00     0.012 C 
BRANCH   7   8
HETATM    8  C9  UNL     1     -32.160   8.181   2.687  1.00 20.00     0.005 C 
BRANCH   8   9
HETATM    9  C10 UNL     1     -32.038   9.207   1.545  1.00 20.00    -0.023 C 
HETATM   10  C6  UNL     1     -33.342   9.999   1.418  1.00 20.00     0.009 C 
HETATM   11  C7  UNL     1     -31.701   8.552   0.204  1.00 20.00     0.009 C 
ENDBRANCH   8   9
ENDBRANCH   7   8
ENDBRANCH   5   7
TORSDOF 3
