REMARK  3 active torsions:
REMARK  status: ('A' for Active; 'I' for Inactive)
REMARK    1  A    between atoms: C5_5  and  C8_8 
REMARK    2  A    between atoms: C8_8  and  C9_9 
REMARK    3  A    between atoms: C9_9  and  C10_10 
ROOT
HETATM    1  C1  UNL     1     -34.360   6.186   3.985  1.00 20.00     0.131 C 
HETATM    2  C2  UNL     1     -34.755   6.079   5.437  1.00 20.00     0.079 C 
HETATM    3  C3  UNL     1     -33.539   6.669   6.139  1.00 20.00     0.008 C 
HETATM    4  C4  UNL     1     -33.002   7.706   5.161  1.00 20.00     0.013 C 
HETATM    5  C5  UNL     1     -33.112   7.024   3.796  1.00 20.00     0.055 C 
HETATM    6  O11 UNL     1     -34.982   5.655   3.073  1.00 20.00    -0.298 OA
ENDROOT
BRANCH   5   7
HETATM    7  C8  UNL     1     -33.228   8.008   2.650  1.00 20.00     0.012 C 
BRANCH   7   8
HETATM    8  C9  UNL     1     -31.962   8.859   2.516  1.00 20.00     0.005 C 
BRANCH   8   9
HETATM    9  C10 UNL     1     -31.999   9.829   1.321  1.00 20.00    -0.023 C 
HETATM   10  C6  UNL     1     -33.179  10.792   1.469  1.00 20.00     0.009 C 
HETATM   11  C7  UNL     1     -32.093   9.099  -0.020  1.00 20.00     0.009 C 
ENDBRANCH   8   9
ENDBRANCH   7   8
ENDBRANCH   5   7
TORSDOF 3
