REMARK  3 active torsions:
REMARK  status: ('A' for Active; 'I' for Inactive)
REMARK    1  A    between atoms: C6_6  and  C9_9 
REMARK    2  A    between atoms: C7_7  and  C10_10 
REMARK    3  A    between atoms: C10_10  and  N11_11 
ROOT
HETATM    1  C1  UNL     1     -34.105   6.224   2.960  1.00 20.00     0.032 C 
HETATM    2  C2  UNL     1     -33.739   7.659   5.005  1.00 20.00     0.032 C 
HETATM    3  C3  UNL     1     -32.625   6.347   2.617  1.00 20.00     0.235 C 
HETATM    4  C4  UNL     1     -32.262   7.774   4.652  1.00 20.00     0.235 C 
HETATM    5  C6  UNL     1     -34.394   6.383   4.458  1.00 20.00    -0.012 C 
HETATM    6  N11 UNL     1     -32.049   7.630   3.165  1.00 20.00    -0.069 N 
HETATM    7  H32 UNL     1     -30.998   7.544   3.037  1.00 20.00     0.280 HD
ENDROOT
BRANCH   6   8
HETATM    8  C10 UNL     1     -32.436   8.852   2.377  1.00 20.00     0.268 C 
BRANCH   8   9
HETATM    9  C7  UNL     1     -31.919   8.717   0.961  1.00 20.00     0.171 A 
HETATM   10  C5  UNL     1     -32.189   9.776  -0.071  1.00 20.00     0.201 A 
HETATM   11  O12 UNL     1     -32.937   8.550  -0.031  1.00 20.00    -0.380 OA
ENDBRANCH   8   9
ENDBRANCH   6   8
BRANCH   5  12
HETATM   12  C9  UNL     1     -33.964   5.145   5.250  1.00 20.00     0.000 C 
HETATM   13  C8  UNL     1     -34.641   3.909   4.753  1.00 20.00     0.005 C 
ENDBRANCH   5  12
TORSDOF 3
