REMARK  3 active torsions:
REMARK  status: ('A' for Active; 'I' for Inactive)
REMARK    1  A    between atoms: C3_3  and  C4_4 
REMARK    2  A    between atoms: C3_3  and  C5_5 
REMARK    3  A    between atoms: C4_4  and  N6_6 
ROOT
HETATM    1  C3  UNL     1     -33.022   6.312   2.810  1.00 20.00     0.152 C 
ENDROOT
BRANCH   1   2
HETATM    2  C4  UNL     1     -33.215   7.824   2.612  1.00 20.00     0.224 C 
HETATM    3  C1  UNL     1     -33.466   8.512   3.953  1.00 20.00     0.043 C 
BRANCH   2   4
HETATM    4  N6  UNL     1     -32.044   8.434   1.983  1.00 20.00     0.083 N 
HETATM    5  C2  UNL     1     -32.398   9.694   1.348  1.00 20.00     0.307 C 
HETATM    6  H19 UNL     1     -31.674   7.793   1.284  1.00 20.00     0.315 HD
ENDBRANCH   2   4
ENDBRANCH   1   2
BRANCH   1   7
HETATM    7  C5  UNL     1     -34.000   5.688   3.787  1.00 20.00     0.389 C 
HETATM    8  F7  UNL     1     -33.854   6.180   5.034  1.00 20.00    -0.171 F 
HETATM    9  F8  UNL     1     -33.807   4.351   3.854  1.00 20.00    -0.171 F 
HETATM   10  F9  UNL     1     -35.277   5.896   3.402  1.00 20.00    -0.171 F 
ENDBRANCH   1   7
TORSDOF 3
