REMARK  1 active torsions:
REMARK  status: ('A' for Active; 'I' for Inactive)
REMARK    1  A    between atoms: C7_7  and  N9_9 
ROOT
HETATM    1  C1  UNL     1     -32.282   8.809   1.755  1.00 20.00     0.089 C 
HETATM    2  C7  UNL     1     -31.990   8.355   3.114  1.00 20.00     0.395 C 
HETATM    3  N8  UNL     1     -32.511   9.172   0.677  1.00 20.00    -0.195 NA
ENDROOT
BRANCH   2   4
HETATM    4  N9  UNL     1     -33.108   7.573   3.656  1.00 20.00     0.102 N 
HETATM    5  C3  UNL     1     -33.053   6.201   3.134  1.00 20.00     0.274 C 
HETATM    6  C2  UNL     1     -34.390   5.466   3.260  1.00 20.00     0.040 C 
HETATM    7  C5  UNL     1     -34.553   4.584   4.494  1.00 20.00     0.075 C 
HETATM    8  S10 UNL     1     -34.094   5.265   6.113  1.00 20.00    -0.167 SA
HETATM    9  C6  UNL     1     -34.305   7.043   5.823  1.00 20.00     0.104 C 
HETATM   10  C4  UNL     1     -33.093   7.658   5.123  1.00 20.00     0.283 C 
ENDBRANCH   2   4
TORSDOF 1
