REMARK  2 active torsions:
REMARK  status: ('A' for Active; 'I' for Inactive)
REMARK    1  A    between atoms: C6_6  and  C9_9 
REMARK    2  A    between atoms: C7_7  and  N10_10 
ROOT
HETATM    1  C1  UNL     1     -33.811   3.756   4.586  1.00 20.00     0.158 C 
HETATM    2  N10 UNL     1     -33.556   4.813   5.024  1.00 20.00    -0.270 NA
HETATM    3  S11 UNL     1     -34.127   2.306   4.006  1.00 20.00    -0.055 SA
ENDROOT
BRANCH   2   4
HETATM    4  C7  UNL     1     -34.548   5.856   4.725  1.00 20.00     0.109 C 
HETATM    5  C4  UNL     1     -34.715   5.991   3.211  1.00 20.00     0.028 C 
HETATM    6  C2  UNL     1     -33.521   6.666   2.534  1.00 20.00     0.007 C 
HETATM    7  C6  UNL     1     -33.179   8.009   3.191  1.00 20.00    -0.015 C 
HETATM    8  C3  UNL     1     -32.942   7.837   4.696  1.00 20.00     0.007 C 
HETATM    9  C5  UNL     1     -34.132   7.170   5.386  1.00 20.00     0.028 C 
BRANCH   7  10
HETATM   10  C9  UNL     1     -31.959   8.639   2.522  1.00 20.00     0.000 C 
HETATM   11  C8  UNL     1     -32.180   8.854   1.061  1.00 20.00     0.005 C 
ENDBRANCH   7  10
ENDBRANCH   2   4
TORSDOF 2
