REMARK  3 active torsions:
REMARK  status: ('A' for Active; 'I' for Inactive)
REMARK    1  A    between atoms: C4_4  and  N11_11 
REMARK    2  A    between atoms: C8_8  and  C9_9 
REMARK    3  A    between atoms: C8_8  and  N11_11 
ROOT
HETATM    1  C1  UNL     1     -33.510   7.680   4.972  1.00 20.00     0.067 C 
HETATM    2  C2  UNL     1     -34.171   6.488   5.643  1.00 20.00     0.274 C 
HETATM    3  C3  UNL     1     -33.327   5.658   3.633  1.00 20.00     0.307 C 
HETATM    4  C4  UNL     1     -32.764   7.073   3.789  1.00 20.00     0.250 C 
HETATM    5  C7  UNL     1     -35.729   5.867   3.891  1.00 20.00     0.310 C 
HETATM    6  N10 UNL     1     -34.467   5.544   4.558  1.00 20.00     0.086 N 
ENDROOT
BRANCH   4   7
HETATM    7  N11 UNL     1     -32.921   7.862   2.596  1.00 20.00     0.090 N 
HETATM    8  H31 UNL     1     -32.710   7.287   1.781  1.00 20.00     0.316 HD
BRANCH   7   9
HETATM    9  C8  UNL     1     -32.029   9.014   2.612  1.00 20.00     0.274 C 
BRANCH   9  10
HETATM   10  C9  UNL     1     -32.220   9.899   1.375  1.00 20.00     0.005 C 
HETATM   11  C5  UNL     1     -31.944   9.145   0.073  1.00 20.00     0.011 C 
HETATM   12  C6  UNL     1     -33.606  10.545   1.339  1.00 20.00     0.011 C 
ENDBRANCH   9  10
ENDBRANCH   7   9
ENDBRANCH   4   7
TORSDOF 3
