REMARK  1 active torsions:
REMARK  status: ('A' for Active; 'I' for Inactive)
REMARK    1  A    between atoms: C5_5  and  N7_7 
ROOT
HETATM    1  C1  UNL     1     -32.236   8.058   1.962  1.00 20.00     0.158 C 
HETATM    2  N7  UNL     1     -32.248   7.283   2.845  1.00 20.00    -0.268 NA
HETATM    3  S9  UNL     1     -32.193   9.107   0.763  1.00 20.00    -0.055 SA
ENDROOT
BRANCH   2   4
HETATM    4  C5  UNL     1     -33.577   6.949   3.355  1.00 20.00     0.139 C 
HETATM    5  C2  UNL     1     -34.131   5.731   2.618  1.00 20.00     0.059 C 
HETATM    6  C3  UNL     1     -34.150   4.625   3.662  1.00 20.00     0.274 C 
HETATM    7  N8  UNL     1     -34.377   5.371   4.899  1.00 20.00     0.086 N 
HETATM    8  C4  UNL     1     -33.479   6.525   4.819  1.00 20.00     0.299 C 
HETATM    9  C6  UNL     1     -34.139   4.563   6.087  1.00 20.00     0.310 C 
ENDBRANCH   2   4
TORSDOF 1
