REMARK  2 active torsions:
REMARK  status: ('A' for Active; 'I' for Inactive)
REMARK    1  A    between atoms: C6_6  and  C7_7 
REMARK    2  A    between atoms: C7_7  and  N8_8 
ROOT
HETATM    1  C1  UNL     1     -32.341   8.712   1.848  1.00 20.00     0.157 C 
HETATM    2  N8  UNL     1     -31.825   7.831   2.432  1.00 20.00    -0.273 NA
HETATM    3  S10 UNL     1     -33.023   9.903   1.040  1.00 20.00    -0.055 SA
ENDROOT
BRANCH   2   4
HETATM    4  C7  UNL     1     -32.422   7.513   3.727  1.00 20.00     0.182 C 
BRANCH   4   5
HETATM    5  C6  UNL     1     -33.882   7.122   3.512  1.00 20.00     0.141 C 
HETATM    6  C4  UNL     1     -34.611   6.772   4.813  1.00 20.00     0.034 C 
HETATM    7  C2  UNL     1     -34.209   5.402   5.349  1.00 20.00     0.005 C 
HETATM    8  C3  UNL     1     -34.316   4.352   4.252  1.00 20.00     0.026 C 
HETATM    9  C5  UNL     1     -33.561   4.791   3.006  1.00 20.00     0.168 C 
HETATM   10  O9  UNL     1     -34.006   6.068   2.552  1.00 20.00    -0.384 OA
ENDBRANCH   4   5
ENDBRANCH   2   4
TORSDOF 2
