REMARK  1 active torsions:
REMARK  status: ('A' for Active; 'I' for Inactive)
REMARK    1  A    between atoms: C1_1  and  O10_10 
ROOT
HETATM    1  C1  UNL     1     -33.872   7.032   4.750  1.00 20.00     0.099 C 
HETATM    2  C2  UNL     1     -34.846   6.101   4.849  1.00 20.00     0.026 C 
HETATM    3  C3  UNL     1     -33.415   6.787   3.349  1.00 20.00     0.183 C 
HETATM    4  C4  UNL     1     -34.549   4.831   5.605  1.00 20.00     0.018 C 
HETATM    5  C5  UNL     1     -35.477   5.817   3.509  1.00 20.00     0.030 C 
HETATM    6  C6  UNL     1     -33.465   4.078   4.787  1.00 20.00     0.002 C 
HETATM    7  C7  UNL     1     -33.554   4.261   3.236  1.00 20.00     0.013 C 
HETATM    8  C8  UNL     1     -34.172   5.607   2.769  1.00 20.00     0.063 C 
HETATM    9  O9  UNL     1     -32.496   7.383   2.811  1.00 20.00    -0.290 OA
ENDROOT
BRANCH   1  10
HETATM   10  O10 UNL     1     -32.955   7.394   5.693  1.00 20.00    -0.360 OA
HETATM   11  H20 UNL     1     -32.374   8.088   5.353  1.00 20.00     0.217 HD
ENDBRANCH   1  10
TORSDOF 1
