REMARK  1 active torsions:
REMARK  status: ('A' for Active; 'I' for Inactive)
REMARK    1  A    between atoms: C3_3  and  O8_8 
ROOT
HETATM    1  C1  UNL     1     -35.091   6.338   3.646  1.00 20.00     0.040 C 
HETATM    2  C2  UNL     1     -35.254   5.654   4.991  1.00 20.00     0.172 C 
HETATM    3  C3  UNL     1     -33.017   6.280   4.755  1.00 20.00     0.264 C 
HETATM    4  C4  UNL     1     -33.607   6.160   3.343  1.00 20.00     0.004 C 
HETATM    5  C5  UNL     1     -33.094   7.211   2.356  1.00 20.00     0.020 C 
HETATM    6  C6  UNL     1     -33.341   4.756   2.769  1.00 20.00     0.020 C 
HETATM    7  O7  UNL     1     -33.967   5.644   5.626  1.00 20.00    -0.361 OA
ENDROOT
BRANCH   3   8
HETATM    8  O8  UNL     1     -32.856   7.644   5.129  1.00 20.00    -0.371 OA
HETATM    9  H20 UNL     1     -32.482   7.644   6.024  1.00 20.00     0.212 HD
ENDBRANCH   3   8
TORSDOF 1
