REMARK  3 active torsions:
REMARK  status: ('A' for Active; 'I' for Inactive)
REMARK    1  A    between atoms: C3_3  and  C4_4 
REMARK    2  A    between atoms: C4_4  and  C5_5 
REMARK    3  A    between atoms: C4_4  and  O6_6 
ROOT
HETATM    1  C4  UNL     1     -33.154   6.650   4.584  1.00 20.00     0.229 C 
ENDROOT
BRANCH   1   2
HETATM    2  C3  UNL     1     -34.333   6.032   5.253  1.00 20.00     0.023 A 
HETATM    3  C1  UNL     1     -34.667   4.586   5.016  1.00 20.00     0.008 A 
HETATM    4  C2  UNL     1     -34.137   5.025   6.352  1.00 20.00     0.008 A 
ENDBRANCH   1   2
BRANCH   1   5
HETATM    5  C5  UNL     1     -33.454   7.074   3.158  1.00 20.00     0.413 C 
HETATM    6  F7  UNL     1     -33.780   6.009   2.392  1.00 20.00    -0.168 F 
HETATM    7  F8  UNL     1     -34.496   7.933   3.118  1.00 20.00    -0.168 F 
HETATM    8  F9  UNL     1     -32.393   7.681   2.586  1.00 20.00    -0.168 F 
ENDBRANCH   1   5
BRANCH   1   9
HETATM    9  O6  UNL     1     -32.737   7.810   5.306  1.00 20.00    -0.386 OA
HETATM   10  H16 UNL     1     -32.508   7.509   6.198  1.00 20.00     0.210 HD
ENDBRANCH   1   9
TORSDOF 3
