REMARK  0 active torsions:
REMARK  status: ('A' for Active; 'I' for Inactive)
ROOT
HETATM    1  C1  UNL     1     -34.120   6.421   5.193  1.00 20.00     0.137 C 
HETATM    2  C2  UNL     1     -34.035   4.220   4.056  1.00 20.00     0.108 C 
HETATM    3  C3  UNL     1     -34.022   5.725   3.914  1.00 20.00     0.326 C 
HETATM    4  N4  UNL     1     -34.199   6.976   6.209  1.00 20.00    -0.191 NA
HETATM    5  F5  UNL     1     -35.053   6.110   3.120  1.00 20.00    -0.190 F 
HETATM    6  F6  UNL     1     -32.882   6.107   3.287  1.00 20.00    -0.190 F 
ENDROOT
TORSDOF 0
