REMARK  7 active torsions:
REMARK  status: ('A' for Active; 'I' for Inactive)
REMARK    1  A    between atoms: C1_1  and  C6_6 
REMARK    2  A    between atoms: C1_1  and  C11_11 
REMARK    3  A    between atoms: C6_6  and  C12_12 
REMARK    4  A    between atoms: C7_7  and  C9_9 
REMARK    5  A    between atoms: C8_8  and  C12_12 
REMARK    6  A    between atoms: C9_9  and  C10_10 
REMARK    7  A    between atoms: C10_10  and  C12_12 
ROOT
HETATM    1  C12 UNL     1     -32.407   8.034   2.825  1.00 20.00    -0.008 C 
ENDROOT
BRANCH   1   2
HETATM    2  C6  UNL     1     -33.138   6.774   2.319  1.00 20.00     0.083 C 
BRANCH   2   3
HETATM    3  C1  UNL     1     -33.109   5.611   3.305  1.00 20.00     0.130 C 
HETATM    4  O13 UNL     1     -32.054   5.133   3.723  1.00 20.00    -0.298 OA
BRANCH   3   5
HETATM    5  C11 UNL     1     -34.466   5.081   3.761  1.00 20.00     0.047 C 
HETATM    6  C4  UNL     1     -34.970   5.846   4.981  1.00 20.00     0.017 C 
HETATM    7  C5  UNL     1     -34.355   3.590   4.058  1.00 20.00     0.017 C 
ENDBRANCH   3   5
ENDBRANCH   2   3
ENDBRANCH   1   2
BRANCH   1   8
HETATM    8  C8  UNL     1     -30.876   7.857   2.720  1.00 20.00     0.000 C 
HETATM    9  C3  UNL     1     -30.050   9.020   3.253  1.00 20.00     0.005 C 
ENDBRANCH   1   8
BRANCH   1  10
HETATM   10  C10 UNL     1     -32.933   9.290   2.091  1.00 20.00     0.005 C 
BRANCH  10  11
HETATM   11  C9  UNL     1     -32.719   9.246   0.575  1.00 20.00     0.000 C 
BRANCH  11  12
HETATM   12  C7  UNL     1     -33.217  10.504  -0.141  1.00 20.00    -0.005 C 
HETATM   13  C2  UNL     1     -33.074  10.437  -1.654  1.00 20.00     0.005 C 
ENDBRANCH  11  12
ENDBRANCH  10  11
ENDBRANCH   1  10
TORSDOF 7
