REMARK  2 active torsions:
REMARK  status: ('A' for Active; 'I' for Inactive)
REMARK    1  A    between atoms: C3_3  and  C8_8 
REMARK    2  A    between atoms: C7_7  and  C8_8 
ROOT
HETATM    1  C1  UNL     1     -33.204   5.838   3.256  1.00 20.00     0.053 A 
HETATM    2  C2  UNL     1     -34.039   6.338   5.467  1.00 20.00     0.087 A 
HETATM    3  C3  UNL     1     -32.643   7.112   3.179  1.00 20.00    -0.007 A 
HETATM    4  C4  UNL     1     -33.902   5.450   4.399  1.00 20.00     0.120 A 
HETATM    5  C5  UNL     1     -33.478   7.612   5.390  1.00 20.00     0.158 A 
HETATM    6  C6  UNL     1     -32.780   8.000   4.246  1.00 20.00     0.161 A 
HETATM    7  F10 UNL     1     -34.441   4.226   4.473  1.00 20.00    -0.206 F 
HETATM    8  F11 UNL     1     -33.609   8.464   6.415  1.00 20.00    -0.203 F 
HETATM    9  F12 UNL     1     -32.244   9.227   4.182  1.00 20.00    -0.202 F 
ENDROOT
BRANCH   3  10
HETATM   10  C8  UNL     1     -31.898   7.524   1.954  1.00 20.00     0.111 C 
BRANCH  10  11
HETATM   11  C7  UNL     1     -32.466   8.748   1.270  1.00 20.00     0.235 C 
HETATM   12  O9  UNL     1     -31.869   9.811   1.137  1.00 20.00    -0.307 OA
ENDBRANCH  10  11
ENDBRANCH   3  10
TORSDOF 2
