REMARK  4 active torsions:
REMARK  status: ('A' for Active; 'I' for Inactive)
REMARK    1  A    between atoms: C4_4  and  N11_11 
REMARK    2  A    between atoms: C7_7  and  C9_9 
REMARK    3  A    between atoms: C8_8  and  N11_11 
REMARK    4  A    between atoms: C9_9  and  N11_11 
ROOT
HETATM    1  C1  UNL     1     -31.099   8.050   3.796  1.00 20.00     0.095 C 
HETATM    2  C9  UNL     1     -32.527   8.143   3.462  1.00 20.00     0.328 C 
HETATM    3  N10 UNL     1     -29.972   7.979   4.063  1.00 20.00    -0.195 NA
ENDROOT
BRANCH   2   4
HETATM    4  C7  UNL     1     -32.764   8.360   1.962  1.00 20.00     0.046 C 
HETATM    5  C5  UNL     1     -32.128   9.626   1.395  1.00 20.00     0.008 C 
ENDBRANCH   2   4
BRANCH   2   6
HETATM    6  N11 UNL     1     -33.236   6.984   3.942  1.00 20.00     0.110 N 
BRANCH   6   7
HETATM    7  C4  UNL     1     -32.708   5.751   3.342  1.00 20.00     0.224 A 
HETATM    8  C2  UNL     1     -33.565   4.518   3.258  1.00 20.00     0.038 A 
HETATM    9  C3  UNL     1     -33.214   5.272   2.009  1.00 20.00     0.038 A 
ENDBRANCH   6   7
BRANCH   6  10
HETATM   10  C8  UNL     1     -33.169   6.888   5.407  1.00 20.00     0.270 C 
HETATM   11  C6  UNL     1     -33.971   5.736   5.909  1.00 20.00     0.037 C 
ENDBRANCH   6  10
ENDBRANCH   2   6
TORSDOF 4
