REMARK  0 active torsions:
REMARK  status: ('A' for Active; 'I' for Inactive)
ROOT
HETATM    1  C1  UNL     1     -32.541   7.840   2.487  1.00 20.00     0.088 C 
HETATM    2  C2  UNL     1     -33.789   6.097   3.585  1.00 20.00    -0.060 C 
HETATM    3  C3  UNL     1     -33.083   6.531   2.534  1.00 20.00     0.097 C 
HETATM    4  C4  UNL     1     -34.384   4.723   3.686  1.00 20.00     0.046 C 
HETATM    5  C5  UNL     1     -33.993   6.900   4.834  1.00 20.00     0.108 C 
HETATM    6  C6  UNL     1     -34.083   4.233   5.093  1.00 20.00     0.078 C 
HETATM    7  N7  UNL     1     -32.095   8.911   2.444  1.00 20.00    -0.192 NA
HETATM    8  S8  UNL     1     -34.283   5.686   6.159  1.00 20.00    -0.165 SA
ENDROOT
TORSDOF 0
