REMARK  4 active torsions:
REMARK  status: ('A' for Active; 'I' for Inactive)
REMARK    1  A    between atoms: C4_4  and  C5_5 
REMARK    2  A    between atoms: C4_4  and  O8_8 
REMARK    3  A    between atoms: C5_5  and  S9_9 
REMARK    4  A    between atoms: C6_6  and  S9_9 
ROOT
HETATM    1  C1  UNL     1     -34.067   6.729   5.164  1.00 20.00     0.074 C 
HETATM    2  C2  UNL     1     -34.192   4.492   4.133  1.00 20.00     0.037 C 
HETATM    3  C6  UNL     1     -34.037   5.990   3.894  1.00 20.00     0.150 C 
HETATM    4  N7  UNL     1     -34.092   7.318   6.164  1.00 20.00    -0.196 NA
ENDROOT
BRANCH   3   5
HETATM    5  S9  UNL     1     -32.497   6.297   3.000  1.00 20.00    -0.148 SA
BRANCH   5   6
HETATM    6  C5  UNL     1     -32.932   7.910   2.279  1.00 20.00     0.101 C 
BRANCH   6   7
HETATM    7  C4  UNL     1     -31.797   8.464   1.432  1.00 20.00     0.177 C 
BRANCH   7   8
HETATM    8  O8  UNL     1     -32.169   9.719   0.879  1.00 20.00    -0.395 OA
HETATM    9  C3  UNL     1     -32.930   9.561  -0.310  1.00 20.00     0.201 C 
ENDBRANCH   7   8
ENDBRANCH   6   7
ENDBRANCH   5   6
ENDBRANCH   3   5
TORSDOF 4
