REMARK  2 active torsions:
REMARK  status: ('A' for Active; 'I' for Inactive)
REMARK    1  A    between atoms: C3_3  and  C8_8 
REMARK    2  A    between atoms: C7_7  and  C8_8 
ROOT
HETATM    1  C1  UNL     1     -32.557   9.469   1.188  1.00 20.00     0.088 C 
HETATM    2  C2  UNL     1     -33.022   8.315   1.876  1.00 20.00     0.096 C 
HETATM    3  C3  UNL     1     -32.557   7.900   3.071  1.00 20.00    -0.070 C 
HETATM    4  C4  UNL     1     -31.468   8.696   3.748  1.00 20.00     0.044 C 
HETATM    5  N9  UNL     1     -32.184  10.409   0.620  1.00 20.00    -0.192 NA
ENDROOT
BRANCH   3   6
HETATM    6  C8  UNL     1     -33.065   6.656   3.801  1.00 20.00     0.010 C 
HETATM    7  C6  UNL     1     -33.574   7.007   5.205  1.00 20.00     0.015 C 
BRANCH   6   8
HETATM    8  C7  UNL     1     -34.162   5.887   3.037  1.00 20.00     0.004 C 
HETATM    9  C5  UNL     1     -34.675   4.663   3.785  1.00 20.00     0.006 C 
ENDBRANCH   6   8
ENDBRANCH   3   6
TORSDOF 2
