REMARK  1 active torsions:
REMARK  status: ('A' for Active; 'I' for Inactive)
REMARK    1  A    between atoms: C3_3  and  C6_6 
ROOT
HETATM    1  C1  UNL     1     -32.854   7.155   2.456  1.00 20.00     0.088 C 
HETATM    2  C2  UNL     1     -33.256   5.838   2.812  1.00 20.00     0.096 C 
HETATM    3  C3  UNL     1     -34.064   5.572   3.856  1.00 20.00    -0.070 C 
HETATM    4  C7  UNL     1     -34.511   4.215   4.266  1.00 20.00     0.044 C 
HETATM    5  N8  UNL     1     -32.524   8.228   2.162  1.00 20.00    -0.192 NA
ENDROOT
BRANCH   3   6
HETATM    6  C6  UNL     1     -34.581   6.707   4.705  1.00 20.00     0.015 A 
HETATM    7  C4  UNL     1     -34.321   6.636   6.160  1.00 20.00     0.010 A 
HETATM    8  C5  UNL     1     -33.578   7.616   5.302  1.00 20.00     0.010 A 
ENDBRANCH   3   6
TORSDOF 1
