REMARK  2 active torsions:
REMARK  status: ('A' for Active; 'I' for Inactive)
REMARK    1  A    between atoms: C6_6  and  C9_9 
REMARK    2  A    between atoms: C10_10  and  N12_12 
ROOT
HETATM    1  C1  UNL     1     -34.403   4.658   4.812  1.00 20.00     0.092 C 
HETATM    2  C8  UNL     1     -34.596   6.499   6.452  1.00 20.00     0.056 C 
HETATM    3  C10 UNL     1     -33.736   5.827   5.394  1.00 20.00     0.289 C 
HETATM    4  N11 UNL     1     -34.928   3.732   4.352  1.00 20.00    -0.195 NA
ENDROOT
BRANCH   3   5
HETATM    5  N12 UNL     1     -33.460   6.828   4.305  1.00 20.00    -0.055 N 
HETATM    6  C4  UNL     1     -33.081   6.151   3.011  1.00 20.00     0.237 C 
HETATM    7  C2  UNL     1     -32.936   7.198   1.915  1.00 20.00     0.032 C 
HETATM    8  C6  UNL     1     -31.922   8.283   2.297  1.00 20.00    -0.012 C 
HETATM    9  C3  UNL     1     -32.289   8.907   3.649  1.00 20.00     0.032 C 
HETATM   10  C5  UNL     1     -32.437   7.851   4.736  1.00 20.00     0.237 C 
HETATM   11  H31 UNL     1     -34.344   7.329   4.141  1.00 20.00     0.281 HD
BRANCH   8  12
HETATM   12  C9  UNL     1     -31.839   9.354   1.211  1.00 20.00     0.000 C 
HETATM   13  C7  UNL     1     -33.149  10.046   1.018  1.00 20.00     0.005 C 
ENDBRANCH   8  12
ENDBRANCH   3   5
TORSDOF 2
