REMARK  3 active torsions:
REMARK  status: ('A' for Active; 'I' for Inactive)
REMARK    1  A    between atoms: C5_5  and  C9_9 
REMARK    2  A    between atoms: C6_6  and  C10_10 
REMARK    3  A    between atoms: C10_10  and  C11_11 
ROOT
HETATM    1  C1  UNL     1     -33.777   7.284   5.175  1.00 20.00     0.131 C 
HETATM    2  C2  UNL     1     -33.162   8.646   4.943  1.00 20.00     0.079 C 
HETATM    3  C3  UNL     1     -32.342   8.651   3.660  1.00 20.00     0.012 C 
HETATM    4  C4  UNL     1     -33.701   6.740   2.739  1.00 20.00     0.016 C 
HETATM    5  C5  UNL     1     -34.562   6.698   4.007  1.00 20.00     0.055 C 
HETATM    6  C6  UNL     1     -33.160   8.151   2.461  1.00 20.00    -0.013 C 
HETATM    7  O12 UNL     1     -33.714   6.740   6.277  1.00 20.00    -0.298 OA
ENDROOT
BRANCH   6   8
HETATM    8  C10 UNL     1     -32.312   8.161   1.191  1.00 20.00     0.004 C 
BRANCH   8   9
HETATM    9  C11 UNL     1     -31.847   9.573   0.848  1.00 20.00    -0.004 C 
HETATM   10  C8  UNL     1     -33.029  10.495   0.595  1.00 20.00     0.005 C 
ENDBRANCH   8   9
ENDBRANCH   6   8
BRANCH   5  11
HETATM   11  C9  UNL     1     -35.026   5.274   4.296  1.00 20.00     0.007 C 
HETATM   12  C7  UNL     1     -33.873   4.345   4.496  1.00 20.00     0.006 C 
ENDBRANCH   5  11
TORSDOF 3
