REMARK  4 active torsions:
REMARK  status: ('A' for Active; 'I' for Inactive)
REMARK    1  A    between atoms: C4_4  and  C5_5 
REMARK    2  A    between atoms: C4_4  and  C6_6 
REMARK    3  A    between atoms: C5_5  and  O8_8 
REMARK    4  A    between atoms: C6_6  and  C7_7 
ROOT
HETATM    1  C1  UNL     1     -34.136   7.621   5.280  1.00 20.00     0.011 C 
HETATM    2  C6  UNL     1     -34.368   6.940   3.923  1.00 20.00     0.001 C 
ENDROOT
BRANCH   2   3
HETATM    3  C4  UNL     1     -33.003   6.723   3.233  1.00 20.00     0.032 C 
BRANCH   3   4
HETATM    4  C5  UNL     1     -32.268   8.012   2.884  1.00 20.00     0.167 C 
BRANCH   4   5
HETATM    5  O8  UNL     1     -33.067   8.760   1.976  1.00 20.00    -0.396 OA
HETATM    6  C3  UNL     1     -32.447   9.990   1.628  1.00 20.00     0.201 C 
ENDBRANCH   4   5
ENDBRANCH   3   4
ENDBRANCH   2   3
BRANCH   2   7
HETATM    7  C7  UNL     1     -35.225   5.652   4.017  1.00 20.00     0.082 C 
HETATM    8  C2  UNL     1     -34.593   4.570   4.891  1.00 20.00     0.027 C 
HETATM    9 CL9  UNL     1     -36.882   5.977   4.614  1.00 20.00    -0.125 Cl
ENDBRANCH   2   7
TORSDOF 4
