REMARK  2 active torsions:
REMARK  status: ('A' for Active; 'I' for Inactive)
REMARK    1  A    between atoms: C4_4  and  C10_10 
REMARK    2  A    between atoms: C8_8  and  C10_10 
ROOT
HETATM    1  C5  UNL     1     -34.535   5.963   5.823  1.00 20.00     0.002 C 
HETATM    2  C6  UNL     1     -33.194   6.684   5.666  1.00 20.00     0.006 C 
HETATM    3  C7  UNL     1     -35.305   6.181   4.517  1.00 20.00     0.016 C 
HETATM    4  C8  UNL     1     -33.314   7.483   4.366  1.00 20.00     0.004 C 
HETATM    5  C9  UNL     1     -34.266   6.653   3.506  1.00 20.00     0.062 C 
HETATM    6 BR12 UNL     1     -33.419   5.101   2.677  1.00 20.00    -0.091 Br
ENDROOT
BRANCH   4   7
HETATM    7  C10 UNL     1     -31.974   7.855   3.752  1.00 20.00     0.045 C 
BRANCH   7   8
HETATM    8  C4  UNL     1     -32.140   8.673   2.498  1.00 20.00    -0.051 A 
HETATM    9  C1  UNL     1     -31.621   8.292   1.227  1.00 20.00     0.014 A 
HETATM   10  C2  UNL     1     -31.913   9.219   0.250  1.00 20.00     0.050 A 
HETATM   11  S11 UNL     1     -32.810  10.541   0.866  1.00 20.00    -0.113 SA
HETATM   12  C3  UNL     1     -32.809   9.876   2.444  1.00 20.00     0.056 A 
ENDBRANCH   7   8
ENDBRANCH   4   7
TORSDOF 2
