REMARK  3 active torsions:
REMARK  status: ('A' for Active; 'I' for Inactive)
REMARK    1  A    between atoms: C5_5  and  C9_9 
REMARK    2  A    between atoms: C6_6  and  C10_10 
REMARK    3  A    between atoms: C9_9  and  C11_11 
ROOT
HETATM    1  C1  UNL     1     -32.666   7.889   3.969  1.00 20.00     0.131 C 
HETATM    2  C2  UNL     1     -33.503   7.187   5.016  1.00 20.00     0.079 C 
HETATM    3  C3  UNL     1     -33.934   5.811   4.526  1.00 20.00     0.012 C 
HETATM    4  C4  UNL     1     -33.692   6.545   2.128  1.00 20.00     0.016 C 
HETATM    5  C5  UNL     1     -33.258   7.950   2.564  1.00 20.00     0.055 C 
HETATM    6  C6  UNL     1     -34.606   5.844   3.146  1.00 20.00    -0.014 C 
HETATM    7  O12 UNL     1     -31.617   8.453   4.274  1.00 20.00    -0.298 OA
ENDROOT
BRANCH   5   8
HETATM    8  C9  UNL     1     -32.268   8.539   1.563  1.00 20.00     0.012 C 
BRANCH   8   9
HETATM    9  C11 UNL     1     -32.266  10.063   1.618  1.00 20.00    -0.004 C 
HETATM   10  C8  UNL     1     -33.633  10.629   1.267  1.00 20.00     0.005 C 
ENDBRANCH   8   9
ENDBRANCH   5   8
BRANCH   6  11
HETATM   11  C10 UNL     1     -35.999   6.476   3.201  1.00 20.00     0.000 C 
HETATM   12  C7  UNL     1     -36.892   5.753   4.153  1.00 20.00     0.005 C 
ENDBRANCH   6  11
TORSDOF 3
