REMARK  3 active torsions:
REMARK  status: ('A' for Active; 'I' for Inactive)
REMARK    1  A    between atoms: C5_5  and  C9_9 
REMARK    2  A    between atoms: C6_6  and  C10_10 
REMARK    3  A    between atoms: C9_9  and  C11_11 
ROOT
HETATM    1  C1  UNL     1     -32.321   8.265   4.484  1.00 20.00     0.131 C 
HETATM    2  C2  UNL     1     -33.147   7.920   5.705  1.00 20.00     0.079 C 
HETATM    3  C3  UNL     1     -33.829   6.571   5.525  1.00 20.00     0.012 C 
HETATM    4  C4  UNL     1     -33.724   6.809   3.018  1.00 20.00     0.016 C 
HETATM    5  C5  UNL     1     -33.043   8.176   3.144  1.00 20.00     0.055 C 
HETATM    6  C6  UNL     1     -34.634   6.510   4.220  1.00 20.00    -0.014 C 
HETATM    7  O12 UNL     1     -31.168   8.678   4.596  1.00 20.00    -0.298 OA
ENDROOT
BRANCH   5   8
HETATM    8  C9  UNL     1     -32.093   8.415   1.975  1.00 20.00     0.012 C 
BRANCH   8   9
HETATM    9  C11 UNL     1     -32.857   8.773   0.704  1.00 20.00    -0.004 C 
HETATM   10  C8  UNL     1     -31.910   9.038  -0.455  1.00 20.00     0.005 C 
ENDBRANCH   8   9
ENDBRANCH   5   8
BRANCH   6  11
HETATM   11  C10 UNL     1     -35.300   5.144   4.063  1.00 20.00     0.000 C 
HETATM   12  C7  UNL     1     -34.292   4.044   4.002  1.00 20.00     0.005 C 
ENDBRANCH   6  11
TORSDOF 3
