REMARK  3 active torsions:
REMARK  status: ('A' for Active; 'I' for Inactive)
REMARK    1  A    between atoms: C2_2  and  C9_9 
REMARK    2  A    between atoms: C6_6  and  C9_9 
REMARK    3  A    between atoms: C7_7  and  O10_10 
ROOT
HETATM    1  C3  UNL     1     -34.599   5.984   3.023  1.00 20.00     0.003 C 
HETATM    2  C4  UNL     1     -33.643   6.686   2.057  1.00 20.00     0.007 C 
HETATM    3  C5  UNL     1     -34.324   6.575   4.406  1.00 20.00     0.032 C 
HETATM    4  C6  UNL     1     -32.569   7.298   2.952  1.00 20.00     0.018 C 
HETATM    5  C7  UNL     1     -33.376   7.745   4.169  1.00 20.00     0.122 C 
ENDROOT
BRANCH   4   6
HETATM    6  C9  UNL     1     -31.809   8.433   2.284  1.00 20.00     0.040 C 
BRANCH   6   7
HETATM    7  C2  UNL     1     -32.692   9.300   1.420  1.00 20.00    -0.093 C 
HETATM    8  C1  UNL     1     -32.861   9.046   0.113  1.00 20.00     0.014 C 
HETATM    9  C8  UNL     1     -33.347  10.480   2.079  1.00 20.00     0.042 C 
ENDBRANCH   6   7
ENDBRANCH   4   6
BRANCH   5  10
HETATM   10  O10 UNL     1     -32.537   7.968   5.286  1.00 20.00    -0.395 OA
HETATM   11  H26 UNL     1     -33.115   8.163   6.043  1.00 20.00     0.210 HD
ENDBRANCH   5  10
TORSDOF 3
