REMARK  4 active torsions:
REMARK  status: ('A' for Active; 'I' for Inactive)
REMARK    1  A    between atoms: C5_5  and  C9_9 
REMARK    2  A    between atoms: C6_6  and  C10_10 
REMARK    3  A    between atoms: C9_9  and  C12_12 
REMARK    4  A    between atoms: C11_11  and  C12_12 
ROOT
HETATM    1  C1  UNL     1     -33.181   7.581   5.273  1.00 20.00     0.131 C 
HETATM    2  C2  UNL     1     -34.328   6.750   5.805  1.00 20.00     0.079 C 
HETATM    3  C3  UNL     1     -34.401   5.411   5.084  1.00 20.00     0.012 C 
HETATM    4  C4  UNL     1     -33.213   6.377   3.083  1.00 20.00     0.016 C 
HETATM    5  C5  UNL     1     -33.117   7.750   3.759  1.00 20.00     0.056 C 
HETATM    6  C6  UNL     1     -34.417   5.547   3.555  1.00 20.00    -0.014 C 
HETATM    7  O13 UNL     1     -32.410   8.157   6.040  1.00 20.00    -0.298 OA
ENDROOT
BRANCH   5   8
HETATM    8  C9  UNL     1     -31.842   8.471   3.327  1.00 20.00     0.012 C 
BRANCH   8   9
HETATM    9  C12 UNL     1     -31.767   8.602   1.809  1.00 20.00     0.000 C 
BRANCH   9  10
HETATM   10  C11 UNL     1     -32.938   9.422   1.268  1.00 20.00    -0.005 C 
HETATM   11  C8  UNL     1     -32.970  10.816   1.876  1.00 20.00     0.005 C 
ENDBRANCH   9  10
ENDBRANCH   8   9
ENDBRANCH   5   8
BRANCH   6  12
HETATM   12  C10 UNL     1     -35.743   6.114   3.044  1.00 20.00     0.000 C 
HETATM   13  C7  UNL     1     -36.900   5.269   3.464  1.00 20.00     0.005 C 
ENDBRANCH   6  12
TORSDOF 4
