REMARK  3 active torsions:
REMARK  status: ('A' for Active; 'I' for Inactive)
REMARK    1  A    between atoms: C2_2  and  C9_9 
REMARK    2  A    between atoms: C6_6  and  C9_9 
REMARK    3  A    between atoms: C7_7  and  O10_10 
ROOT
HETATM    1  C3  UNL     1     -35.486   5.558   3.701  1.00 20.00     0.003 C 
HETATM    2  C4  UNL     1     -34.342   5.992   2.784  1.00 20.00     0.007 C 
HETATM    3  C5  UNL     1     -35.180   6.144   5.079  1.00 20.00     0.032 C 
HETATM    4  C6  UNL     1     -33.221   6.406   3.733  1.00 20.00     0.018 C 
HETATM    5  C7  UNL     1     -33.989   7.074   4.871  1.00 20.00     0.122 C 
ENDROOT
BRANCH   4   6
HETATM    6  C9  UNL     1     -32.194   7.320   3.084  1.00 20.00     0.034 C 
BRANCH   6   7
HETATM    7  C2  UNL     1     -32.833   8.564   2.542  1.00 20.00    -0.031 C 
HETATM    8  C1  UNL     1     -32.805   8.913   1.247  1.00 20.00    -0.035 C 
HETATM    9  C8  UNL     1     -33.436  10.153   0.707  1.00 20.00     0.036 C 
ENDBRANCH   6   7
ENDBRANCH   4   6
BRANCH   5  10
HETATM   10  O10 UNL     1     -33.195   7.169   6.038  1.00 20.00    -0.395 OA
HETATM   11  H26 UNL     1     -33.764   7.520   6.744  1.00 20.00     0.210 HD
ENDBRANCH   5  10
TORSDOF 3
