REMARK  0 active torsions:
REMARK  status: ('A' for Active; 'I' for Inactive)
ROOT
HETATM    1  C1  UNL     1     -33.618   6.996   5.412  1.00 20.00    -0.082 C 
HETATM    2  C2  UNL     1     -33.544   7.768   6.506  1.00 20.00     0.015 C 
HETATM    3  C3  UNL     1     -33.129   5.565   5.415  1.00 20.00     0.038 C 
HETATM    4  C4  UNL     1     -35.375   6.554   3.740  1.00 20.00     0.018 C 
HETATM    5  C5  UNL     1     -33.780   5.304   2.311  1.00 20.00     0.173 C 
HETATM    6  C6  UNL     1     -34.231   7.499   4.112  1.00 20.00     0.043 C 
HETATM    7  C7  UNL     1     -34.786   5.168   3.467  1.00 20.00     0.014 C 
HETATM    8  C8  UNL     1     -34.127   4.589   4.753  1.00 20.00    -0.009 C 
HETATM    9  C9  UNL     1     -33.176   7.550   2.981  1.00 20.00     0.125 C 
HETATM   10  C10 UNL     1     -35.193   4.151   5.767  1.00 20.00     0.011 C 
HETATM   11  C11 UNL     1     -33.648   8.341   1.760  1.00 20.00     0.040 C 
HETATM   12  O12 UNL     1     -32.742   6.244   2.580  1.00 20.00    -0.385 OA
ENDROOT
TORSDOF 0
