REMARK  1 active torsions:
REMARK  status: ('A' for Active; 'I' for Inactive)
REMARK    1  A    between atoms: C6_6  and  O8_8 
ROOT
HETATM    1  C1  UNL     1     -33.389   7.418   5.789  1.00 20.00    -0.023 C 
HETATM    2  C2  UNL     1     -34.404   6.536   5.833  1.00 20.00     0.001 C 
HETATM    3  C3  UNL     1     -32.042   7.859   3.462  1.00 20.00     0.009 C 
HETATM    4  C4  UNL     1     -33.022   7.197   2.408  1.00 20.00     0.009 C 
HETATM    5  C5  UNL     1     -33.253   7.802   4.383  1.00 20.00     0.015 C 
HETATM    6  C6  UNL     1     -34.858   6.149   4.431  1.00 20.00     0.145 C 
HETATM    7  C7  UNL     1     -33.582   6.439   3.648  1.00 20.00     0.026 C 
ENDROOT
BRANCH   6   8
HETATM    8  O8  UNL     1     -35.154   4.764   4.378  1.00 20.00    -0.391 OA
HETATM    9  H18 UNL     1     -35.865   4.600   5.020  1.00 20.00     0.210 HD
ENDBRANCH   6   8
TORSDOF 1
