REMARK  1 active torsions:
REMARK  status: ('A' for Active; 'I' for Inactive)
REMARK    1  A    between atoms: C8_8  and  O10_10 
ROOT
HETATM    1  C1  UNL     1     -33.431   6.746   5.280  1.00 20.00    -0.023 C 
HETATM    2  C2  UNL     1     -33.608   7.687   4.336  1.00 20.00     0.001 C 
HETATM    3  C3  UNL     1     -33.610   5.505   2.355  1.00 20.00     0.003 C 
HETATM    4  C4  UNL     1     -32.373   6.426   2.534  1.00 20.00     0.036 C 
HETATM    5  C5  UNL     1     -33.794   4.437   3.457  1.00 20.00     0.005 C 
HETATM    6  C6  UNL     1     -34.358   4.416   5.980  1.00 20.00     0.014 A 
HETATM    7  C7  UNL     1     -34.540   5.862   5.631  1.00 20.00     0.012 A 
HETATM    8  C8  UNL     1     -32.635   7.799   3.202  1.00 20.00     0.140 C 
HETATM    9  C9  UNL     1     -34.767   4.777   4.573  1.00 20.00    -0.006 A 
ENDROOT
BRANCH   8  10
HETATM   10  O10 UNL     1     -31.417   8.397   3.625  1.00 20.00    -0.392 OA
HETATM   11  H24 UNL     1     -30.839   8.437   2.846  1.00 20.00     0.210 HD
ENDBRANCH   8  10
TORSDOF 1
