REMARK  1 active torsions:
REMARK  status: ('A' for Active; 'I' for Inactive)
REMARK    1  A    between atoms: C6_6  and  O10_10 
ROOT
HETATM    1  C1  UNL     1     -32.611   4.651   2.836  1.00 20.00     0.003 C 
HETATM    2  C2  UNL     1     -33.167   5.635   1.808  1.00 20.00     0.032 C 
HETATM    3  C3  UNL     1     -33.653   4.324   3.903  1.00 20.00     0.010 C 
HETATM    4  C4  UNL     1     -35.524   6.101   3.837  1.00 20.00     0.017 A 
HETATM    5  C5  UNL     1     -34.239   6.873   3.742  1.00 20.00     0.023 A 
HETATM    6  C6  UNL     1     -33.485   6.985   2.451  1.00 20.00     0.125 C 
HETATM    7  C7  UNL     1     -34.275   5.564   4.513  1.00 20.00    -0.038 A 
HETATM    8  C8  UNL     1     -34.203   5.636   6.014  1.00 20.00     0.015 C 
ENDROOT
BRANCH   6   9
HETATM    9  O10 UNL     1     -32.245   7.654   2.696  1.00 20.00    -0.390 OA
HETATM   10  C9  UNL     1     -31.749   8.263   1.516  1.00 20.00     0.202 C 
ENDBRANCH   6   9
TORSDOF 1
