REMARK  0 active torsions:
REMARK  status: ('A' for Active; 'I' for Inactive)
ROOT
HETATM    1  C1  UNL     1     -33.390   6.804   5.536  1.00 20.00    -0.082 C 
HETATM    2  C2  UNL     1     -33.313   7.605   6.610  1.00 20.00     0.015 C 
HETATM    3  C3  UNL     1     -32.976   5.351   5.598  1.00 20.00     0.038 C 
HETATM    4  C4  UNL     1     -35.120   6.397   3.827  1.00 20.00     0.018 C 
HETATM    5  C5  UNL     1     -33.547   5.020   2.488  1.00 20.00     0.173 C 
HETATM    6  C6  UNL     1     -33.940   7.295   4.205  1.00 20.00     0.043 C 
HETATM    7  C7  UNL     1     -34.595   4.973   3.615  1.00 20.00     0.014 C 
HETATM    8  C8  UNL     1     -34.006   4.406   4.939  1.00 20.00    -0.009 C 
HETATM    9  C9  UNL     1     -32.908   7.258   3.051  1.00 20.00     0.125 C 
HETATM   10  C10 UNL     1     -35.123   4.060   5.934  1.00 20.00     0.011 C 
HETATM   11  C11 UNL     1     -31.668   8.100   3.334  1.00 20.00     0.040 C 
HETATM   12  O12 UNL     1     -32.476   5.921   2.768  1.00 20.00    -0.385 OA
ENDROOT
TORSDOF 0
