REMARK  1 active torsions:
REMARK  status: ('A' for Active; 'I' for Inactive)
REMARK    1  A    between atoms: C6_6  and  O10_10 
ROOT
HETATM    1  C1  UNL     1     -33.901   7.662   5.127  1.00 20.00     0.003 C 
HETATM    2  C2  UNL     1     -32.399   7.811   4.901  1.00 20.00     0.032 C 
HETATM    3  C3  UNL     1     -34.306   6.189   5.099  1.00 20.00     0.010 C 
HETATM    4  C4  UNL     1     -33.984   5.939   2.531  1.00 20.00     0.017 A 
HETATM    5  C5  UNL     1     -32.596   6.018   3.127  1.00 20.00     0.023 A 
HETATM    6  C6  UNL     1     -31.993   7.341   3.503  1.00 20.00     0.125 C 
HETATM    7  C7  UNL     1     -33.741   5.417   3.925  1.00 20.00    -0.038 A 
HETATM    8  C8  UNL     1     -33.759   3.921   4.110  1.00 20.00     0.015 C 
ENDROOT
BRANCH   6   9
HETATM    9  O10 UNL     1     -32.355   8.321   2.532  1.00 20.00    -0.390 OA
HETATM   10  C9  UNL     1     -31.617   8.158   1.330  1.00 20.00     0.202 C 
ENDBRANCH   6   9
TORSDOF 1
