REMARK  0 active torsions:
REMARK  status: ('A' for Active; 'I' for Inactive)
ROOT
HETATM    1  C1  UNL     1     -32.559   8.985  -0.655  1.00 20.00    -0.030 C 
HETATM    2  C2  UNL     1     -33.325   9.903  -0.057  1.00 20.00    -0.030 C 
HETATM    3  C3  UNL     1     -33.166   6.356   2.430  1.00 20.00     0.128 C 
HETATM    4  C4  UNL     1     -31.864   7.887   0.085  1.00 20.00     0.037 C 
HETATM    5  C5  UNL     1     -33.560   9.952   1.419  1.00 20.00     0.037 C 
HETATM    6  C6  UNL     1     -31.700   6.702   2.302  1.00 20.00     0.088 C 
HETATM    7  C7  UNL     1     -34.065   7.542   2.164  1.00 20.00     0.088 C 
HETATM    8  C8  UNL     1     -31.761   8.092   1.631  1.00 20.00    -0.026 C 
HETATM    9  C9  UNL     1     -33.068   8.725   2.223  1.00 20.00    -0.026 C 
HETATM   10  C10 UNL     1     -30.494   8.902   1.945  1.00 20.00     0.016 C 
HETATM   11  C11 UNL     1     -32.934   9.167   3.702  1.00 20.00     0.016 C 
HETATM   12  O12 UNL     1     -33.579   5.238   2.714  1.00 20.00    -0.298 OA
ENDROOT
TORSDOF 0
