REMARK  0 active torsions:
REMARK  status: ('A' for Active; 'I' for Inactive)
ROOT
HETATM    1  C1  UNL     1     -32.683   5.041   2.842  1.00 20.00    -0.029 C 
HETATM    2  C2  UNL     1     -32.412   6.323   2.546  1.00 20.00    -0.014 C 
HETATM    3  C3  UNL     1     -33.635   7.375   4.525  1.00 20.00     0.143 C 
HETATM    4  C4  UNL     1     -33.532   4.482   3.948  1.00 20.00     0.032 C 
HETATM    5  C5  UNL     1     -35.570   5.981   3.273  1.00 20.00     0.018 A 
HETATM    6  C6  UNL     1     -34.927   6.641   4.464  1.00 20.00     0.061 A 
HETATM    7  C7  UNL     1     -34.836   5.145   4.282  1.00 20.00     0.001 A 
HETATM    8  C8  UNL     1     -32.805   7.603   3.254  1.00 20.00     0.031 C 
HETATM    9  C9  UNL     1     -31.487   8.304   3.658  1.00 20.00     0.027 C 
HETATM   10  C10 UNL     1     -33.560   8.555   2.312  1.00 20.00     0.027 C 
HETATM   11  O11 UNL     1     -33.264   7.769   5.629  1.00 20.00    -0.296 OA
ENDROOT
TORSDOF 0
