REMARK  4 active torsions:
REMARK  status: ('A' for Active; 'I' for Inactive)
REMARK    1  A    between atoms: C1_1  and  C3_3 
REMARK    2  A    between atoms: C3_3  and  N6_6 
REMARK    3  A    between atoms: C4_4  and  C5_5 
REMARK    4  A    between atoms: C4_4  and  N6_6 
ROOT
HETATM    1  C4  UNL     1     -32.905   6.559   4.085  1.00 20.00     0.389 C 
ENDROOT
BRANCH   1   2
HETATM    2  C5  UNL     1     -33.611   5.441   3.360  1.00 20.00     0.413 C 
HETATM    3  F8  UNL     1     -34.250   4.637   4.239  1.00 20.00    -0.169 F 
HETATM    4  F9  UNL     1     -34.533   5.918   2.497  1.00 20.00    -0.169 F 
HETATM    5  F10 UNL     1     -32.742   4.678   2.665  1.00 20.00    -0.169 F 
ENDBRANCH   1   2
BRANCH   1   6
HETATM    6  N6  UNL     1     -32.202   7.444   3.157  1.00 20.00     0.099 N 
HETATM    7  C2  UNL     1     -31.196   8.233   3.867  1.00 20.00     0.310 C 
BRANCH   6   8
HETATM    8  C3  UNL     1     -33.149   8.322   2.471  1.00 20.00     0.341 C 
BRANCH   8   9
HETATM    9  C1  UNL     1     -32.389   9.166   1.488  1.00 20.00     0.261 C 
HETATM   10  O7  UNL     1     -32.362  10.392   1.551  1.00 20.00    -0.305 OA
ENDBRANCH   8   9
ENDBRANCH   6   8
ENDBRANCH   1   6
TORSDOF 4
