REMARK  4 active torsions:
REMARK  status: ('A' for Active; 'I' for Inactive)
REMARK    1  A    between atoms: C1_1  and  C7_7 
REMARK    2  A    between atoms: C7_7  and  N10_10 
REMARK    3  A    between atoms: C8_8  and  C9_9 
REMARK    4  A    between atoms: C8_8  and  N10_10 
ROOT
HETATM    1  C2  UNL     1     -34.382   8.282   4.773  1.00 20.00     0.043 C 
HETATM    2  C8  UNL     1     -33.348   7.211   4.424  1.00 20.00     0.226 C 
ENDROOT
BRANCH   2   3
HETATM    3  C9  UNL     1     -33.943   5.837   3.973  1.00 20.00    -0.021 C 
HETATM    4  C3  UNL     1     -34.164   4.882   5.162  1.00 20.00     0.016 C 
HETATM    5  C4  UNL     1     -35.292   6.044   3.256  1.00 20.00     0.016 C 
HETATM    6  C5  UNL     1     -32.983   5.155   2.973  1.00 20.00     0.016 C 
ENDBRANCH   2   3
BRANCH   2   7
HETATM    7  N10 UNL     1     -32.436   7.744   3.432  1.00 20.00     0.095 N 
HETATM    8  C6  UNL     1     -31.421   8.599   4.059  1.00 20.00     0.310 C 
BRANCH   7   9
HETATM    9  C7  UNL     1     -33.162   8.501   2.405  1.00 20.00     0.341 C 
BRANCH   9  10
HETATM   10  C1  UNL     1     -32.322   8.537   1.161  1.00 20.00     0.261 C 
HETATM   11  O11 UNL     1     -31.920   9.587   0.664  1.00 20.00    -0.305 OA
ENDBRANCH   9  10
ENDBRANCH   7   9
ENDBRANCH   2   7
TORSDOF 4
