REMARK  2 active torsions:
REMARK  status: ('A' for Active; 'I' for Inactive)
REMARK    1  A    between atoms: C2_2  and  C8_8 
REMARK    2  A    between atoms: C8_8  and  O9_9 
ROOT
HETATM    1  C3  UNL     1     -33.985   6.235   2.364  1.00 20.00     0.012 C 
HETATM    2  C4  UNL     1     -32.420   7.614   2.361  1.00 20.00     0.012 C 
HETATM    3  C5  UNL     1     -32.258   5.846   4.067  1.00 20.00     0.047 C 
HETATM    4  C6  UNL     1     -32.445   6.067   2.561  1.00 20.00    -0.010 C 
HETATM    5  C7  UNL     1     -33.701   7.493   3.256  1.00 20.00     0.024 C 
HETATM    6  C8  UNL     1     -33.193   6.950   4.596  1.00 20.00     0.079 C 
ENDROOT
BRANCH   6   7
HETATM    7  C2  UNL     1     -34.332   6.478   5.435  1.00 20.00     0.001 C 
HETATM    8  C1  UNL     1     -34.293   5.383   6.201  1.00 20.00     0.010 C 
ENDBRANCH   6   7
BRANCH   6   9
HETATM    9  O9  UNL     1     -32.498   7.964   5.308  1.00 20.00    -0.385 OA
HETATM   10  H21 UNL     1     -32.183   7.562   6.134  1.00 20.00     0.211 HD
ENDBRANCH   6   9
TORSDOF 2
