REMARK  1 active torsions:
REMARK  status: ('A' for Active; 'I' for Inactive)
REMARK    1  A    between atoms: C10_10  and  O11_11 
ROOT
HETATM    1  C1  UNL     1     -31.659   7.674   3.672  1.00 20.00     0.011 A 
HETATM    2  C2  UNL     1     -33.751   7.025   6.082  1.00 20.00     0.013 A 
HETATM    3  C3  UNL     1     -33.321   4.821   2.086  1.00 20.00     0.013 A 
HETATM    4  C4  UNL     1     -33.013   8.312   3.836  1.00 20.00    -0.005 A 
HETATM    5  C5  UNL     1     -32.692   7.472   2.599  1.00 20.00    -0.005 A 
HETATM    6  C6  UNL     1     -34.059   7.927   4.906  1.00 20.00    -0.003 A 
HETATM    7  C7  UNL     1     -33.565   6.261   2.383  1.00 20.00    -0.003 A 
HETATM    8  C8  UNL     1     -34.848   6.628   5.130  1.00 20.00     0.019 A 
HETATM    9  C9  UNL     1     -33.537   5.245   3.510  1.00 20.00     0.019 A 
HETATM   10  C10 UNL     1     -34.768   5.341   4.335  1.00 20.00     0.127 C 
ENDROOT
BRANCH  10  11
HETATM   11  O11 UNL     1     -34.817   4.243   5.244  1.00 20.00    -0.395 OA
HETATM   12  H25 UNL     1     -35.661   4.314   5.716  1.00 20.00     0.210 HD
ENDBRANCH  10  11
TORSDOF 1
