REMARK  0 active torsions:
REMARK  status: ('A' for Active; 'I' for Inactive)
ROOT
HETATM    1  C1  UNL     1     -32.805   7.182   2.665  1.00 20.00     0.136 C 
HETATM    2  C2  UNL     1     -32.701   8.675   4.893  1.00 20.00     0.018 A 
HETATM    3  C3  UNL     1     -32.718   4.610   2.604  1.00 20.00     0.018 A 
HETATM    4  C4  UNL     1     -34.967   5.395   5.864  1.00 20.00     0.011 A 
HETATM    5  C5  UNL     1     -32.428   7.482   4.052  1.00 20.00     0.060 A 
HETATM    6  C6  UNL     1     -33.501   5.883   2.423  1.00 20.00     0.060 A 
HETATM    7  C7  UNL     1     -33.665   7.538   4.960  1.00 20.00     0.002 A 
HETATM    8  C8  UNL     1     -33.917   4.866   3.484  1.00 20.00     0.002 A 
HETATM    9  C9  UNL     1     -33.756   6.279   5.800  1.00 20.00    -0.005 A 
HETATM   10  C10 UNL     1     -33.791   4.961   5.021  1.00 20.00    -0.005 A 
HETATM   11  O11 UNL     1     -32.532   7.942   1.746  1.00 20.00    -0.297 OA
ENDROOT
TORSDOF 0
