REMARK  1 active torsions:
REMARK  status: ('A' for Active; 'I' for Inactive)
REMARK    1  A    between atoms: C3_3  and  C7_7 
ROOT
HETATM    1  C1  UNL     1     -33.494   7.024   2.777  1.00 20.00     0.034 A 
HETATM    2  C2  UNL     1     -31.875   8.409   3.705  1.00 20.00     0.058 A 
HETATM    3  C3  UNL     1     -32.440   7.951   2.535  1.00 20.00    -0.046 A 
HETATM    4  C4  UNL     1     -33.696   6.809   4.122  1.00 20.00     0.051 A 
HETATM    5  S8  UNL     1     -32.616   7.722   5.088  1.00 20.00    -0.094 SA
HETATM    6 BR9  UNL     1     -35.011   5.640   4.838  1.00 20.00    -0.043 Br
ENDROOT
BRANCH   3   7
HETATM    7  C7  UNL     1     -31.989   8.385   1.142  1.00 20.00     0.019 A 
HETATM    8  C5  UNL     1     -31.972   9.863   0.804  1.00 20.00     0.010 A 
HETATM    9  C6  UNL     1     -33.011   8.976   0.191  1.00 20.00     0.010 A 
ENDBRANCH   3   7
TORSDOF 1
