REMARK  1 active torsions:
REMARK  status: ('A' for Active; 'I' for Inactive)
REMARK    1  A    between atoms: C4_4  and  C7_7 
ROOT
HETATM    1  C1  UNL     1     -33.991   6.651   3.884  1.00 20.00     0.056 A 
HETATM    2  C2  UNL     1     -33.604   6.896   2.635  1.00 20.00     0.010 A 
HETATM    3  C3  UNL     1     -32.954   7.213   4.741  1.00 20.00     0.157 A 
HETATM    4  C4  UNL     1     -32.311   7.617   2.597  1.00 20.00     0.157 A 
HETATM    5  N8  UNL     1     -32.913   7.212   6.025  1.00 20.00    -0.278 NA
HETATM    6  O9  UNL     1     -31.971   7.773   3.982  1.00 20.00    -0.325 OA
HETATM    7  H20 UNL     1     -32.057   7.683   6.342  1.00 20.00     0.189 HD
ENDROOT
BRANCH   4   8
HETATM    8  C7  UNL     1     -32.411   8.986   1.946  1.00 20.00     0.011 C 
HETATM    9  C5  UNL     1     -32.862   8.866   0.489  1.00 20.00     0.012 C 
HETATM   10  C6  UNL     1     -33.368   9.891   2.724  1.00 20.00     0.012 C 
ENDBRANCH   4   8
TORSDOF 1
