REMARK  1 active torsions:
REMARK  status: ('A' for Active; 'I' for Inactive)
REMARK    1  A    between atoms: C5_5  and  C8_8 
ROOT
HETATM    1  C1  UNL     1     -32.237   7.599   0.862  1.00 20.00     0.047 C 
HETATM    2  C2  UNL     1     -32.171   7.168   2.128  1.00 20.00    -0.009 C 
HETATM    3  C3  UNL     1     -32.653   8.990   0.564  1.00 20.00     0.149 C 
HETATM    4  C6  UNL     1     -32.908   9.928   1.721  1.00 20.00     0.084 C 
HETATM    5  C7  UNL     1     -33.446   9.174   2.931  1.00 20.00     0.025 C 
HETATM    6  C8  UNL     1     -32.552   7.984   3.345  1.00 20.00    -0.003 C 
HETATM    7  C11 UNL     1     -31.269   8.473   4.037  1.00 20.00     0.024 C 
HETATM    8  O12 UNL     1     -32.721   9.370  -0.603  1.00 20.00    -0.293 OA
ENDROOT
BRANCH   6   9
HETATM    9  C5  UNL     1     -33.320   7.135   4.329  1.00 20.00    -0.076 C 
HETATM   10  C4  UNL     1     -34.090   6.111   3.913  1.00 20.00    -0.027 C 
HETATM   11  C9  UNL     1     -34.897   5.195   4.741  1.00 20.00     0.036 C 
HETATM   12  C10 UNL     1     -33.154   7.524   5.771  1.00 20.00     0.044 C 
ENDBRANCH   6   9
TORSDOF 1
