REMARK  0 active torsions:
REMARK  status: ('A' for Active; 'I' for Inactive)
ROOT
HETATM    1  C1  UNL     1     -33.869   7.302   4.880  1.00 20.00     0.069 C 
HETATM    2  C2  UNL     1     -33.225   4.803   3.028  1.00 20.00     0.007 C 
HETATM    3  C3  UNL     1     -34.558   5.496   3.331  1.00 20.00     0.025 C 
HETATM    4  C4  UNL     1     -32.219   5.910   2.704  1.00 20.00     0.070 C 
HETATM    5  C5  UNL     1     -32.638   9.229   1.686  1.00 20.00     0.197 C 
HETATM    6  C6  UNL     1     -32.897   8.287   0.544  1.00 20.00     0.197 C 
HETATM    7  C7  UNL     1     -34.231   6.985   3.487  1.00 20.00     0.155 C 
HETATM    8  C8  UNL     1     -33.062   7.168   2.511  1.00 20.00     0.180 C 
HETATM    9  N9  UNL     1     -33.583   7.552   5.977  1.00 20.00    -0.197 NA
HETATM   10  O10 UNL     1     -32.302   8.352   2.759  1.00 20.00    -0.352 OA
HETATM   11  O11 UNL     1     -33.578   7.199   1.166  1.00 20.00    -0.352 OA
ENDROOT
TORSDOF 0
