REMARK  1 active torsions:
REMARK  status: ('A' for Active; 'I' for Inactive)
REMARK    1  A    between atoms: C4_4  and  C8_8 
ROOT
HETATM    1  C1  UNL     1     -32.486   8.201   3.790  1.00 20.00     0.012 A 
HETATM    2  C2  UNL     1     -33.120   7.417   4.748  1.00 20.00     0.040 A 
HETATM    3  C3  UNL     1     -33.499   6.865   2.102  1.00 20.00     0.125 A 
HETATM    4  C4  UNL     1     -32.674   7.926   2.440  1.00 20.00    -0.036 A 
HETATM    5  C5  UNL     1     -33.925   6.378   4.307  1.00 20.00     0.102 A 
HETATM    6  N9  UNL     1     -34.131   6.081   3.004  1.00 20.00    -0.253 NA
HETATM    7 BR10 UNL     1     -34.800   5.294   5.597  1.00 20.00    -0.029 Br
ENDROOT
BRANCH   4   8
HETATM    8  C8  UNL     1     -32.012   8.747   1.392  1.00 20.00     0.020 A 
HETATM    9  C6  UNL     1     -32.219  10.241   1.387  1.00 20.00     0.010 A 
HETATM   10  C7  UNL     1     -32.854   9.400   0.325  1.00 20.00     0.010 A 
ENDBRANCH   4   8
TORSDOF 1
