REMARK  2 active torsions:
REMARK  status: ('A' for Active; 'I' for Inactive)
REMARK    1  A    between atoms: C3_3  and  C6_6 
REMARK    2  A    between atoms: C3_3  and  O10_10 
ROOT
HETATM    1  C1  UNL     1     -34.696   4.874   4.514  1.00 20.00    -0.003 C 
HETATM    2  C2  UNL     1     -34.846   6.160   4.858  1.00 20.00     0.132 C 
HETATM    3  C4  UNL     1     -33.578   4.424   3.629  1.00 20.00     0.032 C 
HETATM    4  C5  UNL     1     -32.911   5.620   2.954  1.00 20.00     0.046 C 
HETATM    5  C6  UNL     1     -32.758   6.761   3.956  1.00 20.00     0.227 C 
HETATM    6  O9  UNL     1     -34.008   7.188   4.508  1.00 20.00    -0.348 OA
ENDROOT
BRANCH   5   7
HETATM    7  C3  UNL     1     -32.217   7.982   3.288  1.00 20.00     0.288 C 
HETATM    8  O8  UNL     1     -31.189   8.551   3.629  1.00 20.00    -0.262 OA
BRANCH   7   9
HETATM    9  O10 UNL     1     -33.041   8.344   2.264  1.00 20.00    -0.324 OA
HETATM   10  C7  UNL     1     -32.639   9.507   1.534  1.00 20.00     0.213 C 
ENDBRANCH   7   9
ENDBRANCH   5   7
TORSDOF 2
