REMARK  1 active torsions:
REMARK  status: ('A' for Active; 'I' for Inactive)
REMARK    1  A    between atoms: C2_2  and  C6_6 
ROOT
HETATM    1  C1  UNL     1     -32.670   7.824   4.254  1.00 20.00     0.133 A 
HETATM    2  C2  UNL     1     -32.607   7.580   2.899  1.00 20.00     0.007 A 
HETATM    3  C3  UNL     1     -33.809   5.951   4.203  1.00 20.00     0.143 A 
HETATM    4  N7  UNL     1     -33.359   6.891   5.004  1.00 20.00    -0.245 NA
HETATM    5  S8  UNL     1     -33.439   6.125   2.536  1.00 20.00    -0.066 SA
HETATM    6 BR9  UNL     1     -34.821   4.470   4.860  1.00 20.00    -0.021 Br
ENDROOT
BRANCH   2   7
HETATM    7  C6  UNL     1     -31.900   8.472   1.863  1.00 20.00     0.027 A 
HETATM    8  C4  UNL     1     -32.290   9.929   1.778  1.00 20.00     0.010 A 
HETATM    9  C5  UNL     1     -32.697   8.987   0.688  1.00 20.00     0.010 A 
ENDBRANCH   2   7
TORSDOF 1
