REMARK  1 active torsions:
REMARK  status: ('A' for Active; 'I' for Inactive)
REMARK    1  A    between atoms: C9_9  and  C10_10 
ROOT
HETATM    1  C1  UNL     1     -32.786   9.076   1.781  1.00 20.00     0.063 C 
HETATM    2  C10 UNL     1     -32.362   7.698   1.925  1.00 20.00     0.163 C 
HETATM    3  N11 UNL     1     -33.106  10.182   1.635  1.00 20.00    -0.197 NA
ENDROOT
BRANCH   2   4
HETATM    4  C9  UNL     1     -33.002   7.119   3.191  1.00 20.00    -0.033 A 
HETATM    5  C6  UNL     1     -33.398   7.687   4.468  1.00 20.00     0.021 A 
HETATM    6  C7  UNL     1     -33.820   6.477   4.854  1.00 20.00    -0.025 A 
HETATM    7  C4  UNL     1     -34.426   5.627   5.886  1.00 20.00     0.012 A 
HETATM    8  C8  UNL     1     -33.435   5.924   3.609  1.00 20.00    -0.019 A 
HETATM    9  C2  UNL     1     -34.598   4.319   5.602  1.00 20.00     0.001 A 
HETATM   10  C3  UNL     1     -34.200   3.745   4.311  1.00 20.00     0.001 A 
HETATM   11  C5  UNL     1     -33.639   4.496   3.338  1.00 20.00     0.013 A 
ENDBRANCH   2   4
TORSDOF 1
