REMARK  2 active torsions:
REMARK  status: ('A' for Active; 'I' for Inactive)
REMARK    1  A    between atoms: C5_5  and  C9_9 
REMARK    2  A    between atoms: C6_6  and  C10_10 
ROOT
HETATM    1  C1  UNL     1     -34.186   5.925   3.356  1.00 20.00     0.131 C 
HETATM    2  C2  UNL     1     -33.625   5.472   2.026  1.00 20.00     0.079 C 
HETATM    3  C3  UNL     1     -33.256   6.673   1.165  1.00 20.00     0.012 C 
HETATM    4  C4  UNL     1     -32.981   8.108   3.217  1.00 20.00     0.016 C 
HETATM    5  C5  UNL     1     -33.340   6.930   4.129  1.00 20.00     0.055 C 
HETATM    6  C6  UNL     1     -32.326   7.640   1.909  1.00 20.00    -0.014 C 
HETATM    7  O11 UNL     1     -35.217   5.431   3.809  1.00 20.00    -0.298 OA
ENDROOT
BRANCH   5   8
HETATM    8  C9  UNL     1     -34.052   7.418   5.387  1.00 20.00     0.007 C 
HETATM    9  C7  UNL     1     -34.415   6.287   6.292  1.00 20.00     0.006 C 
ENDBRANCH   5   8
BRANCH   6  10
HETATM   10  C10 UNL     1     -31.977   8.837   1.025  1.00 20.00     0.000 C 
HETATM   11  C8  UNL     1     -33.194   9.613   0.643  1.00 20.00     0.005 C 
ENDBRANCH   6  10
TORSDOF 2
