REMARK  0 active torsions:
REMARK  status: ('A' for Active; 'I' for Inactive)
ROOT
HETATM    1  C1  UNL     1     -33.847   8.048   4.090  1.00 20.00     0.050 C 
HETATM    2  C2  UNL     1     -33.244   7.653   2.954  1.00 20.00     0.003 C 
HETATM    3  C3  UNL     1     -34.124   7.128   5.234  1.00 20.00     0.027 C 
HETATM    4  C4  UNL     1     -33.867   4.126   3.579  1.00 20.00     0.056 A 
HETATM    5  C5  UNL     1     -34.839   5.208   3.982  1.00 20.00     0.133 A 
HETATM    6  C6  UNL     1     -34.019   5.355   2.736  1.00 20.00     0.108 A 
HETATM    7  C7  UNL     1     -32.790   8.695   1.963  1.00 20.00     0.068 C 
HETATM    8  C8  UNL     1     -33.907   7.732   6.606  1.00 20.00     0.070 C 
HETATM    9  N9  UNL     1     -34.530   5.902   5.222  1.00 20.00    -0.287 NA
HETATM   10  N10 UNL     1     -32.966   6.351   2.593  1.00 20.00    -0.387 N 
HETATM   11  H22 UNL     1     -32.287   6.239   1.846  1.00 20.00     0.159 HD
ENDROOT
TORSDOF 0
