REMARK  1 active torsions:
REMARK  status: ('A' for Active; 'I' for Inactive)
REMARK    1  A    between atoms: C3_3  and  C7_7 
ROOT
HETATM    1  C1  UNL     1     -34.268   6.016   5.233  1.00 20.00     0.259 C 
HETATM    2  C4  UNL     1     -34.299   4.639   4.627  1.00 20.00     0.111 C 
HETATM    3  C5  UNL     1     -33.477   4.504   3.364  1.00 20.00     0.013 C 
HETATM    4  C6  UNL     1     -33.865   5.606   2.397  1.00 20.00     0.037 C 
HETATM    5  C7  UNL     1     -33.655   6.975   3.033  1.00 20.00     0.154 C 
HETATM    6  O8  UNL     1     -34.442   6.184   6.438  1.00 20.00    -0.265 OA
HETATM    7  O9  UNL     1     -34.161   7.066   4.386  1.00 20.00    -0.312 OA
ENDROOT
BRANCH   5   8
HETATM    8  C3  UNL     1     -32.225   7.413   3.048  1.00 20.00    -0.005 C 
HETATM    9  C2  UNL     1     -31.777   8.526   2.458  1.00 20.00     0.009 C 
ENDBRANCH   5   8
TORSDOF 1
