REMARK  1 active torsions:
REMARK  status: ('A' for Active; 'I' for Inactive)
REMARK    1  A    between atoms: C10_10  and  O11_11 
ROOT
HETATM    1  C1  UNL     1     -34.699   4.067   4.856  1.00 20.00    -0.021 C 
HETATM    2  C2  UNL     1     -33.247   5.287   3.056  1.00 20.00    -0.021 C 
HETATM    3  C3  UNL     1     -34.480   4.629   6.065  1.00 20.00    -0.025 C 
HETATM    4  C4  UNL     1     -32.834   6.567   3.177  1.00 20.00    -0.022 C 
HETATM    5  C5  UNL     1     -33.896   7.332   6.474  1.00 20.00     0.041 C 
HETATM    6  C6  UNL     1     -34.579   5.057   3.715  1.00 20.00     0.035 C 
HETATM    7  C7  UNL     1     -33.896   5.968   5.830  1.00 20.00     0.016 C 
HETATM    8  C8  UNL     1     -33.806   7.430   3.956  1.00 20.00     0.042 C 
HETATM    9  C9  UNL     1     -34.654   6.323   4.534  1.00 20.00     0.015 C 
HETATM   10  C10 UNL     1     -33.398   8.191   5.259  1.00 20.00     0.127 C 
ENDROOT
BRANCH  10  11
HETATM   11  O11 UNL     1     -31.991   8.367   5.330  1.00 20.00    -0.395 OA
HETATM   12  H23 UNL     1     -31.806   8.823   6.167  1.00 20.00     0.210 HD
ENDBRANCH  10  11
TORSDOF 1
