REMARK  0 active torsions:
REMARK  status: ('A' for Active; 'I' for Inactive)
ROOT
HETATM    1  C1  UNL     1     -33.013   4.949   5.171  1.00 20.00    -0.002 C 
HETATM    2  C2  UNL     1     -33.655   7.353   5.496  1.00 20.00    -0.002 C 
HETATM    3  C3  UNL     1     -32.517   4.938   3.924  1.00 20.00    -0.022 C 
HETATM    4  C4  UNL     1     -33.313   7.915   4.326  1.00 20.00    -0.022 C 
HETATM    5  C5  UNL     1     -35.452   5.832   3.497  1.00 20.00     0.079 C 
HETATM    6  C6  UNL     1     -34.067   5.917   5.619  1.00 20.00     0.128 C 
HETATM    7  C7  UNL     1     -32.899   5.819   2.812  1.00 20.00     0.028 A 
HETATM    8  C8  UNL     1     -33.286   7.267   3.007  1.00 20.00     0.028 A 
HETATM    9  C9  UNL     1     -34.334   6.252   2.602  1.00 20.00     0.063 A 
HETATM   10  N10 UNL     1     -35.292   5.691   4.859  1.00 20.00    -0.373 N 
HETATM   11  S11 UNL     1     -36.924   5.539   2.759  1.00 20.00    -0.065 SA
HETATM   12  H20 UNL     1     -36.110   5.400   5.386  1.00 20.00     0.161 HD
ENDROOT
TORSDOF 0
