REMARK  0 active torsions:
REMARK  status: ('A' for Active; 'I' for Inactive)
ROOT
HETATM    1  C1  UNL     1     -33.104   4.507   2.696  1.00 20.00    -0.023 C 
HETATM    2  C2  UNL     1     -33.837   4.066   3.779  1.00 20.00    -0.013 C 
HETATM    3  C3  UNL     1     -33.974   6.377   5.358  1.00 20.00     0.140 C 
HETATM    4  C4  UNL     1     -33.089   7.575   4.924  1.00 20.00     0.088 C 
HETATM    5  C5  UNL     1     -32.666   5.657   3.549  1.00 20.00     0.035 C 
HETATM    6  C6  UNL     1     -34.186   5.528   4.078  1.00 20.00     0.042 C 
HETATM    7  C7  UNL     1     -32.499   7.167   3.509  1.00 20.00    -0.033 C 
HETATM    8  C8  UNL     1     -35.526   5.899   3.425  1.00 20.00     0.029 C 
HETATM    9  C9  UNL     1     -33.171   7.852   2.321  1.00 20.00     0.016 C 
HETATM   10  C10 UNL     1     -30.998   7.508   3.454  1.00 20.00     0.016 C 
HETATM   11  O11 UNL     1     -34.412   6.218   6.489  1.00 20.00    -0.297 OA
ENDROOT
TORSDOF 0
