REMARK  0 active torsions:
REMARK  status: ('A' for Active; 'I' for Inactive)
ROOT
HETATM    1  C1  UNL     1     -34.723   5.987   5.196  1.00 20.00     0.064 C 
HETATM    2  C2  UNL     1     -33.138   4.351   2.636  1.00 20.00    -0.030 C 
HETATM    3  C3  UNL     1     -34.287   4.762   2.092  1.00 20.00    -0.030 C 
HETATM    4  C4  UNL     1     -32.194   5.202   3.417  1.00 20.00     0.037 C 
HETATM    5  C5  UNL     1     -34.837   6.150   2.132  1.00 20.00     0.038 C 
HETATM    6  C6  UNL     1     -31.781   8.756   1.863  1.00 20.00     0.001 C 
HETATM    7  C7  UNL     1     -33.200   8.876   1.320  1.00 20.00     0.001 C 
HETATM    8  C8  UNL     1     -31.465   7.325   2.278  1.00 20.00     0.011 C 
HETATM    9  C9  UNL     1     -34.204   8.571   2.422  1.00 20.00     0.012 C 
HETATM   10  C10 UNL     1     -32.659   7.381   4.653  1.00 20.00     0.030 C 
HETATM   11  C11 UNL     1     -34.198   7.172   4.543  1.00 20.00     0.103 C 
HETATM   12  C12 UNL     1     -32.493   6.713   3.246  1.00 20.00    -0.027 C 
HETATM   13  C13 UNL     1     -34.006   7.130   2.974  1.00 20.00    -0.013 C 
HETATM   14  N14 UNL     1     -35.143   5.040   5.718  1.00 20.00    -0.197 NA
ENDROOT
TORSDOF 0
