REMARK  0 active torsions:
REMARK  status: ('A' for Active; 'I' for Inactive)
ROOT
HETATM    1  C1  UNL     1     -34.942   4.583   5.253  1.00 20.00    -0.029 C 
HETATM    2  C2  UNL     1     -34.670   4.443   3.939  1.00 20.00    -0.014 C 
HETATM    3  C3  UNL     1     -33.347   6.661   3.269  1.00 20.00     0.143 C 
HETATM    4  C4  UNL     1     -34.446   5.608   6.248  1.00 20.00     0.032 C 
HETATM    5  C5  UNL     1     -33.282   7.978   5.612  1.00 20.00     0.018 A 
HETATM    6  C6  UNL     1     -33.922   7.238   4.488  1.00 20.00     0.061 A 
HETATM    7  C7  UNL     1     -33.391   6.487   5.693  1.00 20.00     0.001 A 
HETATM    8  C8  UNL     1     -33.804   5.216   2.934  1.00 20.00     0.031 C 
HETATM    9  C9  UNL     1     -32.539   4.380   2.672  1.00 20.00     0.027 C 
HETATM   10  C10 UNL     1     -34.610   5.338   1.624  1.00 20.00     0.027 C 
HETATM   11  O11 UNL     1     -32.579   7.318   2.576  1.00 20.00    -0.296 OA
ENDROOT
TORSDOF 0
