REMARK  1 active torsions:
REMARK  status: ('A' for Active; 'I' for Inactive)
REMARK    1  A    between atoms: C4_4  and  C11_11 
ROOT
HETATM    1  C1  UNL     1     -33.019   6.558   2.567  1.00 20.00     0.027 A 
HETATM    2  C2  UNL     1     -33.271   7.808   4.606  1.00 20.00     0.034 A 
HETATM    3  C3  UNL     1     -33.794   5.564   3.143  1.00 20.00     0.117 A 
HETATM    4  C4  UNL     1     -32.758   7.698   3.319  1.00 20.00    -0.047 A 
HETATM    5  C5  UNL     1     -34.035   6.758   5.091  1.00 20.00     0.030 A 
HETATM    6  C12 UNL     1     -34.602   6.841   6.469  1.00 20.00     0.070 C 
HETATM    7  N13 UNL     1     -34.310   5.635   4.391  1.00 20.00    -0.266 NA
ENDROOT
BRANCH   4   8
HETATM    8  C11 UNL     1     -31.912   8.821   2.735  1.00 20.00     0.041 C 
HETATM    9  C7  UNL     1     -31.347   8.488   1.375  1.00 20.00    -0.021 C 
HETATM   10  C6  UNL     1     -31.667   9.156   0.257  1.00 20.00    -0.030 C 
HETATM   11  C8  UNL     1     -32.650  10.286   0.223  1.00 20.00     0.027 C 
HETATM   12  C9  UNL     1     -33.500  10.395   1.490  1.00 20.00     0.005 C 
HETATM   13  C10 UNL     1     -32.665  10.169   2.750  1.00 20.00     0.013 C 
ENDBRANCH   4   8
TORSDOF 1
