REMARK  3 active torsions:
REMARK  status: ('A' for Active; 'I' for Inactive)
REMARK    1  A    between atoms: C6_6  and  N10_10 
REMARK    2  A    between atoms: C7_7  and  C8_8 
REMARK    3  A    between atoms: C7_7  and  N10_10 
ROOT
HETATM    1  C1  UNL     1     -34.116   5.758   3.456  1.00 20.00     0.086 C 
HETATM    2  C6  UNL     1     -32.762   5.767   2.909  1.00 20.00     0.357 C 
HETATM    3  N9  UNL     1     -35.192   5.746   3.890  1.00 20.00    -0.196 NA
ENDROOT
BRANCH   2   4
HETATM    4  N10 UNL     1     -32.336   7.189   2.632  1.00 20.00    -0.062 N 
HETATM    5  C5  UNL     1     -32.227   7.983   3.911  1.00 20.00     0.270 C 
HETATM    6  H27 UNL     1     -31.377   7.130   2.250  1.00 20.00     0.280 HD
BRANCH   4   7
HETATM    7  C7  UNL     1     -33.190   7.853   1.618  1.00 20.00     0.243 C 
BRANCH   7   8
HETATM    8  C8  UNL     1     -32.464   9.009   0.899  1.00 20.00    -0.027 C 
HETATM    9  C2  UNL     1     -32.966   9.175  -0.546  1.00 20.00     0.016 C 
HETATM   10  C3  UNL     1     -32.762  10.308   1.672  1.00 20.00     0.016 C 
HETATM   11  C4  UNL     1     -30.941   8.790   0.882  1.00 20.00     0.016 C 
ENDBRANCH   7   8
ENDBRANCH   4   7
ENDBRANCH   2   4
TORSDOF 3
