REMARK  2 active torsions:
REMARK  status: ('A' for Active; 'I' for Inactive)
REMARK    1  A    between atoms: C7_7  and  C9_9 
REMARK    2  A    between atoms: C8_8  and  C9_9 
ROOT
HETATM    1  C1  UNL     1     -33.091   9.969   1.120  1.00 20.00     0.012 C 
HETATM    2  C2  UNL     1     -32.486   9.017   1.532  1.00 20.00    -0.117 C 
HETATM    3  C8  UNL     1     -31.743   7.853   2.033  1.00 20.00     0.093 C 
ENDROOT
BRANCH   3   4
HETATM    4  C9  UNL     1     -32.157   7.533   3.460  1.00 20.00     0.017 C 
BRANCH   4   5
HETATM    5  C7  UNL     1     -33.651   7.217   3.541  1.00 20.00    -0.006 C 
HETATM    6  C5  UNL     1     -33.950   5.767   3.149  1.00 20.00     0.082 C 
HETATM    7  C3  UNL     1     -33.881   5.051   4.474  1.00 20.00     0.127 C 
HETATM    8  C4  UNL     1     -33.843   6.004   5.640  1.00 20.00     0.079 C 
HETATM    9  O10 UNL     1     -33.859   3.832   4.589  1.00 20.00    -0.298 OA
HETATM   10  C6  UNL     1     -34.186   7.330   4.971  1.00 20.00     0.012 C 
ENDBRANCH   4   5
ENDBRANCH   3   4
TORSDOF 2
