REMARK  3 active torsions:
REMARK  status: ('A' for Active; 'I' for Inactive)
REMARK    1  A    between atoms: C6_6  and  C7_7 
REMARK    2  A    between atoms: C8_8  and  C10_10 
REMARK    3  A    between atoms: C9_9  and  C11_11 
ROOT
HETATM    1  C1  UNL     1     -33.657   7.854   5.215  1.00 20.00    -0.021 C 
HETATM    2  C2  UNL     1     -32.394   7.790   4.738  1.00 20.00    -0.020 C 
HETATM    3  C5  UNL     1     -34.490   8.365   2.949  1.00 20.00    -0.003 C 
HETATM    4  C6  UNL     1     -33.230   8.294   2.482  1.00 20.00     0.024 C 
HETATM    5  C8  UNL     1     -34.735   7.500   4.185  1.00 20.00     0.039 C 
HETATM    6  C9  UNL     1     -32.301   7.377   3.266  1.00 20.00     0.056 C 
ENDROOT
BRANCH   4   7
HETATM    7  C7  UNL     1     -32.786   9.059   1.264  1.00 20.00     0.205 C 
HETATM    8  O12 UNL     1     -33.389  10.155   1.061  1.00 20.00    -0.644 OA
HETATM    9  O13 UNL     1     -31.862   8.518   0.588  1.00 20.00    -0.644 OA
ENDBRANCH   4   7
BRANCH   6  10
HETATM   10  C11 UNL     1     -32.930   5.946   3.253  1.00 20.00     0.029 A 
HETATM   11  C4  UNL     1     -33.557   5.397   1.983  1.00 20.00    -0.024 A 
HETATM   12  C3  UNL     1     -34.818   5.464   2.456  1.00 20.00    -0.024 A 
HETATM   13  C10 UNL     1     -34.403   6.021   3.807  1.00 20.00     0.028 A 
ENDBRANCH   6  10
TORSDOF 3
