REMARK  0 active torsions:
REMARK  status: ('A' for Active; 'I' for Inactive)
ROOT
HETATM    1  C1  UNL     1     -33.481   7.750   5.592  1.00 20.00    -0.029 C 
HETATM    2  C2  UNL     1     -34.387   6.771   5.437  1.00 20.00    -0.014 C 
HETATM    3  C3  UNL     1     -33.408   5.735   3.309  1.00 20.00     0.143 C 
HETATM    4  C4  UNL     1     -32.367   8.134   4.665  1.00 20.00     0.032 C 
HETATM    5  C5  UNL     1     -31.861   7.509   2.198  1.00 20.00     0.018 A 
HETATM    6  C6  UNL     1     -33.235   6.972   2.506  1.00 20.00     0.061 A 
HETATM    7  C7  UNL     1     -32.727   8.202   3.212  1.00 20.00     0.001 A 
HETATM    8  C8  UNL     1     -34.558   5.743   4.333  1.00 20.00     0.031 C 
HETATM    9  C9  UNL     1     -34.628   4.350   4.991  1.00 20.00     0.027 C 
HETATM   10  C10 UNL     1     -35.887   6.001   3.604  1.00 20.00     0.027 C 
HETATM   11  O11 UNL     1     -32.654   4.785   3.131  1.00 20.00    -0.296 OA
ENDROOT
TORSDOF 0
