REMARK  0 active torsions:
REMARK  status: ('A' for Active; 'I' for Inactive)
ROOT
HETATM    1  C1  UNL     1     -35.272   5.784   4.441  1.00 20.00     0.005 A 
HETATM    2  C2  UNL     1     -34.957   5.987   3.147  1.00 20.00     0.107 A 
HETATM    3  C3  UNL     1     -33.870   5.961   5.043  1.00 20.00     0.132 A 
HETATM    4  C4  UNL     1     -33.742   7.073   6.072  1.00 20.00     0.031 C 
HETATM    5  O5  UNL     1     -33.236   7.668   2.995  1.00 20.00    -0.223 OA
HETATM    6  O6  UNL     1     -32.741   5.155   2.690  1.00 20.00    -0.223 OA
HETATM    7  S7  UNL     1     -33.223   6.293   3.437  1.00 20.00     0.172 S 
ENDROOT
TORSDOF 0
