REMARK  0 active torsions:
REMARK  status: ('A' for Active; 'I' for Inactive)
ROOT
HETATM    1  C1  UNL     1     -33.957   6.251   6.010  1.00 20.00    -0.017 C 
HETATM    2  C2  UNL     1     -33.962   7.617   5.900  1.00 20.00    -0.019 C 
HETATM    3  C3  UNL     1     -34.037   5.173   3.510  1.00 20.00     0.136 C 
HETATM    4  C4  UNL     1     -34.441   5.719   2.129  1.00 20.00     0.083 C 
HETATM    5  C5  UNL     1     -31.049   8.903   2.356  1.00 20.00     0.000 C 
HETATM    6  C6  UNL     1     -32.150   8.810   1.295  1.00 20.00     0.000 C 
HETATM    7  C7  UNL     1     -31.475   8.802   3.824  1.00 20.00     0.001 C 
HETATM    8  C8  UNL     1     -32.822   7.440   1.196  1.00 20.00     0.005 C 
HETATM    9  C9  UNL     1     -32.056   7.443   4.221  1.00 20.00     0.014 C 
HETATM   10  C10 UNL     1     -34.360   8.114   3.243  1.00 20.00     0.019 C 
HETATM   11  C11 UNL     1     -34.437   6.165   4.589  1.00 20.00     0.090 C 
HETATM   12  C12 UNL     1     -34.164   7.255   1.948  1.00 20.00    -0.007 C 
HETATM   13  C13 UNL     1     -33.599   7.484   4.407  1.00 20.00    -0.009 C 
HETATM   14  O14 UNL     1     -33.526   4.068   3.664  1.00 20.00    -0.297 OA
ENDROOT
TORSDOF 0
