REMARK  2 active torsions:
REMARK  status: ('A' for Active; 'I' for Inactive)
REMARK    1  A    between atoms: C7_7  and  C9_9 
REMARK    2  A    between atoms: C8_8  and  C9_9 
ROOT
HETATM    1  C1  UNL     1     -33.221  10.212   1.038  1.00 20.00     0.012 C 
HETATM    2  C2  UNL     1     -32.575   9.319   1.514  1.00 20.00    -0.117 C 
HETATM    3  C8  UNL     1     -31.780   8.227   2.092  1.00 20.00     0.093 C 
ENDROOT
BRANCH   3   4
HETATM    4  C9  UNL     1     -32.353   7.807   3.435  1.00 20.00     0.017 C 
BRANCH   4   5
HETATM    5  C7  UNL     1     -33.796   7.321   3.289  1.00 20.00    -0.006 C 
HETATM    6  C5  UNL     1     -34.408   6.937   4.639  1.00 20.00     0.082 C 
HETATM    7  C3  UNL     1     -34.083   5.467   4.737  1.00 20.00     0.127 C 
HETATM    8  C4  UNL     1     -33.581   4.904   3.434  1.00 20.00     0.079 C 
HETATM    9  O10 UNL     1     -34.213   4.807   5.759  1.00 20.00    -0.298 OA
HETATM   10  C6  UNL     1     -33.890   6.037   2.462  1.00 20.00     0.012 C 
ENDBRANCH   4   5
ENDBRANCH   3   4
TORSDOF 2
