REMARK  2 active torsions:
REMARK  status: ('A' for Active; 'I' for Inactive)
REMARK    1  A    between atoms: C6_6  and  C10_10 
REMARK    2  A    between atoms: C10_10  and  O11_11 
ROOT
HETATM    1  C1  UNL     1     -33.386   7.143   4.886  1.00 20.00    -0.024 C 
HETATM    2  C2  UNL     1     -32.493   7.474   3.936  1.00 20.00    -0.081 C 
HETATM    3  C3  UNL     1     -34.448   6.098   4.718  1.00 20.00     0.027 C 
HETATM    4  C4  UNL     1     -34.616   5.620   3.277  1.00 20.00     0.004 C 
HETATM    5  C5  UNL     1     -33.264   5.467   2.587  1.00 20.00     0.012 C 
HETATM    6  C6  UNL     1     -32.465   6.785   2.583  1.00 20.00     0.042 C 
HETATM    7  C7  UNL     1     -31.446   8.523   4.186  1.00 20.00     0.043 C 
ENDROOT
BRANCH   6   8
HETATM    8  C10 UNL     1     -32.969   7.725   1.482  1.00 20.00     0.124 C 
HETATM    9  C8  UNL     1     -34.130   8.573   1.964  1.00 20.00     0.040 C 
BRANCH   8  10
HETATM   10  O11 UNL     1     -31.899   8.566   1.074  1.00 20.00    -0.390 OA
HETATM   11  C9  UNL     1     -32.135   9.126  -0.211  1.00 20.00     0.202 C 
ENDBRANCH   8  10
ENDBRANCH   6   8
TORSDOF 2
