REMARK  0 active torsions:
REMARK  status: ('A' for Active; 'I' for Inactive)
ROOT
HETATM    1  C1  UNL     1     -33.441   4.149   3.358  1.00 20.00    -0.023 C 
HETATM    2  C2  UNL     1     -34.444   3.922   4.227  1.00 20.00    -0.013 C 
HETATM    3  C3  UNL     1     -35.929   5.901   3.640  1.00 20.00     0.140 C 
HETATM    4  C4  UNL     1     -35.437   6.369   2.283  1.00 20.00     0.088 C 
HETATM    5  C5  UNL     1     -33.430   5.652   3.599  1.00 20.00     0.035 C 
HETATM    6  C6  UNL     1     -34.696   5.399   4.472  1.00 20.00     0.042 C 
HETATM    7  C7  UNL     1     -33.916   6.607   2.477  1.00 20.00    -0.033 C 
HETATM    8  C8  UNL     1     -34.653   5.868   5.912  1.00 20.00     0.029 C 
HETATM    9  C9  UNL     1     -33.143   6.359   1.179  1.00 20.00     0.016 C 
HETATM   10  C10 UNL     1     -33.672   8.058   2.934  1.00 20.00     0.016 C 
HETATM   11  O11 UNL     1     -37.115   5.892   3.951  1.00 20.00    -0.297 OA
ENDROOT
TORSDOF 0
