REMARK  1 active torsions:
REMARK  status: ('A' for Active; 'I' for Inactive)
REMARK    1  A    between atoms: C10_10  and  O12_12 
ROOT
HETATM    1  C1  UNL     1     -35.490   5.867   4.298  1.00 20.00     0.011 A 
HETATM    2  C2  UNL     1     -33.626   6.108   1.554  1.00 20.00     0.013 A 
HETATM    3  C3  UNL     1     -33.548   8.019   5.929  1.00 20.00     0.013 A 
HETATM    4  C4  UNL     1     -34.378   4.959   3.846  1.00 20.00    -0.005 A 
HETATM    5  C5  UNL     1     -34.353   5.567   5.238  1.00 20.00    -0.005 A 
HETATM    6  C6  UNL     1     -33.335   5.279   2.781  1.00 20.00    -0.003 A 
HETATM    7  C7  UNL     1     -33.283   6.552   5.696  1.00 20.00    -0.003 A 
HETATM    8  C8  UNL     1     -32.639   6.608   2.572  1.00 20.00     0.020 A 
HETATM    9  C9  UNL     1     -32.597   7.598   4.842  1.00 20.00     0.020 A 
HETATM   10  C10 UNL     1     -32.957   7.813   3.403  1.00 20.00     0.129 C 
ENDROOT
BRANCH  10  11
HETATM   11  O12 UNL     1     -32.203   8.918   2.896  1.00 20.00    -0.390 OA
HETATM   12  C11 UNL     1     -32.169   8.909   1.479  1.00 20.00     0.202 C 
ENDBRANCH  10  11
TORSDOF 1
