REMARK  3 active torsions:
REMARK  status: ('A' for Active; 'I' for Inactive)
REMARK    1  A    between atoms: C6_6  and  C7_7 
REMARK    2  A    between atoms: C8_8  and  C10_10 
REMARK    3  A    between atoms: C9_9  and  C11_11 
ROOT
HETATM    1  C1  UNL     1     -31.170   7.471   3.910  1.00 20.00    -0.021 C 
HETATM    2  C2  UNL     1     -32.290   7.918   4.530  1.00 20.00    -0.020 C 
HETATM    3  C5  UNL     1     -32.442   5.838   2.611  1.00 20.00    -0.003 C 
HETATM    4  C6  UNL     1     -33.506   6.144   3.389  1.00 20.00     0.024 C 
HETATM    5  C8  UNL     1     -31.433   6.981   2.455  1.00 20.00     0.039 C 
HETATM    6  C9  UNL     1     -33.592   7.644   3.773  1.00 20.00     0.056 C 
ENDROOT
BRANCH   4   7
HETATM    7  C7  UNL     1     -34.579   5.147   3.738  1.00 20.00     0.205 C 
HETATM    8  O12 UNL     1     -34.200   3.940   3.799  1.00 20.00    -0.644 OA
HETATM    9  O13 UNL     1     -35.732   5.633   3.929  1.00 20.00    -0.644 OA
ENDBRANCH   4   7
BRANCH   6  10
HETATM   10  C11 UNL     1     -33.591   8.219   2.339  1.00 20.00     0.029 C 
HETATM   11  C4  UNL     1     -33.584   9.511   1.567  1.00 20.00    -0.024 C 
HETATM   12  C3  UNL     1     -32.703   8.885   0.692  1.00 20.00    -0.024 C 
HETATM   13  C10 UNL     1     -32.063   8.282   1.914  1.00 20.00     0.028 C 
ENDBRANCH   6  10
TORSDOF 3
