REMARK  0 active torsions:
REMARK  status: ('A' for Active; 'I' for Inactive)
ROOT
HETATM    1  C1  UNL     1     -33.830   7.807   5.993  1.00 20.00    -0.021 C 
HETATM    2  C2  UNL     1     -32.338   8.546   3.764  1.00 20.00    -0.021 C 
HETATM    3  C3  UNL     1     -34.594   6.685   5.995  1.00 20.00    -0.018 C 
HETATM    4  C4  UNL     1     -32.205   7.721   2.680  1.00 20.00    -0.024 C 
HETATM    5  C5  UNL     1     -34.061   4.733   3.970  1.00 20.00     0.135 C 
HETATM    6  C6  UNL     1     -33.450   5.136   2.592  1.00 20.00     0.087 C 
HETATM    7  C7  UNL     1     -32.841   7.711   4.903  1.00 20.00     0.036 C 
HETATM    8  C8  UNL     1     -34.619   5.967   4.681  1.00 20.00     0.083 C 
HETATM    9  C9  UNL     1     -32.665   6.334   3.077  1.00 20.00     0.021 C 
HETATM   10  C10 UNL     1     -33.731   6.936   3.964  1.00 20.00     0.020 C 
HETATM   11  O11 UNL     1     -34.153   3.587   4.385  1.00 20.00    -0.297 OA
ENDROOT
TORSDOF 0
