REMARK  1 active torsions:
REMARK  status: ('A' for Active; 'I' for Inactive)
REMARK    1  A    between atoms: C3_3  and  C8_8 
ROOT
HETATM    1  C1  UNL     1     -33.661   6.682   4.512  1.00 20.00     0.147 C 
HETATM    2  C4  UNL     1     -33.387   4.269   2.937  1.00 20.00     0.007 C 
HETATM    3  C5  UNL     1     -32.753   5.610   2.516  1.00 20.00     0.022 C 
HETATM    4  C6  UNL     1     -35.101   5.879   2.877  1.00 20.00     0.027 C 
HETATM    5  C7  UNL     1     -34.630   4.704   3.747  1.00 20.00     0.002 C 
HETATM    6  C8  UNL     1     -33.781   6.638   2.996  1.00 20.00     0.038 C 
HETATM    7  C9  UNL     1     -34.247   5.398   5.098  1.00 20.00     0.018 C 
HETATM    8  C10 UNL     1     -35.474   5.711   5.957  1.00 20.00     0.023 C 
HETATM    9  C11 UNL     1     -33.210   4.638   5.923  1.00 20.00     0.023 C 
HETATM   10  O12 UNL     1     -33.148   7.579   5.165  1.00 20.00    -0.296 OA
ENDROOT
BRANCH   6  11
HETATM   11  C3  UNL     1     -33.730   7.973   2.360  1.00 20.00    -0.020 C 
HETATM   12  C2  UNL     1     -32.694   8.812   2.464  1.00 20.00     0.008 C 
ENDBRANCH   6  11
TORSDOF 1
