REMARK  0 active torsions:
REMARK  status: ('A' for Active; 'I' for Inactive)
ROOT
HETATM    1  C1  UNL     1     -33.904   8.115   1.495  1.00 20.00     0.052 A 
HETATM    2  C2  UNL     1     -31.958   7.414   3.366  1.00 20.00     0.126 A 
HETATM    3  C3  UNL     1     -33.997   6.944   2.207  1.00 20.00    -0.043 A 
HETATM    4  C4  UNL     1     -33.026   6.585   3.150  1.00 20.00    -0.028 A 
HETATM    5  C5  UNL     1     -32.786   8.890   1.774  1.00 20.00     0.126 A 
HETATM    6  C6  UNL     1     -34.100   4.659   2.504  1.00 20.00     0.020 C 
HETATM    7  C7  UNL     1     -35.798   5.960   3.570  1.00 20.00     0.030 C 
HETATM    8  C8  UNL     1     -35.039   5.853   2.226  1.00 20.00     0.021 C 
HETATM    9  C9  UNL     1     -33.460   5.281   3.766  1.00 20.00     0.040 C 
HETATM   10  C10 UNL     1     -34.737   5.497   4.613  1.00 20.00     0.091 C 
HETATM   11  N11 UNL     1     -31.816   8.573   2.683  1.00 20.00    -0.248 NA
HETATM   12 CL12 UNL     1     -32.531  10.381   0.959  1.00 20.00    -0.062 Cl
HETATM   13 CL13 UNL     1     -34.524   6.654   5.941  1.00 20.00    -0.124 Cl
ENDROOT
TORSDOF 0
