REMARK  0 active torsions:
REMARK  status: ('A' for Active; 'I' for Inactive)
ROOT
HETATM    1  C1  UNL     1     -33.283   6.576   4.053  1.00 20.00    -0.010 C 
HETATM    2  C2  UNL     1     -33.422   7.747   4.966  1.00 20.00     0.155 C 
HETATM    3  C3  UNL     1     -33.927   5.445   4.371  1.00 20.00    -0.078 C 
HETATM    4  C4  UNL     1     -32.445   6.752   2.822  1.00 20.00     0.051 C 
HETATM    5  C5  UNL     1     -33.481   9.116   4.323  1.00 20.00     0.084 C 
HETATM    6  C6  UNL     1     -32.567   9.245   3.108  1.00 20.00     0.017 C 
HETATM    7  C7  UNL     1     -32.713   8.089   2.095  1.00 20.00    -0.043 C 
HETATM    8  C8  UNL     1     -33.847   4.216   3.513  1.00 20.00     0.043 C 
HETATM    9  C9  UNL     1     -34.774   5.333   5.605  1.00 20.00     0.043 C 
HETATM   10  C10 UNL     1     -34.113   8.092   1.450  1.00 20.00     0.015 C 
HETATM   11  C11 UNL     1     -31.670   8.269   0.975  1.00 20.00     0.015 C 
HETATM   12  O12 UNL     1     -33.560   7.604   6.179  1.00 20.00    -0.293 OA
ENDROOT
TORSDOF 0
