REMARK  3 active torsions:
REMARK  status: ('A' for Active; 'I' for Inactive)
REMARK    1  A    between atoms: C2_2  and  N8_8 
REMARK    2  A    between atoms: C6_6  and  C7_7 
REMARK    3  A    between atoms: C6_6  and  N8_8 
ROOT
HETATM    1  N8  UNL     1     -33.991   7.829   3.704  1.00 20.00     0.097 N 
HETATM    2  H23 UNL     1     -34.795   7.704   3.094  1.00 20.00     0.316 HD
ENDROOT
BRANCH   1   3
HETATM    3  C2  UNL     1     -32.769   7.662   2.909  1.00 20.00     0.229 A 
HETATM    4  C1  UNL     1     -31.464   8.219   3.411  1.00 20.00     0.047 A 
HETATM    5  C3  UNL     1     -32.119   8.834   2.195  1.00 20.00    -0.015 A 
HETATM    6  C4  UNL     1     -31.498   8.566   0.849  1.00 20.00     0.017 C 
HETATM    7  C5  UNL     1     -32.704  10.215   2.337  1.00 20.00     0.017 C 
ENDBRANCH   1   3
BRANCH   1   8
HETATM    8  C6  UNL     1     -34.037   6.854   4.781  1.00 20.00     0.386 C 
BRANCH   8   9
HETATM    9  C7  UNL     1     -34.539   5.516   4.299  1.00 20.00     0.413 C 
HETATM   10  F9  UNL     1     -34.570   4.629   5.318  1.00 20.00    -0.169 F 
HETATM   11  F10 UNL     1     -35.790   5.610   3.800  1.00 20.00    -0.169 F 
HETATM   12  F11 UNL     1     -33.740   5.007   3.337  1.00 20.00    -0.169 F 
ENDBRANCH   8   9
ENDBRANCH   1   8
TORSDOF 3
