REMARK  2 active torsions:
REMARK  status: ('A' for Active; 'I' for Inactive)
REMARK    1  A    between atoms: C3_3  and  N10_10 
REMARK    2  A    between atoms: C8_8  and  N10_10 
ROOT
HETATM    1  C1  UNL     1     -32.120   8.940   2.411  1.00 20.00     0.094 C 
HETATM    2  C7  UNL     1     -30.021   7.916   3.201  1.00 20.00     0.059 C 
HETATM    3  C8  UNL     1     -31.282   8.677   3.588  1.00 20.00     0.322 C 
HETATM    4  N9  UNL     1     -32.781   9.152   1.480  1.00 20.00    -0.195 NA
ENDROOT
BRANCH   3   5
HETATM    5  N10 UNL     1     -32.043   7.938   4.581  1.00 20.00     0.106 N 
HETATM    6  H24 UNL     1     -31.460   7.757   5.394  1.00 20.00     0.318 HD
BRANCH   5   7
HETATM    7  C3  UNL     1     -32.497   6.655   4.034  1.00 20.00     0.230 A 
HETATM    8  C2  UNL     1     -33.704   6.605   3.135  1.00 20.00     0.047 A 
HETATM    9  C4  UNL     1     -33.776   5.993   4.516  1.00 20.00    -0.015 A 
HETATM   10  C5  UNL     1     -33.780   4.490   4.621  1.00 20.00     0.017 C 
HETATM   11  C6  UNL     1     -34.634   6.682   5.545  1.00 20.00     0.017 C 
ENDBRANCH   5   7
ENDBRANCH   3   5
TORSDOF 2
