REMARK  3 active torsions:
REMARK  status: ('A' for Active; 'I' for Inactive)
REMARK    1  A    between atoms: C2_2  and  C8_8 
REMARK    2  A    between atoms: C4_4  and  N9_9 
REMARK    3  A    between atoms: C8_8  and  N9_9 
ROOT
HETATM    1  N9  UNL     1     -33.234   7.574   2.413  1.00 20.00     0.093 N 
HETATM    2  H24 UNL     1     -33.244   7.100   1.515  1.00 20.00     0.316 HD
ENDROOT
BRANCH   1   3
HETATM    3  C4  UNL     1     -33.073   6.571   3.471  1.00 20.00     0.229 A 
HETATM    4  C3  UNL     1     -33.462   6.887   4.891  1.00 20.00     0.047 A 
HETATM    5  C5  UNL     1     -34.256   5.865   4.110  1.00 20.00    -0.015 A 
HETATM    6  C6  UNL     1     -35.661   6.228   3.704  1.00 20.00     0.017 C 
HETATM    7  C7  UNL     1     -34.081   4.412   4.469  1.00 20.00     0.017 C 
ENDBRANCH   1   3
BRANCH   1   8
HETATM    8  C8  UNL     1     -32.143   8.533   2.449  1.00 20.00     0.320 C 
BRANCH   8   9
HETATM    9  C2  UNL     1     -32.261   9.579   1.380  1.00 20.00     0.030 C 
HETATM   10  C1  UNL     1     -32.334  10.893   1.623  1.00 20.00     0.034 C 
HETATM   11 CL10 UNL     1     -32.369   8.997  -0.249  1.00 20.00    -0.088 Cl
ENDBRANCH   8   9
ENDBRANCH   1   8
TORSDOF 3
