REMARK  1 active torsions:
REMARK  status: ('A' for Active; 'I' for Inactive)
REMARK    1  A    between atoms: C6_6  and  N10_10 
ROOT
HETATM    1  C1  UNL     1     -33.800   5.817   3.928  1.00 20.00     0.156 C 
HETATM    2  C2  UNL     1     -33.986   6.879   4.967  1.00 20.00     0.110 C 
HETATM    3  C3  UNL     1     -32.695   6.171   2.968  1.00 20.00     0.350 C 
HETATM    4  C5  UNL     1     -32.728   7.705   4.741  1.00 20.00     0.281 C 
HETATM    5  N10 UNL     1     -32.371   7.563   3.318  1.00 20.00     0.101 N 
HETATM    6  O11 UNL     1     -34.465   4.791   3.864  1.00 20.00    -0.296 OA
ENDROOT
BRANCH   5   7
HETATM    7  C6  UNL     1     -33.119   8.508   2.486  1.00 20.00     0.232 A 
HETATM    8  C4  UNL     1     -32.623   9.917   2.295  1.00 20.00     0.047 A 
HETATM    9  C7  UNL     1     -32.624   8.960   1.124  1.00 20.00    -0.015 A 
HETATM   10  C8  UNL     1     -31.292   8.482   0.606  1.00 20.00     0.017 C 
HETATM   11  C9  UNL     1     -33.658   9.165   0.047  1.00 20.00     0.017 C 
ENDBRANCH   5   7
TORSDOF 1
