REMARK  0 active torsions:
REMARK  status: ('A' for Active; 'I' for Inactive)
ROOT
HETATM    1  C1  UNL     1     -33.644   7.615   4.300  1.00 20.00     0.060 A 
HETATM    2  C2  UNL     1     -33.069   5.495   2.536  1.00 20.00     0.065 A 
HETATM    3  C3  UNL     1     -32.256   9.030   1.336  1.00 20.00     0.167 A 
HETATM    4  C4  UNL     1     -33.080   7.892   3.037  1.00 20.00     0.076 A 
HETATM    5  C5  UNL     1     -33.628   5.247   3.792  1.00 20.00     0.139 A 
HETATM    6  C6  UNL     1     -32.802   6.826   2.177  1.00 20.00     0.038 A 
HETATM    7  C7  UNL     1     -33.912   6.292   4.665  1.00 20.00     0.074 A 
HETATM    8  N8  UNL     1     -32.761   9.148   2.541  1.00 20.00    -0.253 NA
HETATM    9  F9  UNL     1     -33.887   3.979   4.145  1.00 20.00    -0.204 F 
HETATM   10  S10 UNL     1     -32.125   7.441   0.715  1.00 20.00    -0.080 SA
HETATM   11 CL11 UNL     1     -34.602   5.964   6.210  1.00 20.00    -0.081 Cl
ENDROOT
TORSDOF 0
