REMARK  0 active torsions:
REMARK  status: ('A' for Active; 'I' for Inactive)
ROOT
HETATM    1  C1  UNL     1     -31.582   8.678   4.022  1.00 20.00     0.035 A 
HETATM    2  C2  UNL     1     -31.223   9.194   2.774  1.00 20.00     0.026 A 
HETATM    3  C3  UNL     1     -32.900   7.824   1.684  1.00 20.00     0.045 A 
HETATM    4  C4  UNL     1     -32.614   7.720   4.114  1.00 20.00     0.077 A 
HETATM    5  C5  UNL     1     -33.256   7.310   2.941  1.00 20.00     0.039 A 
HETATM    6  C6  UNL     1     -31.875   8.771   1.621  1.00 20.00     0.035 A 
HETATM    7  C7  UNL     1     -34.042   6.283   4.989  1.00 20.00     0.253 A 
HETATM    8  N8  UNL     1     -33.076   7.123   5.279  1.00 20.00    -0.213 NA
HETATM    9  F9  UNL     1     -34.665   5.571   5.939  1.00 20.00    -0.176 F 
HETATM   10  S10 UNL     1     -34.464   6.146   3.337  1.00 20.00    -0.037 SA
HETATM   11 CL11 UNL     1     -31.417   9.423   0.093  1.00 20.00    -0.084 Cl
ENDROOT
TORSDOF 0
