REMARK  0 active torsions:
REMARK  status: ('A' for Active; 'I' for Inactive)
ROOT
HETATM    1  C1  UNL     1     -32.805   5.719   2.605  1.00 20.00     0.042 C 
HETATM    2  C2  UNL     1     -31.697   8.841   0.650  1.00 20.00    -0.026 A 
HETATM    3  C3  UNL     1     -32.149   9.819   1.445  1.00 20.00    -0.026 A 
HETATM    4  C4  UNL     1     -32.645   7.114   2.225  1.00 20.00    -0.050 A 
HETATM    5  C5  UNL     1     -33.105   8.099   3.031  1.00 20.00    -0.067 A 
HETATM    6  C6  UNL     1     -33.665   5.391   3.577  1.00 20.00     0.079 C 
HETATM    7  C7  UNL     1     -31.889   7.383   0.949  1.00 20.00     0.065 A 
HETATM    8  C8  UNL     1     -32.899   9.561   2.719  1.00 20.00     0.061 A 
HETATM    9  C9  UNL     1     -33.852   7.787   4.315  1.00 20.00     0.074 C 
HETATM   10  C10 UNL     1     -34.468   4.413   5.361  1.00 20.00     0.345 C 
HETATM   11  C11 UNL     1     -34.484   6.393   4.299  1.00 20.00     0.184 C 
HETATM   12  O12 UNL     1     -33.760   4.141   4.143  1.00 20.00    -0.328 OA
HETATM   13  O13 UNL     1     -34.574   5.824   5.600  1.00 20.00    -0.354 OA
ENDROOT
TORSDOF 0
