REMARK  0 active torsions:
REMARK  status: ('A' for Active; 'I' for Inactive)
ROOT
HETATM    1  C1  UNL     1     -33.593   6.065   3.703  1.00 20.00     0.317 C 
HETATM    2  C2  UNL     1     -34.053   5.948   4.950  1.00 20.00     0.253 C 
HETATM    3  F3  UNL     1     -33.247   4.974   2.987  1.00 20.00    -0.169 F 
HETATM    4  F4  UNL     1     -33.473   7.290   3.151  1.00 20.00    -0.169 F 
HETATM    5  F5  UNL     1     -34.389   7.063   5.633  1.00 20.00    -0.187 F 
HETATM    6 CL6  UNL     1     -34.231   4.415   5.713  1.00 20.00    -0.046 Cl
ENDROOT
TORSDOF 0
