REMARK  1 active torsions:
REMARK  status: ('A' for Active; 'I' for Inactive)
REMARK    1  A    between atoms: C1_1  and  C2_2 
ROOT
HETATM    1  C2  UNL     1     -34.031   5.480   3.919  1.00 20.00     0.447 C 
HETATM    2  F5  UNL     1     -33.865   4.143   3.995  1.00 20.00    -0.166 F 
HETATM    3  F6  UNL     1     -35.262   5.720   3.419  1.00 20.00    -0.166 F 
HETATM    4  F7  UNL     1     -33.128   5.964   3.041  1.00 20.00    -0.166 F 
ENDROOT
BRANCH   1   5
HETATM    5  C1  UNL     1     -33.867   6.122   5.265  1.00 20.00     0.459 C 
HETATM    6  F3  UNL     1     -34.807   5.644   6.115  1.00 20.00    -0.205 F 
HETATM    7  F4  UNL     1     -34.072   7.458   5.160  1.00 20.00    -0.205 F 
ENDBRANCH   1   5
TORSDOF 1
