REMARK  0 active torsions:
REMARK  status: ('A' for Active; 'I' for Inactive)
ROOT
HETATM    1  C1  UNL     1     -33.479   6.856   4.452  1.00 20.00     0.089 C 
HETATM    2  C2  UNL     1     -34.191   5.545   4.173  1.00 20.00     0.251 C 
HETATM    3  F3  UNL     1     -35.401   5.822   3.616  1.00 20.00    -0.208 F 
HETATM    4 CL4  UNL     1     -34.448   4.646   5.684  1.00 20.00    -0.066 Cl
HETATM    5 CL5  UNL     1     -33.249   4.561   3.031  1.00 20.00    -0.066 Cl
ENDROOT
TORSDOF 0
