REMARK  1 active torsions:
REMARK  status: ('A' for Active; 'I' for Inactive)
REMARK    1  A    between atoms: C5_5  and  C6_6 
ROOT
HETATM    1  C1  UNL     1     -32.672   8.537   1.738  1.00 20.00     0.084 C 
HETATM    2  C6  UNL     1     -33.020   8.208   3.138  1.00 20.00     0.222 C 
HETATM    3  N7  UNL     1     -32.381   8.800   0.646  1.00 20.00    -0.195 NA
HETATM    4 CL9  UNL     1     -31.556   8.488   4.139  1.00 20.00    -0.104 Cl
ENDROOT
BRANCH   2   5
HETATM    5  C5  UNL     1     -33.537   6.833   3.334  1.00 20.00    -0.019 A 
HETATM    6  C2  UNL     1     -34.812   6.536   3.897  1.00 20.00     0.017 A 
HETATM    7  C3  UNL     1     -35.043   5.180   3.967  1.00 20.00     0.050 A 
HETATM    8  S8  UNL     1     -33.728   4.271   3.354  1.00 20.00    -0.113 SA
HETATM    9  C4  UNL     1     -32.843   5.692   2.994  1.00 20.00     0.059 A 
ENDBRANCH   2   5
TORSDOF 1
