REMARK  0 active torsions:
REMARK  status: ('A' for Active; 'I' for Inactive)
ROOT
HETATM    1  C1  UNL     1     -32.597   7.241   2.502  1.00 20.00     0.085 C 
HETATM    2  C2  UNL     1     -33.135   4.890   3.059  1.00 20.00     0.067 C 
HETATM    3  C3  UNL     1     -34.308   6.780   4.229  1.00 20.00     0.067 C 
HETATM    4  C4  UNL     1     -34.162   3.956   3.693  1.00 20.00     0.170 C 
HETATM    5  C5  UNL     1     -35.268   5.737   4.797  1.00 20.00     0.170 C 
HETATM    6  C6  UNL     1     -33.671   6.321   2.909  1.00 20.00     0.129 C 
HETATM    7  N7  UNL     1     -31.749   7.965   2.182  1.00 20.00    -0.195 NA
HETATM    8  O8  UNL     1     -34.616   4.476   4.941  1.00 20.00    -0.391 OA
HETATM    9 CL9  UNL     1     -34.896   6.376   1.593  1.00 20.00    -0.103 Cl
ENDROOT
TORSDOF 0
