REMARK  1 active torsions:
REMARK  status: ('A' for Active; 'I' for Inactive)
REMARK    1  A    between atoms: C5_5  and  C6_6 
ROOT
HETATM    1  C1  UNL     1     -32.628   7.507   3.253  1.00 20.00     0.080 C 
HETATM    2  C6  UNL     1     -33.188   6.924   4.478  1.00 20.00     0.195 C 
HETATM    3  N7  UNL     1     -32.182   7.970   2.287  1.00 20.00    -0.196 NA
HETATM    4 CL9  UNL     1     -33.498   8.254   5.626  1.00 20.00    -0.109 Cl
ENDROOT
BRANCH   2   5
HETATM    5  C5  UNL     1     -34.484   6.163   4.200  1.00 20.00     0.044 C 
HETATM    6  C2  UNL     1     -34.259   4.974   3.289  1.00 20.00     0.035 C 
HETATM    7  C3  UNL     1     -33.818   3.887   4.247  1.00 20.00     0.168 C 
HETATM    8  O8  UNL     1     -34.395   4.192   5.524  1.00 20.00    -0.391 OA
HETATM    9  C4  UNL     1     -35.017   5.483   5.451  1.00 20.00     0.174 C 
ENDBRANCH   2   5
TORSDOF 1
