REMARK  1 active torsions:
REMARK  status: ('A' for Active; 'I' for Inactive)
REMARK    1  A    between atoms: C4_4  and  C5_5 
ROOT
HETATM    1  C1  UNL     1     -34.024   6.752   5.267  1.00 20.00     0.085 C 
HETATM    2  C3  UNL     1     -33.996   4.378   4.635  1.00 20.00     0.049 C 
HETATM    3  C5  UNL     1     -34.030   5.822   4.123  1.00 20.00     0.121 C 
HETATM    4  N6  UNL     1     -34.017   7.482   6.169  1.00 20.00    -0.195 NA
HETATM    5 CL7  UNL     1     -35.580   6.067   3.251  1.00 20.00    -0.103 Cl
ENDROOT
BRANCH   3   6
HETATM    6  C4  UNL     1     -32.832   6.073   3.184  1.00 20.00     0.036 C 
HETATM    7  C2  UNL     1     -32.757   7.466   2.562  1.00 20.00     0.008 C 
ENDBRANCH   3   6
TORSDOF 1
