REMARK  1 active torsions:
REMARK  status: ('A' for Active; 'I' for Inactive)
REMARK    1  A    between atoms: C5_5  and  C6_6 
ROOT
HETATM    1  C1  UNL     1     -32.960   6.877   2.676  1.00 20.00     0.080 C 
HETATM    2  C5  UNL     1     -32.961   5.673   3.523  1.00 20.00     0.196 C 
HETATM    3  N7  UNL     1     -32.955   7.828   2.010  1.00 20.00    -0.196 NA
HETATM    4 CL8  UNL     1     -32.915   4.271   2.405  1.00 20.00    -0.109 Cl
ENDROOT
BRANCH   2   5
HETATM    5  C6  UNL     1     -34.154   5.616   4.526  1.00 20.00    -0.022 C 
HETATM    6  C2  UNL     1     -34.090   6.814   5.499  1.00 20.00     0.017 C 
HETATM    7  C3  UNL     1     -35.489   5.721   3.754  1.00 20.00     0.017 C 
HETATM    8  C4  UNL     1     -34.174   4.316   5.356  1.00 20.00     0.017 C 
ENDBRANCH   2   5
TORSDOF 1
