REMARK  1 active torsions:
REMARK  status: ('A' for Active; 'I' for Inactive)
REMARK    1  A    between atoms: C7_7  and  N8_8 
ROOT
HETATM    1  C1  UNL     1     -34.296   4.087   4.531  1.00 20.00     0.045 C 
HETATM    2  C2  UNL     1     -33.383   4.958   3.682  1.00 20.00     0.236 C 
HETATM    3  C3  UNL     1     -35.468   6.116   4.221  1.00 20.00     0.251 C 
HETATM    4  C4  UNL     1     -35.694   4.612   4.225  1.00 20.00     0.086 C 
HETATM    5  N8  UNL     1     -34.140   6.260   3.501  1.00 20.00    -0.066 N 
HETATM    6  S9  UNL     1     -36.898   4.120   5.480  1.00 20.00    -0.091 SA
HETATM    7  H24 UNL     1     -34.353   6.345   2.497  1.00 20.00     0.280 HD
ENDROOT
BRANCH   5   8
HETATM    8  C7  UNL     1     -33.371   7.481   3.890  1.00 20.00     0.180 C 
HETATM    9  C5  UNL     1     -32.134   7.572   3.011  1.00 20.00     0.039 C 
HETATM   10  C6  UNL     1     -33.023   7.381   5.367  1.00 20.00     0.039 C 
ENDBRANCH   5   8
TORSDOF 1
