REMARK  2 active torsions:
REMARK  status: ('A' for Active; 'I' for Inactive)
REMARK    1  A    between atoms: C4_4  and  C5_5 
REMARK    2  A    between atoms: C4_4  and  C6_6 
ROOT
HETATM    1  C1  UNL     1     -32.642   7.475   2.731  1.00 20.00     0.079 C 
HETATM    2  C5  UNL     1     -33.109   6.609   3.820  1.00 20.00     0.189 C 
HETATM    3  N7  UNL     1     -32.271   8.155   1.867  1.00 20.00    -0.196 NA
HETATM    4 CL8  UNL     1     -33.222   7.627   5.289  1.00 20.00    -0.109 Cl
ENDROOT
BRANCH   2   5
HETATM    5  C4  UNL     1     -34.479   5.985   3.529  1.00 20.00     0.039 C 
BRANCH   5   6
HETATM    6  C6  UNL     1     -34.831   4.757   4.396  1.00 20.00    -0.020 C 
HETATM    7  C2  UNL     1     -33.832   3.612   4.221  1.00 20.00     0.009 C 
HETATM    8  C3  UNL     1     -34.893   5.166   5.871  1.00 20.00     0.009 C 
ENDBRANCH   5   6
ENDBRANCH   2   5
TORSDOF 2
