REMARK  0 active torsions:
REMARK  status: ('A' for Active; 'I' for Inactive)
ROOT
HETATM    1  C1  UNL     1     -35.975   6.095   3.439  1.00 20.00     0.085 C 
HETATM    2  C2  UNL     1     -33.854   6.628   2.304  1.00 20.00     0.051 C 
HETATM    3  C3  UNL     1     -34.201   7.157   4.780  1.00 20.00     0.051 C 
HETATM    4  C4  UNL     1     -32.341   6.817   2.372  1.00 20.00     0.076 C 
HETATM    5  C5  UNL     1     -32.715   7.388   5.042  1.00 20.00     0.076 C 
HETATM    6  C6  UNL     1     -34.514   6.190   3.624  1.00 20.00     0.127 C 
HETATM    7  N7  UNL     1     -37.124   6.020   3.294  1.00 20.00    -0.195 NA
HETATM    8  S8  UNL     1     -31.869   8.074   3.592  1.00 20.00    -0.169 SA
HETATM    9 CL9  UNL     1     -33.975   4.527   4.054  1.00 20.00    -0.103 Cl
ENDROOT
TORSDOF 0
