REMARK  2 active torsions:
REMARK  status: ('A' for Active; 'I' for Inactive)
REMARK    1  A    between atoms: C1_1  and  C3_3 
REMARK       I    between atoms: C1_1  and  N8_8 
REMARK    2  A    between atoms: N8_8  and  O10_10 
ROOT
HETATM    1  C1  UNL     1     -33.709   6.726   3.355  1.00 20.00     0.247 C 
HETATM    2  C6  UNL     1     -33.357   7.368   5.734  1.00 20.00     0.189 C 
HETATM    3  N8  UNL     1     -33.799   6.453   4.698  1.00 20.00    -0.231 N 
HETATM    4  O9  UNL     1     -34.082   5.955   2.469  1.00 20.00    -0.271 OA
ENDROOT
BRANCH   1   5
HETATM    5  C3  UNL     1     -33.095   8.056   2.991  1.00 20.00     0.084 A 
HETATM    6  C2  UNL     1     -31.611   8.144   2.931  1.00 20.00     0.019 A 
HETATM    7  C4  UNL     1     -32.424   8.171   1.667  1.00 20.00    -0.005 A 
HETATM    8  C5  UNL     1     -32.563   9.436   0.893  1.00 20.00     0.011 C 
ENDBRANCH   1   5
BRANCH   3   9
HETATM    9  O10 UNL     1     -34.332   5.256   5.214  1.00 20.00    -0.281 OA
HETATM   10  C7  UNL     1     -33.281   4.304   5.353  1.00 20.00     0.238 C 
ENDBRANCH   3   9
TORSDOF 2
