REMARK  1 active torsions:
REMARK  status: ('A' for Active; 'I' for Inactive)
REMARK    1  A    between atoms: C3_3  and  C8_8 
ROOT
HETATM    1  C1  UNL     1     -33.656   3.843   4.639  1.00 20.00    -0.028 C 
HETATM    2  C2  UNL     1     -34.394   4.459   5.576  1.00 20.00    -0.016 C 
HETATM    3  C4  UNL     1     -33.434   4.369   3.245  1.00 20.00     0.042 C 
HETATM    4  C5  UNL     1     -34.230   6.962   5.759  1.00 20.00     0.020 C 
HETATM    5  C6  UNL     1     -32.906   7.048   4.984  1.00 20.00     0.016 C 
HETATM    6  C7  UNL     1     -35.112   5.768   5.377  1.00 20.00     0.070 C 
HETATM    7  C8  UNL     1     -33.026   6.908   3.460  1.00 20.00     0.086 C 
HETATM    8  C9  UNL     1     -33.955   5.790   2.939  1.00 20.00     0.063 C 
HETATM    9  S11 UNL     1     -35.630   5.953   3.643  1.00 20.00    -0.154 SA
ENDROOT
BRANCH   7  10
HETATM   10  C3  UNL     1     -33.421   8.228   2.853  1.00 20.00     0.224 C 
HETATM   11  O10 UNL     1     -34.181   9.001   3.429  1.00 20.00    -0.279 OA
HETATM   12 CL12 UNL     1     -32.682   8.482   1.302  1.00 20.00    -0.043 Cl
ENDBRANCH   7  10
TORSDOF 1
