REMARK  1 active torsions:
REMARK  status: ('A' for Active; 'I' for Inactive)
REMARK    1  A    between atoms: C3_3  and  C8_8 
ROOT
HETATM    1  C1  UNL     1     -32.828   3.751   3.592  1.00 20.00    -0.029 C 
HETATM    2  C2  UNL     1     -32.731   4.000   4.903  1.00 20.00    -0.030 C 
HETATM    3  C4  UNL     1     -33.138   4.773   2.546  1.00 20.00     0.045 C 
HETATM    4  C5  UNL     1     -32.955   5.342   5.518  1.00 20.00     0.037 C 
HETATM    5  C6  UNL     1     -35.348   6.009   3.073  1.00 20.00     0.019 C 
HETATM    6  C7  UNL     1     -35.358   5.633   4.559  1.00 20.00     0.012 C 
HETATM    7  C8  UNL     1     -33.779   6.063   3.102  1.00 20.00     0.031 C 
HETATM    8  C9  UNL     1     -33.910   6.200   4.684  1.00 20.00    -0.026 C 
HETATM    9  C11 UNL     1     -33.931   7.637   5.229  1.00 20.00     0.016 C 
ENDROOT
BRANCH   7  10
HETATM   10  C3  UNL     1     -33.175   7.303   2.363  1.00 20.00     0.132 C 
HETATM   11  C10 UNL     1     -34.140   8.179   1.610  1.00 20.00     0.091 C 
HETATM   12  O12 UNL     1     -31.970   7.551   2.397  1.00 20.00    -0.298 OA
ENDBRANCH   7  10
TORSDOF 1
