REMARK  2 active torsions:
REMARK  status: ('A' for Active; 'I' for Inactive)
REMARK    1  A    between atoms: C3_3  and  C8_8 
REMARK    2  A    between atoms: C8_8  and  C10_10 
ROOT
HETATM    1  C1  UNL     1     -32.019   8.885   2.519  1.00 20.00    -0.026 C 
HETATM    2  C2  UNL     1     -31.605   8.150   3.562  1.00 20.00    -0.024 C 
HETATM    3  C4  UNL     1     -32.499   6.687   2.030  1.00 20.00     0.018 C 
HETATM    4  C5  UNL     1     -34.350   8.043   2.681  1.00 20.00     0.025 C 
HETATM    5  C6  UNL     1     -33.077   8.084   1.798  1.00 20.00     0.010 C 
HETATM    6  C7  UNL     1     -32.414   6.871   3.555  1.00 20.00     0.024 C 
HETATM    7  C8  UNL     1     -33.894   7.202   3.920  1.00 20.00     0.020 C 
ENDROOT
BRANCH   7   8
HETATM    8  C3  UNL     1     -34.669   5.911   4.019  1.00 20.00     0.241 C 
HETATM    9  O11 UNL     1     -34.145   4.803   3.985  1.00 20.00    -0.306 OA
ENDBRANCH   7   8
BRANCH   7  10
HETATM   10  C10 UNL     1     -34.074   7.947   5.243  1.00 20.00     0.013 C 
HETATM   11  C9  UNL     1     -33.567   7.149   6.397  1.00 20.00     0.006 C 
ENDBRANCH   7  10
TORSDOF 2
