REMARK  0 active torsions:
REMARK  status: ('A' for Active; 'I' for Inactive)
ROOT
HETATM    1  C1  UNL     1     -33.506   7.575   5.482  1.00 20.00     0.022 A 
HETATM    2  C2  UNL     1     -34.828   5.827   3.252  1.00 20.00     0.120 C 
HETATM    3  C3  UNL     1     -34.314   5.346   5.431  1.00 20.00     0.101 C 
HETATM    4  C4  UNL     1     -33.160   6.286   5.401  1.00 20.00     0.025 A 
HETATM    5  C5  UNL     1     -33.843   6.739   3.119  1.00 20.00    -0.048 C 
HETATM    6  C6  UNL     1     -33.068   8.839   1.809  1.00 20.00     0.014 A 
HETATM    7  C7  UNL     1     -31.664   7.680   3.722  1.00 20.00     0.021 C 
HETATM    8  C8  UNL     1     -33.326   7.359   1.883  1.00 20.00     0.021 A 
HETATM    9  C9  UNL     1     -31.957   7.923   2.248  1.00 20.00    -0.005 A 
HETATM   10  C10 UNL     1     -32.952   7.124   4.239  1.00 20.00     0.004 A 
HETATM   11  N11 UNL     1     -35.118   5.146   4.425  1.00 20.00    -0.276 NA
ENDROOT
TORSDOF 0
