REMARK  1 active torsions:
REMARK  status: ('A' for Active; 'I' for Inactive)
REMARK    1  A    between atoms: C2_2  and  C4_4 
ROOT
HETATM    1  C1  UNL     1     -33.496   7.564   4.828  1.00 20.00     0.076 A 
HETATM    2  C2  UNL     1     -33.024   7.270   3.615  1.00 20.00     0.053 A 
HETATM    3  C3  UNL     1     -34.048   5.051   4.444  1.00 20.00     0.255 A 
HETATM    4  O5  UNL     1     -34.431   3.896   4.556  1.00 20.00    -0.272 OA
HETATM    5  S7  UNL     1     -34.269   6.275   5.694  1.00 20.00    -0.051 SA
HETATM    6  S8  UNL     1     -33.216   5.667   3.018  1.00 20.00    -0.037 SA
ENDROOT
BRANCH   2   7
HETATM    7  C4  UNL     1     -32.354   8.266   2.789  1.00 20.00     0.278 C 
HETATM    8  O6  UNL     1     -31.912   8.016   1.670  1.00 20.00    -0.301 OA
ENDBRANCH   2   7
TORSDOF 1
