REMARK  2 active torsions:
REMARK  status: ('A' for Active; 'I' for Inactive)
REMARK    1  A    between atoms: C4_4  and  C5_5 
REMARK    2  A    between atoms: C6_6  and  C10_10 
ROOT
HETATM    1  C1  UNL     1     -33.024   4.299   3.240  1.00 20.00    -0.003 C 
HETATM    2  C2  UNL     1     -32.505   5.525   2.681  1.00 20.00     0.010 C 
HETATM    3  C3  UNL     1     -34.075   4.309   4.074  1.00 20.00    -0.021 C 
HETATM    4  C4  UNL     1     -32.858   6.711   3.201  1.00 20.00    -0.016 C 
HETATM    5  C6  UNL     1     -34.751   5.597   4.495  1.00 20.00     0.016 C 
HETATM    6  C7  UNL     1     -33.809   6.837   4.371  1.00 20.00     0.025 C 
HETATM    7  C8  UNL     1     -32.999   7.029   5.662  1.00 20.00     0.016 C 
ENDROOT
BRANCH   4   8
HETATM    8  C5  UNL     1     -32.308   7.920   2.585  1.00 20.00     0.266 C 
HETATM    9  O11 UNL     1     -31.546   7.884   1.626  1.00 20.00    -0.302 OA
ENDBRANCH   4   8
BRANCH   5  10
HETATM   10  C10 UNL     1     -36.022   5.786   3.661  1.00 20.00     0.005 C 
HETATM   11  C9  UNL     1     -36.942   4.620   3.794  1.00 20.00     0.006 C 
ENDBRANCH   5  10
TORSDOF 2
