REMARK  2 active torsions:
REMARK  status: ('A' for Active; 'I' for Inactive)
REMARK    1  A    between atoms: C1_1  and  C5_5 
REMARK    2  A    between atoms: C1_1  and  C6_6 
ROOT
HETATM    1  C1  UNL     1     -33.579   6.976   4.680  1.00 20.00     0.182 C 
HETATM    2  O7  UNL     1     -33.304   7.141   5.872  1.00 20.00    -0.293 OA
ENDROOT
BRANCH   1   3
HETATM    3  C5  UNL     1     -33.304   8.089   3.695  1.00 20.00     0.335 C 
HETATM    4  F8  UNL     1     -33.638   7.703   2.433  1.00 20.00    -0.225 F 
HETATM    5 CL9  UNL     1     -31.570   8.445   3.745  1.00 20.00    -0.081 Cl
ENDBRANCH   1   3
BRANCH   1   6
HETATM    6  C6  UNL     1     -34.168   5.647   4.163  1.00 20.00     0.014 C 
HETATM    7  C2  UNL     1     -33.236   4.992   3.136  1.00 20.00     0.023 C 
HETATM    8  C3  UNL     1     -35.523   5.917   3.484  1.00 20.00     0.023 C 
HETATM    9  C4  UNL     1     -34.392   4.706   5.354  1.00 20.00     0.023 C 
ENDBRANCH   1   6
TORSDOF 2
