REMARK  0 active torsions:
REMARK  status: ('A' for Active; 'I' for Inactive)
ROOT
HETATM    1  C1  UNL     1     -34.838   4.953   3.630  1.00 20.00     0.096 A 
HETATM    2  C2  UNL     1     -34.719   6.167   5.529  1.00 20.00     0.096 A 
HETATM    3  C3  UNL     1     -33.811   5.853   3.492  1.00 20.00    -0.025 A 
HETATM    4  C4  UNL     1     -33.737   6.614   4.681  1.00 20.00    -0.025 A 
HETATM    5  C5  UNL     1     -32.842   6.160   2.425  1.00 20.00     0.114 A 
HETATM    6  C6  UNL     1     -32.697   7.654   4.761  1.00 20.00     0.114 A 
HETATM    7  N7  UNL     1     -35.385   5.154   4.877  1.00 20.00    -0.374 N 
HETATM    8  S8  UNL     1     -31.820   7.544   3.126  1.00 20.00    -0.160 SA
HETATM    9  H15 UNL     1     -36.162   4.633   5.258  1.00 20.00     0.164 HD
ENDROOT
TORSDOF 0
