REMARK  1 active torsions:
REMARK  status: ('A' for Active; 'I' for Inactive)
REMARK    1  A    between atoms: C6_6  and  C10_10 
ROOT
HETATM    1  C1  UNL     1     -32.940   8.724   1.847  1.00 20.00     0.059 C 
HETATM    2  C10 UNL     1     -34.038   8.237   2.665  1.00 20.00     0.133 C 
HETATM    3  N11 UNL     1     -32.090   9.151   1.183  1.00 20.00    -0.197 NA
ENDROOT
BRANCH   2   4
HETATM    4  C6  UNL     1     -33.488   6.932   3.260  1.00 20.00    -0.025 C 
HETATM    5  C4  UNL     1     -33.118   5.936   2.140  1.00 20.00     0.011 C 
HETATM    6  C2  UNL     1     -33.197   4.545   2.770  1.00 20.00     0.002 C 
HETATM    7  C3  UNL     1     -33.915   4.704   4.111  1.00 20.00     0.010 C 
HETATM    8  C5  UNL     1     -34.533   6.118   4.099  1.00 20.00    -0.040 C 
HETATM    9  C7  UNL     1     -35.926   6.050   3.432  1.00 20.00     0.015 C 
HETATM   10  C8  UNL     1     -34.731   6.636   5.531  1.00 20.00     0.015 C 
HETATM   11  C9  UNL     1     -32.212   7.286   4.058  1.00 20.00     0.017 C 
ENDBRANCH   2   4
TORSDOF 1
