REMARK  2 active torsions:
REMARK  status: ('A' for Active; 'I' for Inactive)
REMARK    1  A    between atoms: C1_1  and  C5_5 
REMARK    2  A    between atoms: C1_1  and  C6_6 
ROOT
HETATM    1  C1  UNL     1     -33.126   6.817   4.004  1.00 20.00     0.184 C 
HETATM    2  O7  UNL     1     -33.153   7.215   5.170  1.00 20.00    -0.293 OA
ENDROOT
BRANCH   1   3
HETATM    3  C5  UNL     1     -32.275   7.508   2.942  1.00 20.00     0.052 C 
HETATM    4  C2  UNL     1     -33.101   8.584   2.247  1.00 20.00     0.017 C 
HETATM    5  C3  UNL     1     -31.010   8.104   3.555  1.00 20.00     0.017 C 
ENDBRANCH   1   3
BRANCH   1   6
HETATM    6  C6  UNL     1     -33.932   5.603   3.567  1.00 20.00     0.235 C 
HETATM    7  C4  UNL     1     -33.033   4.503   3.032  1.00 20.00     0.079 C 
HETATM    8  F8  UNL     1     -34.836   5.917   2.598  1.00 20.00    -0.217 F 
HETATM    9 CL9  UNL     1     -34.827   5.039   4.998  1.00 20.00    -0.075 Cl
ENDBRANCH   1   6
TORSDOF 2
