REMARK  2 active torsions:
REMARK  status: ('A' for Active; 'I' for Inactive)
REMARK    1  A    between atoms: C6_6  and  S8_8 
REMARK    2  A    between atoms: C7_7  and  S9_9 
ROOT
HETATM    1  C1  UNL     1     -32.198   8.049   3.716  1.00 20.00     0.011 C 
HETATM    2  C2  UNL     1     -32.429   5.926   2.661  1.00 20.00     0.020 C 
HETATM    3  C3  UNL     1     -31.491   7.922   1.446  1.00 20.00     0.020 C 
HETATM    4  C4  UNL     1     -31.457   7.118   2.761  1.00 20.00    -0.012 C 
HETATM    5  C5  UNL     1     -33.455   8.104   2.837  1.00 20.00     0.013 C 
HETATM    6  C6  UNL     1     -33.814   6.605   2.679  1.00 20.00     0.050 C 
HETATM    7  C7  UNL     1     -32.886   8.580   1.477  1.00 20.00     0.050 C 
ENDROOT
BRANCH   6   8
HETATM    8  S8  UNL     1     -34.855   5.998   4.046  1.00 20.00    -0.177 SA
HETATM    9  H20 UNL     1     -34.857   4.717   3.655  1.00 20.00     0.102 HD
ENDBRANCH   6   8
BRANCH   7  10
HETATM   10  S9  UNL     1     -32.787  10.396   1.369  1.00 20.00    -0.177 SA
HETATM   11  H21 UNL     1     -32.173  10.428   0.179  1.00 20.00     0.102 HD
ENDBRANCH   7  10
TORSDOF 2
