REMARK  2 active torsions:
REMARK  status: ('A' for Active; 'I' for Inactive)
REMARK    1  A    between atoms: C1_1  and  C5_5 
REMARK    2  A    between atoms: C5_5  and  C6_6 
ROOT
HETATM    1  C5  UNL     1     -33.790   7.494   4.126  1.00 20.00     0.190 C 
HETATM    2 CL9  UNL     1     -33.441   7.752   5.861  1.00 20.00    -0.114 Cl
ENDROOT
BRANCH   1   3
HETATM    3  C1  UNL     1     -32.513   7.888   3.398  1.00 20.00     0.144 C 
HETATM    4  C2  UNL     1     -32.677   8.558   2.059  1.00 20.00     0.092 C 
HETATM    5  O7  UNL     1     -31.395   7.654   3.857  1.00 20.00    -0.297 OA
ENDBRANCH   1   3
BRANCH   1   6
HETATM    6  C6  UNL     1     -34.232   6.049   3.828  1.00 20.00     0.119 C 
HETATM    7  C3  UNL     1     -34.236   5.190   5.094  1.00 20.00     0.053 C 
HETATM    8  C4  UNL     1     -35.612   5.985   3.171  1.00 20.00     0.053 C 
HETATM    9  F8  UNL     1     -33.343   5.486   2.957  1.00 20.00    -0.242 F 
ENDBRANCH   1   6
TORSDOF 2
