REMARK  1 active torsions:
REMARK  status: ('A' for Active; 'I' for Inactive)
REMARK    1  A    between atoms: C1_1  and  C5_5 
ROOT
HETATM    1  C1  UNL     1     -33.383   7.138   4.207  1.00 20.00     0.141 A 
HETATM    2  C2  UNL     1     -32.192   8.002   2.604  1.00 20.00     0.187 A 
HETATM    3  N6  UNL     1     -33.225   7.221   2.834  1.00 20.00    -0.211 NA
HETATM    4  N7  UNL     1     -32.561   7.789   5.030  1.00 20.00    -0.193 NA
HETATM    5  S8  UNL     1     -31.472   8.592   4.045  1.00 20.00     0.046 SA
HETATM    6 CL9  UNL     1     -31.600   8.416   1.060  1.00 20.00    -0.053 Cl
ENDROOT
BRANCH   1   7
HETATM    7  C5  UNL     1     -34.522   6.281   4.785  1.00 20.00     0.058 A 
HETATM    8  C3  UNL     1     -34.178   5.193   5.775  1.00 20.00     0.013 A 
HETATM    9  C4  UNL     1     -34.606   4.826   4.389  1.00 20.00     0.013 A 
ENDBRANCH   1   7
TORSDOF 1
