REMARK  3 active torsions:
REMARK  status: ('A' for Active; 'I' for Inactive)
REMARK    1  A    between atoms: C10_10  and  C12_12 
REMARK    2  A    between atoms: C11_11  and  C12_12 
REMARK    3  A    between atoms: C12_12  and  N13_13 
ROOT
HETATM    1  C1  UNL     1     -32.538   9.097   1.129  1.00 20.00     0.130 C 
HETATM    2  C2  UNL     1     -33.982   9.302   1.523  1.00 20.00     0.106 C 
HETATM    3  C3  UNL     1     -31.645   8.468   2.172  1.00 20.00     0.106 C 
HETATM    4  C8  UNL     1     -34.565   8.030   2.112  1.00 20.00     0.242 C 
HETATM    5  C9  UNL     1     -32.286   7.216   2.745  1.00 20.00     0.242 C 
HETATM    6  N13 UNL     1     -33.679   7.542   3.236  1.00 20.00    -0.065 N 
HETATM    7  O14 UNL     1     -32.092   9.515   0.062  1.00 20.00    -0.298 OA
HETATM    8  H34 UNL     1     -33.597   8.304   3.922  1.00 20.00     0.280 HD
ENDROOT
BRANCH   6   9
HETATM    9  C12 UNL     1     -34.296   6.379   3.963  1.00 20.00     0.196 C 
BRANCH   9  10
HETATM   10  C10 UNL     1     -33.661   6.280   5.340  1.00 20.00     0.017 A 
HETATM   11  C4  UNL     1     -33.694   7.457   6.276  1.00 20.00     0.007 A 
HETATM   12  C5  UNL     1     -34.525   6.239   6.570  1.00 20.00     0.007 A 
ENDBRANCH   9  10
BRANCH   9  13
HETATM   13  C11 UNL     1     -34.077   5.122   3.136  1.00 20.00     0.017 A 
HETATM   14  C6  UNL     1     -32.783   4.363   3.239  1.00 20.00     0.007 A 
HETATM   15  C7  UNL     1     -34.047   3.774   3.801  1.00 20.00     0.007 A 
ENDBRANCH   9  13
ENDBRANCH   6   9
TORSDOF 3
