REMARK  2 active torsions:
REMARK  status: ('A' for Active; 'I' for Inactive)
REMARK    1  A    between atoms: C4_4  and  C5_5 
REMARK    2  A    between atoms: C5_5  and  C6_6 
ROOT
HETATM    1  C1  UNL     1     -34.781   6.300   4.459  1.00 20.00     0.033 C 
HETATM    2  C2  UNL     1     -34.757   4.827   4.810  1.00 20.00     0.168 C 
HETATM    3  C3  UNL     1     -33.396   5.159   2.948  1.00 20.00     0.172 C 
HETATM    4  C4  UNL     1     -33.467   6.462   3.725  1.00 20.00     0.012 C 
HETATM    5  O7  UNL     1     -34.030   4.163   3.766  1.00 20.00    -0.391 OA
ENDROOT
BRANCH   4   6
HETATM    6  C5  UNL     1     -33.390   7.700   2.852  1.00 20.00     0.017 C 
BRANCH   6   7
HETATM    7  C6  UNL     1     -32.031   7.821   2.184  1.00 20.00     0.085 C 
HETATM    8 BR8  UNL     1     -31.996   9.391   1.034  1.00 20.00    -0.096 Br
ENDBRANCH   6   7
ENDBRANCH   4   6
TORSDOF 2
