REMARK  2 active torsions:
REMARK  status: ('A' for Active; 'I' for Inactive)
REMARK    1  A    between atoms: C2_2  and  C6_6 
REMARK       I    between atoms: C2_2  and  N7_7 
REMARK    2  A    between atoms: C5_5  and  C6_6 
ROOT
HETATM    1  C1  UNL     1     -33.725   5.777   3.200  1.00 20.00     0.166 C 
HETATM    2  C2  UNL     1     -32.396   7.505   2.952  1.00 20.00     0.244 C 
HETATM    3  N7  UNL     1     -33.149   6.464   2.441  1.00 20.00    -0.199 NA
HETATM    4  O8  UNL     1     -32.261   7.796   4.140  1.00 20.00    -0.271 OA
HETATM    5  S9  UNL     1     -34.521   4.824   4.198  1.00 20.00    -0.055 SA
ENDROOT
BRANCH   2   6
HETATM    6  C6  UNL     1     -31.712   8.302   1.853  1.00 20.00     0.109 C 
BRANCH   6   7
HETATM    7  C5  UNL     1     -32.130   9.730   1.788  1.00 20.00    -0.006 A 
HETATM    8  C3  UNL     1     -31.907  10.529   0.534  1.00 20.00     0.005 A 
HETATM    9  C4  UNL     1     -33.301  10.138   0.937  1.00 20.00     0.005 A 
ENDBRANCH   6   7
ENDBRANCH   2   6
TORSDOF 2
