REMARK  1 active torsions:
REMARK  status: ('A' for Active; 'I' for Inactive)
REMARK    1  A    between atoms: C6_6  and  C8_8 
ROOT
HETATM    1  C1  UNL     1     -31.624   8.123   1.699  1.00 20.00     0.012 C 
HETATM    2  C2  UNL     1     -32.356   7.780   2.586  1.00 20.00    -0.117 C 
HETATM    3  C8  UNL     1     -33.248   7.363   3.675  1.00 20.00     0.098 C 
ENDROOT
BRANCH   3   4
HETATM    4  C6  UNL     1     -34.328   6.404   3.170  1.00 20.00     0.011 C 
HETATM    5  C4  UNL     1     -33.710   5.137   2.572  1.00 20.00     0.007 C 
HETATM    6  C3  UNL     1     -33.555   4.159   3.735  1.00 20.00     0.002 C 
HETATM    7  C5  UNL     1     -34.415   4.692   4.882  1.00 20.00     0.016 C 
HETATM    8  C7  UNL     1     -35.187   5.877   4.317  1.00 20.00     0.062 C 
HETATM    9 BR9  UNL     1     -36.926   5.278   3.642  1.00 20.00    -0.091 Br
ENDBRANCH   3   4
TORSDOF 1
