REMARK  3 active torsions:
REMARK  status: ('A' for Active; 'I' for Inactive)
REMARK    1  A    between atoms: C4_4  and  C7_7 
REMARK    2  A    between atoms: C7_7  and  C9_9 
REMARK    3  A    between atoms: C8_8  and  C9_9 
ROOT
HETATM    1  C1  UNL     1     -33.951   4.661   3.627  1.00 20.00     0.002 C 
HETATM    2  C2  UNL     1     -34.119   5.840   2.664  1.00 20.00     0.006 C 
HETATM    3  C3  UNL     1     -33.938   5.249   5.039  1.00 20.00     0.020 C 
HETATM    4  C4  UNL     1     -33.795   7.095   3.485  1.00 20.00     0.004 C 
HETATM    5  C5  UNL     1     -34.356   6.704   4.857  1.00 20.00     0.086 C 
HETATM    6 CL10 UNL     1     -33.841   7.731   6.204  1.00 20.00    -0.125 Cl
ENDROOT
BRANCH   4   7
HETATM    7  C7  UNL     1     -32.318   7.398   3.455  1.00 20.00     0.006 C 
BRANCH   7   8
HETATM    8  C9  UNL     1     -31.913   8.073   2.145  1.00 20.00     0.000 C 
BRANCH   8   9
HETATM    9  C8  UNL     1     -32.632   9.409   1.963  1.00 20.00    -0.005 C 
HETATM   10  C6  UNL     1     -32.207  10.100   0.677  1.00 20.00     0.005 C 
ENDBRANCH   8   9
ENDBRANCH   7   8
ENDBRANCH   4   7
TORSDOF 3
