REMARK  0 active torsions:
REMARK  status: ('A' for Active; 'I' for Inactive)
ROOT
HETATM    1  C1  UNL     1     -33.623   5.996   2.428  1.00 20.00     0.019 A 
HETATM    2  C2  UNL     1     -33.080   7.259   2.172  1.00 20.00    -0.033 A 
HETATM    3  C3  UNL     1     -34.107   5.687   3.693  1.00 20.00    -0.021 A 
HETATM    4  C4  UNL     1     -33.068   8.186   3.219  1.00 20.00     0.042 A 
HETATM    5  C5  UNL     1     -34.037   6.665   4.667  1.00 20.00     0.132 A 
HETATM    6  C6  UNL     1     -32.597   7.603   0.789  1.00 20.00     0.040 C 
HETATM    7  C7  UNL     1     -32.474   9.558   3.036  1.00 20.00     0.060 C 
HETATM    8  C8  UNL     1     -31.726   8.858   0.751  1.00 20.00     0.005 C 
HETATM    9  C9  UNL     1     -32.361   9.975   1.572  1.00 20.00     0.006 C 
HETATM   10  C10 UNL     1     -34.678   4.335   3.952  1.00 20.00     0.051 C 
HETATM   11  N11 UNL     1     -33.530   7.900   4.463  1.00 20.00    -0.240 NA
HETATM   12 CL12 UNL     1     -34.600   6.406   6.272  1.00 20.00    -0.062 Cl
ENDROOT
TORSDOF 0
