REMARK  2 active torsions:
REMARK  status: ('A' for Active; 'I' for Inactive)
REMARK    1  A    between atoms: C4_4  and  C7_7 
REMARK    2  A    between atoms: C7_7  and  C8_8 
ROOT
HETATM    1  C1  UNL     1     -34.427   6.374   5.065  1.00 20.00     0.002 C 
HETATM    2  C2  UNL     1     -33.353   7.454   4.909  1.00 20.00     0.006 C 
HETATM    3  C3  UNL     1     -34.914   6.046   3.652  1.00 20.00     0.020 C 
HETATM    4  C4  UNL     1     -33.342   7.809   3.419  1.00 20.00     0.004 C 
HETATM    5  C5  UNL     1     -33.796   6.518   2.727  1.00 20.00     0.086 C 
HETATM    6 CL9  UNL     1     -32.513   5.276   2.635  1.00 20.00    -0.125 Cl
ENDROOT
BRANCH   4   7
HETATM    7  C7  UNL     1     -32.021   8.397   2.947  1.00 20.00     0.005 C 
BRANCH   7   8
HETATM    8  C8  UNL     1     -32.047   8.698   1.450  1.00 20.00    -0.004 C 
HETATM    9  C6  UNL     1     -33.157   9.675   1.098  1.00 20.00     0.005 C 
ENDBRANCH   7   8
ENDBRANCH   4   7
TORSDOF 2
