REMARK  2 active torsions:
REMARK  status: ('A' for Active; 'I' for Inactive)
REMARK    1  A    between atoms: C2_2  and  C8_8 
REMARK    2  A    between atoms: C6_6  and  C8_8 
ROOT
HETATM    1  C3  UNL     1     -33.973   6.648   5.729  1.00 20.00     0.002 C 
HETATM    2  C4  UNL     1     -33.015   7.354   4.765  1.00 20.00     0.006 C 
HETATM    3  C5  UNL     1     -35.039   5.977   4.861  1.00 20.00     0.020 C 
HETATM    4  C6  UNL     1     -33.629   7.174   3.373  1.00 20.00     0.007 C 
HETATM    5  C7  UNL     1     -34.405   5.855   3.478  1.00 20.00     0.086 C 
HETATM    6 CL9  UNL     1     -33.357   4.410   3.410  1.00 20.00    -0.125 Cl
ENDROOT
BRANCH   4   7
HETATM    7  C8  UNL     1     -32.612   7.268   2.246  1.00 20.00     0.032 C 
BRANCH   7   8
HETATM    8  C2  UNL     1     -32.266   8.694   1.939  1.00 20.00    -0.036 C 
HETATM    9  C1  UNL     1     -32.423   9.259   0.737  1.00 20.00     0.007 C 
ENDBRANCH   7   8
ENDBRANCH   4   7
TORSDOF 2
