REMARK  1 active torsions:
REMARK  status: ('A' for Active; 'I' for Inactive)
REMARK    1  A    between atoms: C4_4  and  C9_9 
ROOT
HETATM    1  C1  UNL     1     -31.639   7.767   3.380  1.00 20.00     0.006 C 
HETATM    2  C2  UNL     1     -32.421   7.826   4.690  1.00 20.00     0.021 C 
HETATM    3  C3  UNL     1     -33.563   6.557   2.283  1.00 20.00     0.010 C 
HETATM    4  C4  UNL     1     -32.548   7.700   2.147  1.00 20.00    -0.014 C 
HETATM    5  C5  UNL     1     -34.368   6.599   3.596  1.00 20.00     0.000 C 
HETATM    6  C6  UNL     1     -33.418   6.671   4.808  1.00 20.00     0.086 C 
HETATM    7  C7  UNL     1     -35.297   5.380   3.655  1.00 20.00     0.011 C 
HETATM    8 CL10 UNL     1     -34.330   6.859   6.340  1.00 20.00    -0.125 Cl
ENDROOT
BRANCH   4   9
HETATM    9  C9  UNL     1     -33.235   9.040   1.872  1.00 20.00     0.000 C 
HETATM   10  C8  UNL     1     -32.242  10.141   1.690  1.00 20.00     0.005 C 
ENDBRANCH   4   9
TORSDOF 1
