REMARK  2 active torsions:
REMARK  status: ('A' for Active; 'I' for Inactive)
REMARK    1  A    between atoms: C4_4  and  C8_8 
REMARK    2  A    between atoms: C8_8  and  C9_9 
ROOT
HETATM    1  C1  UNL     1     -33.577   6.600   5.774  1.00 20.00     0.002 C 
HETATM    2  C2  UNL     1     -32.896   7.402   4.661  1.00 20.00     0.006 C 
HETATM    3  C3  UNL     1     -34.731   5.844   5.113  1.00 20.00     0.020 C 
HETATM    4  C4  UNL     1     -33.757   7.183   3.413  1.00 20.00     0.004 C 
HETATM    5  C5  UNL     1     -34.378   5.798   3.629  1.00 20.00     0.086 C 
HETATM    6 CL10 UNL     1     -33.241   4.455   3.312  1.00 20.00    -0.125 Cl
ENDROOT
BRANCH   4   7
HETATM    7  C8  UNL     1     -32.996   7.384   2.111  1.00 20.00     0.010 C 
BRANCH   7   8
HETATM    8  C9  UNL     1     -32.901   8.856   1.674  1.00 20.00    -0.022 C 
HETATM    9  C6  UNL     1     -32.187   9.726   2.709  1.00 20.00     0.009 C 
HETATM   10  C7  UNL     1     -32.176   8.954   0.329  1.00 20.00     0.009 C 
ENDBRANCH   7   8
ENDBRANCH   4   7
TORSDOF 2
