REMARK  1 active torsions:
REMARK  status: ('A' for Active; 'I' for Inactive)
REMARK    1  A    between atoms: C6_6  and  C8_8 
ROOT
HETATM    1  C1  UNL     1     -32.406   8.858   1.009  1.00 20.00     0.012 C 
HETATM    2  C2  UNL     1     -32.251   8.518   2.150  1.00 20.00    -0.117 C 
HETATM    3  C8  UNL     1     -32.055   8.105   3.545  1.00 20.00     0.099 C 
ENDROOT
BRANCH   3   4
HETATM    4  C6  UNL     1     -33.340   7.551   4.141  1.00 20.00     0.015 C 
HETATM    5  C4  UNL     1     -33.332   7.556   5.672  1.00 20.00     0.007 C 
HETATM    6  C3  UNL     1     -34.299   6.446   6.093  1.00 20.00     0.002 C 
HETATM    7  C5  UNL     1     -34.681   5.701   4.815  1.00 20.00     0.020 C 
HETATM    8  C7  UNL     1     -33.593   6.079   3.819  1.00 20.00     0.087 C 
HETATM    9 CL9  UNL     1     -34.108   5.814   2.145  1.00 20.00    -0.125 Cl
ENDBRANCH   3   4
TORSDOF 1
