REMARK  3 active torsions:
REMARK  status: ('A' for Active; 'I' for Inactive)
REMARK    1  A    between atoms: C4_4  and  C10_10 
REMARK    2  A    between atoms: C5_5  and  C11_11 
REMARK    3  A    between atoms: C6_6  and  C12_12 
ROOT
HETATM    1  C7  UNL     1     -32.545   9.016   3.646  1.00 20.00     0.009 C 
HETATM    2  C8  UNL     1     -32.814   7.859   4.609  1.00 20.00     0.010 C 
HETATM    3  C9  UNL     1     -33.478   7.634   1.738  1.00 20.00     0.017 C 
HETATM    4  C10 UNL     1     -32.319   8.527   2.209  1.00 20.00     0.008 C 
HETATM    5  C11 UNL     1     -33.982   6.988   4.124  1.00 20.00     0.015 C 
HETATM    6  C12 UNL     1     -33.742   6.451   2.691  1.00 20.00     0.015 C 
ENDROOT
BRANCH   4   7
HETATM    7  C4  UNL     1     -32.139   9.684   1.274  1.00 20.00    -0.032 C 
HETATM    8  C1  UNL     1     -32.455   9.652  -0.025  1.00 20.00     0.007 C 
ENDBRANCH   4   7
BRANCH   6   9
HETATM    9  C6  UNL     1     -32.629   5.440   2.592  1.00 20.00    -0.031 C 
HETATM   10  C3  UNL     1     -32.794   4.185   2.162  1.00 20.00     0.007 C 
ENDBRANCH   6   9
BRANCH   5  11
HETATM   11  C5  UNL     1     -34.300   5.902   5.109  1.00 20.00    -0.031 C 
HETATM   12  C2  UNL     1     -34.871   4.738   4.781  1.00 20.00     0.007 C 
ENDBRANCH   5  11
TORSDOF 3
