REMARK  4 active torsions:
REMARK  status: ('A' for Active; 'I' for Inactive)
REMARK    1  A    between atoms: C6_6  and  C7_7 
REMARK    2  A    between atoms: C7_7  and  C9_9 
REMARK    3  A    between atoms: C8_8  and  C9_9 
REMARK    4  A    between atoms: C8_8  and  N11_11 
ROOT
HETATM    1  C1  UNL     1     -33.346   7.421   4.655  1.00 20.00     0.095 C 
HETATM    2  C8  UNL     1     -32.370   7.240   3.565  1.00 20.00     0.331 C 
HETATM    3  N10 UNL     1     -34.111   7.563   5.516  1.00 20.00    -0.195 NA
ENDROOT
BRANCH   2   4
HETATM    4  C9  UNL     1     -32.396   8.410   2.541  1.00 20.00     0.029 C 
HETATM    5  C3  UNL     1     -32.132   9.779   3.188  1.00 20.00     0.013 C 
BRANCH   4   6
HETATM    6  C7  UNL     1     -31.421   8.136   1.371  1.00 20.00     0.007 C 
BRANCH   6   7
HETATM    7  C6  UNL     1     -31.557   9.133   0.216  1.00 20.00    -0.004 C 
HETATM    8  C2  UNL     1     -32.978   9.161  -0.327  1.00 20.00     0.005 C 
ENDBRANCH   6   7
ENDBRANCH   4   6
ENDBRANCH   2   4
BRANCH   2   9
HETATM    9  N11 UNL     1     -32.610   5.958   2.899  1.00 20.00     0.098 N 
HETATM   10  C4  UNL     1     -33.959   5.922   2.338  1.00 20.00     0.311 C 
HETATM   11  C5  UNL     1     -32.413   4.853   3.834  1.00 20.00     0.311 C 
ENDBRANCH   2   9
TORSDOF 4
