REMARK  3 active torsions:
REMARK  status: ('A' for Active; 'I' for Inactive)
REMARK    1  A    between atoms: C1_1  and  C7_7 
REMARK    2  A    between atoms: C5_5  and  N8_8 
REMARK    3  A    between atoms: C7_7  and  N8_8 
ROOT
HETATM    1  C2  UNL     1     -34.774   6.487   3.673  1.00 20.00     0.047 C 
HETATM    2  C3  UNL     1     -35.172   5.426   4.687  1.00 20.00     0.076 C 
HETATM    3  C4  UNL     1     -33.451   7.301   5.551  1.00 20.00     0.109 C 
HETATM    4  C5  UNL     1     -33.374   6.951   4.070  1.00 20.00     0.233 C 
HETATM    5  S10 UNL     1     -34.516   6.018   6.273  1.00 20.00    -0.167 SA
ENDROOT
BRANCH   4   6
HETATM    6  N8  UNL     1     -32.929   8.092   3.279  1.00 20.00     0.096 N 
HETATM    7  C6  UNL     1     -31.586   8.509   3.685  1.00 20.00     0.310 C 
BRANCH   6   8
HETATM    8  C7  UNL     1     -32.950   7.770   1.850  1.00 20.00     0.341 C 
BRANCH   8   9
HETATM    9  C1  UNL     1     -32.485   8.976   1.085  1.00 20.00     0.261 C 
HETATM   10  O9  UNL     1     -31.503   8.953   0.348  1.00 20.00    -0.305 OA
ENDBRANCH   8   9
ENDBRANCH   6   8
ENDBRANCH   4   6
TORSDOF 3
