REMARK  2 active torsions:
REMARK  status: ('A' for Active; 'I' for Inactive)
REMARK    1  A    between atoms: C1_1  and  C7_7 
REMARK    2  A    between atoms: C7_7  and  N8_8 
ROOT
HETATM    1  C2  UNL     1     -34.062   5.279   3.043  1.00 20.00     0.040 C 
HETATM    2  C3  UNL     1     -32.745   6.058   3.003  1.00 20.00     0.273 C 
HETATM    3  C4  UNL     1     -33.006   7.582   4.924  1.00 20.00     0.283 C 
HETATM    4  C5  UNL     1     -34.300   4.436   4.291  1.00 20.00     0.075 C 
HETATM    5  C6  UNL     1     -34.252   6.947   5.541  1.00 20.00     0.104 C 
HETATM    6  N8  UNL     1     -32.891   7.445   3.465  1.00 20.00     0.095 N 
HETATM    7  S10 UNL     1     -34.006   5.189   5.916  1.00 20.00    -0.167 SA
ENDROOT
BRANCH   6   8
HETATM    8  C7  UNL     1     -31.758   8.249   2.990  1.00 20.00     0.341 C 
BRANCH   8   9
HETATM    9  C1  UNL     1     -32.009   8.623   1.557  1.00 20.00     0.261 C 
HETATM   10  O9  UNL     1     -32.590   9.657   1.236  1.00 20.00    -0.305 OA
ENDBRANCH   8   9
ENDBRANCH   6   8
TORSDOF 2
