REMARK  0 active torsions:
REMARK  status: ('A' for Active; 'I' for Inactive)
ROOT
HETATM    1  C1  UNL     1     -33.544   6.304   2.434  1.00 20.00     0.055 A 
HETATM    2  C2  UNL     1     -33.951   5.867   3.670  1.00 20.00    -0.029 A 
HETATM    3  C3  UNL     1     -33.605   6.603   4.791  1.00 20.00     0.063 A 
HETATM    4  C4  UNL     1     -32.791   7.464   2.417  1.00 20.00     0.148 A 
HETATM    5  C5  UNL     1     -34.792   4.690   4.034  1.00 20.00     0.041 C 
HETATM    6  C6  UNL     1     -34.186   6.000   6.035  1.00 20.00     0.062 C 
HETATM    7  C7  UNL     1     -34.510   4.581   5.542  1.00 20.00     0.011 C 
HETATM    8  N8  UNL     1     -32.881   7.732   4.750  1.00 20.00    -0.153 NA
HETATM    9  N9  UNL     1     -32.459   8.166   3.533  1.00 20.00    -0.138 NA
HETATM   10 CL10 UNL     1     -32.208   8.127   0.947  1.00 20.00    -0.060 Cl
ENDROOT
TORSDOF 0
