REMARK  2 active torsions:
REMARK  status: ('A' for Active; 'I' for Inactive)
REMARK    1  A    between atoms: C2_2  and  C3_3 
REMARK    2  A    between atoms: C3_3  and  C9_9 
ROOT
HETATM    1  C1  UNL     1     -33.041   5.098   3.011  1.00 20.00    -0.016 C 
HETATM    2  C2  UNL     1     -33.069   6.373   3.426  1.00 20.00    -0.016 C 
HETATM    3  C4  UNL     1     -33.915   4.035   3.612  1.00 20.00     0.028 C 
HETATM    4  C5  UNL     1     -33.984   6.882   4.498  1.00 20.00     0.042 C 
HETATM    5  C6  UNL     1     -34.589   4.468   4.917  1.00 20.00     0.004 C 
HETATM    6  C7  UNL     1     -35.113   5.899   4.825  1.00 20.00     0.005 C 
ENDROOT
BRANCH   2   7
HETATM    7  C3  UNL     1     -32.163   7.321   2.773  1.00 20.00     0.159 C 
HETATM    8  O12 UNL     1     -31.307   7.923   3.425  1.00 20.00    -0.292 OA
BRANCH   7   9
HETATM    9  C9  UNL     1     -32.306   7.530   1.286  1.00 20.00     0.064 A 
HETATM   10  C8  UNL     1     -31.298   8.382   0.600  1.00 20.00     0.018 A 
HETATM   11  C10 UNL     1     -32.710   8.865   0.765  1.00 20.00    -0.006 A 
HETATM   12  C11 UNL     1     -32.999  10.037   1.640  1.00 20.00     0.011 C 
ENDBRANCH   7   9
ENDBRANCH   2   7
TORSDOF 2
