REMARK  4 active torsions:
REMARK  status: ('A' for Active; 'I' for Inactive)
REMARK    1  A    between atoms: C2_2  and  C11_11 
REMARK    2  A    between atoms: C9_9  and  C10_10 
REMARK    3  A    between atoms: C10_10  and  C11_11 
REMARK    4  A    between atoms: C11_11  and  O12_12 
ROOT
HETATM    1  C11 UNL     1     -32.185   7.333   2.912  1.00 20.00     0.147 C 
ENDROOT
BRANCH   1   2
HETATM    2  C2  UNL     1     -33.058   6.497   3.800  1.00 20.00    -0.055 C 
HETATM    3  C1  UNL     1     -33.438   6.914   5.020  1.00 20.00    -0.021 C 
HETATM    4  C3  UNL     1     -34.280   6.095   5.954  1.00 20.00     0.027 C 
HETATM    5  C5  UNL     1     -34.392   4.628   5.536  1.00 20.00     0.004 C 
HETATM    6  C6  UNL     1     -34.620   4.503   4.035  1.00 20.00     0.005 C 
HETATM    7  C4  UNL     1     -33.484   5.160   3.245  1.00 20.00     0.036 C 
ENDBRANCH   1   2
BRANCH   1   8
HETATM    8  C10 UNL     1     -33.000   8.328   2.097  1.00 20.00     0.041 C 
BRANCH   8   9
HETATM    9  C9  UNL     1     -32.155   9.466   1.546  1.00 20.00    -0.012 A 
HETATM   10  C7  UNL     1     -31.498   9.339   0.199  1.00 20.00     0.005 A 
HETATM   11  C8  UNL     1     -32.652  10.283   0.385  1.00 20.00     0.005 A 
ENDBRANCH   8   9
ENDBRANCH   1   8
BRANCH   1  12
HETATM   12  O12 UNL     1     -31.332   8.046   3.794  1.00 20.00    -0.391 OA
HETATM   13  H30 UNL     1     -30.754   8.599   3.242  1.00 20.00     0.210 HD
ENDBRANCH   1  12
TORSDOF 4
