REMARK  2 active torsions:
REMARK  status: ('A' for Active; 'I' for Inactive)
REMARK    1  A    between atoms: C2_2  and  C3_3 
REMARK    2  A    between atoms: C3_3  and  C8_8 
ROOT
HETATM    1  C3  UNL     1     -32.477   8.120   3.611  1.00 20.00     0.159 C 
HETATM    2  O11 UNL     1     -31.469   8.667   4.082  1.00 20.00    -0.292 OA
ENDROOT
BRANCH   1   3
HETATM    3  C2  UNL     1     -33.360   7.359   4.437  1.00 20.00    -0.016 C 
HETATM    4  C1  UNL     1     -34.092   6.307   4.053  1.00 20.00    -0.016 C 
HETATM    5  C4  UNL     1     -34.917   5.771   5.176  1.00 20.00     0.028 C 
HETATM    6  C6  UNL     1     -34.308   6.453   6.400  1.00 20.00     0.009 C 
HETATM    7  C5  UNL     1     -33.578   7.692   5.878  1.00 20.00     0.042 C 
ENDBRANCH   1   3
BRANCH   1   8
HETATM    8  C8  UNL     1     -32.791   8.240   2.134  1.00 20.00     0.064 A 
HETATM    9  C7  UNL     1     -31.651   8.273   1.186  1.00 20.00     0.018 A 
HETATM   10  C9  UNL     1     -32.441   9.525   1.458  1.00 20.00    -0.006 A 
HETATM   11  C10 UNL     1     -33.365  10.069   0.424  1.00 20.00     0.011 C 
ENDBRANCH   1   8
TORSDOF 2
