REMARK  2 active torsions:
REMARK  status: ('A' for Active; 'I' for Inactive)
REMARK    1  A    between atoms: C2_2  and  C3_3 
REMARK    2  A    between atoms: C3_3  and  C9_9 
ROOT
HETATM    1  C1  UNL     1     -33.053   5.747   2.879  1.00 20.00    -0.016 C 
HETATM    2  C2  UNL     1     -33.127   7.022   3.278  1.00 20.00    -0.016 C 
HETATM    3  C4  UNL     1     -33.866   4.849   3.750  1.00 20.00     0.028 C 
HETATM    4  C5  UNL     1     -34.004   7.178   4.480  1.00 20.00     0.042 C 
HETATM    5  C6  UNL     1     -34.177   5.735   4.956  1.00 20.00     0.009 C 
ENDROOT
BRANCH   2   6
HETATM    6  C3  UNL     1     -32.488   8.140   2.659  1.00 20.00     0.159 C 
HETATM    7  O10 UNL     1     -31.670   8.837   3.279  1.00 20.00    -0.292 OA
BRANCH   6   8
HETATM    8  C9  UNL     1     -32.823   8.458   1.217  1.00 20.00     0.060 A 
HETATM    9  C7  UNL     1     -32.854   9.883   0.812  1.00 20.00     0.013 A 
HETATM   10  C8  UNL     1     -31.739   8.990   0.358  1.00 20.00     0.013 A 
ENDBRANCH   6   8
ENDBRANCH   2   6
TORSDOF 2
