REMARK  2 active torsions:
REMARK  status: ('A' for Active; 'I' for Inactive)
REMARK    1  A    between atoms: C2_2  and  C3_3 
REMARK    2  A    between atoms: C3_3  and  C11_11 
ROOT
HETATM    1  C7  UNL     1     -32.445   8.966  -0.705  1.00 20.00     0.005 C 
HETATM    2  C8  UNL     1     -33.293   9.786   0.280  1.00 20.00     0.006 C 
HETATM    3  C9  UNL     1     -32.043   7.220   1.051  1.00 20.00     0.017 C 
HETATM    4  C10 UNL     1     -31.153   9.419   1.239  1.00 20.00     0.010 C 
HETATM    5  C11 UNL     1     -32.944   8.019   2.009  1.00 20.00     0.065 C 
HETATM    6  C12 UNL     1     -31.382   8.323   0.202  1.00 20.00    -0.013 C 
HETATM    7  C13 UNL     1     -32.631   9.483   1.636  1.00 20.00    -0.003 C 
ENDROOT
BRANCH   5   8
HETATM    8  C3  UNL     1     -32.618   7.728   3.442  1.00 20.00     0.159 C 
HETATM    9  O14 UNL     1     -31.752   8.351   4.051  1.00 20.00    -0.292 OA
BRANCH   8  10
HETATM   10  C2  UNL     1     -33.346   6.684   4.091  1.00 20.00    -0.016 C 
HETATM   11  C1  UNL     1     -33.857   5.594   3.508  1.00 20.00    -0.016 C 
HETATM   12  C4  UNL     1     -34.574   4.728   4.489  1.00 20.00     0.028 C 
HETATM   13  C6  UNL     1     -34.123   5.295   5.835  1.00 20.00     0.009 C 
HETATM   14  C5  UNL     1     -33.641   6.720   5.557  1.00 20.00     0.042 C 
ENDBRANCH   8  10
ENDBRANCH   5   8
TORSDOF 2
