REMARK  3 active torsions:
REMARK  status: ('A' for Active; 'I' for Inactive)
REMARK    1  A    between atoms: C6_6  and  N10_10 
REMARK    2  A    between atoms: C7_7  and  C8_8 
REMARK    3  A    between atoms: C8_8  and  N10_10 
ROOT
HETATM    1  C1  UNL     1     -32.269   9.033   1.837  1.00 20.00     0.094 C 
HETATM    2  C2  UNL     1     -30.059   8.203   2.549  1.00 20.00     0.059 C 
HETATM    3  C6  UNL     1     -31.539   8.311   2.887  1.00 20.00     0.322 C 
HETATM    4  N9  UNL     1     -32.845   9.607   1.009  1.00 20.00    -0.195 NA
ENDROOT
BRANCH   3   5
HETATM    5  N10 UNL     1     -32.123   6.986   3.076  1.00 20.00     0.105 N 
HETATM    6  H26 UNL     1     -31.437   6.386   3.539  1.00 20.00     0.318 HD
BRANCH   5   7
HETATM    7  C8  UNL     1     -33.330   7.054   3.875  1.00 20.00     0.221 C 
HETATM    8  C5  UNL     1     -32.945   7.142   5.350  1.00 20.00     0.043 C 
BRANCH   7   9
HETATM    9  C7  UNL     1     -34.266   5.863   3.563  1.00 20.00     0.010 C 
HETATM   10  C3  UNL     1     -33.657   4.494   3.880  1.00 20.00     0.011 C 
HETATM   11  C4  UNL     1     -35.611   6.011   4.284  1.00 20.00     0.011 C 
ENDBRANCH   7   9
ENDBRANCH   5   7
ENDBRANCH   3   5
TORSDOF 3
