REMARK  3 active torsions:
REMARK  status: ('A' for Active; 'I' for Inactive)
REMARK    1  A    between atoms: C3_3  and  C5_5 
REMARK    2  A    between atoms: C5_5  and  C6_6 
REMARK    3  A    between atoms: C6_6  and  S9_9 
ROOT
HETATM    1  C1  UNL     1     -34.693   5.498   3.484  1.00 20.00     0.281 C 
HETATM    2  C2  UNL     1     -34.584   5.920   4.941  1.00 20.00     0.106 C 
HETATM    3  C3  UNL     1     -32.771   6.861   3.276  1.00 20.00     0.282 C 
HETATM    4  N7  UNL     1     -33.352   5.567   2.886  1.00 20.00     0.098 N 
HETATM    5  S8  UNL     1     -33.443   7.318   4.903  1.00 20.00    -0.132 SA
HETATM    6  H22 UNL     1     -32.771   4.802   3.220  1.00 20.00     0.317 HD
ENDROOT
BRANCH   3   7
HETATM    7  C5  UNL     1     -33.094   7.937   2.244  1.00 20.00     0.056 C 
BRANCH   7   8
HETATM    8  C6  UNL     1     -32.153   9.130   2.379  1.00 20.00     0.076 C 
BRANCH   8   9
HETATM    9  S9  UNL     1     -32.548  10.398   1.142  1.00 20.00    -0.173 SA
HETATM   10  C4  UNL     1     -32.934   9.302  -0.243  1.00 20.00     0.089 C 
ENDBRANCH   8   9
ENDBRANCH   7   8
ENDBRANCH   3   7
TORSDOF 3
