REMARK  5 active torsions:
REMARK  status: ('A' for Active; 'I' for Inactive)
REMARK    1  A    between atoms: C5_5  and  N10_10 
REMARK    2  A    between atoms: C6_6  and  C7_7 
REMARK    3  A    between atoms: C6_6  and  C8_8 
REMARK    4  A    between atoms: C7_7  and  C9_9 
REMARK    5  A    between atoms: C8_8  and  N10_10 
ROOT
HETATM    1  C1  UNL     1     -34.620   4.900   4.589  1.00 20.00     0.013 C 
HETATM    2  C2  UNL     1     -34.423   5.919   5.193  1.00 20.00    -0.087 C 
HETATM    3  C5  UNL     1     -34.187   7.162   5.931  1.00 20.00     0.362 C 
ENDROOT
BRANCH   3   4
HETATM    4  N10 UNL     1     -32.872   7.717   5.603  1.00 20.00     0.094 N 
HETATM    5  H27 UNL     1     -32.164   7.208   6.144  1.00 20.00     0.317 HD
BRANCH   4   6
HETATM    6  C8  UNL     1     -32.591   7.618   4.197  1.00 20.00     0.270 C 
BRANCH   6   7
HETATM    7  C6  UNL     1     -31.448   8.534   3.767  1.00 20.00     0.030 C 
BRANCH   7   8
HETATM    8  C7  UNL     1     -31.128   8.409   2.272  1.00 20.00     0.005 C 
BRANCH   8   9
HETATM    9  C9  UNL     1     -32.296   8.830   1.360  1.00 20.00    -0.023 C 
HETATM   10  C3  UNL     1     -32.661  10.293   1.627  1.00 20.00     0.009 C 
HETATM   11  C4  UNL     1     -31.976   8.641  -0.123  1.00 20.00     0.009 C 
ENDBRANCH   8   9
ENDBRANCH   7   8
ENDBRANCH   6   7
ENDBRANCH   4   6
ENDBRANCH   3   4
TORSDOF 5
