REMARK  1 active torsions:
REMARK  status: ('A' for Active; 'I' for Inactive)
REMARK    1  A    between atoms: C9_9  and  O11_11 
ROOT
HETATM    1  C1  UNL     1     -33.009   6.572   2.732  1.00 20.00     0.052 A 
HETATM    2  C2  UNL     1     -32.523   8.324   4.351  1.00 20.00     0.049 A 
HETATM    3  C3  UNL     1     -33.759   5.929   3.704  1.00 20.00    -0.020 A 
HETATM    4  C4  UNL     1     -33.898   6.478   4.985  1.00 20.00    -0.043 A 
HETATM    5  C5  UNL     1     -33.292   7.677   5.321  1.00 20.00    -0.052 A 
HETATM    6  C6  UNL     1     -32.383   7.776   3.066  1.00 20.00     0.117 A 
HETATM    7  C7  UNL     1     -34.790   5.629   5.837  1.00 20.00     0.042 C 
HETATM    8  C8  UNL     1     -34.757   4.302   5.066  1.00 20.00     0.041 C 
HETATM    9  C9  UNL     1     -34.553   4.663   3.586  1.00 20.00     0.152 C 
HETATM   10  C10 UNL     1     -33.447   8.277   6.675  1.00 20.00     0.049 C 
HETATM   11  F12 UNL     1     -31.647   8.418   2.149  1.00 20.00    -0.206 F 
ENDROOT
BRANCH   9  12
HETATM   12  O11 UNL     1     -33.837   3.648   2.910  1.00 20.00    -0.391 OA
HETATM   13  H23 UNL     1     -34.413   2.865   2.874  1.00 20.00     0.210 HD
ENDBRANCH   9  12
TORSDOF 1
