REMARK  3 active torsions:
REMARK  status: ('A' for Active; 'I' for Inactive)
REMARK    1  A    between atoms: C3_3  and  C4_4 
REMARK    2  A    between atoms: C3_3  and  C5_5 
REMARK    3  A    between atoms: C5_5  and  C6_6 
ROOT
HETATM    1  C1  UNL     1     -32.375  10.606   1.378  1.00 20.00     0.012 C 
HETATM    2  C2  UNL     1     -32.764   9.476   1.494  1.00 20.00    -0.110 C 
HETATM    3  C4  UNL     1     -33.244   8.096   1.628  1.00 20.00     0.171 C 
ENDROOT
BRANCH   3   4
HETATM    4  C3  UNL     1     -32.581   7.356   2.775  1.00 20.00     0.146 C 
HETATM    5  O7  UNL     1     -31.754   7.888   3.514  1.00 20.00    -0.297 OA
BRANCH   4   6
HETATM    6  C5  UNL     1     -33.008   5.907   2.951  1.00 20.00     0.196 C 
BRANCH   6   7
HETATM    7  C6  UNL     1     -34.176   5.742   3.896  1.00 20.00     0.394 C 
HETATM    8  F8  UNL     1     -34.500   4.435   4.020  1.00 20.00    -0.171 F 
HETATM    9  F9  UNL     1     -33.884   6.207   5.129  1.00 20.00    -0.171 F 
HETATM   10  F10 UNL     1     -35.271   6.392   3.449  1.00 20.00    -0.171 F 
ENDBRANCH   6   7
ENDBRANCH   4   6
ENDBRANCH   3   4
TORSDOF 3
