REMARK  5 active torsions:
REMARK  status: ('A' for Active; 'I' for Inactive)
REMARK    1  A    between atoms: C1_1  and  C9_9 
REMARK    2  A    between atoms: C6_6  and  C7_7 
REMARK    3  A    between atoms: C7_7  and  C10_10 
REMARK    4  A    between atoms: C8_8  and  C9_9 
REMARK    5  A    between atoms: C8_8  and  C10_10 
ROOT
HETATM    1  C8  UNL     1     -32.792   6.987   1.902  1.00 20.00     0.016 C 
ENDROOT
BRANCH   1   2
HETATM    2  C9  UNL     1     -32.418   8.388   2.421  1.00 20.00     0.051 C 
HETATM    3  C4  UNL     1     -31.048   8.425   3.091  1.00 20.00     0.018 C 
BRANCH   2   4
HETATM    4  C1  UNL     1     -32.430   9.393   1.271  1.00 20.00     0.126 C 
HETATM    5  C2  UNL     1     -32.047   8.870  -0.091  1.00 20.00     0.091 C 
HETATM    6  O11 UNL     1     -32.762  10.568   1.426  1.00 20.00    -0.298 OA
ENDBRANCH   2   4
ENDBRANCH   1   2
BRANCH   1   7
HETATM    7  C10 UNL     1     -33.201   5.961   2.979  1.00 20.00    -0.018 C 
HETATM    8  C5  UNL     1     -32.977   4.540   2.446  1.00 20.00     0.010 C 
BRANCH   7   9
HETATM    9  C7  UNL     1     -34.636   6.133   3.519  1.00 20.00     0.004 C 
BRANCH   9  10
HETATM   10  C6  UNL     1     -35.034   5.162   4.634  1.00 20.00    -0.004 C 
HETATM   11  C3  UNL     1     -34.155   5.344   5.863  1.00 20.00     0.005 C 
ENDBRANCH   9  10
ENDBRANCH   7   9
ENDBRANCH   1   7
TORSDOF 5
