REMARK  4 active torsions:
REMARK  status: ('A' for Active; 'I' for Inactive)
REMARK    1  A    between atoms: C2_2  and  C7_7 
REMARK    2  A    between atoms: C5_5  and  C8_8 
REMARK    3  A    between atoms: C7_7  and  C8_8 
REMARK    4  A    between atoms: C8_8  and  O9_9 
ROOT
HETATM    1  C1  UNL     1     -32.464   9.736   1.879  1.00 20.00    -0.111 C 
HETATM    2  C2  UNL     1     -32.173   8.674   2.358  1.00 20.00    -0.104 C 
HETATM    3  C6  UNL     1     -32.818  11.029   1.296  1.00 20.00     0.112 C 
ENDROOT
BRANCH   2   4
HETATM    4  C7  UNL     1     -31.816   7.371   2.944  1.00 20.00     0.126 C 
BRANCH   4   5
HETATM    5  C8  UNL     1     -32.573   7.122   4.250  1.00 20.00     0.133 C 
BRANCH   5   6
HETATM    6  C5  UNL     1     -34.080   7.179   4.032  1.00 20.00     0.015 A 
HETATM    7  C3  UNL     1     -34.817   5.976   3.515  1.00 20.00     0.007 A 
HETATM    8  C4  UNL     1     -35.005   6.417   4.940  1.00 20.00     0.007 A 
ENDBRANCH   5   6
BRANCH   5   9
HETATM    9  O9  UNL     1     -32.212   8.132   5.190  1.00 20.00    -0.394 OA
HETATM   10  H21 UNL     1     -32.695   7.933   6.007  1.00 20.00     0.210 HD
ENDBRANCH   5   9
ENDBRANCH   4   5
ENDBRANCH   2   4
TORSDOF 4
