REMARK  4 active torsions:
REMARK  status: ('A' for Active; 'I' for Inactive)
REMARK    1  A    between atoms: C2_2  and  C6_6 
REMARK    2  A    between atoms: C6_6  and  C7_7 
REMARK    3  A    between atoms: C7_7  and  C8_8 
REMARK    4  A    between atoms: C8_8  and  O9_9 
ROOT
HETATM    1  C1  UNL     1     -33.212   9.219   1.122  1.00 20.00    -0.111 C 
HETATM    2  C2  UNL     1     -33.412   8.198   1.723  1.00 20.00    -0.107 C 
HETATM    3  C3  UNL     1     -32.969  10.463   0.394  1.00 20.00     0.112 C 
ENDROOT
BRANCH   2   4
HETATM    4  C6  UNL     1     -33.659   6.947   2.455  1.00 20.00     0.100 C 
BRANCH   4   5
HETATM    5  C7  UNL     1     -33.937   7.158   3.956  1.00 20.00     0.021 C 
HETATM    6  C4  UNL     1     -32.640   7.489   4.713  1.00 20.00     0.013 C 
BRANCH   5   7
HETATM    7  C8  UNL     1     -34.684   5.984   4.631  1.00 20.00     0.118 C 
HETATM    8  C5  UNL     1     -33.902   4.675   4.617  1.00 20.00     0.040 C 
BRANCH   7   9
HETATM    9  O9  UNL     1     -35.912   5.767   3.931  1.00 20.00    -0.396 OA
HETATM   10  H23 UNL     1     -36.377   5.065   4.409  1.00 20.00     0.210 HD
ENDBRANCH   7   9
ENDBRANCH   5   7
ENDBRANCH   4   5
ENDBRANCH   2   4
TORSDOF 4
