REMARK  2 active torsions:
REMARK  status: ('A' for Active; 'I' for Inactive)
REMARK    1  A    between atoms: C2_2  and  C11_11 
REMARK    2  A    between atoms: C7_7  and  C11_11 
ROOT
HETATM    1  C1  UNL     1     -32.279   9.731   1.037  1.00 20.00    -0.111 C 
HETATM    2  C2  UNL     1     -32.202   8.623   1.493  1.00 20.00    -0.106 C 
HETATM    3  C9  UNL     1     -32.373  11.080   0.481  1.00 20.00     0.112 C 
ENDROOT
BRANCH   2   4
HETATM    4  C11 UNL     1     -32.102   7.268   2.044  1.00 20.00     0.106 C 
BRANCH   4   5
HETATM    5  C7  UNL     1     -33.193   7.015   3.079  1.00 20.00     0.067 C 
HETATM    6  C3  UNL     1     -32.867   7.673   4.415  1.00 20.00     0.132 C 
HETATM    7  C4  UNL     1     -33.824   7.380   5.549  1.00 20.00     0.079 C 
HETATM    8  O12 UNL     1     -31.941   8.470   4.559  1.00 20.00    -0.298 OA
HETATM    9  C5  UNL     1     -34.029   5.879   5.701  1.00 20.00     0.011 C 
HETATM   10  C8  UNL     1     -34.450   5.226   4.377  1.00 20.00    -0.017 C 
HETATM   11  C6  UNL     1     -33.404   5.511   3.287  1.00 20.00     0.017 C 
HETATM   12  C10 UNL     1     -34.640   3.721   4.557  1.00 20.00     0.010 C 
ENDBRANCH   4   5
ENDBRANCH   2   4
TORSDOF 2
