REMARK  3 active torsions:
REMARK  status: ('A' for Active; 'I' for Inactive)
REMARK    1  A    between atoms: C2_2  and  C9_9 
REMARK    2  A    between atoms: C7_7  and  N10_10 
REMARK    3  A    between atoms: C9_9  and  N10_10 
ROOT
HETATM    1  C1  UNL     1     -32.712   9.156   0.706  1.00 20.00    -0.109 C 
HETATM    2  C2  UNL     1     -32.396   8.657   1.751  1.00 20.00    -0.077 C 
HETATM    3  C8  UNL     1     -33.096   9.765  -0.567  1.00 20.00     0.112 C 
ENDROOT
BRANCH   2   4
HETATM    4  C9  UNL     1     -32.008   8.053   3.030  1.00 20.00     0.363 C 
BRANCH   4   5
HETATM    5  N10 UNL     1     -32.532   6.702   3.146  1.00 20.00     0.099 N 
HETATM    6  H26 UNL     1     -32.004   6.190   3.847  1.00 20.00     0.317 HD
BRANCH   5   7
HETATM    7  C7  UNL     1     -33.922   6.728   3.540  1.00 20.00     0.225 C 
HETATM    8  C3  UNL     1     -34.058   6.944   5.049  1.00 20.00     0.062 C 
HETATM    9  C5  UNL     1     -33.725   5.676   5.830  1.00 20.00     0.169 C 
HETATM   10  O11 UNL     1     -34.525   4.583   5.382  1.00 20.00    -0.391 OA
HETATM   11  C6  UNL     1     -34.287   4.268   4.011  1.00 20.00     0.169 C 
HETATM   12  C4  UNL     1     -34.644   5.448   3.112  1.00 20.00     0.062 C 
ENDBRANCH   5   7
ENDBRANCH   4   5
ENDBRANCH   2   4
TORSDOF 3
