REMARK  4 active torsions:
REMARK  status: ('A' for Active; 'I' for Inactive)
REMARK    1  A    between atoms: C2_2  and  C6_6 
REMARK    2  A    between atoms: C6_6  and  N10_10 
REMARK    3  A    between atoms: C7_7  and  N10_10 
REMARK    4  A    between atoms: C8_8  and  N10_10 
ROOT
HETATM    1  C1  UNL     1     -32.847   9.302   0.895  1.00 20.00    -0.109 C 
HETATM    2  C2  UNL     1     -32.331   8.763   1.836  1.00 20.00    -0.077 C 
HETATM    3  C4  UNL     1     -33.474   9.956  -0.252  1.00 20.00     0.112 C 
ENDROOT
BRANCH   2   4
HETATM    4  C6  UNL     1     -31.696   8.112   2.986  1.00 20.00     0.366 C 
BRANCH   4   5
HETATM    5  N10 UNL     1     -32.446   6.924   3.392  1.00 20.00     0.111 N 
BRANCH   5   6
HETATM    6  C7  UNL     1     -33.812   7.284   3.767  1.00 20.00     0.396 C 
HETATM    7  C3  UNL     1     -34.415   6.245   4.600  1.00 20.00     0.089 C 
HETATM    8  N9  UNL     1     -34.897   5.423   5.262  1.00 20.00    -0.195 NA
ENDBRANCH   5   6
BRANCH   5   9
HETATM    9  C8  UNL     1     -32.456   5.933   2.316  1.00 20.00     0.270 C 
HETATM   10  C5  UNL     1     -33.216   4.714   2.713  1.00 20.00     0.037 C 
ENDBRANCH   5   9
ENDBRANCH   4   5
ENDBRANCH   2   4
TORSDOF 4
