REMARK  3 active torsions:
REMARK  status: ('A' for Active; 'I' for Inactive)
REMARK    1  A    between atoms: C2_2  and  C9_9 
REMARK    2  A    between atoms: C6_6  and  C9_9 
REMARK    3  A    between atoms: C7_7  and  O10_10 
ROOT
HETATM    1  C1  UNL     1     -32.588   8.583   1.687  1.00 20.00    -0.111 C 
HETATM    2  C2  UNL     1     -32.890   7.484   2.064  1.00 20.00    -0.107 C 
HETATM    3  C8  UNL     1     -32.221   9.922   1.228  1.00 20.00     0.112 C 
ENDROOT
BRANCH   2   4
HETATM    4  C9  UNL     1     -33.257   6.138   2.520  1.00 20.00     0.101 C 
BRANCH   4   5
HETATM    5  C6  UNL     1     -34.119   6.197   3.772  1.00 20.00     0.025 C 
HETATM    6  C4  UNL     1     -34.877   4.900   4.042  1.00 20.00     0.008 C 
HETATM    7  C3  UNL     1     -35.219   4.949   5.531  1.00 20.00     0.003 C 
HETATM    8  C5  UNL     1     -34.313   6.016   6.146  1.00 20.00     0.032 C 
HETATM    9  C7  UNL     1     -33.312   6.376   5.054  1.00 20.00     0.123 C 
BRANCH   9  10
HETATM   10  O10 UNL     1     -32.853   7.707   5.189  1.00 20.00    -0.395 OA
HETATM   11  H24 UNL     1     -32.426   7.776   6.061  1.00 20.00     0.210 HD
ENDBRANCH   9  10
ENDBRANCH   4   5
ENDBRANCH   2   4
TORSDOF 3
