REMARK  4 active torsions:
REMARK  status: ('A' for Active; 'I' for Inactive)
REMARK    1  A    between atoms: C2_2  and  C7_7 
REMARK    2  A    between atoms: C7_7  and  N11_11 
REMARK    3  A    between atoms: C8_8  and  C9_9 
REMARK    4  A    between atoms: C8_8  and  N11_11 
ROOT
HETATM    1  C1  UNL     1     -33.058   9.012  -0.521  1.00 20.00    -0.109 C 
HETATM    2  C2  UNL     1     -32.434   8.793   0.482  1.00 20.00    -0.077 C 
HETATM    3  C4  UNL     1     -33.817   9.276  -1.742  1.00 20.00     0.112 C 
ENDROOT
BRANCH   2   4
HETATM    4  C7  UNL     1     -31.667   8.529   1.703  1.00 20.00     0.365 C 
BRANCH   4   5
HETATM    5  N11 UNL     1     -32.559   8.200   2.822  1.00 20.00     0.096 N 
HETATM    6  C6  UNL     1     -31.857   8.407   4.095  1.00 20.00     0.311 C 
BRANCH   5   7
HETATM    7  C8  UNL     1     -33.051   6.845   2.714  1.00 20.00     0.291 C 
BRANCH   7   8
HETATM    8  C9  UNL     1     -34.382   6.656   3.453  1.00 20.00     0.117 C 
HETATM    9  C3  UNL     1     -34.173   6.459   4.901  1.00 20.00     0.065 C 
HETATM   10  N10 UNL     1     -34.010   6.306   6.039  1.00 20.00    -0.197 NA
HETATM   11  C5  UNL     1     -35.208   5.510   2.869  1.00 20.00     0.027 C 
ENDBRANCH   7   8
ENDBRANCH   5   7
ENDBRANCH   4   5
ENDBRANCH   2   4
TORSDOF 4
