REMARK  4 active torsions:
REMARK  status: ('A' for Active; 'I' for Inactive)
REMARK    1  A    between atoms: C2_2  and  C7_7 
REMARK    2  A    between atoms: C3_3  and  C8_8 
REMARK    3  A    between atoms: C3_3  and  C9_9 
REMARK    4  A    between atoms: C7_7  and  C8_8 
ROOT
HETATM    1  C1  UNL     1     -32.346   9.216   1.646  1.00 20.00    -0.111 C 
HETATM    2  C2  UNL     1     -32.035   8.773   2.718  1.00 20.00    -0.107 C 
HETATM    3  C4  UNL     1     -32.728   9.752   0.340  1.00 20.00     0.112 C 
ENDROOT
BRANCH   2   4
HETATM    4  C7  UNL     1     -31.655   8.227   4.029  1.00 20.00     0.101 C 
BRANCH   4   5
HETATM    5  C8  UNL     1     -32.856   7.638   4.766  1.00 20.00     0.090 C 
BRANCH   5   6
HETATM    6  C3  UNL     1     -33.524   6.485   4.025  1.00 20.00     0.131 C 
HETATM    7  O10 UNL     1     -33.112   6.075   2.940  1.00 20.00    -0.298 OA
BRANCH   6   8
HETATM    8  C9  UNL     1     -34.739   5.861   4.709  1.00 20.00     0.047 C 
HETATM    9  C5  UNL     1     -34.850   4.394   4.313  1.00 20.00     0.017 C 
HETATM   10  C6  UNL     1     -34.651   6.014   6.225  1.00 20.00     0.017 C 
ENDBRANCH   6   8
ENDBRANCH   5   6
ENDBRANCH   4   5
ENDBRANCH   2   4
TORSDOF 4
