REMARK  2 active torsions:
REMARK  status: ('A' for Active; 'I' for Inactive)
REMARK    1  A    between atoms: C1_1  and  C5_5 
REMARK    2  A    between atoms: C6_6  and  C7_7 
ROOT
HETATM    1  C4  UNL     1     -32.048   7.935   3.633  1.00 20.00     0.021 A 
HETATM    2  C5  UNL     1     -32.477   6.813   2.725  1.00 20.00     0.091 A 
HETATM    3  C7  UNL     1     -32.647   8.255   2.289  1.00 20.00     0.005 A 
ENDROOT
BRANCH   2   4
HETATM    4  C1  UNL     1     -33.672   6.076   3.085  1.00 20.00     0.177 C 
HETATM    5  O8  UNL     1     -34.581   6.759   3.633  1.00 20.00    -0.648 OA
HETATM    6  O9  UNL     1     -33.642   4.846   2.799  1.00 20.00    -0.648 OA
ENDBRANCH   2   4
BRANCH   3   7
HETATM    7  C6  UNL     1     -31.836   8.863   1.155  1.00 20.00    -0.010 A 
HETATM    8  C2  UNL     1     -32.417   9.125  -0.207  1.00 20.00     0.005 A 
HETATM    9  C3  UNL     1     -32.035  10.276   0.681  1.00 20.00     0.005 A 
ENDBRANCH   3   7
TORSDOF 2
