REMARK  4 active torsions:
REMARK  status: ('A' for Active; 'I' for Inactive)
REMARK    1  A    between atoms: C2_2  and  C7_7 
REMARK    2  A    between atoms: C7_7  and  N11_11 
REMARK    3  A    between atoms: C8_8  and  C9_9 
REMARK    4  A    between atoms: C8_8  and  N11_11 
ROOT
HETATM    1  C1  UNL     1     -32.742   9.456   0.738  1.00 20.00    -0.109 C 
HETATM    2  C2  UNL     1     -32.342   9.081   1.806  1.00 20.00    -0.079 C 
HETATM    3  C4  UNL     1     -33.228   9.913  -0.563  1.00 20.00     0.112 C 
ENDROOT
BRANCH   2   4
HETATM    4  C7  UNL     1     -31.852   8.627   3.105  1.00 20.00     0.327 C 
BRANCH   4   5
HETATM    5  N11 UNL     1     -32.763   7.552   3.646  1.00 20.00    -0.064 N 
HETATM    6  C6  UNL     1     -32.693   7.484   5.151  1.00 20.00     0.270 C 
HETATM    7  H26 UNL     1     -33.726   7.851   3.417  1.00 20.00     0.280 HD
BRANCH   5   8
HETATM    8  C8  UNL     1     -32.533   6.234   3.003  1.00 20.00     0.254 C 
BRANCH   8   9
HETATM    9  C9  UNL     1     -33.804   5.379   2.979  1.00 20.00     0.114 C 
HETATM   10  C3  UNL     1     -34.050   4.741   4.287  1.00 20.00     0.065 C 
HETATM   11  N10 UNL     1     -34.244   4.238   5.314  1.00 20.00    -0.197 NA
HETATM   12  C5  UNL     1     -35.039   6.157   2.525  1.00 20.00     0.027 C 
ENDBRANCH   8   9
ENDBRANCH   5   8
ENDBRANCH   4   5
ENDBRANCH   2   4
TORSDOF 4
