REMARK  2 active torsions:
REMARK  status: ('A' for Active; 'I' for Inactive)
REMARK    1  A    between atoms: C2_2  and  C11_11 
REMARK    2  A    between atoms: C7_7  and  C11_11 
ROOT
HETATM    1  C1  UNL     1     -32.531   8.941   1.077  1.00 20.00    -0.111 C 
HETATM    2  C2  UNL     1     -33.065   7.981   1.563  1.00 20.00    -0.106 C 
HETATM    3  C9  UNL     1     -31.881  10.110   0.487  1.00 20.00     0.112 C 
ENDROOT
BRANCH   2   4
HETATM    4  C11 UNL     1     -33.724   6.811   2.148  1.00 20.00     0.106 C 
BRANCH   4   5
HETATM    5  C7  UNL     1     -32.876   6.205   3.262  1.00 20.00     0.067 C 
HETATM    6  C3  UNL     1     -33.521   4.923   3.763  1.00 20.00     0.132 C 
HETATM    7  C4  UNL     1     -34.697   5.060   4.704  1.00 20.00     0.079 C 
HETATM    8  O12 UNL     1     -33.163   3.822   3.344  1.00 20.00    -0.298 OA
HETATM    9  C5  UNL     1     -34.377   6.024   5.837  1.00 20.00     0.011 C 
HETATM   10  C8  UNL     1     -33.879   7.377   5.311  1.00 20.00    -0.017 C 
HETATM   11  C6  UNL     1     -32.639   7.174   4.426  1.00 20.00     0.017 C 
HETATM   12  C10 UNL     1     -33.560   8.318   6.472  1.00 20.00     0.010 C 
ENDBRANCH   4   5
ENDBRANCH   2   4
TORSDOF 2
