REMARK  6 active torsions:
REMARK  status: ('A' for Active; 'I' for Inactive)
REMARK    1  A    between atoms: C2_2  and  C5_5 
REMARK    2  A    between atoms: C5_5  and  C7_7 
REMARK    3  A    between atoms: C6_6  and  C8_8 
REMARK    4  A    between atoms: C7_7  and  C9_9 
REMARK    5  A    between atoms: C8_8  and  C9_9 
REMARK    6  A    between atoms: C9_9  and  O10_10 
ROOT
HETATM    1  C1  UNL     1     -33.807   4.150   3.829  1.00 20.00    -0.111 C 
HETATM    2  C2  UNL     1     -34.159   5.279   3.621  1.00 20.00    -0.107 C 
HETATM    3  C3  UNL     1     -33.374   2.777   4.082  1.00 20.00     0.112 C 
ENDROOT
BRANCH   2   4
HETATM    4  C5  UNL     1     -34.590   6.660   3.365  1.00 20.00     0.096 C 
BRANCH   4   5
HETATM    5  C7  UNL     1     -33.656   7.689   4.002  1.00 20.00     0.044 C 
BRANCH   5   6
HETATM    6  C9  UNL     1     -32.181   7.600   3.576  1.00 20.00     0.119 C 
BRANCH   6   7
HETATM    7  C8  UNL     1     -31.960   7.863   2.081  1.00 20.00     0.031 C 
BRANCH   7   8
HETATM    8  C6  UNL     1     -32.507   9.226   1.645  1.00 20.00    -0.002 C 
HETATM    9  C4  UNL     1     -32.324   9.446   0.152  1.00 20.00     0.005 C 
ENDBRANCH   7   8
ENDBRANCH   6   7
BRANCH   6  10
HETATM   10  O10 UNL     1     -31.449   8.562   4.341  1.00 20.00    -0.396 OA
HETATM   11  H26 UNL     1     -31.571   8.320   5.271  1.00 20.00     0.210 HD
ENDBRANCH   6  10
ENDBRANCH   5   6
ENDBRANCH   4   5
ENDBRANCH   2   4
TORSDOF 6
