REMARK  4 active torsions:
REMARK  status: ('A' for Active; 'I' for Inactive)
REMARK    1  A    between atoms: C1_1  and  C3_3 
REMARK    2  A    between atoms: C4_4  and  C10_10 
REMARK    3  A    between atoms: C8_8  and  C10_10 
REMARK    4  A    between atoms: C9_9  and  C10_10 
ROOT
HETATM    1  C2  UNL     1     -31.858   8.477   4.353  1.00 20.00     0.018 A 
HETATM    2  C3  UNL     1     -31.599   8.343   2.874  1.00 20.00     0.060 A 
HETATM    3  C4  UNL     1     -32.243   7.213   3.640  1.00 20.00     0.002 A 
ENDROOT
BRANCH   3   4
HETATM    4  C10 UNL     1     -33.722   6.850   3.468  1.00 20.00    -0.010 C 
BRANCH   4   5
HETATM    5  C8  UNL     1     -34.312   6.248   4.760  1.00 20.00     0.000 C 
HETATM    6  C6  UNL     1     -34.220   7.171   5.967  1.00 20.00     0.005 C 
ENDBRANCH   4   5
BRANCH   4   7
HETATM    7  C9  UNL     1     -33.930   5.853   2.308  1.00 20.00     0.000 C 
HETATM    8  C7  UNL     1     -33.213   4.524   2.502  1.00 20.00     0.005 C 
ENDBRANCH   4   7
ENDBRANCH   3   4
BRANCH   2   9
HETATM    9  C1  UNL     1     -32.376   9.154   1.930  1.00 20.00     0.127 C 
HETATM   10  C5  UNL     1     -31.972   9.082   0.482  1.00 20.00     0.091 C 
HETATM   11  O11 UNL     1     -33.314   9.857   2.303  1.00 20.00    -0.298 OA
ENDBRANCH   2   9
TORSDOF 4
