REMARK  3 active torsions:
REMARK  status: ('A' for Active; 'I' for Inactive)
REMARK    1  A    between atoms: C2_2  and  C11_11 
REMARK    2  A    between atoms: C7_7  and  C11_11 
REMARK    3  A    between atoms: C8_8  and  C12_12 
ROOT
HETATM    1  C1  UNL     1     -32.335   8.476   1.290  1.00 20.00    -0.111 C 
HETATM    2  C2  UNL     1     -32.410   7.463   1.931  1.00 20.00    -0.106 C 
HETATM    3  C9  UNL     1     -32.245   9.709   0.509  1.00 20.00     0.112 C 
ENDROOT
BRANCH   2   4
HETATM    4  C11 UNL     1     -32.492   6.226   2.713  1.00 20.00     0.106 C 
BRANCH   4   5
HETATM    5  C7  UNL     1     -33.942   5.823   2.951  1.00 20.00     0.067 C 
HETATM    6  C3  UNL     1     -34.001   4.461   3.621  1.00 20.00     0.132 C 
HETATM    7  C4  UNL     1     -33.860   4.415   5.125  1.00 20.00     0.079 C 
HETATM    8  O13 UNL     1     -34.058   3.426   2.956  1.00 20.00    -0.298 OA
HETATM    9  C5  UNL     1     -34.807   5.407   5.784  1.00 20.00     0.012 C 
HETATM   10  C8  UNL     1     -34.643   6.836   5.252  1.00 20.00    -0.014 C 
HETATM   11  C6  UNL     1     -34.765   6.864   3.720  1.00 20.00     0.017 C 
BRANCH  10  12
HETATM   12  C12 UNL     1     -33.369   7.503   5.771  1.00 20.00     0.000 C 
HETATM   13  C10 UNL     1     -33.265   8.922   5.316  1.00 20.00     0.005 C 
ENDBRANCH  10  12
ENDBRANCH   4   5
ENDBRANCH   2   4
TORSDOF 3
