REMARK  4 active torsions:
REMARK  status: ('A' for Active; 'I' for Inactive)
REMARK    1  A    between atoms: C2_2  and  C5_5 
REMARK    2  A    between atoms: C2_2  and  C9_9 
REMARK    3  A    between atoms: C7_7  and  C9_9 
REMARK    4  A    between atoms: C8_8  and  C9_9 
ROOT
HETATM    1  C1  UNL     1     -34.445   6.182   4.983  1.00 20.00     0.059 C 
HETATM    2  C7  UNL     1     -34.035   7.026   3.849  1.00 20.00     0.136 C 
HETATM    3  N10 UNL     1     -34.770   5.519   5.877  1.00 20.00    -0.197 NA
ENDROOT
BRANCH   2   4
HETATM    4  C9  UNL     1     -32.641   6.677   3.301  1.00 20.00     0.068 C 
BRANCH   4   5
HETATM    5  C2  UNL     1     -32.048   7.882   2.574  1.00 20.00     0.136 C 
HETATM    6  O11 UNL     1     -31.041   8.477   2.936  1.00 20.00    -0.297 OA
BRANCH   5   7
HETATM    7  C5  UNL     1     -32.787   8.346   1.362  1.00 20.00     0.056 A 
HETATM    8  C3  UNL     1     -32.823   9.808   1.066  1.00 20.00     0.013 A 
HETATM    9  C4  UNL     1     -32.001   8.887   0.215  1.00 20.00     0.013 A 
ENDBRANCH   5   7
ENDBRANCH   4   5
BRANCH   4  10
HETATM   10  C8  UNL     1     -32.665   5.421   2.411  1.00 20.00     0.008 C 
HETATM   11  C6  UNL     1     -33.201   4.198   3.145  1.00 20.00     0.006 C 
ENDBRANCH   4  10
ENDBRANCH   2   4
TORSDOF 4
