REMARK  3 active torsions:
REMARK  status: ('A' for Active; 'I' for Inactive)
REMARK    1  A    between atoms: C2_2  and  C7_7 
REMARK    2  A    between atoms: C3_3  and  C8_8 
REMARK    3  A    between atoms: C7_7  and  C8_8 
ROOT
HETATM    1  C1  UNL     1     -32.115   9.155   1.673  1.00 20.00    -0.111 C 
HETATM    2  C2  UNL     1     -32.458   8.556   2.656  1.00 20.00    -0.106 C 
HETATM    3  C4  UNL     1     -31.701   9.882   0.474  1.00 20.00     0.112 C 
ENDROOT
BRANCH   2   4
HETATM    4  C7  UNL     1     -32.879   7.826   3.862  1.00 20.00     0.105 C 
BRANCH   4   5
HETATM    5  C8  UNL     1     -34.117   6.947   3.636  1.00 20.00     0.062 C 
HETATM    6  C6  UNL     1     -34.111   6.292   2.253  1.00 20.00     0.018 C 
BRANCH   5   7
HETATM    7  C3  UNL     1     -34.289   5.907   4.745  1.00 20.00     0.127 C 
HETATM    8  C5  UNL     1     -34.324   4.459   4.326  1.00 20.00     0.091 C 
HETATM    9  O9  UNL     1     -34.378   6.218   5.933  1.00 20.00    -0.298 OA
ENDBRANCH   5   7
ENDBRANCH   4   5
ENDBRANCH   2   4
TORSDOF 3
