REMARK  3 active torsions:
REMARK  status: ('A' for Active; 'I' for Inactive)
REMARK    1  A    between atoms: C6_6  and  N10_10 
REMARK    2  A    between atoms: C7_7  and  C8_8 
REMARK    3  A    between atoms: C8_8  and  N10_10 
ROOT
HETATM    1  C1  UNL     1     -32.118   9.361   0.637  1.00 20.00     0.013 C 
HETATM    2  C2  UNL     1     -32.904   8.745   1.304  1.00 20.00    -0.087 C 
HETATM    3  C6  UNL     1     -33.866   7.998   2.118  1.00 20.00     0.364 C 
ENDROOT
BRANCH   3   4
HETATM    4  N10 UNL     1     -33.431   6.617   2.292  1.00 20.00     0.117 N 
HETATM    5  H22 UNL     1     -33.669   6.087   1.451  1.00 20.00     0.319 HD
BRANCH   4   6
HETATM    6  C8  UNL     1     -34.066   6.009   3.445  1.00 20.00     0.241 C 
HETATM    7  C3  UNL     1     -33.717   6.781   4.655  1.00 20.00     0.101 C 
HETATM    8  N9  UNL     1     -33.444   7.388   5.606  1.00 20.00    -0.195 NA
HETATM    9  C5  UNL     1     -35.588   6.058   3.246  1.00 20.00     0.066 C 
BRANCH   6  10
HETATM   10  C7  UNL     1     -33.623   4.535   3.592  1.00 20.00     0.052 C 
HETATM   11  C4  UNL     1     -34.255   3.791   4.766  1.00 20.00     0.009 C 
ENDBRANCH   6  10
ENDBRANCH   4   6
ENDBRANCH   3   4
TORSDOF 3
