REMARK  2 active torsions:
REMARK  status: ('A' for Active; 'I' for Inactive)
REMARK    1  A    between atoms: C1_1  and  C3_3 
REMARK    2  A    between atoms: C2_2  and  C4_4 
ROOT
HETATM    1  C1  UNL     1     -33.202   6.106   2.743  1.00 20.00    -0.015 C 
HETATM    2  C2  UNL     1     -34.006   5.242   3.381  1.00 20.00    -0.015 C 
ENDROOT
BRANCH   1   3
HETATM    3  C3  UNL     1     -33.035   7.533   3.148  1.00 20.00     0.141 C 
HETATM    4 CL5  UNL     1     -32.667   8.527   1.722  1.00 20.00    -0.126 Cl
ENDBRANCH   1   3
BRANCH   2   5
HETATM    5  C4  UNL     1     -34.830   5.603   4.573  1.00 20.00     0.141 C 
HETATM    6 CL6  UNL     1     -34.344   4.616   5.967  1.00 20.00    -0.126 Cl
ENDBRANCH   2   5
TORSDOF 2
