REMARK  3 active torsions:
REMARK  status: ('A' for Active; 'I' for Inactive)
REMARK    1  A    between atoms: C2_2  and  C9_9 
REMARK    2  A    between atoms: C6_6  and  C9_9 
REMARK    3  A    between atoms: C7_7  and  O10_10 
ROOT
HETATM    1  C3  UNL     1     -34.825   6.043   2.884  1.00 20.00     0.003 C 
HETATM    2  C4  UNL     1     -33.350   5.924   2.501  1.00 20.00     0.008 C 
HETATM    3  C5  UNL     1     -34.856   6.497   4.343  1.00 20.00     0.032 C 
HETATM    4  C6  UNL     1     -32.598   6.769   3.530  1.00 20.00     0.022 C 
HETATM    5  C7  UNL     1     -33.402   6.495   4.804  1.00 20.00     0.122 C 
ENDROOT
BRANCH   4   6
HETATM    6  C9  UNL     1     -32.546   8.245   3.132  1.00 20.00     0.010 C 
HETATM    7  C8  UNL     1     -31.481   8.988   3.944  1.00 20.00     0.014 C 
BRANCH   6   8
HETATM    8  C2  UNL     1     -32.261   8.386   1.656  1.00 20.00    -0.032 C 
HETATM    9  C1  UNL     1     -33.086   8.980   0.787  1.00 20.00     0.007 C 
ENDBRANCH   6   8
ENDBRANCH   4   6
BRANCH   5  10
HETATM   10  O10 UNL     1     -33.189   7.453   5.821  1.00 20.00    -0.395 OA
HETATM   11  H26 UNL     1     -33.772   7.212   6.558  1.00 20.00     0.210 HD
ENDBRANCH   5  10
TORSDOF 3
