REMARK  1 active torsions:
REMARK  status: ('A' for Active; 'I' for Inactive)
REMARK    1  A    between atoms: C3_3  and  C8_8 
ROOT
HETATM    1  C1  UNL     1     -32.193   9.360   1.138  1.00 20.00     0.087 C 
HETATM    2  C2  UNL     1     -32.149   8.364   2.150  1.00 20.00     0.090 C 
HETATM    3  C3  UNL     1     -33.214   7.602   2.433  1.00 20.00    -0.011 C 
HETATM    4  N9  UNL     1     -32.225  10.174   0.312  1.00 20.00    -0.192 NA
ENDROOT
BRANCH   3   5
HETATM    5  C8  UNL     1     -33.219   6.528   3.502  1.00 20.00     0.013 C 
HETATM    6  C4  UNL     1     -34.289   6.880   4.529  1.00 20.00     0.035 C 
HETATM    7  C6  UNL     1     -34.505   5.717   5.490  1.00 20.00     0.168 C 
HETATM    8  O10 UNL     1     -34.831   4.524   4.775  1.00 20.00    -0.391 OA
HETATM    9  C7  UNL     1     -33.785   4.122   3.891  1.00 20.00     0.168 C 
HETATM   10  C5  UNL     1     -33.528   5.192   2.837  1.00 20.00     0.035 C 
ENDBRANCH   3   5
TORSDOF 1
