REMARK  1 active torsions:
REMARK  status: ('A' for Active; 'I' for Inactive)
REMARK    1  A    between atoms: C1_1  and  C6_6 
ROOT
HETATM    1  C2  UNL     1     -33.527   6.841   4.863  1.00 20.00     0.021 C 
HETATM    2  C3  UNL     1     -34.543   6.637   2.484  1.00 20.00     0.027 A 
HETATM    3  C4  UNL     1     -34.361   6.071   5.869  1.00 20.00     0.075 C 
HETATM    4  C5  UNL     1     -33.552   4.604   3.761  1.00 20.00     0.084 C 
HETATM    5  C6  UNL     1     -33.051   6.674   2.275  1.00 20.00     0.097 A 
HETATM    6  C7  UNL     1     -33.628   6.095   3.557  1.00 20.00    -0.017 A 
HETATM    7  S10 UNL     1     -34.005   4.335   5.505  1.00 20.00    -0.168 SA
ENDROOT
BRANCH   5   8
HETATM    8  C1  UNL     1     -32.396   7.967   2.321  1.00 20.00     0.177 C 
HETATM    9  O8  UNL     1     -31.427   8.053   3.125  1.00 20.00    -0.648 OA
HETATM   10  O9  UNL     1     -32.886   8.836   1.546  1.00 20.00    -0.648 OA
ENDBRANCH   5   8
TORSDOF 1
