REMARK  2 active torsions:
REMARK  status: ('A' for Active; 'I' for Inactive)
REMARK    1  A    between atoms: C5_5  and  N8_8 
REMARK    2  A    between atoms: C7_7  and  N8_8 
ROOT
HETATM    1  C1  UNL     1     -32.768   9.809   0.253  1.00 20.00     0.013 C 
HETATM    2  C2  UNL     1     -32.618   9.053   1.173  1.00 20.00    -0.087 C 
HETATM    3  C7  UNL     1     -32.431   8.134   2.298  1.00 20.00     0.362 C 
ENDROOT
BRANCH   3   4
HETATM    4  N8  UNL     1     -33.458   7.106   2.296  1.00 20.00     0.099 N 
HETATM    5  H19 UNL     1     -33.410   6.576   1.430  1.00 20.00     0.317 HD
BRANCH   4   6
HETATM    6  C5  UNL     1     -33.266   6.184   3.421  1.00 20.00     0.225 A 
HETATM    7  C3  UNL     1     -33.721   6.569   4.805  1.00 20.00     0.042 A 
HETATM    8  C4  UNL     1     -34.450   5.492   4.049  1.00 20.00     0.016 A 
HETATM    9  C6  UNL     1     -34.344   4.071   4.481  1.00 20.00     0.012 C 
ENDBRANCH   4   6
ENDBRANCH   3   4
TORSDOF 2
