REMARK  2 active torsions:
REMARK  status: ('A' for Active; 'I' for Inactive)
REMARK    1  A    between atoms: C4_4  and  N9_9 
REMARK    2  A    between atoms: C7_7  and  N9_9 
ROOT
HETATM    1  C1  UNL     1     -33.731   7.114   4.934  1.00 20.00     0.094 C 
HETATM    2  C6  UNL     1     -35.137   5.795   3.396  1.00 20.00     0.059 C 
HETATM    3  C7  UNL     1     -34.168   6.961   3.540  1.00 20.00     0.322 C 
HETATM    4  N8  UNL     1     -33.389   7.238   6.036  1.00 20.00    -0.195 NA
ENDROOT
BRANCH   3   5
HETATM    5  N9  UNL     1     -33.013   6.777   2.678  1.00 20.00     0.106 N 
HETATM    6  H21 UNL     1     -33.304   6.351   1.802  1.00 20.00     0.318 HD
BRANCH   5   7
HETATM    7  C4  UNL     1     -32.378   8.066   2.385  1.00 20.00     0.226 A 
HETATM    8  C2  UNL     1     -31.462   8.211   1.197  1.00 20.00     0.042 A 
HETATM    9  C3  UNL     1     -32.812   8.875   1.188  1.00 20.00     0.016 A 
HETATM   10  C5  UNL     1     -32.918  10.357   1.284  1.00 20.00     0.012 C 
ENDBRANCH   5   7
ENDBRANCH   3   5
TORSDOF 2
