REMARK  3 active torsions:
REMARK  status: ('A' for Active; 'I' for Inactive)
REMARK    1  A    between atoms: C2_2  and  C8_8 
REMARK    2  A    between atoms: C5_5  and  N9_9 
REMARK    3  A    between atoms: C8_8  and  N9_9 
ROOT
HETATM    1  C1  UNL     1     -32.905   9.039   0.434  1.00 20.00    -0.109 C 
HETATM    2  C2  UNL     1     -32.538   8.337   1.337  1.00 20.00    -0.077 C 
HETATM    3  C6  UNL     1     -33.351   9.892  -0.666  1.00 20.00     0.112 C 
ENDROOT
BRANCH   2   4
HETATM    4  C8  UNL     1     -32.084   7.481   2.437  1.00 20.00     0.363 C 
BRANCH   4   5
HETATM    5  N9  UNL     1     -33.111   7.358   3.457  1.00 20.00     0.099 N 
HETATM    6  H22 UNL     1     -33.566   8.257   3.595  1.00 20.00     0.317 HD
BRANCH   5   7
HETATM    7  C5  UNL     1     -34.123   6.376   3.056  1.00 20.00     0.225 A 
HETATM    8  C3  UNL     1     -33.860   4.901   3.213  1.00 20.00     0.042 A 
HETATM    9  C4  UNL     1     -34.908   5.569   4.060  1.00 20.00     0.016 A 
HETATM   10  C7  UNL     1     -34.705   5.708   5.531  1.00 20.00     0.012 C 
ENDBRANCH   5   7
ENDBRANCH   4   5
ENDBRANCH   2   4
TORSDOF 3
