REMARK  2 active torsions:
REMARK  status: ('A' for Active; 'I' for Inactive)
REMARK    1  A    between atoms: C4_4  and  N9_9 
REMARK    2  A    between atoms: C7_7  and  N9_9 
ROOT
HETATM    1  C1  UNL     1     -34.448   6.034   5.376  1.00 20.00     0.094 C 
HETATM    2  C6  UNL     1     -34.281   3.882   4.184  1.00 20.00     0.059 C 
HETATM    3  C7  UNL     1     -34.824   5.304   4.158  1.00 20.00     0.322 C 
HETATM    4  N8  UNL     1     -34.153   6.610   6.339  1.00 20.00    -0.195 NA
ENDROOT
BRANCH   3   5
HETATM    5  N9  UNL     1     -34.342   6.016   2.986  1.00 20.00     0.106 N 
HETATM    6  H21 UNL     1     -34.605   5.508   2.146  1.00 20.00     0.318 HD
BRANCH   5   7
HETATM    7  C4  UNL     1     -32.883   6.144   3.023  1.00 20.00     0.226 A 
HETATM    8  C2  UNL     1     -32.242   7.207   3.878  1.00 20.00     0.042 A 
HETATM    9  C3  UNL     1     -32.175   7.311   2.378  1.00 20.00     0.016 A 
HETATM   10  C5  UNL     1     -32.915   8.395   1.671  1.00 20.00     0.012 C 
ENDBRANCH   5   7
ENDBRANCH   3   5
TORSDOF 2
