REMARK  1 active torsions:
REMARK  status: ('A' for Active; 'I' for Inactive)
REMARK    1  A    between atoms: C4_4  and  N6_6 
ROOT
HETATM    1  C1  UNL     1     -33.244   7.417   3.227  1.00 20.00     0.158 C 
HETATM    2  N6  UNL     1     -33.873   6.789   4.000  1.00 20.00    -0.270 NA
HETATM    3  S7  UNL     1     -32.391   8.280   2.196  1.00 20.00    -0.055 SA
ENDROOT
BRANCH   2   4
HETATM    4  C4  UNL     1     -34.412   5.535   3.489  1.00 20.00     0.114 A 
HETATM    5  C2  UNL     1     -33.511   4.330   3.505  1.00 20.00     0.034 A 
HETATM    6  C3  UNL     1     -34.681   4.403   4.447  1.00 20.00     0.008 A 
HETATM    7  C5  UNL     1     -34.454   4.542   5.913  1.00 20.00     0.012 C 
ENDBRANCH   2   4
TORSDOF 1
