REMARK  1 active torsions:
REMARK  status: ('A' for Active; 'I' for Inactive)
REMARK    1  A    between atoms: C5_5  and  C6_6 
ROOT
HETATM    1  C1  UNL     1     -33.919   5.064   3.417  1.00 20.00     0.014 A 
HETATM    2  C2  UNL     1     -34.580   5.939   5.802  1.00 20.00     0.275 C 
HETATM    3  C3  UNL     1     -34.953   5.408   4.455  1.00 20.00     0.021 A 
HETATM    4  C4  UNL     1     -34.569   6.425   3.448  1.00 20.00     0.034 A 
HETATM    5  C5  UNL     1     -33.987   7.591   4.194  1.00 20.00     0.331 C 
HETATM    6  N7  UNL     1     -33.656   7.048   5.524  1.00 20.00     0.097 N 
HETATM    7  H18 UNL     1     -33.722   7.768   6.241  1.00 20.00     0.316 HD
ENDROOT
BRANCH   5   8
HETATM    8  C6  UNL     1     -32.757   8.169   3.518  1.00 20.00     0.418 C 
HETATM    9  F8  UNL     1     -32.253   9.181   4.247  1.00 20.00    -0.169 F 
HETATM   10  F9  UNL     1     -31.809   7.225   3.383  1.00 20.00    -0.169 F 
HETATM   11  F10 UNL     1     -33.070   8.638   2.297  1.00 20.00    -0.169 F 
ENDBRANCH   5   8
TORSDOF 1
