REMARK  3 active torsions:
REMARK  status: ('A' for Active; 'I' for Inactive)
REMARK    1  A    between atoms: C4_4  and  C6_6 
REMARK    2  A    between atoms: C6_6  and  C7_7 
REMARK    3  A    between atoms: C7_7  and  C8_8 
ROOT
HETATM    1  C1  UNL     1     -34.496   6.725   4.389  1.00 20.00     0.029 C 
HETATM    2  C2  UNL     1     -33.030   6.967   4.128  1.00 20.00     0.034 C 
HETATM    3  C3  UNL     1     -34.770   5.513   3.529  1.00 20.00     0.168 C 
HETATM    4  C4  UNL     1     -32.882   6.582   2.664  1.00 20.00     0.121 C 
HETATM    5  O9  UNL     1     -33.914   5.621   2.383  1.00 20.00    -0.386 OA
ENDROOT
BRANCH   4   6
HETATM    6  C6  UNL     1     -33.056   7.763   1.719  1.00 20.00     0.033 C 
BRANCH   6   7
HETATM    7  C7  UNL     1     -31.770   8.588   1.614  1.00 20.00     0.022 C 
BRANCH   7   8
HETATM    8  C8  UNL     1     -31.889   9.781   0.657  1.00 20.00     0.078 C 
HETATM    9  C5  UNL     1     -32.582  10.959   1.332  1.00 20.00     0.026 C 
HETATM   10 CL10 UNL     1     -32.807   9.336  -0.813  1.00 20.00    -0.125 Cl
ENDBRANCH   7   8
ENDBRANCH   6   7
ENDBRANCH   4   6
TORSDOF 3
