REMARK  3 active torsions:
REMARK  status: ('A' for Active; 'I' for Inactive)
REMARK    1  A    between atoms: C4_4  and  C6_6 
REMARK    2  A    between atoms: C6_6  and  C7_7 
REMARK    3  A    between atoms: C7_7  and  C8_8 
ROOT
HETATM    1  C1  UNL     1     -35.036   6.275   4.458  1.00 20.00     0.029 C 
HETATM    2  C2  UNL     1     -33.958   7.252   4.855  1.00 20.00     0.034 C 
HETATM    3  C3  UNL     1     -34.240   5.208   3.743  1.00 20.00     0.168 C 
HETATM    4  C4  UNL     1     -32.990   7.179   3.683  1.00 20.00     0.121 C 
HETATM    5  O9  UNL     1     -33.143   5.872   3.102  1.00 20.00    -0.386 OA
ENDROOT
BRANCH   4   6
HETATM    6  C6  UNL     1     -33.280   8.218   2.608  1.00 20.00     0.033 C 
BRANCH   6   7
HETATM    7  C7  UNL     1     -32.066   8.433   1.699  1.00 20.00     0.022 C 
BRANCH   7   8
HETATM    8  C8  UNL     1     -32.314   9.459   0.586  1.00 20.00     0.078 C 
HETATM    9  C5  UNL     1     -33.097   8.841  -0.566  1.00 20.00     0.026 C 
HETATM   10 CL10 UNL     1     -33.219  10.874   1.204  1.00 20.00    -0.125 Cl
ENDBRANCH   7   8
ENDBRANCH   6   7
ENDBRANCH   4   6
TORSDOF 3
