REMARK  5 active torsions:
REMARK  status: ('A' for Active; 'I' for Inactive)
REMARK    1  A    between atoms: C1_1  and  C7_7 
REMARK    2  A    between atoms: C1_1  and  C11_11 
REMARK    3  A    between atoms: C7_7  and  C10_10 
REMARK    4  A    between atoms: C8_8  and  C9_9 
REMARK    5  A    between atoms: C9_9  and  C10_10 
ROOT
HETATM    1  C1  UNL     1     -33.829   7.385   4.417  1.00 20.00     0.134 C 
HETATM    2  O12 UNL     1     -33.555   7.705   5.576  1.00 20.00    -0.297 OA
ENDROOT
BRANCH   1   3
HETATM    3  C7  UNL     1     -33.782   8.415   3.290  1.00 20.00     0.083 C 
BRANCH   3   4
HETATM    4  C10 UNL     1     -32.418   8.484   2.575  1.00 20.00    -0.012 C 
HETATM    5  C3  UNL     1     -31.276   8.332   3.586  1.00 20.00     0.010 C 
BRANCH   4   6
HETATM    6  C9  UNL     1     -32.320   9.815   1.798  1.00 20.00     0.004 C 
BRANCH   6   7
HETATM    7  C8  UNL     1     -33.401   9.981   0.727  1.00 20.00    -0.004 C 
HETATM    8  C2  UNL     1     -33.374   8.833  -0.271  1.00 20.00     0.005 C 
ENDBRANCH   6   7
ENDBRANCH   4   6
ENDBRANCH   3   4
ENDBRANCH   1   3
BRANCH   1   9
HETATM    9  C11 UNL     1     -34.242   5.942   4.061  1.00 20.00     0.009 C 
HETATM   10  C4  UNL     1     -33.273   5.339   3.035  1.00 20.00     0.022 C 
HETATM   11  C5  UNL     1     -34.259   5.098   5.341  1.00 20.00     0.022 C 
HETATM   12  C6  UNL     1     -35.655   5.948   3.450  1.00 20.00     0.022 C 
ENDBRANCH   1   9
TORSDOF 5
