REMARK  2 active torsions:
REMARK  status: ('A' for Active; 'I' for Inactive)
REMARK    1  A    between atoms: C1_1  and  C2_2 
REMARK    2  A    between atoms: C9_9  and  N10_10 
ROOT
HETATM    1  C1  UNL     1     -34.972   6.157   3.912  1.00 20.00     0.150 C 
HETATM    2  C3  UNL     1     -34.473   5.052   4.797  1.00 20.00     0.068 C 
HETATM    3  C4  UNL     1     -34.388   5.535   6.245  1.00 20.00     0.008 C 
HETATM    4  C5  UNL     1     -34.038   7.022   6.363  1.00 20.00     0.029 C 
HETATM    5  C6  UNL     1     -33.353   7.552   5.110  1.00 20.00     0.242 C 
HETATM    6  N10 UNL     1     -34.267   7.420   3.904  1.00 20.00    -0.038 N 
HETATM    7  H28 UNL     1     -34.917   8.200   3.960  1.00 20.00     0.286 HD
ENDROOT
BRANCH   6   8
HETATM    8  C9  UNL     1     -33.508   7.602   2.616  1.00 20.00     0.186 C 
HETATM    9  C7  UNL     1     -32.227   6.786   2.692  1.00 20.00     0.040 C 
HETATM   10  C8  UNL     1     -33.236   9.085   2.421  1.00 20.00     0.040 C 
ENDBRANCH   6   8
BRANCH   1  11
HETATM   11  C2  UNL     1     -36.103   6.060   3.196  1.00 20.00     0.291 C 
HETATM   12  O11 UNL     1     -36.951   5.136   3.080  1.00 20.00    -0.300 OA
ENDBRANCH   1  11
TORSDOF 2
