REMARK  3 active torsions:
REMARK  status: ('A' for Active; 'I' for Inactive)
REMARK    1  A    between atoms: C1_1  and  C9_9 
REMARK    2  A    between atoms: C3_3  and  C8_8 
REMARK    3  A    between atoms: C9_9  and  N10_10 
ROOT
HETATM    1  C4  UNL     1     -33.597   6.827   5.936  1.00 20.00     0.028 C 
HETATM    2  C5  UNL     1     -35.076   6.547   5.689  1.00 20.00     0.015 C 
HETATM    3  C6  UNL     1     -32.940   7.482   4.732  1.00 20.00     0.235 C 
HETATM    4  C7  UNL     1     -34.586   6.366   3.198  1.00 20.00     0.246 C 
HETATM    5  C8  UNL     1     -35.320   5.778   4.394  1.00 20.00     0.073 C 
HETATM    6  N10 UNL     1     -33.127   6.598   3.524  1.00 20.00    -0.067 N 
HETATM    7  H27 UNL     1     -32.709   5.685   3.746  1.00 20.00     0.280 HD
ENDROOT
BRANCH   6   8
HETATM    8  C9  UNL     1     -32.373   7.123   2.332  1.00 20.00     0.263 C 
BRANCH   8   9
HETATM    9  C1  UNL     1     -32.863   8.458   1.877  1.00 20.00     0.012 C 
HETATM   10  C2  UNL     1     -32.086   9.542   1.812  1.00 20.00     0.082 C 
HETATM   11 CL12 UNL     1     -32.654  11.069   1.283  1.00 20.00    -0.097 Cl
ENDBRANCH   8   9
ENDBRANCH   6   8
BRANCH   5  12
HETATM   12  C3  UNL     1     -34.939   4.323   4.623  1.00 20.00     0.237 C 
HETATM   13  O11 UNL     1     -33.832   3.865   4.358  1.00 20.00    -0.306 OA
ENDBRANCH   5  12
TORSDOF 3
