REMARK  4 active torsions:
REMARK  status: ('A' for Active; 'I' for Inactive)
REMARK    1  A    between atoms: C3_3  and  C8_8 
REMARK    2  A    between atoms: C3_3  and  O9_9 
REMARK    3  A    between atoms: C6_6  and  C7_7 
REMARK    4  A    between atoms: C7_7  and  C8_8 
ROOT
HETATM    1  C1  UNL     1     -33.819   4.008   4.261  1.00 20.00     0.041 A 
HETATM    2  C2  UNL     1     -34.115   4.327   5.700  1.00 20.00     0.041 A 
HETATM    3  C3  UNL     1     -34.379   5.354   4.633  1.00 20.00     0.061 A 
ENDROOT
BRANCH   3   4
HETATM    4  C8  UNL     1     -33.502   6.605   4.532  1.00 20.00     0.016 C 
HETATM    5  C5  UNL     1     -33.901   7.604   5.619  1.00 20.00     0.013 C 
BRANCH   4   6
HETATM    6  C7  UNL     1     -33.605   7.203   3.117  1.00 20.00     0.007 C 
BRANCH   6   7
HETATM    7  C6  UNL     1     -32.707   8.423   2.903  1.00 20.00    -0.004 C 
HETATM    8  C4  UNL     1     -32.792   8.931   1.471  1.00 20.00     0.005 C 
ENDBRANCH   6   7
ENDBRANCH   4   6
ENDBRANCH   3   4
BRANCH   3   9
HETATM    9  O9  UNL     1     -35.758   5.577   4.293  1.00 20.00    -0.389 OA
HETATM   10  H25 UNL     1     -36.259   4.900   4.766  1.00 20.00     0.210 HD
ENDBRANCH   3   9
TORSDOF 4
