REMARK  2 active torsions:
REMARK  status: ('A' for Active; 'I' for Inactive)
REMARK    1  A    between atoms: C2_2  and  C7_7 
REMARK       I    between atoms: C2_2  and  N8_8 
REMARK    2  A    between atoms: C6_6  and  C7_7 
ROOT
HETATM    1  C1  UNL     1     -32.444   8.634   1.915  1.00 20.00     0.166 C 
HETATM    2  C2  UNL     1     -33.050   7.180   3.446  1.00 20.00     0.252 C 
HETATM    3  N8  UNL     1     -32.320   7.541   2.326  1.00 20.00    -0.199 NA
HETATM    4  O9  UNL     1     -32.971   7.711   4.554  1.00 20.00    -0.270 OA
HETATM    5  S10 UNL     1     -32.585  10.108   1.329  1.00 20.00    -0.055 SA
ENDROOT
BRANCH   2   6
HETATM    6  C7  UNL     1     -34.010   5.995   3.194  1.00 20.00     0.035 C 
HETATM    7  C4  UNL     1     -33.213   4.758   2.739  1.00 20.00     0.025 C 
HETATM    8  C5  UNL     1     -34.970   6.388   2.055  1.00 20.00     0.025 C 
BRANCH   6   9
HETATM    9  C6  UNL     1     -34.838   5.676   4.464  1.00 20.00     0.014 C 
HETATM   10  C3  UNL     1     -34.014   5.293   5.689  1.00 20.00     0.006 C 
ENDBRANCH   6   9
ENDBRANCH   2   6
TORSDOF 2
