REMARK  2 active torsions:
REMARK  status: ('A' for Active; 'I' for Inactive)
REMARK    1  A    between atoms: C7_7  and  C11_11 
REMARK    2  A    between atoms: C8_8  and  C12_12 
ROOT
HETATM    1  C1  UNL     1     -34.506   3.944   5.019  1.00 20.00     0.012 C 
HETATM    2  C2  UNL     1     -34.606   4.869   4.260  1.00 20.00    -0.117 C 
HETATM    3  C11 UNL     1     -34.738   5.996   3.332  1.00 20.00     0.105 C 
ENDROOT
BRANCH   3   4
HETATM    4  C7  UNL     1     -33.389   6.664   3.086  1.00 20.00     0.067 C 
HETATM    5  C3  UNL     1     -33.001   7.564   4.257  1.00 20.00     0.132 C 
HETATM    6  C4  UNL     1     -32.118   8.756   3.945  1.00 20.00     0.079 C 
HETATM    7  O13 UNL     1     -33.381   7.348   5.408  1.00 20.00    -0.298 OA
HETATM    8  C5  UNL     1     -31.238   8.455   2.739  1.00 20.00     0.012 C 
HETATM    9  C8  UNL     1     -32.056   8.124   1.478  1.00 20.00    -0.010 C 
HETATM   10  C6  UNL     1     -33.428   7.507   1.807  1.00 20.00     0.018 C 
BRANCH   9  11
HETATM   11  C12 UNL     1     -32.231   9.356   0.588  1.00 20.00    -0.019 C 
HETATM   12  C9  UNL     1     -33.014   8.999  -0.673  1.00 20.00     0.010 C 
HETATM   13  C10 UNL     1     -32.930  10.476   1.355  1.00 20.00     0.010 C 
ENDBRANCH   9  11
ENDBRANCH   3   4
TORSDOF 2
