REMARK  1 active torsions:
REMARK  status: ('A' for Active; 'I' for Inactive)
REMARK    1  A    between atoms: C1_1  and  C6_6 
ROOT
HETATM    1  C2  UNL     1     -34.275   5.367   3.134  1.00 20.00     0.027 C 
HETATM    2  C3  UNL     1     -33.311   6.362   2.496  1.00 20.00     0.017 C 
HETATM    3  C4  UNL     1     -35.007   6.003   4.308  1.00 20.00     0.167 C 
HETATM    4  C5  UNL     1     -33.251   7.540   4.714  1.00 20.00     0.181 C 
HETATM    5  C6  UNL     1     -32.415   6.997   3.559  1.00 20.00     0.096 C 
HETATM    6  O8  UNL     1     -34.080   6.516   5.264  1.00 20.00    -0.390 OA
ENDROOT
BRANCH   5   7
HETATM    7  C1  UNL     1     -31.601   8.092   2.947  1.00 20.00     0.225 C 
HETATM    8  O7  UNL     1     -32.022   8.763   2.010  1.00 20.00    -0.279 OA
HETATM    9 CL9  UNL     1     -30.052   8.264   3.717  1.00 20.00    -0.043 Cl
ENDBRANCH   5   7
TORSDOF 1
