REMARK  0 active torsions:
REMARK  status: ('A' for Active; 'I' for Inactive)
ROOT
HETATM    1  C1  UNL     1     -33.905   3.937   3.339  1.00 20.00    -0.006 C 
HETATM    2  C2  UNL     1     -34.256   3.870   4.627  1.00 20.00     0.112 C 
HETATM    3  C3  UNL     1     -33.828   6.064   5.092  1.00 20.00     0.023 C 
HETATM    4  C4  UNL     1     -32.741   7.565   3.336  1.00 20.00     0.136 C 
HETATM    5  C5  UNL     1     -33.340   5.192   2.769  1.00 20.00     0.046 C 
HETATM    6  C6  UNL     1     -33.724   7.192   6.094  1.00 20.00     0.056 C 
HETATM    7  C7  UNL     1     -32.646   8.659   4.376  1.00 20.00     0.079 C 
HETATM    8  C8  UNL     1     -32.521   8.061   5.768  1.00 20.00     0.013 C 
HETATM    9  C9  UNL     1     -33.708   6.418   3.612  1.00 20.00     0.106 C 
HETATM   10  N10 UNL     1     -34.117   4.879   5.540  1.00 20.00    -0.269 NA
HETATM   11  O11 UNL     1     -32.145   7.674   2.263  1.00 20.00    -0.297 OA
ENDROOT
TORSDOF 0
