REMARK  3 active torsions:
REMARK  status: ('A' for Active; 'I' for Inactive)
REMARK    1  A    between atoms: C2_2  and  C7_7 
REMARK    2  A    between atoms: C5_5  and  C7_7 
REMARK    3  A    between atoms: C6_6  and  C7_7 
ROOT
HETATM    1  C7  UNL     1     -33.500   6.925   3.019  1.00 20.00     0.016 C 
ENDROOT
BRANCH   1   2
HETATM    2  C2  UNL     1     -32.183   7.478   2.465  1.00 20.00     0.149 A 
HETATM    3  C1  UNL     1     -32.171   8.509   1.371  1.00 20.00     0.200 A 
HETATM    4  O8  UNL     1     -31.955   8.863   2.747  1.00 20.00    -0.381 OA
ENDBRANCH   1   2
BRANCH   1   5
HETATM    5  C5  UNL     1     -33.471   6.825   4.558  1.00 20.00     0.002 C 
HETATM    6  C3  UNL     1     -34.766   6.306   5.167  1.00 20.00     0.005 C 
ENDBRANCH   1   5
BRANCH   1   7
HETATM    7  C6  UNL     1     -33.823   5.535   2.430  1.00 20.00     0.002 C 
HETATM    8  C4  UNL     1     -32.780   4.473   2.749  1.00 20.00     0.005 C 
ENDBRANCH   1   7
TORSDOF 3
