REMARK  3 active torsions:
REMARK  status: ('A' for Active; 'I' for Inactive)
REMARK    1  A    between atoms: C2_2  and  C6_6 
REMARK    2  A    between atoms: C6_6  and  C7_7 
REMARK    3  A    between atoms: C7_7  and  C8_8 
ROOT
HETATM    1  C6  UNL     1     -33.262   7.577   3.628  1.00 20.00     0.040 C 
ENDROOT
BRANCH   1   2
HETATM    2  C2  UNL     1     -33.785   6.215   4.060  1.00 20.00     0.079 A 
HETATM    3  C1  UNL     1     -35.055   6.128   4.872  1.00 20.00     0.206 A 
HETATM    4  O9  UNL     1     -33.759   6.009   5.479  1.00 20.00    -0.375 OA
HETATM    5  C3  UNL     1     -33.332   5.029   3.272  1.00 20.00     0.048 C 
ENDBRANCH   1   2
BRANCH   1   6
HETATM    6  C7  UNL     1     -32.623   7.514   2.239  1.00 20.00     0.007 C 
BRANCH   6   7
HETATM    7  C8  UNL     1     -32.141   8.882   1.722  1.00 20.00    -0.023 C 
HETATM    8  C4  UNL     1     -33.325   9.850   1.635  1.00 20.00     0.009 C 
HETATM    9  C5  UNL     1     -31.454   8.784   0.360  1.00 20.00     0.009 C 
ENDBRANCH   6   7
ENDBRANCH   1   6
TORSDOF 3
