REMARK  1 active torsions:
REMARK  status: ('A' for Active; 'I' for Inactive)
REMARK    1  A    between atoms: C4_4  and  C5_5 
ROOT
HETATM    1  C1  UNL     1     -32.461  10.093   0.730  1.00 20.00     0.007 A 
HETATM    2  C2  UNL     1     -31.579   8.954   0.301  1.00 20.00     0.007 A 
HETATM    3  C4  UNL     1     -32.810   8.684   1.120  1.00 20.00     0.017 A 
ENDROOT
BRANCH   3   4
HETATM    4  C5  UNL     1     -32.747   8.191   2.557  1.00 20.00     0.149 A 
HETATM    5  C3  UNL     1     -33.741   7.237   3.150  1.00 20.00     0.200 A 
HETATM    6  O6  UNL     1     -32.445   6.803   2.710  1.00 20.00    -0.381 OA
ENDBRANCH   3   4
TORSDOF 1
