REMARK  1 active torsions:
REMARK  status: ('A' for Active; 'I' for Inactive)
REMARK    1  A    between atoms: C1_1  and  C2_2 
ROOT
HETATM    1  C1  UNL     1     -33.256   7.311   3.227  1.00 20.00     0.437 C 
HETATM    2  F3  UNL     1     -33.211   7.330   1.876  1.00 20.00    -0.166 F 
HETATM    3  F4  UNL     1     -31.997   7.522   3.675  1.00 20.00    -0.166 F 
HETATM    4  F5  UNL     1     -34.005   8.366   3.621  1.00 20.00    -0.166 F 
ENDROOT
BRANCH   1   5
HETATM    5  C2  UNL     1     -33.820   6.000   3.748  1.00 20.00     0.286 C 
HETATM    6 CL6  UNL     1     -32.799   4.638   3.204  1.00 20.00    -0.074 Cl
HETATM    7 CL7  UNL     1     -33.860   6.019   5.534  1.00 20.00    -0.074 Cl
HETATM    8 CL8  UNL     1     -35.480   5.764   3.132  1.00 20.00    -0.074 Cl
ENDBRANCH   1   5
TORSDOF 1
