REMARK  1 active torsions:
REMARK  status: ('A' for Active; 'I' for Inactive)
REMARK    1  A    between atoms: C7_7  and  C8_8 
ROOT
HETATM    1  C1  UNL     1     -33.909   6.087   3.028  1.00 20.00     0.132 C 
HETATM    2  C2  UNL     1     -33.945   5.894   4.525  1.00 20.00     0.079 C 
HETATM    3  C3  UNL     1     -33.714   7.214   5.250  1.00 20.00     0.008 C 
HETATM    4  C4  UNL     1     -32.350   7.811   4.910  1.00 20.00     0.006 C 
HETATM    5  C5  UNL     1     -32.835   6.965   2.502  1.00 20.00     0.073 A 
HETATM    6  C6  UNL     1     -32.077   7.873   3.439  1.00 20.00     0.011 A 
HETATM    7  C7  UNL     1     -33.068   8.459   2.463  1.00 20.00     0.110 A 
HETATM    8  O9  UNL     1     -34.671   5.512   2.260  1.00 20.00    -0.298 OA
ENDROOT
BRANCH   7   9
HETATM    9  C8  UNL     1     -32.586   9.257   1.301  1.00 20.00     0.392 C 
HETATM   10  F10 UNL     1     -32.383  10.553   1.638  1.00 20.00    -0.171 F 
HETATM   11  F11 UNL     1     -31.414   8.776   0.819  1.00 20.00    -0.171 F 
HETATM   12  F12 UNL     1     -33.479   9.239   0.282  1.00 20.00    -0.171 F 
ENDBRANCH   7   9
TORSDOF 1
