REMARK  0 active torsions:
REMARK  status: ('A' for Active; 'I' for Inactive)
ROOT
HETATM    1  C1  UNL     1     -34.102   7.517   4.956  1.00 20.00     0.013 C 
HETATM    2  C2  UNL     1     -33.282   6.437   5.691  1.00 20.00     0.013 C 
HETATM    3  C3  UNL     1     -35.601   6.040   3.514  1.00 20.00     0.280 C 
HETATM    4  C4  UNL     1     -34.301   4.330   4.677  1.00 20.00     0.280 C 
HETATM    5  C5  UNL     1     -34.350   6.939   3.549  1.00 20.00     0.086 C 
HETATM    6  C6  UNL     1     -33.106   5.303   4.663  1.00 20.00     0.086 C 
HETATM    7  C7  UNL     1     -33.114   6.078   3.357  1.00 20.00     0.254 C 
HETATM    8  N8  UNL     1     -35.607   4.994   4.547  1.00 20.00     0.084 N 
HETATM    9  F9  UNL     1     -33.179   5.290   2.272  1.00 20.00    -0.205 F 
HETATM   10  F10 UNL     1     -32.005   6.843   3.243  1.00 20.00    -0.205 F 
HETATM   11  H21 UNL     1     -35.838   5.426   5.441  1.00 20.00     0.315 HD
ENDROOT
TORSDOF 0
