REMARK  0 active torsions:
REMARK  status: ('A' for Active; 'I' for Inactive)
ROOT
HETATM    1  C1  UNL     1     -33.710   7.202   5.340  1.00 20.00     0.027 C 
HETATM    2  C2  UNL     1     -33.133   8.222   4.360  1.00 20.00     0.027 C 
HETATM    3  C3  UNL     1     -34.516   5.476   1.880  1.00 20.00     0.009 C 
HETATM    4  C4  UNL     1     -33.386   5.017   4.064  1.00 20.00     0.030 C 
HETATM    5  C5  UNL     1     -35.640   6.226   3.986  1.00 20.00     0.030 C 
HETATM    6  C6  UNL     1     -32.415   6.722   2.425  1.00 20.00     0.030 C 
HETATM    7  C7  UNL     1     -34.670   7.930   2.345  1.00 20.00     0.030 C 
HETATM    8  C8  UNL     1     -33.168   5.398   2.596  1.00 20.00    -0.010 C 
HETATM    9  C9  UNL     1     -35.364   6.575   2.520  1.00 20.00    -0.010 C 
HETATM   10  C10 UNL     1     -34.377   5.926   4.812  1.00 20.00     0.038 C 
HETATM   11  C11 UNL     1     -33.217   7.964   2.850  1.00 20.00     0.038 C 
HETATM   12 CL12 UNL     1     -34.917   5.016   6.299  1.00 20.00    -0.119 Cl
HETATM   13 CL13 UNL     1     -32.416   9.407   2.072  1.00 20.00    -0.119 Cl
ENDROOT
TORSDOF 0
