REMARK  3 active torsions:
REMARK  status: ('A' for Active; 'I' for Inactive)
REMARK    1  A    between atoms: C1_1  and  C4_4 
REMARK       I    between atoms: C1_1  and  N10_10 
REMARK    2  A    between atoms: C8_8  and  C9_9 
REMARK    3  A    between atoms: C9_9  and  N10_10 
ROOT
HETATM    1  C1  UNL     1     -32.722   8.097   2.818  1.00 20.00     0.222 C 
HETATM    2  N10 UNL     1     -33.866   7.378   3.086  1.00 20.00    -0.352 N 
HETATM    3  O11 UNL     1     -31.656   8.029   3.418  1.00 20.00    -0.273 OA
HETATM    4  H28 UNL     1     -34.682   7.533   2.508  1.00 20.00     0.163 HD
ENDROOT
BRANCH   2   5
HETATM    5  C9  UNL     1     -33.951   6.405   4.162  1.00 20.00     0.025 C 
HETATM    6  C6  UNL     1     -33.673   7.129   5.489  1.00 20.00     0.038 C 
HETATM    7  C7  UNL     1     -35.370   5.820   4.204  1.00 20.00     0.038 C 
BRANCH   5   8
HETATM    8  C8  UNL     1     -32.887   5.299   3.966  1.00 20.00     0.026 C 
HETATM    9  C5  UNL     1     -33.030   4.487   2.683  1.00 20.00     0.007 C 
ENDBRANCH   5   8
ENDBRANCH   2   5
BRANCH   1  10
HETATM   10  C4  UNL     1     -32.860   9.037   1.666  1.00 20.00     0.078 A 
HETATM   11  C2  UNL     1     -32.132  10.339   1.718  1.00 20.00     0.015 A 
HETATM   12  C3  UNL     1     -31.677   9.258   0.784  1.00 20.00     0.015 A 
ENDBRANCH   1  10
TORSDOF 3
