REMARK  1 active torsions:
REMARK  status: ('A' for Active; 'I' for Inactive)
REMARK    1  A    between atoms: C7_7  and  C8_8 
ROOT
HETATM    1  C1  UNL     1     -34.656   4.298   5.420  1.00 20.00     0.005 C 
HETATM    2  C2  UNL     1     -34.166   3.948   4.007  1.00 20.00     0.005 C 
HETATM    3  C3  UNL     1     -35.577   5.850   3.867  1.00 20.00     0.010 C 
HETATM    4  C4  UNL     1     -33.757   6.628   5.186  1.00 20.00     0.010 C 
HETATM    5  C5  UNL     1     -35.039   5.782   5.295  1.00 20.00    -0.014 C 
HETATM    6  C6  UNL     1     -34.292   5.287   3.257  1.00 20.00    -0.009 C 
HETATM    7  C7  UNL     1     -33.205   6.249   3.795  1.00 20.00     0.004 C 
ENDROOT
BRANCH   7   8
HETATM    8  C8  UNL     1     -32.999   7.468   2.903  1.00 20.00     0.119 C 
HETATM    9 CL9  UNL     1     -31.854   8.592   3.657  1.00 20.00    -0.130 Cl
ENDBRANCH   7   8
TORSDOF 1
