REMARK  2 active torsions:
REMARK  status: ('A' for Active; 'I' for Inactive)
REMARK    1  A    between atoms: C1_1  and  C9_9 
REMARK    2  A    between atoms: C2_2  and  C8_8 
ROOT
HETATM    1  C1  UNL     1     -33.402   6.575   4.673  1.00 20.00    -0.016 C 
HETATM    2  C2  UNL     1     -32.934   7.648   4.003  1.00 20.00    -0.087 C 
HETATM    3  C3  UNL     1     -32.067   8.653   4.725  1.00 20.00     0.043 C 
ENDROOT
BRANCH   1   4
HETATM    4  C9  UNL     1     -34.284   5.412   4.228  1.00 20.00    -0.033 C 
HETATM    5  C5  UNL     1     -34.483   4.473   5.443  1.00 20.00     0.018 C 
HETATM    6  C6  UNL     1     -35.685   5.853   3.770  1.00 20.00     0.018 C 
HETATM    7  C7  UNL     1     -33.588   4.604   3.121  1.00 20.00     0.018 C 
ENDBRANCH   1   4
BRANCH   2   8
HETATM    8  C8  UNL     1     -33.144   7.949   2.538  1.00 20.00     0.029 C 
HETATM    9  C4  UNL     1     -32.477   9.248   2.102  1.00 20.00     0.010 C 
ENDBRANCH   2   8
TORSDOF 2
