REMARK  4 active torsions:
REMARK  status: ('A' for Active; 'I' for Inactive)
REMARK    1  A    between atoms: C2_2  and  C3_3 
REMARK    2  A    between atoms: C3_3  and  C5_5 
REMARK    3  A    between atoms: C5_5  and  C6_6 
REMARK    4  A    between atoms: C6_6  and  C7_7 
ROOT
HETATM    1  C3  UNL     1     -32.903   6.538   3.346  1.00 20.00     0.154 C 
HETATM    2  O8  UNL     1     -32.598   5.658   2.540  1.00 20.00    -0.293 OA
ENDROOT
BRANCH   1   3
HETATM    3  C2  UNL     1     -33.961   6.256   4.377  1.00 20.00    -0.025 C 
HETATM    4  C1  UNL     1     -33.950   6.849   5.579  1.00 20.00     0.022 C 
HETATM    5  C4  UNL     1     -35.030   5.277   3.989  1.00 20.00     0.051 C 
ENDBRANCH   1   3
BRANCH   1   6
HETATM    6  C5  UNL     1     -32.237   7.909   3.321  1.00 20.00     0.084 C 
BRANCH   6   7
HETATM    7  C6  UNL     1     -31.766   8.298   1.916  1.00 20.00     0.023 C 
BRANCH   7   8
HETATM    8  C7  UNL     1     -32.908   8.445   0.916  1.00 20.00     0.115 C 
HETATM    9 CL9  UNL     1     -32.328   8.919  -0.696  1.00 20.00    -0.130 Cl
ENDBRANCH   7   8
ENDBRANCH   6   7
ENDBRANCH   1   6
TORSDOF 4
