REMARK  3 active torsions:
REMARK  status: ('A' for Active; 'I' for Inactive)
REMARK    1  A    between atoms: C4_4  and  C7_7 
REMARK    2  A    between atoms: C6_6  and  C7_7 
REMARK    3  A    between atoms: C7_7  and  O9_9 
ROOT
HETATM    1  C1  UNL     1     -34.335   6.694   5.234  1.00 20.00     0.035 C 
HETATM    2  C2  UNL     1     -34.689   5.241   5.475  1.00 20.00     0.168 C 
HETATM    3  C3  UNL     1     -33.427   5.373   3.521  1.00 20.00     0.174 C 
HETATM    4  C4  UNL     1     -34.114   6.710   3.737  1.00 20.00     0.040 C 
HETATM    5  O8  UNL     1     -33.975   4.472   4.496  1.00 20.00    -0.391 OA
ENDROOT
BRANCH   4   6
HETATM    6  C7  UNL     1     -33.312   7.897   3.240  1.00 20.00     0.124 C 
BRANCH   6   7
HETATM    7  C6  UNL     1     -33.087   7.827   1.726  1.00 20.00     0.027 C 
HETATM    8  C5  UNL     1     -32.242   8.984   1.209  1.00 20.00     0.007 C 
ENDBRANCH   6   7
BRANCH   6   9
HETATM    9  O9  UNL     1     -32.044   7.910   3.894  1.00 20.00    -0.395 OA
HETATM   10  H23 UNL     1     -31.609   7.074   3.667  1.00 20.00     0.210 HD
ENDBRANCH   6   9
ENDBRANCH   4   6
TORSDOF 3
