REMARK  3 active torsions:
REMARK  status: ('A' for Active; 'I' for Inactive)
REMARK    1  A    between atoms: C4_4  and  C7_7 
REMARK    2  A    between atoms: C6_6  and  C7_7 
REMARK    3  A    between atoms: C7_7  and  O9_9 
ROOT
HETATM    1  C1  UNL     1     -34.026   6.302   2.286  1.00 20.00     0.035 C 
HETATM    2  C2  UNL     1     -33.809   4.947   2.928  1.00 20.00     0.168 C 
HETATM    3  C3  UNL     1     -34.052   6.530   4.621  1.00 20.00     0.174 C 
HETATM    4  C4  UNL     1     -33.598   7.267   3.372  1.00 20.00     0.040 C 
HETATM    5  O8  UNL     1     -33.941   5.126   4.344  1.00 20.00    -0.391 OA
ENDROOT
BRANCH   4   6
HETATM    6  C7  UNL     1     -32.088   7.499   3.368  1.00 20.00     0.124 C 
BRANCH   6   7
HETATM    7  C6  UNL     1     -31.621   8.124   2.049  1.00 20.00     0.027 C 
HETATM    8  C5  UNL     1     -32.311   9.449   1.756  1.00 20.00     0.007 C 
ENDBRANCH   6   7
BRANCH   6   9
HETATM    9  O9  UNL     1     -31.748   8.376   4.441  1.00 20.00    -0.395 OA
HETATM   10  H23 UNL     1     -32.032   7.935   5.256  1.00 20.00     0.210 HD
ENDBRANCH   6   9
ENDBRANCH   4   6
TORSDOF 3
