REMARK  3 active torsions:
REMARK  status: ('A' for Active; 'I' for Inactive)
REMARK    1  A    between atoms: C4_4  and  C7_7 
REMARK    2  A    between atoms: C6_6  and  C7_7 
REMARK    3  A    between atoms: C7_7  and  O9_9 
ROOT
HETATM    1  C1  UNL     1     -33.147   9.584   2.184  1.00 20.00     0.035 C 
HETATM    2  C2  UNL     1     -32.661   9.886   0.782  1.00 20.00     0.168 C 
HETATM    3  C3  UNL     1     -31.408   8.112   1.626  1.00 20.00     0.174 C 
HETATM    4  C4  UNL     1     -32.748   8.133   2.341  1.00 20.00     0.040 C 
HETATM    5  O8  UNL     1     -31.502   9.069   0.559  1.00 20.00    -0.391 OA
ENDROOT
BRANCH   4   6
HETATM    6  C7  UNL     1     -32.681   7.658   3.780  1.00 20.00     0.124 C 
BRANCH   6   7
HETATM    7  C6  UNL     1     -34.024   7.841   4.493  1.00 20.00     0.027 C 
HETATM    8  C5  UNL     1     -33.970   7.416   5.955  1.00 20.00     0.007 C 
ENDBRANCH   6   7
BRANCH   6   9
HETATM    9  O9  UNL     1     -31.684   8.408   4.472  1.00 20.00    -0.395 OA
HETATM   10  H23 UNL     1     -31.674   8.076   5.383  1.00 20.00     0.210 HD
ENDBRANCH   6   9
ENDBRANCH   4   6
TORSDOF 3
