REMARK  2 active torsions:
REMARK  status: ('A' for Active; 'I' for Inactive)
REMARK    1  A    between atoms: C8_8  and  C11_11 
REMARK    2  A    between atoms: C10_10  and  C11_11 
ROOT
HETATM    1  C11 UNL     1     -32.630   8.094   3.054  1.00 20.00     0.046 C 
ENDROOT
BRANCH   1   2
HETATM    2  C8  UNL     1     -32.657   8.863   1.786  1.00 20.00    -0.076 A 
HETATM    3  C4  UNL     1     -32.548  10.190   1.617  1.00 20.00     0.003 A 
HETATM    4  C3  UNL     1     -32.628  10.503   0.214  1.00 20.00    -0.003 A 
HETATM    5  C5  UNL     1     -32.787   9.373  -0.491  1.00 20.00    -0.022 A 
HETATM    6  C9  UNL     1     -32.822   8.199   0.445  1.00 20.00     0.061 A 
ENDBRANCH   1   2
BRANCH   1   7
HETATM    7  C10 UNL     1     -33.938   7.352   3.263  1.00 20.00     0.034 A 
HETATM    8  C6  UNL     1     -34.160   6.982   4.708  1.00 20.00    -0.018 A 
HETATM    9  C1  UNL     1     -34.267   5.650   4.819  1.00 20.00    -0.004 A 
HETATM   10  C2  UNL     1     -34.131   5.045   3.520  1.00 20.00    -0.004 A 
HETATM   11  C7  UNL     1     -33.939   5.999   2.598  1.00 20.00    -0.018 A 
ENDBRANCH   1   7
TORSDOF 2
