REMARK  1 active torsions:
REMARK  status: ('A' for Active; 'I' for Inactive)
REMARK    1  A    between atoms: C1_1  and  C4_4 
ROOT
HETATM    1  C1  UNL     1     -33.511   6.722   4.127  1.00 20.00     0.172 C 
HETATM    2  C2  UNL     1     -32.229   8.105   2.886  1.00 20.00     0.160 C 
HETATM    3  C3  UNL     1     -31.668   8.402   4.268  1.00 20.00     0.103 C 
HETATM    4  N5  UNL     1     -33.057   6.881   2.928  1.00 20.00    -0.278 NA
HETATM    5  S9  UNL     1     -32.987   7.840   5.359  1.00 20.00    -0.104 SA
ENDROOT
BRANCH   1   6
HETATM    6  C4  UNL     1     -34.425   5.613   4.521  1.00 20.00     0.440 C 
HETATM    7  F6  UNL     1     -34.712   5.660   5.841  1.00 20.00    -0.164 F 
HETATM    8  F7  UNL     1     -35.595   5.677   3.848  1.00 20.00    -0.164 F 
HETATM    9  F8  UNL     1     -33.875   4.405   4.267  1.00 20.00    -0.164 F 
ENDBRANCH   1   6
TORSDOF 1
