REMARK  2 active torsions:
REMARK  status: ('A' for Active; 'I' for Inactive)
REMARK    1  A    between atoms: C2_2  and  C3_3 
REMARK    2  A    between atoms: C2_2  and  C4_4 
ROOT
HETATM    1  C2  UNL     1     -33.058   5.642   3.297  1.00 20.00     0.154 C 
ENDROOT
BRANCH   1   2
HETATM    2  C3  UNL     1     -34.435   5.144   3.727  1.00 20.00     0.174 C 
HETATM    3  C1  UNL     1     -34.494   4.860   5.217  1.00 20.00     0.045 C 
HETATM    4  F5  UNL     1     -35.355   6.109   3.448  1.00 20.00    -0.250 F 
ENDBRANCH   1   2
BRANCH   1   5
HETATM    5  C4  UNL     1     -32.870   7.116   3.591  1.00 20.00     0.390 C 
HETATM    6  F6  UNL     1     -31.651   7.528   3.178  1.00 20.00    -0.171 F 
HETATM    7  F7  UNL     1     -32.962   7.372   4.913  1.00 20.00    -0.171 F 
HETATM    8  F8  UNL     1     -33.794   7.866   2.955  1.00 20.00    -0.171 F 
ENDBRANCH   1   5
TORSDOF 2
