REMARK  1 active torsions:
REMARK  status: ('A' for Active; 'I' for Inactive)
REMARK    1  A    between atoms: C4_4  and  C6_6 
ROOT
HETATM    1  C1  UNL     1     -34.292   4.290   3.922  1.00 20.00     0.135 A 
HETATM    2  C2  UNL     1     -33.261   4.418   3.018  1.00 20.00     0.136 A 
HETATM    3  C3  UNL     1     -34.155   6.523   4.396  1.00 20.00     0.144 A 
HETATM    4  C4  UNL     1     -33.123   6.651   3.493  1.00 20.00     0.065 A 
HETATM    5  N7  UNL     1     -34.758   5.339   4.627  1.00 20.00    -0.270 NA
HETATM    6  N8  UNL     1     -32.658   5.601   2.787  1.00 20.00    -0.261 NA
ENDROOT
BRANCH   4   7
HETATM    7  C6  UNL     1     -32.480   7.974   3.264  1.00 20.00     0.107 C 
HETATM    8  C5  UNL     1     -30.996   7.984   3.522  1.00 20.00     0.029 C 
HETATM    9 BR9  UNL     1     -32.833   8.579   1.430  1.00 20.00    -0.085 Br
ENDBRANCH   4   7
TORSDOF 1
