REMARK  1 active torsions:
REMARK  status: ('A' for Active; 'I' for Inactive)
REMARK    1  A    between atoms: C3_3  and  C5_5 
ROOT
HETATM    1  C1  UNL     1     -32.038   8.367   1.702  1.00 20.00     0.012 C 
HETATM    2  C2  UNL     1     -32.866   7.912   2.441  1.00 20.00    -0.111 C 
HETATM    3  C4  UNL     1     -33.856   7.366   3.325  1.00 20.00     0.088 A 
HETATM    4  C5  UNL     1     -33.418   6.386   4.390  1.00 20.00     0.112 A 
HETATM    5  C6  UNL     1     -34.266   5.907   3.226  1.00 20.00    -0.018 A 
HETATM    6  C7  UNL     1     -35.728   5.591   3.434  1.00 20.00     0.017 C 
HETATM    7  C8  UNL     1     -33.601   4.995   2.221  1.00 20.00     0.017 C 
ENDROOT
BRANCH   4   8
HETATM    8  C3  UNL     1     -34.021   6.509   5.705  1.00 20.00     0.179 C 
HETATM    9  O9  UNL     1     -34.557   5.457   6.152  1.00 20.00    -0.648 OA
HETATM   10  O10 UNL     1     -33.926   7.655   6.226  1.00 20.00    -0.648 OA
ENDBRANCH   4   8
TORSDOF 1
