REMARK  0 active torsions:
REMARK  status: ('A' for Active; 'I' for Inactive)
ROOT
HETATM    1  C1  UNL     1     -33.535   6.080   3.825  1.00 20.00     0.025 A 
HETATM    2  C2  UNL     1     -33.000   7.142   4.447  1.00 20.00     0.091 A 
HETATM    3  C3  UNL     1     -34.386   5.215   4.684  1.00 20.00     0.227 A 
HETATM    4  C4  UNL     1     -33.375   5.671   2.395  1.00 20.00     0.055 C 
HETATM    5  O5  UNL     1     -34.943   4.201   4.291  1.00 20.00    -0.279 OA
HETATM    6  S6  UNL     1     -33.319   7.417   6.123  1.00 20.00    -0.036 SA
HETATM    7  S7  UNL     1     -34.525   5.791   6.330  1.00 20.00    -0.009 SA
HETATM    8 CL8  UNL     1     -31.979   8.283   3.647  1.00 20.00    -0.075 Cl
ENDROOT
TORSDOF 0
