REMARK  1 active torsions:
REMARK  status: ('A' for Active; 'I' for Inactive)
REMARK    1  A    between atoms: C1_1  and  C2_2 
ROOT
HETATM    1  C2  UNL     1     -35.106   6.764   3.689  1.00 20.00     0.064 A 
HETATM    2  C3  UNL     1     -33.760   6.162   3.314  1.00 20.00    -0.030 A 
HETATM    3  C4  UNL     1     -34.164   6.305   4.792  1.00 20.00    -0.030 A 
HETATM    4  C5  UNL     1     -32.719   7.096   2.737  1.00 20.00     0.016 C 
HETATM    5  C6  UNL     1     -33.692   4.785   2.690  1.00 20.00     0.016 C 
HETATM    6  C7  UNL     1     -34.487   5.067   5.600  1.00 20.00     0.016 C 
HETATM    7  C8  UNL     1     -33.512   7.377   5.639  1.00 20.00     0.016 C 
ENDROOT
BRANCH   1   8
HETATM    8  C1  UNL     1     -36.362   6.052   3.415  1.00 20.00     0.237 C 
HETATM    9  O9  UNL     1     -36.936   6.087   2.331  1.00 20.00    -0.306 OA
ENDBRANCH   1   8
TORSDOF 1
