REMARK  2 active torsions:
REMARK  status: ('A' for Active; 'I' for Inactive)
REMARK    1  A    between atoms: C1_1  and  C3_3 
REMARK    2  A    between atoms: C1_1  and  O7_7 
ROOT
HETATM    1  C2  UNL     1     -31.571   8.419   3.327  1.00 20.00     0.055 A 
HETATM    2  C3  UNL     1     -32.136   7.367   2.431  1.00 20.00     0.122 A 
HETATM    3  C4  UNL     1     -32.702   8.739   2.404  1.00 20.00     0.184 A 
HETATM    4  F8  UNL     1     -32.418   9.504   1.286  1.00 20.00    -0.248 F 
ENDROOT
BRANCH   2   5
HETATM    5  C1  UNL     1     -32.954   6.275   3.050  1.00 20.00     0.265 C 
HETATM    6  O6  UNL     1     -32.964   5.117   2.653  1.00 20.00    -0.265 OA
BRANCH   5   7
HETATM    7  O7  UNL     1     -33.666   6.776   4.100  1.00 20.00    -0.326 OA
HETATM    8  C5  UNL     1     -34.496   5.834   4.786  1.00 20.00     0.213 C 
ENDBRANCH   5   7
ENDBRANCH   2   5
TORSDOF 2
