REMARK  0 active torsions:
REMARK  status: ('A' for Active; 'I' for Inactive)
ROOT
HETATM    1  C1  UNL     1     -32.987   7.141   3.058  1.00 20.00     0.064 C 
HETATM    2  C2  UNL     1     -33.457   7.102   5.490  1.00 20.00     0.030 C 
HETATM    3  C3  UNL     1     -34.413   6.445   6.473  1.00 20.00     0.075 C 
HETATM    4  C4  UNL     1     -34.113   5.205   4.109  1.00 20.00     0.093 C 
HETATM    5  C5  UNL     1     -33.940   6.720   4.093  1.00 20.00     0.103 C 
HETATM    6  N6  UNL     1     -32.234   7.473   2.240  1.00 20.00    -0.197 NA
HETATM    7  S7  UNL     1     -34.782   4.822   5.753  1.00 20.00    -0.168 SA
ENDROOT
TORSDOF 0
