REMARK  1 active torsions:
REMARK  status: ('A' for Active; 'I' for Inactive)
REMARK    1  A    between atoms: C2_2  and  C8_8 
ROOT
HETATM    1  C1  UNL     1     -32.177   7.843   4.161  1.00 20.00     0.203 C 
HETATM    2  C2  UNL     1     -32.806   8.286   2.838  1.00 20.00     0.244 C 
HETATM    3  C3  UNL     1     -34.025   6.154   2.991  1.00 20.00     0.245 C 
HETATM    4  C4  UNL     1     -34.297   6.741   4.391  1.00 20.00     0.150 C 
HETATM    5  C5  UNL     1     -33.210   4.854   3.016  1.00 20.00     0.045 C 
HETATM    6  C6  UNL     1     -34.994   5.767   5.335  1.00 20.00     0.042 C 
HETATM    7  N9  UNL     1     -33.360   7.136   2.116  1.00 20.00     0.097 N 
HETATM    8  O10 UNL     1     -33.089   7.167   5.027  1.00 20.00    -0.382 OA
HETATM    9  H27 UNL     1     -34.031   7.469   1.404  1.00 20.00     0.317 HD
ENDROOT
BRANCH   2  10
HETATM   10  C8  UNL     1     -31.785   9.006   1.960  1.00 20.00     0.033 C 
HETATM   11  C7  UNL     1     -32.388   9.462   0.671  1.00 20.00     0.007 C 
ENDBRANCH   2  10
TORSDOF 1
