REMARK  2 active torsions:
REMARK  status: ('A' for Active; 'I' for Inactive)
REMARK    1  A    between atoms: C8_8  and  C9_9 
REMARK    2  A    between atoms: C8_8  and  N10_10 
ROOT
HETATM    1  C1  UNL     1     -33.692   6.854   5.145  1.00 20.00     0.039 C 
HETATM    2  C2  UNL     1     -33.408   4.928   3.560  1.00 20.00     0.039 C 
HETATM    3  C3  UNL     1     -33.116   7.773   4.063  1.00 20.00     0.273 C 
HETATM    4  C4  UNL     1     -32.842   5.913   2.532  1.00 20.00     0.273 C 
HETATM    5  C5  UNL     1     -34.371   5.594   4.566  1.00 20.00    -0.044 C 
HETATM    6  C6  UNL     1     -34.676   4.609   5.709  1.00 20.00     0.015 C 
HETATM    7  C7  UNL     1     -35.703   5.959   3.884  1.00 20.00     0.015 C 
HETATM    8  N10 UNL     1     -32.184   7.048   3.191  1.00 20.00     0.089 N 
ENDROOT
BRANCH   8   9
HETATM    9  C8  UNL     1     -31.603   7.951   2.198  1.00 20.00     0.287 C 
BRANCH   9  10
HETATM   10  C9  UNL     1     -32.644   8.529   1.255  1.00 20.00     0.144 C 
HETATM   11 CL11 UNL     1     -31.899   9.617   0.058  1.00 20.00    -0.129 Cl
ENDBRANCH   9  10
ENDBRANCH   8   9
TORSDOF 2
