REMARK  3 active torsions:
REMARK  status: ('A' for Active; 'I' for Inactive)
REMARK    1  A    between atoms: C3_3  and  C7_7 
REMARK    2  A    between atoms: C5_5  and  C6_6 
REMARK    3  A    between atoms: C6_6  and  C7_7 
ROOT
HETATM    1  C1  UNL     1     -32.394   8.252   1.628  1.00 20.00     0.012 C 
HETATM    2  C2  UNL     1     -32.811   7.538   2.499  1.00 20.00    -0.117 C 
HETATM    3  C5  UNL     1     -33.315   6.662   3.566  1.00 20.00     0.093 C 
ENDROOT
BRANCH   3   4
HETATM    4  C6  UNL     1     -34.810   6.358   3.410  1.00 20.00     0.023 C 
BRANCH   4   5
HETATM    5  C7  UNL     1     -35.395   5.487   4.535  1.00 20.00     0.044 C 
HETATM    6  C4  UNL     1     -34.696   4.129   4.581  1.00 20.00     0.017 C 
BRANCH   5   7
HETATM    7  C3  UNL     1     -36.884   5.233   4.375  1.00 20.00     0.235 C 
HETATM    8  O8  UNL     1     -37.469   4.220   4.743  1.00 20.00    -0.306 OA
ENDBRANCH   5   7
ENDBRANCH   4   5
ENDBRANCH   3   4
TORSDOF 3
