REMARK  5 active torsions:
REMARK  status: ('A' for Active; 'I' for Inactive)
REMARK    1  A    between atoms: C1_1  and  C3_3 
REMARK    2  A    between atoms: C3_3  and  C4_4 
REMARK    3  A    between atoms: C4_4  and  C5_5 
REMARK    4  A    between atoms: C5_5  and  C6_6 
REMARK    5  A    between atoms: C6_6  and  C7_7 
ROOT
HETATM    1  C4  UNL     1     -32.683   6.254   2.999  1.00 20.00     0.004 C 
ENDROOT
BRANCH   1   2
HETATM    2  C3  UNL     1     -31.787   7.492   3.073  1.00 20.00     0.028 C 
BRANCH   2   3
HETATM    3  C1  UNL     1     -32.374   8.636   2.299  1.00 20.00    -0.015 C 
HETATM    4  C2  UNL     1     -32.153   8.834   0.997  1.00 20.00     0.080 C 
HETATM    5 CL8  UNL     1     -32.835  10.139   0.122  1.00 20.00    -0.097 Cl
ENDBRANCH   2   3
ENDBRANCH   1   2
BRANCH   1   6
HETATM    6  C5  UNL     1     -34.061   6.529   3.607  1.00 20.00     0.001 C 
BRANCH   6   7
HETATM    7  C6  UNL     1     -34.947   5.281   3.558  1.00 20.00     0.015 C 
BRANCH   7   8
HETATM    8  C7  UNL     1     -34.360   4.095   4.316  1.00 20.00     0.114 C 
HETATM    9 CL9  UNL     1     -34.093   4.466   6.035  1.00 20.00    -0.130 Cl
ENDBRANCH   7   8
ENDBRANCH   6   7
ENDBRANCH   1   6
TORSDOF 5
