REMARK  1 active torsions:
REMARK  status: ('A' for Active; 'I' for Inactive)
REMARK    1  A    between atoms: C1_1  and  C2_2 
ROOT
HETATM    1  C1  UNL     1     -33.900   6.129   5.336  1.00 20.00     0.417 C 
HETATM    2  F3  UNL     1     -34.841   5.333   5.902  1.00 20.00    -0.208 F 
HETATM    3  F4  UNL     1     -33.700   7.168   6.180  1.00 20.00    -0.208 F 
ENDROOT
BRANCH   1   4
HETATM    4  C2  UNL     1     -34.402   6.637   4.013  1.00 20.00     0.417 C 
HETATM    5  F5  UNL     1     -33.450   7.398   3.423  1.00 20.00    -0.208 F 
HETATM    6  F6  UNL     1     -34.643   5.590   3.186  1.00 20.00    -0.208 F 
ENDBRANCH   1   4
TORSDOF 1
