REMARK  2 active torsions:
REMARK  status: ('A' for Active; 'I' for Inactive)
REMARK    1  A    between atoms: C4_4  and  C5_5 
REMARK    2  A    between atoms: C5_5  and  N6_6 
ROOT
HETATM    1  C1  UNL     1     -32.944   7.473   3.101  1.00 20.00     0.158 C 
HETATM    2  N6  UNL     1     -33.184   6.778   4.013  1.00 20.00    -0.264 NA
HETATM    3  S7  UNL     1     -32.604   8.444   1.885  1.00 20.00    -0.055 SA
ENDROOT
BRANCH   2   4
HETATM    4  C5  UNL     1     -33.827   5.503   3.658  1.00 20.00     0.060 C 
HETATM    5  C2  UNL     1     -35.149   5.830   2.954  1.00 20.00     0.041 C 
HETATM    6  C3  UNL     1     -32.901   4.760   2.690  1.00 20.00     0.041 C 
BRANCH   4   7
HETATM    7  C4  UNL     1     -34.111   4.703   4.939  1.00 20.00     0.147 C 
HETATM    8 CL8  UNL     1     -34.633   5.720   6.308  1.00 20.00    -0.128 Cl
ENDBRANCH   4   7
ENDBRANCH   2   4
TORSDOF 2
