REMARK  2 active torsions:
REMARK  status: ('A' for Active; 'I' for Inactive)
REMARK    1  A    between atoms: C1_1  and  C2_2 
REMARK    2  A    between atoms: C2_2  and  C3_3 
ROOT
HETATM    1  C2  UNL     1     -33.609   7.149   3.865  1.00 20.00     0.396 C 
HETATM    2  F6  UNL     1     -33.618   7.073   5.220  1.00 20.00    -0.190 F 
HETATM    3  F7  UNL     1     -34.329   8.249   3.529  1.00 20.00    -0.190 F 
ENDROOT
BRANCH   1   4
HETATM    4  C1  UNL     1     -32.187   7.326   3.392  1.00 20.00     0.434 C 
HETATM    5  F4  UNL     1     -31.669   8.452   3.944  1.00 20.00    -0.207 F 
HETATM    6  F5  UNL     1     -32.157   7.500   2.049  1.00 20.00    -0.207 F 
ENDBRANCH   1   4
BRANCH   1   7
HETATM    7  C3  UNL     1     -34.288   5.928   3.300  1.00 20.00     0.460 C 
HETATM    8  F8  UNL     1     -33.622   4.807   3.651  1.00 20.00    -0.165 F 
HETATM    9  F9  UNL     1     -34.335   5.975   1.952  1.00 20.00    -0.165 F 
HETATM   10  F10 UNL     1     -35.554   5.813   3.755  1.00 20.00    -0.165 F 
ENDBRANCH   1   7
TORSDOF 2
