REMARK  2 active torsions:
REMARK  status: ('A' for Active; 'I' for Inactive)
REMARK    1  A    between atoms: C1_1  and  C2_2 
REMARK    2  A    between atoms: C2_2  and  C3_3 
ROOT
HETATM    1  C2  UNL     1     -33.807   5.921   3.524  1.00 20.00     0.365 C 
HETATM    2  F5  UNL     1     -32.932   5.572   2.537  1.00 20.00    -0.193 F 
HETATM    3  F6  UNL     1     -35.018   6.056   2.916  1.00 20.00    -0.193 F 
ENDROOT
BRANCH   1   4
HETATM    4  C1  UNL     1     -33.380   7.277   4.065  1.00 20.00     0.345 C 
HETATM    5  F4  UNL     1     -33.217   7.155   5.414  1.00 20.00    -0.226 F 
HETATM    6 CL9  UNL     1     -31.852   7.855   3.374  1.00 20.00    -0.083 Cl
ENDBRANCH   1   4
BRANCH   1   7
HETATM    7  C3  UNL     1     -33.896   4.767   4.509  1.00 20.00     0.388 C 
HETATM    8  F7  UNL     1     -32.670   4.575   5.065  1.00 20.00    -0.181 F 
HETATM    9  F8  UNL     1     -34.203   3.614   3.866  1.00 20.00    -0.181 F 
HETATM   10 CL10 UNL     1     -35.073   5.055   5.802  1.00 20.00    -0.042 Cl
ENDBRANCH   1   7
TORSDOF 2
