REMARK  0 active torsions:
REMARK  status: ('A' for Active; 'I' for Inactive)
ROOT
HETATM    1  C1  UNL     1     -34.338   5.538   5.948  1.00 20.00    -0.030 A 
HETATM    2  C2  UNL     1     -34.445   4.271   5.534  1.00 20.00    -0.030 A 
HETATM    3  C3  UNL     1     -33.779   6.642   5.105  1.00 20.00     0.036 A 
HETATM    4  C4  UNL     1     -34.020   3.802   4.177  1.00 20.00     0.036 A 
HETATM    5  C5  UNL     1     -34.610   5.895   2.764  1.00 20.00     0.020 A 
HETATM    6  C6  UNL     1     -33.461   6.316   3.655  1.00 20.00    -0.032 A 
HETATM    7  C7  UNL     1     -33.584   4.864   3.180  1.00 20.00    -0.032 A 
HETATM    8  C8  UNL     1     -32.421   7.230   3.054  1.00 20.00     0.016 C 
HETATM    9  C9  UNL     1     -32.667   4.331   2.106  1.00 20.00     0.016 C 
ENDROOT
TORSDOF 0
