REMARK  4 active torsions:
REMARK  status: ('A' for Active; 'I' for Inactive)
REMARK    1  A    between atoms: C2_2  and  C8_8 
REMARK    2  A    between atoms: C3_3  and  C9_9 
REMARK    3  A    between atoms: C8_8  and  C9_9 
REMARK    4  A    between atoms: C9_9  and  C10_10 
ROOT
HETATM    1  C1  UNL     1     -32.368   9.356   1.413  1.00 20.00    -0.111 C 
HETATM    2  C2  UNL     1     -32.291   8.705   2.419  1.00 20.00    -0.106 C 
HETATM    3  C4  UNL     1     -32.464  10.147   0.187  1.00 20.00     0.112 C 
ENDROOT
BRANCH   2   4
HETATM    4  C8  UNL     1     -32.196   7.909   3.653  1.00 20.00     0.106 C 
BRANCH   4   5
HETATM    5  C9  UNL     1     -33.306   6.849   3.784  1.00 20.00     0.069 C 
BRANCH   5   6
HETATM    6  C3  UNL     1     -32.998   5.690   2.829  1.00 20.00     0.128 C 
HETATM    7  C5  UNL     1     -32.800   6.042   1.377  1.00 20.00     0.091 C 
HETATM    8  O11 UNL     1     -32.888   4.527   3.218  1.00 20.00    -0.298 OA
ENDBRANCH   5   6
BRANCH   5   9
HETATM    9  C10 UNL     1     -33.571   6.338   5.228  1.00 20.00    -0.011 C 
HETATM   10  C6  UNL     1     -34.990   5.763   5.353  1.00 20.00     0.010 C 
HETATM   11  C7  UNL     1     -33.396   7.440   6.279  1.00 20.00     0.010 C 
ENDBRANCH   5   9
ENDBRANCH   4   5
ENDBRANCH   2   4
TORSDOF 4
