REMARK  6 active torsions:
REMARK  status: ('A' for Active; 'I' for Inactive)
REMARK    1  A    between atoms: C1_1  and  C10_10 
REMARK    2  A    between atoms: C7_7  and  C8_8 
REMARK    3  A    between atoms: C8_8  and  C12_12 
REMARK    4  A    between atoms: C9_9  and  C10_10 
REMARK    5  A    between atoms: C9_9  and  C12_12 
REMARK    6  A    between atoms: C10_10  and  C11_11 
ROOT
HETATM    1  C10 UNL     1     -34.137   6.477   3.920  1.00 20.00     0.058 C 
ENDROOT
BRANCH   1   2
HETATM    2  C1  UNL     1     -33.957   5.626   2.661  1.00 20.00     0.127 C 
HETATM    3  C2  UNL     1     -32.912   4.540   2.718  1.00 20.00     0.091 C 
HETATM    4  O13 UNL     1     -34.638   5.794   1.650  1.00 20.00    -0.298 OA
ENDBRANCH   1   2
BRANCH   1   5
HETATM    5  C9  UNL     1     -32.834   7.246   4.229  1.00 20.00     0.016 C 
BRANCH   5   6
HETATM    6  C12 UNL     1     -32.115   7.853   2.997  1.00 20.00    -0.018 C 
HETATM    7  C6  UNL     1     -30.877   8.620   3.480  1.00 20.00     0.010 C 
BRANCH   6   8
HETATM    8  C8  UNL     1     -33.055   8.759   2.172  1.00 20.00     0.004 C 
BRANCH   8   9
HETATM    9  C7  UNL     1     -32.633   9.018   0.722  1.00 20.00    -0.004 C 
HETATM   10  C3  UNL     1     -33.558   9.972  -0.018  1.00 20.00     0.005 C 
ENDBRANCH   8   9
ENDBRANCH   6   8
ENDBRANCH   5   6
ENDBRANCH   1   5
BRANCH   1  11
HETATM   11  C11 UNL     1     -34.631   5.640   5.131  1.00 20.00    -0.012 C 
HETATM   12  C4  UNL     1     -35.750   4.672   4.732  1.00 20.00     0.010 C 
HETATM   13  C5  UNL     1     -33.533   4.879   5.879  1.00 20.00     0.010 C 
ENDBRANCH   1  11
TORSDOF 6
