REMARK  2 active torsions:
REMARK  status: ('A' for Active; 'I' for Inactive)
REMARK    1  A    between atoms: C3_3  and  C8_8 
REMARK    2  A    between atoms: C4_4  and  C7_7 
ROOT
HETATM    1  C1  UNL     1     -34.677   5.186   4.193  1.00 20.00     0.065 C 
HETATM    2  C8  UNL     1     -34.835   6.650   4.291  1.00 20.00     0.183 C 
HETATM    3  N9  UNL     1     -34.543   4.036   4.112  1.00 20.00    -0.197 NA
ENDROOT
BRANCH   2   4
HETATM    4  C3  UNL     1     -33.597   7.348   3.891  1.00 20.00     0.055 A 
HETATM    5  C2  UNL     1     -32.562   7.698   4.733  1.00 20.00     0.079 A 
HETATM    6  S11 UNL     1     -31.334   8.489   3.835  1.00 20.00    -0.084 SA
HETATM    7  C4  UNL     1     -32.281   8.300   2.417  1.00 20.00     0.079 A 
HETATM    8  N10 UNL     1     -33.438   7.693   2.563  1.00 20.00    -0.249 NA
BRANCH   7   9
HETATM    9  C7  UNL     1     -31.802   8.812   1.049  1.00 20.00     0.045 A 
HETATM   10  C5  UNL     1     -32.073  10.252   0.681  1.00 20.00     0.012 A 
HETATM   11  C6  UNL     1     -32.836   9.158   0.003  1.00 20.00     0.012 A 
ENDBRANCH   7   9
ENDBRANCH   2   4
TORSDOF 2
