REMARK  2 active torsions:
REMARK  status: ('A' for Active; 'I' for Inactive)
REMARK    1  A    between atoms: C5_5  and  C6_6 
REMARK    2  A    between atoms: C5_5  and  C7_7 
ROOT
HETATM    1  C1  UNL     1     -32.478   8.276   1.818  1.00 20.00     0.079 C 
HETATM    2  C6  UNL     1     -33.105   7.740   3.032  1.00 20.00     0.189 C 
HETATM    3  N8  UNL     1     -31.985   8.696   0.855  1.00 20.00    -0.196 NA
HETATM    4 CL9  UNL     1     -32.267   8.533   4.410  1.00 20.00    -0.109 Cl
ENDROOT
BRANCH   2   5
HETATM    5  C5  UNL     1     -32.957   6.216   3.168  1.00 20.00     0.043 C 
BRANCH   5   6
HETATM    6  C7  UNL     1     -34.015   5.467   4.032  1.00 20.00    -0.049 C 
HETATM    7  C2  UNL     1     -33.962   5.876   5.512  1.00 20.00     0.014 C 
HETATM    8  C3  UNL     1     -35.436   5.707   3.495  1.00 20.00     0.014 C 
HETATM    9  C4  UNL     1     -33.712   3.956   3.941  1.00 20.00     0.014 C 
ENDBRANCH   5   6
ENDBRANCH   2   5
TORSDOF 2
