REMARK  1 active torsions:
REMARK  status: ('A' for Active; 'I' for Inactive)
REMARK    1  A    between atoms: C8_8  and  N10_10 
ROOT
HETATM    1  C1  UNL     1     -34.196   5.457   4.900  1.00 20.00     0.065 C 
HETATM    2  C4  UNL     1     -33.028   7.657   4.839  1.00 20.00     0.051 C 
HETATM    3  C5  UNL     1     -31.855   7.886   3.894  1.00 20.00     0.274 C 
HETATM    4  C6  UNL     1     -33.216   6.358   2.805  1.00 20.00     0.292 C 
HETATM    5  C7  UNL     1     -33.942   6.669   4.113  1.00 20.00     0.122 C 
HETATM    6  N9  UNL     1     -34.396   4.499   5.523  1.00 20.00    -0.197 NA
HETATM    7  N10 UNL     1     -32.332   7.507   2.557  1.00 20.00     0.094 N 
ENDROOT
BRANCH   7   8
HETATM    8  C8  UNL     1     -33.031   8.623   1.866  1.00 20.00     0.223 A 
HETATM    9  C2  UNL     1     -32.243   9.709   1.186  1.00 20.00     0.038 A 
HETATM   10  C3  UNL     1     -33.018   8.720   0.366  1.00 20.00     0.038 A 
ENDBRANCH   7   8
TORSDOF 1
