REMARK  1 active torsions:
REMARK  status: ('A' for Active; 'I' for Inactive)
REMARK    1  A    between atoms: C8_8  and  N10_10 
ROOT
HETATM    1  C1  UNL     1     -34.607   6.003   5.278  1.00 20.00     0.065 C 
HETATM    2  C4  UNL     1     -33.597   5.292   3.113  1.00 20.00     0.051 C 
HETATM    3  C5  UNL     1     -32.473   6.102   2.480  1.00 20.00     0.274 C 
HETATM    4  C6  UNL     1     -33.763   7.653   3.628  1.00 20.00     0.292 C 
HETATM    5  C7  UNL     1     -34.465   6.315   3.851  1.00 20.00     0.122 C 
HETATM    6  N9  UNL     1     -34.719   5.757   6.406  1.00 20.00    -0.197 NA
HETATM    7  N10 UNL     1     -33.048   7.444   2.366  1.00 20.00     0.094 N 
ENDROOT
BRANCH   7   8
HETATM    8  C8  UNL     1     -32.037   8.487   2.091  1.00 20.00     0.223 A 
HETATM    9  C2  UNL     1     -31.516   8.692   0.695  1.00 20.00     0.038 A 
HETATM   10  C3  UNL     1     -32.408   9.724   1.321  1.00 20.00     0.038 A 
ENDBRANCH   7   8
TORSDOF 1
