REMARK  1 active torsions:
REMARK  status: ('A' for Active; 'I' for Inactive)
REMARK    1  A    between atoms: C2_2  and  C7_7 
ROOT
HETATM    1  C1  UNL     1     -33.540   5.092   3.674  1.00 20.00     0.310 C 
HETATM    2  C2  UNL     1     -32.910   7.239   3.279  1.00 20.00     0.356 C 
HETATM    3  C3  UNL     1     -34.580   6.022   4.294  1.00 20.00     0.083 C 
HETATM    4  C4  UNL     1     -34.865   5.668   5.750  1.00 20.00     0.047 C 
HETATM    5  C5  UNL     1     -35.886   6.071   3.494  1.00 20.00     0.047 C 
HETATM    6  N8  UNL     1     -32.933   5.921   2.632  1.00 20.00     0.115 N 
HETATM    7  O9  UNL     1     -33.972   7.325   4.243  1.00 20.00    -0.345 OA
HETATM    8  H24 UNL     1     -31.988   5.604   2.421  1.00 20.00     0.319 HD
ENDROOT
BRANCH   2   9
HETATM    9  C7  UNL     1     -33.056   8.369   2.272  1.00 20.00     0.059 C 
HETATM   10  C6  UNL     1     -31.928   8.392   1.288  1.00 20.00     0.009 C 
ENDBRANCH   2   9
TORSDOF 1
