REMARK  1 active torsions:
REMARK  status: ('A' for Active; 'I' for Inactive)
REMARK    1  A    between atoms: C3_3  and  C7_7 
ROOT
HETATM    1  C1  UNL     1     -33.454   4.809   3.334  1.00 20.00     0.304 C 
HETATM    2  C2  UNL     1     -33.913   5.952   4.221  1.00 20.00     0.148 C 
HETATM    3  C3  UNL     1     -33.120   6.783   2.247  1.00 20.00     0.360 C 
HETATM    4  C4  UNL     1     -35.253   5.704   4.884  1.00 20.00     0.041 C 
HETATM    5  N8  UNL     1     -32.484   5.487   2.483  1.00 20.00     0.115 N 
HETATM    6  O9  UNL     1     -34.003   7.082   3.340  1.00 20.00    -0.350 OA
HETATM    7  H24 UNL     1     -31.626   5.627   3.017  1.00 20.00     0.319 HD
ENDROOT
BRANCH   3   8
HETATM    8  C7  UNL     1     -32.078   7.882   2.127  1.00 20.00     0.036 C 
HETATM    9  C5  UNL     1     -32.667   9.116   1.441  1.00 20.00     0.014 C 
HETATM   10  C6  UNL     1     -31.519   8.253   3.501  1.00 20.00     0.014 C 
ENDBRANCH   3   8
TORSDOF 1
