REMARK  1 active torsions:
REMARK  status: ('A' for Active; 'I' for Inactive)
REMARK    1  A    between atoms: C3_3  and  C5_5 
ROOT
HETATM    1  C1  UNL     1     -33.188   7.514   3.928  1.00 20.00     0.030 A 
HETATM    2  C2  UNL     1     -33.727   6.413   4.623  1.00 20.00    -0.044 A 
HETATM    3  C3  UNL     1     -32.980   7.194   2.595  1.00 20.00     0.043 A 
HETATM    4  C4  UNL     1     -33.905   5.325   3.814  1.00 20.00    -0.010 A 
HETATM    5  C6  UNL     1     -34.157   6.126   6.013  1.00 20.00     0.040 C 
HETATM    6  C7  UNL     1     -34.471   4.145   4.506  1.00 20.00     0.047 C 
HETATM    7  C8  UNL     1     -34.301   4.570   5.998  1.00 20.00     0.010 C 
HETATM    8  S10 UNL     1     -33.446   5.568   2.225  1.00 20.00    -0.091 SA
ENDROOT
BRANCH   3   9
HETATM    9  C5  UNL     1     -32.454   8.012   1.551  1.00 20.00     0.277 C 
HETATM   10  O9  UNL     1     -32.089   9.196   1.704  1.00 20.00    -0.301 OA
ENDBRANCH   3   9
TORSDOF 1
