REMARK  2 active torsions:
REMARK  status: ('A' for Active; 'I' for Inactive)
REMARK    1  A    between atoms: C1_1  and  C9_9 
REMARK    2  A    between atoms: C8_8  and  C9_9 
ROOT
HETATM    1  C2  UNL     1     -33.875   4.167   4.131  1.00 20.00     0.005 C 
HETATM    2  C3  UNL     1     -33.120   4.410   2.815  1.00 20.00     0.005 C 
HETATM    3  C4  UNL     1     -34.995   5.860   2.889  1.00 20.00     0.009 C 
HETATM    4  C5  UNL     1     -33.677   6.595   4.727  1.00 20.00     0.010 C 
HETATM    5  C6  UNL     1     -34.657   5.476   4.328  1.00 20.00    -0.014 C 
HETATM    6  C7  UNL     1     -33.532   5.846   2.441  1.00 20.00    -0.010 C 
HETATM    7  C8  UNL     1     -32.858   6.819   3.438  1.00 20.00    -0.004 C 
ENDROOT
BRANCH   7   8
HETATM    8  C9  UNL     1     -32.903   8.270   2.970  1.00 20.00     0.074 C 
BRANCH   8   9
HETATM    9  C1  UNL     1     -32.145   8.483   1.686  1.00 20.00     0.231 C 
HETATM   10  O10 UNL     1     -32.628   8.921   0.648  1.00 20.00    -0.307 OA
ENDBRANCH   8   9
ENDBRANCH   7   8
TORSDOF 2
