REMARK  0 active torsions:
REMARK  status: ('A' for Active; 'I' for Inactive)
ROOT
HETATM    1  C1  UNL     1     -32.422   8.704   1.349  1.00 20.00     0.107 C 
HETATM    2  C2  UNL     1     -33.140   6.476   2.183  1.00 20.00     0.038 A 
HETATM    3  C3  UNL     1     -32.934   7.829   2.350  1.00 20.00     0.086 A 
HETATM    4  C4  UNL     1     -33.663   5.862   3.360  1.00 20.00    -0.043 A 
HETATM    5  C5  UNL     1     -33.825   6.782   4.378  1.00 20.00    -0.010 A 
HETATM    6  C6  UNL     1     -33.986   4.411   3.540  1.00 20.00     0.040 C 
HETATM    7  C7  UNL     1     -34.375   6.475   5.736  1.00 20.00     0.046 C 
HETATM    8  C8  UNL     1     -34.871   4.173   4.774  1.00 20.00     0.005 C 
HETATM    9  C9  UNL     1     -34.366   4.960   5.992  1.00 20.00     0.005 C 
HETATM   10  N10 UNL     1     -32.004   9.417   0.535  1.00 20.00    -0.191 NA
HETATM   11  S11 UNL     1     -33.367   8.357   3.920  1.00 20.00    -0.083 SA
ENDROOT
TORSDOF 0
