REMARK  2 active torsions:
REMARK  status: ('A' for Active; 'I' for Inactive)
REMARK    1  A    between atoms: C1_1  and  C3_3 
REMARK    2  A    between atoms: C3_3  and  C5_5 
ROOT
HETATM    1  C3  UNL     1     -33.292   7.238   3.975  1.00 20.00     0.168 C 
HETATM    2  O6  UNL     1     -32.693   7.536   5.006  1.00 20.00    -0.292 OA
ENDROOT
BRANCH   1   3
HETATM    3  C1  UNL     1     -33.206   8.092   2.754  1.00 20.00     0.063 C 
HETATM    4  C2  UNL     1     -32.031   8.289   2.156  1.00 20.00     0.088 C 
HETATM    5 CL7  UNL     1     -31.861   9.259   0.752  1.00 20.00    -0.097 Cl
ENDBRANCH   1   3
BRANCH   1   6
HETATM    6  C5  UNL     1     -34.190   6.017   3.867  1.00 20.00     0.152 C 
HETATM    7  C4  UNL     1     -33.671   5.063   2.805  1.00 20.00     0.035 C 
HETATM    8 CL8  UNL     1     -34.240   5.203   5.452  1.00 20.00    -0.117 Cl
ENDBRANCH   1   6
TORSDOF 2
