REMARK  2 active torsions:
REMARK  status: ('A' for Active; 'I' for Inactive)
REMARK    1  A    between atoms: C4_4  and  C6_6 
REMARK    2  A    between atoms: C6_6  and  N7_7 
ROOT
HETATM    1  C1  UNL     1     -32.602   8.629   2.443  1.00 20.00     0.332 C 
HETATM    2  N7  UNL     1     -32.484   7.825   3.283  1.00 20.00    -0.242 NA
HETATM    3  O8  UNL     1     -32.706   9.437   1.595  1.00 20.00    -0.260 OA
ENDROOT
BRANCH   2   4
HETATM    4  C6  UNL     1     -33.745   7.509   3.986  1.00 20.00     0.112 C 
HETATM    5  C5  UNL     1     -33.401   7.207   5.449  1.00 20.00     0.035 C 
BRANCH   4   6
HETATM    6  C4  UNL     1     -34.439   6.378   3.309  1.00 20.00     0.010 A 
HETATM    7  C2  UNL     1     -33.778   5.030   3.217  1.00 20.00     0.007 A 
HETATM    8  C3  UNL     1     -34.968   5.224   4.115  1.00 20.00     0.007 A 
ENDBRANCH   4   6
ENDBRANCH   2   4
TORSDOF 2
