REMARK  1 active torsions:
REMARK  status: ('A' for Active; 'I' for Inactive)
REMARK    1  A    between atoms: C11_11  and  N13_13 
ROOT
HETATM    1  C1  UNL     1     -34.164   5.254   5.703  1.00 20.00     0.086 C 
HETATM    2  C11 UNL     1     -33.711   6.641   5.644  1.00 20.00     0.357 C 
HETATM    3  N12 UNL     1     -34.525   4.152   5.753  1.00 20.00    -0.196 NA
ENDROOT
BRANCH   2   4
HETATM    4  N13 UNL     1     -32.958   6.874   4.364  1.00 20.00    -0.059 N 
HETATM    5  C8  UNL     1     -33.890   7.005   3.186  1.00 20.00     0.236 C 
HETATM    6  C6  UNL     1     -33.078   7.132   1.901  1.00 20.00     0.037 C 
HETATM    7  C10 UNL     1     -32.048   8.285   1.943  1.00 20.00    -0.037 C 
HETATM    8  C4  UNL     1     -31.177   8.291   0.675  1.00 20.00     0.010 C 
HETATM    9  C5  UNL     1     -32.716   9.668   1.844  1.00 20.00     0.010 C 
HETATM   10  C7  UNL     1     -31.182   8.146   3.206  1.00 20.00     0.037 C 
HETATM   11  C2  UNL     1     -32.034   8.965  -0.393  1.00 20.00     0.001 C 
HETATM   12  C3  UNL     1     -33.013   9.865   0.359  1.00 20.00     0.001 C 
HETATM   13  C9  UNL     1     -32.011   8.043   4.479  1.00 20.00     0.236 C 
HETATM   14  H32 UNL     1     -32.385   6.033   4.207  1.00 20.00     0.281 HD
ENDBRANCH   2   4
TORSDOF 1
