REMARK  3 active torsions:
REMARK  status: ('A' for Active; 'I' for Inactive)
REMARK    1  A    between atoms: C3_3  and  C4_4 
REMARK    2  A    between atoms: C4_4  and  C6_6 
REMARK    3  A    between atoms: C5_5  and  C6_6 
ROOT
HETATM    1  C1  UNL     1     -33.441   6.697   2.630  1.00 20.00     0.065 C 
HETATM    2  C6  UNL     1     -32.861   7.910   3.241  1.00 20.00     0.106 C 
HETATM    3  N7  UNL     1     -33.898   5.745   2.149  1.00 20.00    -0.197 NA
ENDROOT
BRANCH   2   4
HETATM    4  C4  UNL     1     -31.664   8.434   2.425  1.00 20.00     0.020 C 
BRANCH   4   5
HETATM    5  C3  UNL     1     -32.044   8.791   0.982  1.00 20.00    -0.003 C 
HETATM    6  C2  UNL     1     -33.098   9.888   0.942  1.00 20.00     0.005 C 
ENDBRANCH   4   5
ENDBRANCH   2   4
BRANCH   2   7
HETATM    7  C5  UNL     1     -32.497   7.654   4.713  1.00 20.00     0.133 C 
HETATM    8 CL8  UNL     1     -33.890   7.174   5.718  1.00 20.00    -0.129 Cl
ENDBRANCH   2   7
TORSDOF 3
