REMARK  3 active torsions:
REMARK  status: ('A' for Active; 'I' for Inactive)
REMARK    1  A    between atoms: C6_6  and  N10_10 
REMARK    2  A    between atoms: C7_7  and  C8_8 
REMARK    3  A    between atoms: C8_8  and  N10_10 
ROOT
HETATM    1  C1  UNL     1     -33.071   9.475   0.886  1.00 20.00     0.013 C 
HETATM    2  C2  UNL     1     -32.737   8.473   1.457  1.00 20.00    -0.087 C 
HETATM    3  C6  UNL     1     -32.329   7.248   2.149  1.00 20.00     0.364 C 
ENDROOT
BRANCH   3   4
HETATM    4  N10 UNL     1     -32.448   7.410   3.603  1.00 20.00     0.100 N 
HETATM    5  C5  UNL     1     -31.590   8.514   4.053  1.00 20.00     0.311 C 
BRANCH   4   6
HETATM    6  C8  UNL     1     -33.824   7.631   3.990  1.00 20.00     0.232 C 
HETATM    7  C4  UNL     1     -33.926   7.734   5.509  1.00 20.00     0.044 C 
BRANCH   6   8
HETATM    8  C7  UNL     1     -34.730   6.515   3.457  1.00 20.00     0.159 C 
HETATM    9  C3  UNL     1     -34.371   5.202   4.019  1.00 20.00     0.061 C 
HETATM   10  N9  UNL     1     -34.090   4.167   4.460  1.00 20.00    -0.197 NA
ENDBRANCH   6   8
ENDBRANCH   4   6
ENDBRANCH   3   4
TORSDOF 3
