REMARK  3 active torsions:
REMARK  status: ('A' for Active; 'I' for Inactive)
REMARK    1  A    between atoms: C5_5  and  C7_7 
REMARK    2  A    between atoms: C6_6  and  C7_7 
REMARK    3  A    between atoms: C7_7  and  O8_8 
ROOT
HETATM    1  C1  UNL     1     -32.368   9.392   1.909  1.00 20.00     0.012 C 
HETATM    2  C2  UNL     1     -32.660   8.297   2.306  1.00 20.00    -0.115 C 
HETATM    3  C5  UNL     1     -33.019   6.951   2.784  1.00 20.00     0.130 C 
ENDROOT
BRANCH   3   4
HETATM    4  C7  UNL     1     -33.616   6.951   4.207  1.00 20.00     0.064 C 
HETATM    5  C4  UNL     1     -34.891   7.805   4.226  1.00 20.00     0.046 C 
BRANCH   4   6
HETATM    6  C6  UNL     1     -33.887   5.544   4.784  1.00 20.00     0.034 C 
HETATM    7  C3  UNL     1     -34.938   4.725   4.047  1.00 20.00     0.008 C 
ENDBRANCH   4   6
BRANCH   4   8
HETATM    8  O8  UNL     1     -32.681   7.582   5.096  1.00 20.00    -0.389 OA
HETATM    9  H20 UNL     1     -33.105   7.592   5.964  1.00 20.00     0.210 HD
ENDBRANCH   4   8
ENDBRANCH   3   4
TORSDOF 3
