REMARK  2 active torsions:
REMARK  status: ('A' for Active; 'I' for Inactive)
REMARK    1  A    between atoms: C9_9  and  C10_10 
REMARK    2  A    between atoms: C10_10  and  N12_12 
ROOT
HETATM    1  C1  UNL     1     -33.067   9.672   1.419  1.00 20.00     0.061 C 
HETATM    2  C9  UNL     1     -33.005   8.202   1.470  1.00 20.00     0.159 C 
HETATM    3  N11 UNL     1     -33.115  10.830   1.378  1.00 20.00    -0.197 NA
ENDROOT
BRANCH   2   4
HETATM    4  C10 UNL     1     -33.320   7.665   2.871  1.00 20.00     0.233 C 
HETATM    5  C8  UNL     1     -32.099   7.772   3.780  1.00 20.00     0.044 C 
BRANCH   4   6
HETATM    6  N12 UNL     1     -33.772   6.285   2.812  1.00 20.00     0.102 N 
HETATM    7  C4  UNL     1     -32.665   5.340   2.686  1.00 20.00     0.274 C 
HETATM    8  C2  UNL     1     -33.370   4.013   2.867  1.00 20.00     0.033 C 
HETATM    9  C3  UNL     1     -34.364   4.294   3.984  1.00 20.00     0.043 C 
HETATM   10  C5  UNL     1     -34.637   5.815   3.915  1.00 20.00     0.153 C 
HETATM   11  C6  UNL     1     -34.362   6.452   5.289  1.00 20.00     0.049 C 
HETATM   12  C7  UNL     1     -36.099   6.074   3.523  1.00 20.00     0.049 C 
ENDBRANCH   4   6
ENDBRANCH   2   4
TORSDOF 2
