REMARK  3 active torsions:
REMARK  status: ('A' for Active; 'I' for Inactive)
REMARK    1  A    between atoms: C4_4  and  C6_6 
REMARK    2  A    between atoms: C4_4  and  C7_7 
REMARK    3  A    between atoms: C5_5  and  C6_6 
ROOT
HETATM    1  C1  UNL     1     -33.266   7.141   5.013  1.00 20.00     0.065 C 
HETATM    2  C6  UNL     1     -33.168   7.645   3.628  1.00 20.00     0.107 C 
HETATM    3  N8  UNL     1     -33.345   6.748   6.102  1.00 20.00    -0.197 NA
ENDROOT
BRANCH   2   4
HETATM    4  C4  UNL     1     -31.714   8.007   3.262  1.00 20.00     0.024 C 
BRANCH   4   5
HETATM    5  C7  UNL     1     -31.503   8.503   1.813  1.00 20.00    -0.021 C 
HETATM    6  C2  UNL     1     -32.338   9.766   1.576  1.00 20.00     0.009 C 
HETATM    7  C3  UNL     1     -30.035   8.795   1.499  1.00 20.00     0.009 C 
ENDBRANCH   4   5
ENDBRANCH   2   4
BRANCH   2   8
HETATM    8  C5  UNL     1     -33.784   6.638   2.641  1.00 20.00     0.133 C 
HETATM    9 CL9  UNL     1     -32.987   5.043   2.653  1.00 20.00    -0.129 Cl
ENDBRANCH   2   8
TORSDOF 3
