REMARK  1 active torsions:
REMARK  status: ('A' for Active; 'I' for Inactive)
REMARK    1  A    between atoms: C2_2  and  C4_4 
ROOT
HETATM    1  C3  UNL     1     -32.168   6.165   2.845  1.00 20.00     0.102 C 
HETATM    2  C4  UNL     1     -33.629   5.712   3.131  1.00 20.00     0.035 C 
HETATM    3  C5  UNL     1     -32.623   7.628   3.040  1.00 20.00     0.295 C 
HETATM    4  C6  UNL     1     -33.801   7.081   3.908  1.00 20.00     0.254 C 
HETATM    5  C7  UNL     1     -34.459   5.516   1.860  1.00 20.00     0.025 C 
HETATM    6  F8  UNL     1     -32.972   8.279   1.906  1.00 20.00    -0.201 F 
HETATM    7  F9  UNL     1     -31.750   8.427   3.692  1.00 20.00    -0.201 F 
HETATM    8  F10 UNL     1     -33.482   7.016   5.231  1.00 20.00    -0.218 F 
HETATM    9 CL11 UNL     1     -35.359   7.943   3.757  1.00 20.00    -0.075 Cl
ENDROOT
BRANCH   2  10
HETATM   10  C2  UNL     1     -33.706   4.512   4.011  1.00 20.00    -0.023 C 
HETATM   11  C1  UNL     1     -34.718   4.263   4.850  1.00 20.00     0.008 C 
ENDBRANCH   2  10
TORSDOF 1
