REMARK  0 active torsions:
REMARK  status: ('A' for Active; 'I' for Inactive)
ROOT
HETATM    1  C1  UNL     1     -33.701   6.282   4.938  1.00 20.00     0.059 C 
HETATM    2  C2  UNL     1     -33.236   7.392   4.344  1.00 20.00     0.059 C 
HETATM    3  C3  UNL     1     -34.440   5.435   3.954  1.00 20.00     0.332 C 
HETATM    4  C4  UNL     1     -33.612   7.408   2.898  1.00 20.00     0.332 C 
HETATM    5  C5  UNL     1     -33.849   5.932   2.651  1.00 20.00     0.379 C 
HETATM    6  F6  UNL     1     -34.263   4.106   4.101  1.00 20.00    -0.195 F 
HETATM    7  F7  UNL     1     -35.771   5.685   4.002  1.00 20.00    -0.195 F 
HETATM    8  F8  UNL     1     -34.750   8.115   2.702  1.00 20.00    -0.195 F 
HETATM    9  F9  UNL     1     -32.669   7.902   2.070  1.00 20.00    -0.195 F 
HETATM   10  F10 UNL     1     -34.628   5.689   1.586  1.00 20.00    -0.192 F 
HETATM   11  F11 UNL     1     -32.657   5.316   2.435  1.00 20.00    -0.192 F 
ENDROOT
TORSDOF 0
