REMARK  3 active torsions:
REMARK  status: ('A' for Active; 'I' for Inactive)
REMARK    1  A    between atoms: C2_2  and  C3_3 
REMARK    2  A    between atoms: C2_2  and  C4_4 
REMARK    3  A    between atoms: C3_3  and  N5_5 
ROOT
HETATM    1  C1  UNL     1     -32.522   9.210   1.812  1.00 20.00     0.332 C 
HETATM    2  N5  UNL     1     -32.472   8.066   2.073  1.00 20.00    -0.247 NA
HETATM    3  O6  UNL     1     -32.568  10.356   1.549  1.00 20.00    -0.260 OA
ENDROOT
BRANCH   2   4
HETATM    4  C3  UNL     1     -33.412   7.643   3.112  1.00 20.00     0.162 C 
BRANCH   4   5
HETATM    5  C2  UNL     1     -33.262   6.144   3.331  1.00 20.00     0.139 C 
BRANCH   5   6
HETATM    6  C4  UNL     1     -34.206   5.631   4.395  1.00 20.00     0.389 C 
HETATM    7  F7  UNL     1     -34.036   4.309   4.609  1.00 20.00    -0.171 F 
HETATM    8  F8  UNL     1     -33.990   6.267   5.568  1.00 20.00    -0.171 F 
HETATM    9  F9  UNL     1     -35.495   5.837   4.049  1.00 20.00    -0.171 F 
ENDBRANCH   5   6
ENDBRANCH   4   5
ENDBRANCH   2   4
TORSDOF 3
