REMARK  2 active torsions:
REMARK  status: ('A' for Active; 'I' for Inactive)
REMARK    1  A    between atoms: C1_1  and  C3_3 
REMARK    2  A    between atoms: C3_3  and  C4_4 
ROOT
HETATM    1  C1  UNL     1     -33.811   5.634   3.662  1.00 20.00     0.162 C 
HETATM    2  C2  UNL     1     -34.114   6.143   4.860  1.00 20.00     0.301 C 
HETATM    3  F5  UNL     1     -33.950   4.299   3.491  1.00 20.00    -0.205 F 
HETATM    4  F6  UNL     1     -34.528   5.343   5.864  1.00 20.00    -0.170 F 
HETATM    5  F7  UNL     1     -34.007   7.473   5.067  1.00 20.00    -0.170 F 
ENDROOT
BRANCH   1   6
HETATM    6  C3  UNL     1     -33.344   6.445   2.490  1.00 20.00     0.086 C 
BRANCH   6   7
HETATM    7  C4  UNL     1     -32.595   7.694   2.951  1.00 20.00     0.086 C 
HETATM    8  I8  UNL     1     -31.909   8.825   1.268  1.00 20.00    -0.090 I 
ENDBRANCH   6   7
ENDBRANCH   1   6
TORSDOF 2
