REMARK  1 active torsions:
REMARK  status: ('A' for Active; 'I' for Inactive)
REMARK    1  A    between atoms: C1_1  and  C2_2 
ROOT
HETATM    1  C2  UNL     1     -34.083   5.600   3.926  1.00 20.00     0.299 C 
HETATM    2  F4  UNL     1     -35.091   6.063   3.137  1.00 20.00    -0.203 F 
HETATM    3 CL6  UNL     1     -34.809   4.881   5.390  1.00 20.00    -0.061 Cl
HETATM    4 CL7  UNL     1     -33.196   4.332   3.041  1.00 20.00    -0.061 Cl
ENDROOT
BRANCH   1   5
HETATM    5  C1  UNL     1     -33.176   6.762   4.310  1.00 20.00     0.336 C 
HETATM    6  F3  UNL     1     -33.905   7.680   5.005  1.00 20.00    -0.227 F 
HETATM    7 CL5  UNL     1     -32.491   7.581   2.884  1.00 20.00    -0.083 Cl
ENDBRANCH   1   5
TORSDOF 1
