REMARK  0 active torsions:
REMARK  status: ('A' for Active; 'I' for Inactive)
ROOT
HETATM    1  C1  UNL     1     -34.295   5.856   5.889  1.00 20.00     0.006 C 
HETATM    2  C2  UNL     1     -34.496   4.394   5.471  1.00 20.00     0.006 C 
HETATM    3  C3  UNL     1     -33.566   6.531   4.731  1.00 20.00     0.079 C 
HETATM    4  C4  UNL     1     -33.878   4.261   4.082  1.00 20.00     0.079 C 
HETATM    5  C5  UNL     1     -33.926   5.672   3.540  1.00 20.00     0.243 C 
HETATM    6  F6  UNL     1     -33.081   5.850   2.510  1.00 20.00    -0.206 F 
HETATM    7  F7  UNL     1     -35.174   5.967   3.110  1.00 20.00    -0.206 F 
ENDROOT
TORSDOF 0
