REMARK  1 active torsions:
REMARK  status: ('A' for Active; 'I' for Inactive)
REMARK    1  A    between atoms: C2_2  and  C3_3 
ROOT
HETATM    1  C1  UNL     1     -34.228   4.173   4.788  1.00 20.00     0.071 C 
HETATM    2  C3  UNL     1     -34.169   5.643   4.397  1.00 20.00     0.187 C 
HETATM    3  F4  UNL     1     -35.415   6.033   4.007  1.00 20.00    -0.225 F 
HETATM    4 CL6  UNL     1     -33.722   6.609   5.838  1.00 20.00    -0.082 Cl
ENDROOT
BRANCH   2   5
HETATM    5  C2  UNL     1     -33.184   5.953   3.274  1.00 20.00     0.174 C 
HETATM    6 CL5  UNL     1     -33.121   7.695   2.895  1.00 20.00    -0.126 Cl
ENDBRANCH   2   5
TORSDOF 1
