REMARK  0 active torsions:
REMARK  status: ('A' for Active; 'I' for Inactive)
ROOT
HETATM    1  C1  UNL     1     -33.423   5.754   3.215  1.00 20.00     0.219 C 
HETATM    2  C2  UNL     1     -33.909   5.668   4.460  1.00 20.00     0.153 C 
HETATM    3  F3  UNL     1     -33.281   6.973   2.645  1.00 20.00    -0.190 F 
HETATM    4 CL4  UNL     1     -32.958   4.381   2.275  1.00 20.00    -0.049 Cl
HETATM    5 CL5  UNL     1     -34.101   4.120   5.214  1.00 20.00    -0.067 Cl
HETATM    6 CL6  UNL     1     -34.373   7.044   5.398  1.00 20.00    -0.067 Cl
ENDROOT
TORSDOF 0
