REMARK  1 active torsions:
REMARK  status: ('A' for Active; 'I' for Inactive)
REMARK    1  A    between atoms: C1_1  and  C2_2 
ROOT
HETATM    1  C2  UNL     1     -32.907   9.524   1.551  1.00 20.00     0.294 C 
HETATM    2  F4  UNL     1     -32.567   9.097   0.306  1.00 20.00    -0.230 F 
HETATM    3 CL5  UNL     1     -32.576  11.262   1.680  1.00 20.00    -0.087 Cl
ENDROOT
BRANCH   1   4
HETATM    4  C1  UNL     1     -32.111   8.738   2.569  1.00 20.00     0.275 C 
HETATM    5  F3  UNL     1     -32.378   7.412   2.422  1.00 20.00    -0.251 F 
ENDBRANCH   1   4
TORSDOF 1
