REMARK  0 active torsions:
REMARK  status: ('A' for Active; 'I' for Inactive)
ROOT
HETATM    1  C1  UNL     1     -31.704   8.251   3.761  1.00 20.00     0.101 C 
HETATM    2  C2  UNL     1     -33.419   7.083   4.726  1.00 20.00     0.055 C 
HETATM    3  C3  UNL     1     -33.145   6.740   2.360  1.00 20.00     0.145 C 
HETATM    4  C4  UNL     1     -33.693   6.309   5.790  1.00 20.00     0.112 C 
HETATM    5  C5  UNL     1     -31.912   7.615   2.409  1.00 20.00     0.092 C 
HETATM    6  C6  UNL     1     -34.194   7.032   3.422  1.00 20.00     0.105 C 
HETATM    7  C7  UNL     1     -32.016   8.704   1.350  1.00 20.00     0.023 C 
HETATM    8  C8  UNL     1     -35.354   6.041   3.340  1.00 20.00     0.025 C 
HETATM    9  N9  UNL     1     -32.400   8.006   4.828  1.00 20.00    -0.267 NA
HETATM   10  O10 UNL     1     -33.301   5.907   1.469  1.00 20.00    -0.296 OA
HETATM   11 CL11 UNL     1     -34.958   5.164   5.802  1.00 20.00    -0.095 Cl
ENDROOT
TORSDOF 0
