REMARK  0 active torsions:
REMARK  status: ('A' for Active; 'I' for Inactive)
ROOT
HETATM    1  C1  UNL     1     -33.110   7.728   4.498  1.00 20.00    -0.011 C 
HETATM    2  C2  UNL     1     -32.849   7.486   3.204  1.00 20.00    -0.015 C 
HETATM    3  C3  UNL     1     -33.682   6.698   5.430  1.00 20.00     0.036 C 
HETATM    4  C4  UNL     1     -33.084   6.150   2.556  1.00 20.00     0.047 C 
HETATM    5  C5  UNL     1     -33.364   5.030   3.567  1.00 20.00     0.014 C 
HETATM    6  C6  UNL     1     -34.298   5.469   4.715  1.00 20.00    -0.044 C 
HETATM    7  C7  UNL     1     -34.443   4.316   5.724  1.00 20.00     0.015 C 
HETATM    8  C8  UNL     1     -35.702   5.810   4.174  1.00 20.00     0.015 C 
HETATM    9 BR9  UNL     1     -32.153   8.803   2.075  1.00 20.00    -0.056 Br
ENDROOT
TORSDOF 0
