REMARK  0 active torsions:
REMARK  status: ('A' for Active; 'I' for Inactive)
ROOT
HETATM    1  C1  UNL     1     -32.418   5.398   3.443  1.00 20.00     0.009 C 
HETATM    2  C2  UNL     1     -34.865   5.790   3.033  1.00 20.00     0.009 C 
HETATM    3  C3  UNL     1     -33.929   6.002   5.349  1.00 20.00     0.013 C 
HETATM    4  C4  UNL     1     -32.232   7.652   4.511  1.00 20.00     0.014 C 
HETATM    5  C5  UNL     1     -34.685   8.045   4.101  1.00 20.00     0.014 C 
HETATM    6  C6  UNL     1     -33.832   5.227   4.024  1.00 20.00    -0.013 C 
HETATM    7  C7  UNL     1     -32.130   6.889   3.176  1.00 20.00    -0.009 C 
HETATM    8  C8  UNL     1     -34.585   7.282   2.765  1.00 20.00    -0.009 C 
HETATM    9  C9  UNL     1     -33.168   7.414   2.156  1.00 20.00    -0.010 C 
HETATM   10  C10 UNL     1     -33.649   7.505   5.114  1.00 20.00    -0.043 C 
HETATM   11  C11 UNL     1     -32.860   8.833   1.674  1.00 20.00     0.010 C 
HETATM   12  C12 UNL     1     -33.747   8.274   6.434  1.00 20.00     0.015 C 
ENDROOT
TORSDOF 0
