REMARK  2 active torsions:
REMARK  status: ('A' for Active; 'I' for Inactive)
REMARK    1  A    between atoms: C1_1  and  C5_5 
REMARK    2  A    between atoms: C5_5  and  C7_7 
ROOT
HETATM    1  C2  UNL     1     -33.020   8.396   2.542  1.00 20.00     0.002 C 
HETATM    2  C3  UNL     1     -32.273   7.094   2.881  1.00 20.00     0.020 C 
HETATM    3  C4  UNL     1     -34.297   7.755   3.112  1.00 20.00     0.020 C 
HETATM    4  C5  UNL     1     -33.397   6.761   3.913  1.00 20.00     0.048 C 
ENDROOT
BRANCH   4   5
HETATM    5  C1  UNL     1     -33.879   5.284   3.913  1.00 20.00     0.181 C 
HETATM    6  O8  UNL     1     -34.787   5.014   4.747  1.00 20.00    -0.647 OA
HETATM    7  O9  UNL     1     -33.299   4.537   3.076  1.00 20.00    -0.647 OA
ENDBRANCH   4   5
BRANCH   4   8
HETATM    8  C7  UNL     1     -33.080   7.235   5.333  1.00 20.00     0.016 C 
HETATM    9  C6  UNL     1     -34.277   7.153   6.225  1.00 20.00     0.006 C 
ENDBRANCH   4   8
TORSDOF 2
