REMARK  1 active torsions:
REMARK  status: ('A' for Active; 'I' for Inactive)
REMARK    1  A    between atoms: C3_3  and  C4_4 
ROOT
HETATM    1  C1  UNL     1     -33.570   4.908   3.707  1.00 20.00     0.175 C 
HETATM    2  C2  UNL     1     -35.422   5.812   3.655  1.00 20.00     0.175 C 
HETATM    3  C3  UNL     1     -34.779   4.835   4.646  1.00 20.00     0.047 C 
HETATM    4  O5  UNL     1     -34.338   5.628   2.712  1.00 20.00    -0.390 OA
ENDROOT
BRANCH   3   5
HETATM    5  C4  UNL     1     -34.574   5.337   6.059  1.00 20.00     0.123 C 
HETATM    6 CL6  UNL     1     -33.564   6.799   6.060  1.00 20.00    -0.130 Cl
ENDBRANCH   3   5
TORSDOF 1
