REMARK  0 active torsions:
REMARK  status: ('A' for Active; 'I' for Inactive)
ROOT
HETATM    1  C1  UNL     1     -34.241   5.406   4.811  1.00 20.00    -0.054 C 
HETATM    2  C2  UNL     1     -33.848   6.117   3.736  1.00 20.00     0.091 C 
HETATM    3  C3  UNL     1     -34.624   6.085   6.100  1.00 20.00     0.046 C 
HETATM    4  C4  UNL     1     -34.326   3.905   4.857  1.00 20.00     0.046 C 
HETATM    5  C5  UNL     1     -33.483   5.563   2.396  1.00 20.00     0.082 C 
HETATM    6  F6  UNL     1     -33.801   7.467   3.852  1.00 20.00    -0.211 F 
ENDROOT
TORSDOF 0
