REMARK  2 active torsions:
REMARK  status: ('A' for Active; 'I' for Inactive)
REMARK    1  A    between atoms: C1_1  and  C3_3 
REMARK    2  A    between atoms: C4_4  and  O10_10 
ROOT
HETATM    1  C3  UNL     1     -33.513   7.168   2.799  1.00 20.00     0.048 A 
HETATM    2  C4  UNL     1     -32.421   6.188   3.149  1.00 20.00     0.135 A 
HETATM    3  C5  UNL     1     -33.507   6.494   4.161  1.00 20.00    -0.012 A 
HETATM    4  C8  UNL     1     -34.581   5.468   4.424  1.00 20.00     0.018 C 
HETATM    5  C9  UNL     1     -33.100   7.264   5.395  1.00 20.00     0.018 C 
ENDROOT
BRANCH   1   6
HETATM    6  C1  UNL     1     -33.177   8.578   2.660  1.00 20.00    -0.017 C 
HETATM    7  C2  UNL     1     -32.662   9.200   1.582  1.00 20.00    -0.091 C 
HETATM    8  C6  UNL     1     -32.370  10.675   1.600  1.00 20.00     0.042 C 
HETATM    9  C7  UNL     1     -32.338   8.503   0.291  1.00 20.00     0.042 C 
ENDBRANCH   1   6
BRANCH   2  10
HETATM   10  O10 UNL     1     -32.484   4.917   2.481  1.00 20.00    -0.394 OA
HETATM   11  H26 UNL     1     -32.425   5.113   1.536  1.00 20.00     0.210 HD
ENDBRANCH   2  10
TORSDOF 2
