REMARK  0 active torsions:
REMARK  status: ('A' for Active; 'I' for Inactive)
ROOT
HETATM    1  C1  UNL     1     -34.392   6.744   3.805  1.00 20.00     0.238 C 
HETATM    2  C2  UNL     1     -34.293   6.164   4.999  1.00 20.00     0.189 C 
HETATM    3  F3  UNL     1     -34.533   6.020   2.679  1.00 20.00    -0.216 F 
HETATM    4  F4  UNL     1     -34.153   6.948   6.091  1.00 20.00    -0.196 F 
HETATM    5 BR5  UNL     1     -34.338   4.320   5.233  1.00 20.00    -0.015 Br
ENDROOT
TORSDOF 0
