REMARK  1 active torsions:
REMARK  status: ('A' for Active; 'I' for Inactive)
REMARK    1  A    between atoms: C1_1  and  C3_3 
ROOT
HETATM    1  C1  UNL     1     -33.327   6.397   4.347  1.00 20.00     0.249 C 
HETATM    2  C2  UNL     1     -34.133   5.778   5.219  1.00 20.00     0.229 C 
HETATM    3  F4  UNL     1     -32.672   7.511   4.751  1.00 20.00    -0.197 F 
HETATM    4  F5  UNL     1     -34.279   6.266   6.470  1.00 20.00    -0.189 F 
HETATM    5 CL9  UNL     1     -35.005   4.354   4.787  1.00 20.00    -0.049 Cl
ENDROOT
BRANCH   1   6
HETATM    6  C3  UNL     1     -33.090   5.950   2.947  1.00 20.00     0.448 C 
HETATM    7  F6  UNL     1     -32.225   6.777   2.307  1.00 20.00    -0.164 F 
HETATM    8  F7  UNL     1     -32.577   4.698   2.851  1.00 20.00    -0.164 F 
HETATM    9  F8  UNL     1     -34.241   5.956   2.228  1.00 20.00    -0.164 F 
ENDBRANCH   1   6
TORSDOF 1
