REMARK  1 active torsions:
REMARK  status: ('A' for Active; 'I' for Inactive)
REMARK    1  A    between atoms: C2_2  and  C4_4 
ROOT
HETATM    1  C1  UNL     1     -32.447   7.460   3.769  1.00 20.00     0.116 C 
HETATM    2  C2  UNL     1     -33.225   6.695   4.555  1.00 20.00     0.151 C 
HETATM    3  C3  UNL     1     -31.539   8.566   4.206  1.00 20.00     0.084 C 
HETATM    4  F5  UNL     1     -32.473   7.221   2.435  1.00 20.00    -0.209 F 
HETATM    5 CL9  UNL     1     -33.281   6.902   6.277  1.00 20.00    -0.076 Cl
ENDROOT
BRANCH   2   6
HETATM    6  C4  UNL     1     -34.115   5.601   4.059  1.00 20.00     0.430 C 
HETATM    7  F6  UNL     1     -34.784   4.997   5.076  1.00 20.00    -0.165 F 
HETATM    8  F7  UNL     1     -35.059   6.026   3.180  1.00 20.00    -0.165 F 
HETATM    9  F8  UNL     1     -33.410   4.629   3.422  1.00 20.00    -0.165 F 
ENDBRANCH   2   6
TORSDOF 1
