REMARK  0 active torsions:
REMARK  status: ('A' for Active; 'I' for Inactive)
ROOT
HETATM    1  C1  UNL     1     -33.095   7.378   5.203  1.00 20.00     0.145 C 
HETATM    2  C2  UNL     1     -33.912   6.339   5.088  1.00 20.00    -0.034 C 
HETATM    3  C3  UNL     1     -34.273   5.185   5.936  1.00 20.00     0.038 C 
HETATM    4  C4  UNL     1     -34.318   4.062   4.881  1.00 20.00     0.007 C 
HETATM    5  C5  UNL     1     -33.674   4.634   3.599  1.00 20.00     0.034 C 
HETATM    6  C6  UNL     1     -34.067   6.095   3.642  1.00 20.00     0.161 C 
HETATM    7  N7  UNL     1     -32.674   7.823   3.972  1.00 20.00    -0.167 NA
HETATM    8  N8  UNL     1     -33.108   7.053   3.057  1.00 20.00    -0.183 NA
ENDROOT
TORSDOF 0
