REMARK  0 active torsions:
REMARK  status: ('A' for Active; 'I' for Inactive)
ROOT
HETATM    1  C1  UNL     1     -33.960   6.521   4.040  1.00 20.00     0.164 C 
HETATM    2  C2  UNL     1     -34.069   5.476   2.955  1.00 20.00     0.107 C 
HETATM    3  C3  UNL     1     -33.910   4.096   3.575  1.00 20.00     0.175 C 
HETATM    4  C4  UNL     1     -34.578   4.818   5.722  1.00 20.00     0.212 C 
HETATM    5  C5  UNL     1     -34.776   6.257   5.281  1.00 20.00     0.263 C 
HETATM    6  O6  UNL     1     -33.324   7.561   3.884  1.00 20.00    -0.295 OA
HETATM    7  O7  UNL     1     -34.839   3.914   4.647  1.00 20.00    -0.388 OA
HETATM    8  F8  UNL     1     -34.413   7.082   6.298  1.00 20.00    -0.239 F 
ENDROOT
TORSDOF 0
