REMARK  0 active torsions:
REMARK  status: ('A' for Active; 'I' for Inactive)
ROOT
HETATM    1  C1  UNL     1     -34.339   6.106   6.134  1.00 20.00     0.009 C 
HETATM    2  C2  UNL     1     -34.236   7.547   5.624  1.00 20.00     0.035 C 
HETATM    3  C3  UNL     1     -34.010   5.022   5.090  1.00 20.00     0.082 C 
HETATM    4  C4  UNL     1     -33.005   7.731   4.795  1.00 20.00     0.157 A 
HETATM    5  C5  UNL     1     -32.732   6.685   3.754  1.00 20.00     0.223 A 
HETATM    6  C6  UNL     1     -33.705   5.560   3.698  1.00 20.00     0.271 C 
HETATM    7  O7  UNL     1     -33.237   7.977   3.404  1.00 20.00    -0.369 OA
HETATM    8  F8  UNL     1     -33.209   4.562   2.924  1.00 20.00    -0.203 F 
HETATM    9  F9  UNL     1     -34.861   5.964   3.108  1.00 20.00    -0.203 F 
ENDROOT
TORSDOF 0
