REMARK  1 active torsions:
REMARK  status: ('A' for Active; 'I' for Inactive)
REMARK    1  A    between atoms: C6_6  and  C7_7 
ROOT
HETATM    1  C1  UNL     1     -34.688   4.069   4.761  1.00 20.00     0.005 C 
HETATM    2  C2  UNL     1     -33.546   4.230   3.752  1.00 20.00     0.011 C 
HETATM    3  C3  UNL     1     -33.821   6.349   4.954  1.00 20.00     0.015 C 
HETATM    4  C4  UNL     1     -35.167   6.031   3.380  1.00 20.00     0.015 C 
HETATM    5  C5  UNL     1     -35.143   5.523   4.856  1.00 20.00    -0.013 C 
HETATM    6  C6  UNL     1     -33.634   5.744   3.522  1.00 20.00    -0.031 C 
ENDROOT
BRANCH   6   7
HETATM    7  C7  UNL     1     -32.648   6.339   2.560  1.00 20.00     0.094 C 
HETATM    8 BR8  UNL     1     -32.960   8.252   2.375  1.00 20.00    -0.096 Br
ENDBRANCH   6   7
TORSDOF 1
