REMARK  1 active torsions:
REMARK  status: ('A' for Active; 'I' for Inactive)
REMARK    1  A    between atoms: C5_5  and  C6_6 
ROOT
HETATM    1  C1  UNL     1     -33.445   5.351   3.167  1.00 20.00     0.015 C 
HETATM    2  C2  UNL     1     -33.256   7.430   4.626  1.00 20.00     0.015 C 
HETATM    3  C3  UNL     1     -34.645   4.801   3.928  1.00 20.00     0.074 C 
HETATM    4  C4  UNL     1     -34.441   7.047   5.504  1.00 20.00     0.074 C 
HETATM    5  C5  UNL     1     -33.361   6.884   3.194  1.00 20.00    -0.003 C 
HETATM    6  S7  UNL     1     -34.595   5.248   5.685  1.00 20.00    -0.169 SA
ENDROOT
BRANCH   5   7
HETATM    7  C6  UNL     1     -32.169   7.360   2.362  1.00 20.00     0.089 C 
HETATM    8 BR8  UNL     1     -32.446   9.205   1.839  1.00 20.00    -0.096 Br
ENDBRANCH   5   7
TORSDOF 1
