REMARK  2 active torsions:
REMARK  status: ('A' for Active; 'I' for Inactive)
REMARK    1  A    between atoms: C1_1  and  C4_4 
REMARK    2  A    between atoms: C4_4  and  C5_5 
ROOT
HETATM    1  C2  UNL     1     -33.721   5.041   3.225  1.00 20.00     0.020 A 
HETATM    2  C3  UNL     1     -34.983   5.846   3.166  1.00 20.00     0.020 A 
HETATM    3  C4  UNL     1     -33.829   6.324   4.024  1.00 20.00     0.039 A 
ENDROOT
BRANCH   3   4
HETATM    4  C1  UNL     1     -33.062   7.491   3.527  1.00 20.00     0.243 C 
HETATM    5  O6  UNL     1     -31.841   7.495   3.403  1.00 20.00    -0.306 OA
ENDBRANCH   3   4
BRANCH   3   6
HETATM    6  C5  UNL     1     -33.984   6.190   5.518  1.00 20.00     0.238 C 
HETATM    7  F7  UNL     1     -34.728   5.083   5.786  1.00 20.00    -0.254 F 
ENDBRANCH   3   6
TORSDOF 2
