REMARK  3 active torsions:
REMARK  status: ('A' for Active; 'I' for Inactive)
REMARK    1  A    between atoms: C3_3  and  C5_5 
REMARK    2  A    between atoms: C5_5  and  C6_6 
REMARK    3  A    between atoms: C6_6  and  S9_9 
ROOT
HETATM    1  C1  UNL     1     -34.536   6.329   4.734  1.00 20.00     0.179 C 
HETATM    2  C2  UNL     1     -33.894   5.197   3.954  1.00 20.00     0.103 C 
HETATM    3  C3  UNL     1     -33.435   7.638   3.174  1.00 20.00     0.183 C 
HETATM    4  O7  UNL     1     -33.720   7.495   4.572  1.00 20.00    -0.375 OA
HETATM    5  S8  UNL     1     -33.422   5.994   2.410  1.00 20.00    -0.135 SA
ENDROOT
BRANCH   3   6
HETATM    6  C5  UNL     1     -32.094   8.331   3.016  1.00 20.00     0.057 C 
BRANCH   6   7
HETATM    7  C6  UNL     1     -31.685   8.571   1.556  1.00 20.00     0.043 C 
HETATM    8  C4  UNL     1     -32.716   9.442   0.840  1.00 20.00     0.021 C 
BRANCH   7   9
HETATM    9  S9  UNL     1     -30.049   9.377   1.428  1.00 20.00    -0.178 SA
HETATM   10  H21 UNL     1     -30.004   9.366   0.090  1.00 20.00     0.102 HD
ENDBRANCH   7   9
ENDBRANCH   6   7
ENDBRANCH   3   6
TORSDOF 3
