REMARK  1 active torsions:
REMARK  status: ('A' for Active; 'I' for Inactive)
REMARK    1  A    between atoms: C3_3  and  C4_4 
ROOT
HETATM    1  C1  UNL     1     -34.668   4.544   5.445  1.00 20.00     0.149 A 
HETATM    2  C2  UNL     1     -34.306   3.935   4.262  1.00 20.00     0.093 A 
HETATM    3  C3  UNL     1     -33.804   6.286   4.430  1.00 20.00     0.089 A 
HETATM    4  N5  UNL     1     -34.381   5.891   5.543  1.00 20.00    -0.255 NA
HETATM    5  S6  UNL     1     -33.577   5.088   3.222  1.00 20.00    -0.060 SA
HETATM    6 CL7  UNL     1     -34.498   2.307   3.786  1.00 20.00    -0.075 Cl
ENDROOT
BRANCH   3   7
HETATM    7  C4  UNL     1     -33.353   7.669   4.165  1.00 20.00     0.181 C 
HETATM    8 CL8  UNL     1     -32.258   7.728   2.760  1.00 20.00    -0.123 Cl
ENDBRANCH   3   7
TORSDOF 1
