REMARK  0 active torsions:
REMARK  status: ('A' for Active; 'I' for Inactive)
ROOT
HETATM    1  C1  UNL     1     -33.196   7.680   1.860  1.00 20.00     0.052 A 
HETATM    2  C2  UNL     1     -32.018   8.139   4.274  1.00 20.00     0.126 A 
HETATM    3  C3  UNL     1     -33.574   6.896   2.954  1.00 20.00    -0.047 A 
HETATM    4  C4  UNL     1     -32.958   7.115   4.194  1.00 20.00    -0.034 A 
HETATM    5  C5  UNL     1     -32.241   8.665   2.052  1.00 20.00     0.126 A 
HETATM    6  C6  UNL     1     -34.586   5.796   2.763  1.00 20.00     0.039 C 
HETATM    7  C7  UNL     1     -33.329   6.328   5.421  1.00 20.00     0.040 C 
HETATM    8  C8  UNL     1     -35.175   5.287   4.078  1.00 20.00     0.005 C 
HETATM    9  C9  UNL     1     -34.070   5.031   5.096  1.00 20.00     0.005 C 
HETATM   10  N10 UNL     1     -31.642   8.917   3.235  1.00 20.00    -0.248 NA
HETATM   11 CL11 UNL     1     -31.730   9.668   0.757  1.00 20.00    -0.062 Cl
ENDROOT
TORSDOF 0
