REMARK  2 active torsions:
REMARK  status: ('A' for Active; 'I' for Inactive)
REMARK    1  A    between atoms: C5_5  and  C6_6 
REMARK    2  A    between atoms: C6_6  and  C7_7 
ROOT
HETATM    1  C1  UNL     1     -33.639   7.639   5.342  1.00 20.00     0.012 C 
HETATM    2  C6  UNL     1     -33.217   6.428   4.488  1.00 20.00     0.002 C 
ENDROOT
BRANCH   2   3
HETATM    3  C5  UNL     1     -32.813   6.897   3.073  1.00 20.00     0.119 C 
HETATM    4 CL8  UNL     1     -31.476   8.082   3.108  1.00 20.00    -0.130 Cl
ENDBRANCH   2   3
BRANCH   2   5
HETATM    5  C7  UNL     1     -34.304   5.285   4.458  1.00 20.00    -0.047 C 
HETATM    6  C2  UNL     1     -34.630   4.816   5.895  1.00 20.00     0.015 C 
HETATM    7  C3  UNL     1     -33.776   4.051   3.693  1.00 20.00     0.015 C 
HETATM    8  C4  UNL     1     -35.616   5.740   3.791  1.00 20.00     0.015 C 
ENDBRANCH   2   5
TORSDOF 2
