REMARK  0 active torsions:
REMARK  status: ('A' for Active; 'I' for Inactive)
ROOT
HETATM    1  C1  UNL     1     -31.358   7.880   3.270  1.00 20.00     0.001 C 
HETATM    2  C2  UNL     1     -32.094   8.428   4.265  1.00 20.00     0.001 C 
HETATM    3  C3  UNL     1     -33.693   3.926   3.635  1.00 20.00     0.001 C 
HETATM    4  C4  UNL     1     -34.494   4.522   4.720  1.00 20.00     0.001 C 
HETATM    5  C5  UNL     1     -32.926   4.519   2.691  1.00 20.00     0.009 C 
HETATM    6  C6  UNL     1     -34.674   5.820   5.059  1.00 20.00     0.009 C 
HETATM    7  C7  UNL     1     -31.547   6.529   2.741  1.00 20.00     0.009 C 
HETATM    8  C8  UNL     1     -33.188   7.750   4.961  1.00 20.00     0.009 C 
HETATM    9  C9  UNL     1     -32.765   5.965   2.582  1.00 20.00    -0.039 C 
HETATM   10  C10 UNL     1     -34.062   6.930   4.336  1.00 20.00    -0.039 C 
HETATM   11  C11 UNL     1     -34.045   6.701   2.852  1.00 20.00     0.123 C 
HETATM   12 BR12 UNL     1     -34.316   8.295   1.775  1.00 20.00    -0.081 Br
ENDROOT
TORSDOF 0
