REMARK  1 active torsions:
REMARK  status: ('A' for Active; 'I' for Inactive)
REMARK    1  A    between atoms: C4_4  and  C9_9 
ROOT
HETATM    1  C1  UNL     1     -32.142   9.339   1.731  1.00 20.00     0.017 C 
HETATM    2  C2  UNL     1     -32.856   8.642   2.398  1.00 20.00    -0.089 C 
HETATM    3  C3  UNL     1     -33.713   7.833   3.199  1.00 20.00     0.066 C 
HETATM    4  C4  UNL     1     -33.670   6.484   3.248  1.00 20.00    -0.068 C 
HETATM    5  C5  UNL     1     -32.677   5.694   2.415  1.00 20.00     0.044 C 
ENDROOT
BRANCH   4   6
HETATM    6  C9  UNL     1     -34.619   5.647   4.148  1.00 20.00    -0.028 C 
HETATM    7  C6  UNL     1     -34.326   4.140   3.984  1.00 20.00     0.019 C 
HETATM    8  C7  UNL     1     -34.493   5.963   5.659  1.00 20.00     0.019 C 
HETATM    9  C8  UNL     1     -36.085   5.918   3.751  1.00 20.00     0.019 C 
ENDBRANCH   4   6
TORSDOF 1
