REMARK  1 active torsions:
REMARK  status: ('A' for Active; 'I' for Inactive)
REMARK    1  A    between atoms: C4_4  and  C10_10 
ROOT
HETATM    1  C1  UNL     1     -32.124   8.753   4.823  1.00 20.00    -0.004 C 
HETATM    2  C2  UNL     1     -32.919   7.576   5.064  1.00 20.00     0.003 C 
HETATM    3  C3  UNL     1     -31.728   9.087   3.588  1.00 20.00    -0.026 C 
HETATM    4  C4  UNL     1     -33.437   6.851   4.058  1.00 20.00    -0.072 C 
HETATM    5  C5  UNL     1     -32.092   8.274   2.381  1.00 20.00     0.031 C 
HETATM    6  C6  UNL     1     -33.199   7.229   2.614  1.00 20.00     0.038 C 
ENDROOT
BRANCH   4   7
HETATM    7  C10 UNL     1     -34.294   5.646   4.301  1.00 20.00    -0.028 C 
HETATM    8  C7  UNL     1     -33.644   4.418   3.646  1.00 20.00     0.019 C 
HETATM    9  C8  UNL     1     -35.690   5.869   3.696  1.00 20.00     0.019 C 
HETATM   10  C9  UNL     1     -34.435   5.404   5.813  1.00 20.00     0.019 C 
ENDBRANCH   4   7
TORSDOF 1
