REMARK  1 active torsions:
REMARK  status: ('A' for Active; 'I' for Inactive)
REMARK    1  A    between atoms: C3_3  and  C5_5 
ROOT
HETATM    1  C1  UNL     1     -31.834   7.122   3.009  1.00 20.00     0.055 A 
HETATM    2  C2  UNL     1     -31.523   8.104   2.168  1.00 20.00     0.085 A 
HETATM    3  C3  UNL     1     -33.279   7.190   3.349  1.00 20.00     0.273 A 
HETATM    4  C4  UNL     1     -32.731   8.900   1.875  1.00 20.00     0.378 A 
HETATM    5  O6  UNL     1     -33.816   8.286   2.585  1.00 20.00    -0.273 OA
HETATM    6  F7  UNL     1     -33.457   7.489   4.663  1.00 20.00    -0.202 F 
HETATM    7  F8  UNL     1     -32.626  10.186   2.288  1.00 20.00    -0.171 F 
HETATM    8  F9  UNL     1     -33.043   8.914   0.557  1.00 20.00    -0.171 F 
ENDROOT
BRANCH   3   9
HETATM    9  C5  UNL     1     -34.047   5.923   3.024  1.00 20.00     0.337 C 
HETATM   10  F10 UNL     1     -33.192   5.026   2.470  1.00 20.00    -0.226 F 
HETATM   11 CL11 UNL     1     -34.755   5.225   4.492  1.00 20.00    -0.083 Cl
ENDBRANCH   3   9
TORSDOF 1
