REMARK  2 active torsions:
REMARK  status: ('A' for Active; 'I' for Inactive)
REMARK    1  A    between atoms: C3_3  and  O10_10 
REMARK    2  A    between atoms: C8_8  and  O10_10 
ROOT
HETATM    1  C1  UNL     1     -32.456   7.538   4.516  1.00 20.00     0.069 C 
HETATM    2  C2  UNL     1     -33.430   6.526   5.162  1.00 20.00     0.173 C 
HETATM    3  C3  UNL     1     -33.350   7.577   3.256  1.00 20.00     0.134 C 
HETATM    4  C4  UNL     1     -34.014   6.240   3.733  1.00 20.00     0.008 C 
HETATM    5  C5  UNL     1     -35.530   6.218   3.518  1.00 20.00     0.020 C 
HETATM    6  C6  UNL     1     -33.385   4.973   3.129  1.00 20.00     0.020 C 
HETATM    7  O9  UNL     1     -34.322   7.142   6.061  1.00 20.00    -0.234 OA
ENDROOT
BRANCH   3   8
HETATM    8  O10 UNL     1     -32.667   7.543   1.989  1.00 20.00    -0.385 OA
BRANCH   8   9
HETATM    9  C8  UNL     1     -32.166   8.822   1.653  1.00 20.00     0.163 C 
HETATM   10  C7  UNL     1     -31.458   8.738   0.317  1.00 20.00     0.033 C 
ENDBRANCH   8   9
ENDBRANCH   3   8
TORSDOF 2
