REMARK  2 active torsions:
REMARK  status: ('A' for Active; 'I' for Inactive)
REMARK    1  A    between atoms: C2_2  and  C3_3 
REMARK    2  A    between atoms: C3_3  and  C7_7 
ROOT
HETATM    1  C3  UNL     1     -33.402   6.689   4.503  1.00 20.00     0.255 C 
HETATM    2  O8  UNL     1     -33.609   6.977   5.678  1.00 20.00    -0.283 OA
ENDROOT
BRANCH   1   3
HETATM    3  C2  UNL     1     -32.343   7.354   3.697  1.00 20.00     0.062 C 
HETATM    4  C1  UNL     1     -32.648   8.032   2.590  1.00 20.00    -0.076 C 
HETATM    5  C4  UNL     1     -31.819   8.797   1.582  1.00 20.00     0.034 C 
HETATM    6  C5  UNL     1     -33.951   8.311   1.872  1.00 20.00     0.034 C 
HETATM    7  C6  UNL     1     -33.161   9.461   1.211  1.00 20.00     0.009 C 
ENDBRANCH   1   3
BRANCH   1   8
HETATM    8  C7  UNL     1     -34.210   5.640   3.796  1.00 20.00     0.455 C 
HETATM    9  F9  UNL     1     -33.817   5.480   2.507  1.00 20.00    -0.163 F 
HETATM   10  F10 UNL     1     -34.101   4.426   4.394  1.00 20.00    -0.163 F 
HETATM   11  F11 UNL     1     -35.532   5.945   3.767  1.00 20.00    -0.163 F 
ENDBRANCH   1   8
TORSDOF 2
