REMARK  1 active torsions:
REMARK  status: ('A' for Active; 'I' for Inactive)
REMARK    1  A    between atoms: C4_4  and  C9_9 
ROOT
HETATM    1  C5  UNL     1     -34.355   6.228   5.326  1.00 20.00     0.135 C 
HETATM    2  C6  UNL     1     -34.532   4.803   5.787  1.00 20.00     0.079 C 
HETATM    3  C7  UNL     1     -34.860   4.087   4.484  1.00 20.00     0.008 C 
HETATM    4  C8  UNL     1     -34.091   4.860   3.419  1.00 20.00     0.017 C 
HETATM    5  C9  UNL     1     -34.279   6.330   3.816  1.00 20.00     0.090 C 
HETATM    6  O10 UNL     1     -34.280   7.181   6.092  1.00 20.00    -0.297 OA
ENDROOT
BRANCH   5   7
HETATM    7  C4  UNL     1     -33.196   7.245   3.307  1.00 20.00    -0.023 A 
HETATM    8  C1  UNL     1     -31.806   7.133   3.543  1.00 20.00     0.034 A 
HETATM    9  C2  UNL     1     -31.220   8.187   2.881  1.00 20.00     0.142 A 
HETATM   10  O11 UNL     1     -32.161   8.939   2.253  1.00 20.00    -0.334 OA
HETATM   11  C3  UNL     1     -33.362   8.359   2.518  1.00 20.00     0.149 A 
ENDBRANCH   5   7
TORSDOF 1
