REMARK  2 active torsions:
REMARK  status: ('A' for Active; 'I' for Inactive)
REMARK    1  A    between atoms: C5_5  and  C6_6 
REMARK    2  A    between atoms: C6_6  and  C7_7 
ROOT
HETATM    1  C1  UNL     1     -33.715   5.721   2.584  1.00 20.00     0.031 C 
HETATM    2  C2  UNL     1     -34.031   7.723   4.063  1.00 20.00     0.031 C 
HETATM    3  C3  UNL     1     -33.943   4.860   3.820  1.00 20.00     0.168 C 
HETATM    4  C4  UNL     1     -34.242   6.749   5.216  1.00 20.00     0.168 C 
HETATM    5  C5  UNL     1     -33.154   7.093   2.976  1.00 20.00    -0.010 C 
HETATM    6  O8  UNL     1     -34.801   5.523   4.748  1.00 20.00    -0.391 OA
ENDROOT
BRANCH   5   7
HETATM    7  C6  UNL     1     -33.040   8.009   1.761  1.00 20.00     0.020 C 
BRANCH   7   8
HETATM    8  C7  UNL     1     -32.139   9.213   1.996  1.00 20.00     0.115 C 
HETATM    9 CL9  UNL     1     -32.051  10.272   0.570  1.00 20.00    -0.130 Cl
ENDBRANCH   7   8
ENDBRANCH   5   7
TORSDOF 2
