REMARK  1 active torsions:
REMARK  status: ('A' for Active; 'I' for Inactive)
REMARK    1  A    between atoms: C4_4  and  C8_8 
ROOT
HETATM    1  C5  UNL     1     -33.952   6.018   5.493  1.00 20.00     0.002 C 
HETATM    2  C6  UNL     1     -33.263   7.243   4.886  1.00 20.00     0.011 C 
HETATM    3  C7  UNL     1     -34.778   5.390   4.371  1.00 20.00     0.021 C 
HETATM    4  C8  UNL     1     -33.905   7.438   3.500  1.00 20.00     0.039 C 
HETATM    5  C9  UNL     1     -34.231   5.991   3.079  1.00 20.00     0.090 C 
HETATM    6 CL11 UNL     1     -32.778   5.085   2.550  1.00 20.00    -0.124 Cl
ENDROOT
BRANCH   4   7
HETATM    7  C4  UNL     1     -33.150   8.281   2.493  1.00 20.00    -0.028 A 
HETATM    8  C1  UNL     1     -33.250   9.680   2.307  1.00 20.00     0.034 A 
HETATM    9  C2  UNL     1     -32.381   9.993   1.288  1.00 20.00     0.142 A 
HETATM   10  O10 UNL     1     -31.753   8.877   0.836  1.00 20.00    -0.334 OA
HETATM   11  C3  UNL     1     -32.226   7.839   1.574  1.00 20.00     0.148 A 
ENDBRANCH   4   7
TORSDOF 1
