REMARK  3 active torsions:
REMARK  status: ('A' for Active; 'I' for Inactive)
REMARK    1  A    between atoms: C5_5  and  C6_6 
REMARK    2  A    between atoms: C6_6  and  C7_7 
REMARK    3  A    between atoms: C7_7  and  C8_8 
ROOT
HETATM    1  C1  UNL     1     -34.790   5.933   5.427  1.00 20.00     0.004 C 
HETATM    2  C2  UNL     1     -34.143   4.659   4.896  1.00 20.00     0.026 C 
HETATM    3  C3  UNL     1     -34.047   7.165   4.916  1.00 20.00     0.032 C 
HETATM    4  C4  UNL     1     -33.970   4.732   3.385  1.00 20.00     0.168 C 
HETATM    5  C5  UNL     1     -33.887   7.106   3.395  1.00 20.00     0.121 C 
HETATM    6  O9  UNL     1     -33.226   5.894   3.015  1.00 20.00    -0.386 OA
ENDROOT
BRANCH   5   7
HETATM    7  C6  UNL     1     -33.049   8.271   2.888  1.00 20.00     0.033 C 
BRANCH   7   8
HETATM    8  C7  UNL     1     -32.916   8.242   1.366  1.00 20.00     0.017 C 
BRANCH   8   9
HETATM    9  C8  UNL     1     -32.106   9.431   0.866  1.00 20.00     0.115 C 
HETATM   10 CL10 UNL     1     -32.904  10.957   1.311  1.00 20.00    -0.130 Cl
ENDBRANCH   8   9
ENDBRANCH   7   8
ENDBRANCH   5   7
TORSDOF 3
