REMARK  1 active torsions:
REMARK  status: ('A' for Active; 'I' for Inactive)
REMARK    1  A    between atoms: C4_4  and  C9_9 
ROOT
HETATM    1  C5  UNL     1     -32.395   7.900   3.758  1.00 20.00     0.135 C 
HETATM    2  C6  UNL     1     -33.508   7.534   4.706  1.00 20.00     0.079 C 
HETATM    3  C7  UNL     1     -34.590   7.048   3.753  1.00 20.00     0.008 C 
HETATM    4  C8  UNL     1     -33.830   6.423   2.589  1.00 20.00     0.017 C 
HETATM    5  C9  UNL     1     -32.596   7.311   2.378  1.00 20.00     0.090 C 
HETATM    6  O10 UNL     1     -31.431   8.585   4.079  1.00 20.00    -0.297 OA
ENDROOT
BRANCH   5   7
HETATM    7  C4  UNL     1     -32.773   8.342   1.288  1.00 20.00    -0.023 A 
HETATM    8  C1  UNL     1     -32.751   9.750   1.434  1.00 20.00     0.034 A 
HETATM    9  C2  UNL     1     -32.954  10.268   0.177  1.00 20.00     0.142 A 
HETATM   10  O11 UNL     1     -33.099   9.270  -0.733  1.00 20.00    -0.334 OA
HETATM   11  C3  UNL     1     -32.988   8.101  -0.049  1.00 20.00     0.149 A 
ENDBRANCH   5   7
TORSDOF 1
