REMARK  1 active torsions:
REMARK  status: ('A' for Active; 'I' for Inactive)
REMARK    1  A    between atoms: C4_4  and  C8_8 
ROOT
HETATM    1  C5  UNL     1     -33.860   3.909   3.655  1.00 20.00     0.002 C 
HETATM    2  C6  UNL     1     -33.075   4.886   2.776  1.00 20.00     0.011 C 
HETATM    3  C7  UNL     1     -35.011   4.709   4.264  1.00 20.00     0.021 C 
HETATM    4  C8  UNL     1     -33.935   6.161   2.698  1.00 20.00     0.039 C 
HETATM    5  C9  UNL     1     -34.632   6.175   4.074  1.00 20.00     0.090 C 
HETATM    6 CL11 UNL     1     -33.537   6.698   5.393  1.00 20.00    -0.124 Cl
ENDROOT
BRANCH   4   7
HETATM    7  C4  UNL     1     -33.246   7.442   2.276  1.00 20.00    -0.028 A 
HETATM    8  C1  UNL     1     -33.838   8.719   2.131  1.00 20.00     0.034 A 
HETATM    9  C2  UNL     1     -32.829   9.565   1.732  1.00 20.00     0.142 A 
HETATM   10  O10 UNL     1     -31.655   8.889   1.622  1.00 20.00    -0.334 OA
HETATM   11  C3  UNL     1     -31.918   7.598   1.955  1.00 20.00     0.148 A 
ENDBRANCH   4   7
TORSDOF 1
