REMARK  3 active torsions:
REMARK  status: ('A' for Active; 'I' for Inactive)
REMARK    1  A    between atoms: C3_3  and  C4_4 
REMARK    2  A    between atoms: C3_3  and  N5_5 
REMARK    3  A    between atoms: C4_4  and  S7_7 
ROOT
HETATM    1  C1  UNL     1     -33.822   6.629   3.858  1.00 20.00     0.157 C 
HETATM    2  N5  UNL     1     -33.126   7.535   3.586  1.00 20.00    -0.275 NA
HETATM    3  S6  UNL     1     -34.763   5.407   4.257  1.00 20.00    -0.055 SA
ENDROOT
BRANCH   2   4
HETATM    4  C3  UNL     1     -32.847   7.688   2.155  1.00 20.00     0.160 C 
BRANCH   4   5
HETATM    5  C4  UNL     1     -31.970   8.915   1.958  1.00 20.00     0.095 C 
BRANCH   5   6
HETATM    6  S7  UNL     1     -31.574   9.145   0.202  1.00 20.00    -0.172 SA
HETATM    7  C2  UNL     1     -33.099   9.970  -0.306  1.00 20.00     0.089 C 
ENDBRANCH   5   6
ENDBRANCH   4   5
ENDBRANCH   2   4
TORSDOF 3
