REMARK  4 active torsions:
REMARK  status: ('A' for Active; 'I' for Inactive)
REMARK    1  A    between atoms: C1_1  and  C2_2 
REMARK    2  A    between atoms: C1_1  and  N9_9 
REMARK    3  A    between atoms: C7_7  and  C8_8 
REMARK    4  A    between atoms: C8_8  and  N9_9 
ROOT
HETATM    1  C4  UNL     1     -34.605   6.001   5.638  1.00 20.00     0.038 C 
HETATM    2  C5  UNL     1     -35.568   6.132   3.336  1.00 20.00     0.038 C 
HETATM    3  C8  UNL     1     -34.282   5.896   4.140  1.00 20.00     0.024 C 
ENDROOT
BRANCH   3   4
HETATM    4  C7  UNL     1     -33.684   4.497   3.856  1.00 20.00     0.026 C 
HETATM    5  C3  UNL     1     -33.309   4.239   2.401  1.00 20.00     0.007 C 
ENDBRANCH   3   4
BRANCH   3   6
HETATM    6  N9  UNL     1     -33.314   6.928   3.809  1.00 20.00    -0.383 N 
HETATM    7  C6  UNL     1     -32.732   7.654   4.932  1.00 20.00     0.150 C 
BRANCH   6   8
HETATM    8  C1  UNL     1     -33.133   7.353   2.522  1.00 20.00     0.127 C 
BRANCH   8   9
HETATM    9  C2  UNL     1     -32.444   8.426   2.093  1.00 20.00     0.275 C 
HETATM   10  O10 UNL     1     -32.234   8.880   0.938  1.00 20.00    -0.301 OA
ENDBRANCH   8   9
ENDBRANCH   6   8
ENDBRANCH   3   6
TORSDOF 4
