REMARK  2 active torsions:
REMARK  status: ('A' for Active; 'I' for Inactive)
REMARK    1  A    between atoms: C7_7  and  N9_9 
REMARK    2  A    between atoms: C8_8  and  N9_9 
ROOT
HETATM    1  C1  UNL     1     -33.855   7.534   6.122  1.00 20.00     0.015 C 
HETATM    2  C2  UNL     1     -34.055   7.118   5.013  1.00 20.00    -0.076 C 
HETATM    3  C5  UNL     1     -33.289   5.502   3.326  1.00 20.00     0.063 C 
HETATM    4  C6  UNL     1     -35.726   6.051   3.553  1.00 20.00     0.063 C 
HETATM    5  C8  UNL     1     -34.301   6.606   3.650  1.00 20.00     0.212 C 
ENDROOT
BRANCH   5   6
HETATM    6  N9  UNL     1     -34.149   7.694   2.703  1.00 20.00     0.108 N 
HETATM    7  H24 UNL     1     -34.558   8.546   3.092  1.00 20.00     0.318 HD
BRANCH   6   8
HETATM    8  C7  UNL     1     -32.743   7.938   2.402  1.00 20.00     0.214 C 
HETATM    9  C3  UNL     1     -32.019   8.322   3.685  1.00 20.00     0.042 C 
HETATM   10  C4  UNL     1     -32.646   9.034   1.351  1.00 20.00     0.042 C 
ENDBRANCH   6   8
ENDBRANCH   5   6
TORSDOF 2
