REMARK  4 active torsions:
REMARK  status: ('A' for Active; 'I' for Inactive)
REMARK    1  A    between atoms: C4_4  and  C6_6 
REMARK    2  A    between atoms: C6_6  and  C8_8 
REMARK    3  A    between atoms: C7_7  and  C8_8 
REMARK    4  A    between atoms: C8_8  and  N9_9 
ROOT
HETATM    1  C1  UNL     1     -33.700   5.009   3.518  1.00 20.00     0.158 C 
HETATM    2  N9  UNL     1     -32.918   5.685   2.964  1.00 20.00    -0.270 NA
HETATM    3  S10 UNL     1     -34.737   4.063   4.271  1.00 20.00    -0.055 SA
ENDROOT
BRANCH   2   4
HETATM    4  C8  UNL     1     -33.397   7.036   2.641  1.00 20.00     0.109 C 
BRANCH   4   5
HETATM    5  C6  UNL     1     -32.278   7.792   1.914  1.00 20.00     0.032 C 
BRANCH   5   6
HETATM    6  C4  UNL     1     -32.800   8.970   1.103  1.00 20.00    -0.013 A 
HETATM    7  C2  UNL     1     -32.921  10.330   1.733  1.00 20.00     0.005 A 
HETATM    8  C3  UNL     1     -31.869  10.076   0.689  1.00 20.00     0.005 A 
ENDBRANCH   5   6
ENDBRANCH   4   5
BRANCH   4   9
HETATM    9  C7  UNL     1     -33.777   7.746   3.947  1.00 20.00     0.023 C 
HETATM   10  C5  UNL     1     -32.616   7.885   4.887  1.00 20.00     0.007 C 
ENDBRANCH   4   9
ENDBRANCH   2   4
TORSDOF 4
