REMARK  3 active torsions:
REMARK  status: ('A' for Active; 'I' for Inactive)
REMARK    1  A    between atoms: C1_1  and  C7_7 
REMARK       I    between atoms: C1_1  and  N9_9 
REMARK    2  A    between atoms: C7_7  and  C8_8 
REMARK    3  A    between atoms: N9_9  and  O11_11 
ROOT
HETATM    1  C1  UNL     1     -33.350   7.153   3.653  1.00 20.00     0.247 C 
HETATM    2  C5  UNL     1     -33.016   5.129   2.238  1.00 20.00     0.189 C 
HETATM    3  N9  UNL     1     -33.701   5.878   3.276  1.00 20.00    -0.231 N 
HETATM    4  O10 UNL     1     -33.946   7.773   4.539  1.00 20.00    -0.271 OA
ENDROOT
BRANCH   1   5
HETATM    5  C7  UNL     1     -32.176   7.802   2.901  1.00 20.00     0.079 C 
HETATM    6  C2  UNL     1     -31.380   8.708   3.847  1.00 20.00     0.020 C 
BRANCH   5   7
HETATM    7  C8  UNL     1     -32.683   8.518   1.620  1.00 20.00    -0.010 C 
HETATM    8  C3  UNL     1     -31.561   8.675   0.589  1.00 20.00     0.010 C 
HETATM    9  C4  UNL     1     -33.329   9.880   1.893  1.00 20.00     0.010 C 
ENDBRANCH   5   7
ENDBRANCH   1   5
BRANCH   3  10
HETATM   10  O11 UNL     1     -34.763   5.160   3.855  1.00 20.00    -0.281 OA
HETATM   11  C6  UNL     1     -34.272   4.417   4.968  1.00 20.00     0.238 C 
ENDBRANCH   3  10
TORSDOF 3
