REMARK  3 active torsions:
REMARK  status: ('A' for Active; 'I' for Inactive)
REMARK    1  A    between atoms: C2_2  and  C3_3 
REMARK    2  A    between atoms: C3_3  and  C11_11 
REMARK    3  A    between atoms: C11_11  and  C12_12 
ROOT
HETATM    1  C3  UNL     1     -33.545   7.549   2.322  1.00 20.00     0.159 C 
HETATM    2  O13 UNL     1     -34.480   7.779   1.560  1.00 20.00    -0.292 OA
ENDROOT
BRANCH   1   3
HETATM    3  C2  UNL     1     -33.800   6.864   3.592  1.00 20.00    -0.016 C 
HETATM    4  C1  UNL     1     -34.072   7.621   4.665  1.00 20.00    -0.016 C 
HETATM    5  C4  UNL     1     -34.341   7.034   6.021  1.00 20.00     0.028 C 
HETATM    6  C6  UNL     1     -33.971   5.552   6.124  1.00 20.00     0.004 C 
HETATM    7  C7  UNL     1     -34.404   4.782   4.879  1.00 20.00     0.005 C 
HETATM    8  C5  UNL     1     -33.765   5.366   3.615  1.00 20.00     0.042 C 
ENDBRANCH   1   3
BRANCH   1   9
HETATM    9  C11 UNL     1     -32.098   7.931   2.014  1.00 20.00     0.059 C 
HETATM   10  C8  UNL     1     -31.304   8.081   3.314  1.00 20.00     0.018 C 
BRANCH   9  11
HETATM   11  C12 UNL     1     -32.050   9.169   1.085  1.00 20.00    -0.012 C 
HETATM   12  C9  UNL     1     -32.254   8.834  -0.396  1.00 20.00     0.010 C 
HETATM   13  C10 UNL     1     -33.064  10.233   1.518  1.00 20.00     0.010 C 
ENDBRANCH   9  11
ENDBRANCH   1   9
TORSDOF 3
