REMARK  4 active torsions:
REMARK  status: ('A' for Active; 'I' for Inactive)
REMARK    1  A    between atoms: C4_4  and  C6_6 
REMARK    2  A    between atoms: C6_6  and  C8_8 
REMARK    3  A    between atoms: C7_7  and  C8_8 
REMARK    4  A    between atoms: C8_8  and  N9_9 
ROOT
HETATM    1  C1  UNL     1     -34.396   6.806   4.552  1.00 20.00     0.158 C 
HETATM    2  N9  UNL     1     -34.712   6.619   3.438  1.00 20.00    -0.270 NA
HETATM    3  S10 UNL     1     -34.001   7.056   6.074  1.00 20.00    -0.055 SA
ENDROOT
BRANCH   2   4
HETATM    4  C8  UNL     1     -33.606   6.664   2.471  1.00 20.00     0.109 C 
BRANCH   4   5
HETATM    5  C6  UNL     1     -32.964   8.055   2.525  1.00 20.00     0.032 C 
BRANCH   5   6
HETATM    6  C4  UNL     1     -32.178   8.385   1.263  1.00 20.00    -0.013 A 
HETATM    7  C2  UNL     1     -32.857   9.055   0.101  1.00 20.00     0.005 A 
HETATM    8  C3  UNL     1     -31.854   9.813   0.925  1.00 20.00     0.005 A 
ENDBRANCH   5   6
ENDBRANCH   4   5
BRANCH   4   9
HETATM    9  C7  UNL     1     -32.589   5.577   2.841  1.00 20.00     0.023 C 
HETATM   10  C5  UNL     1     -33.189   4.201   2.834  1.00 20.00     0.007 C 
ENDBRANCH   4   9
ENDBRANCH   2   4
TORSDOF 4
