REMARK  3 active torsions:
REMARK  status: ('A' for Active; 'I' for Inactive)
REMARK    1  A    between atoms: C2_2  and  C6_6 
REMARK    2  A    between atoms: C2_2  and  C7_7 
REMARK    3  A    between atoms: C7_7  and  C8_8 
ROOT
HETATM    1  C1  UNL     1     -32.320   8.907   1.121  1.00 20.00     0.066 C 
HETATM    2  C6  UNL     1     -32.125   8.140   2.356  1.00 20.00     0.202 C 
HETATM    3  N9  UNL     1     -32.471   9.517   0.145  1.00 20.00    -0.197 NA
ENDROOT
BRANCH   2   4
HETATM    4  C2  UNL     1     -33.368   7.370   2.763  1.00 20.00     0.143 C 
HETATM    5  O10 UNL     1     -34.503   7.734   2.455  1.00 20.00    -0.297 OA
BRANCH   4   6
HETATM    6  C7  UNL     1     -33.132   6.083   3.557  1.00 20.00     0.055 C 
HETATM    7  C3  UNL     1     -32.912   4.958   2.546  1.00 20.00     0.018 C 
BRANCH   6   8
HETATM    8  C8  UNL     1     -34.300   5.814   4.538  1.00 20.00    -0.012 C 
HETATM    9  C4  UNL     1     -34.178   6.694   5.790  1.00 20.00     0.010 C 
HETATM   10  C5  UNL     1     -34.372   4.345   4.969  1.00 20.00     0.010 C 
ENDBRANCH   6   8
ENDBRANCH   4   6
ENDBRANCH   2   4
TORSDOF 3
