REMARK  3 active torsions:
REMARK  status: ('A' for Active; 'I' for Inactive)
REMARK    1  A    between atoms: C4_4  and  C8_8 
REMARK    2  A    between atoms: C8_8  and  N10_10 
REMARK    3  A    between atoms: C9_9  and  N10_10 
ROOT
HETATM    1  C1  UNL     1     -36.879   6.304   3.247  1.00 20.00     0.015 C 
HETATM    2  C2  UNL     1     -35.749   6.204   3.639  1.00 20.00    -0.076 C 
HETATM    3  C6  UNL     1     -34.319   6.306   5.637  1.00 20.00     0.063 C 
HETATM    4  C7  UNL     1     -33.815   4.687   3.788  1.00 20.00     0.063 C 
HETATM    5  C9  UNL     1     -34.358   6.081   4.122  1.00 20.00     0.212 C 
ENDROOT
BRANCH   5   6
HETATM    6  N10 UNL     1     -33.540   7.081   3.464  1.00 20.00     0.115 N 
HETATM    7  H23 UNL     1     -32.575   7.003   3.792  1.00 20.00     0.319 HD
BRANCH   6   8
HETATM    8  C8  UNL     1     -33.562   6.911   2.015  1.00 20.00     0.365 C 
BRANCH   8   9
HETATM    9  C4  UNL     1     -33.172   8.150   1.336  1.00 20.00    -0.077 C 
HETATM   10  C3  UNL     1     -32.854   9.163   0.775  1.00 20.00    -0.109 C 
HETATM   11  C5  UNL     1     -32.466  10.397   0.092  1.00 20.00     0.112 C 
ENDBRANCH   8   9
ENDBRANCH   6   8
ENDBRANCH   5   6
TORSDOF 3
