REMARK  3 active torsions:
REMARK  status: ('A' for Active; 'I' for Inactive)
REMARK    1  A    between atoms: C7_7  and  C8_8 
REMARK    2  A    between atoms: C8_8  and  N11_11 
REMARK    3  A    between atoms: C9_9  and  N11_11 
ROOT
HETATM    1  C1  UNL     1     -33.849   7.249   6.045  1.00 20.00     0.015 C 
HETATM    2  C2  UNL     1     -33.990   6.554   5.076  1.00 20.00    -0.076 C 
HETATM    3  C5  UNL     1     -33.818   4.249   4.238  1.00 20.00     0.063 C 
HETATM    4  C6  UNL     1     -35.612   5.784   3.392  1.00 20.00     0.063 C 
HETATM    5  C9  UNL     1     -34.164   5.699   3.884  1.00 20.00     0.213 C 
ENDROOT
BRANCH   5   6
HETATM    6  N11 UNL     1     -33.277   6.165   2.836  1.00 20.00     0.122 N 
HETATM    7  H25 UNL     1     -32.332   5.815   3.006  1.00 20.00     0.319 HD
BRANCH   6   8
HETATM    8  C8  UNL     1     -33.239   7.622   2.785  1.00 20.00     0.327 C 
HETATM    9  C3  UNL     1     -32.331   8.152   3.812  1.00 20.00     0.095 C 
HETATM   10  N10 UNL     1     -31.617   8.571   4.626  1.00 20.00    -0.195 NA
BRANCH   8  11
HETATM   11  C7  UNL     1     -32.887   8.124   1.379  1.00 20.00     0.046 C 
HETATM   12  C4  UNL     1     -32.925   9.640   1.216  1.00 20.00     0.008 C 
ENDBRANCH   8  11
ENDBRANCH   6   8
ENDBRANCH   5   6
TORSDOF 3
