REMARK  3 active torsions:
REMARK  status: ('A' for Active; 'I' for Inactive)
REMARK    1  A    between atoms: C4_4  and  C6_6 
REMARK    2  A    between atoms: C6_6  and  C7_7 
REMARK    3  A    between atoms: C7_7  and  N8_8 
ROOT
HETATM    1  C1  UNL     1     -35.500   6.068   3.524  1.00 20.00     0.158 C 
HETATM    2  N8  UNL     1     -34.376   6.101   3.861  1.00 20.00    -0.271 NA
HETATM    3  S9  UNL     1     -37.025   5.990   3.074  1.00 20.00    -0.055 SA
ENDROOT
BRANCH   2   4
HETATM    4  C7  UNL     1     -33.740   7.419   3.747  1.00 20.00     0.106 C 
HETATM    5  C5  UNL     1     -32.695   7.535   4.849  1.00 20.00     0.034 C 
BRANCH   4   6
HETATM    6  C6  UNL     1     -33.101   7.552   2.362  1.00 20.00     0.031 C 
BRANCH   6   7
HETATM    7  C4  UNL     1     -32.421   8.900   2.161  1.00 20.00    -0.013 A 
HETATM    8  C2  UNL     1     -32.129   9.402   0.774  1.00 20.00     0.005 A 
HETATM    9  C3  UNL     1     -33.195  10.062   1.603  1.00 20.00     0.005 A 
ENDBRANCH   6   7
ENDBRANCH   4   6
ENDBRANCH   2   4
TORSDOF 3
