REMARK  2 active torsions:
REMARK  status: ('A' for Active; 'I' for Inactive)
REMARK    1  A    between atoms: C4_4  and  C5_5 
REMARK    2  A    between atoms: C5_5  and  N6_6 
ROOT
HETATM    1  C1  UNL     1     -32.218   7.601   2.275  1.00 20.00     0.012 C 
HETATM    2  C2  UNL     1     -32.502   7.485   3.436  1.00 20.00    -0.116 C 
HETATM    3  C4  UNL     1     -32.846   7.345   4.859  1.00 20.00     0.115 C 
ENDROOT
BRANCH   3   4
HETATM    4  C5  UNL     1     -34.268   6.833   5.052  1.00 20.00     0.162 C 
BRANCH   4   5
HETATM    5  N6  UNL     1     -34.404   5.507   4.443  1.00 20.00    -0.275 NA
HETATM    6  C3  UNL     1     -35.458   5.008   4.579  1.00 20.00     0.157 C 
HETATM    7  S7  UNL     1     -36.878   4.306   4.748  1.00 20.00    -0.055 SA
ENDBRANCH   4   5
ENDBRANCH   3   4
TORSDOF 2
