REMARK  1 active torsions:
REMARK  status: ('A' for Active; 'I' for Inactive)
REMARK    1  A    between atoms: C7_7  and  N9_9 
ROOT
HETATM    1  C1  UNL     1     -32.291   8.698   1.928  1.00 20.00     0.089 C 
HETATM    2  C7  UNL     1     -31.826   8.226   3.230  1.00 20.00     0.396 C 
HETATM    3  N8  UNL     1     -32.658   9.077   0.894  1.00 20.00    -0.195 NA
ENDROOT
BRANCH   2   4
HETATM    4  N9  UNL     1     -32.512   6.990   3.612  1.00 20.00     0.107 N 
HETATM    5  C2  UNL     1     -32.671   6.106   2.457  1.00 20.00     0.284 C 
HETATM    6  C3  UNL     1     -33.054   4.690   2.887  1.00 20.00     0.104 C 
HETATM    7  S10 UNL     1     -34.542   4.600   3.928  1.00 20.00    -0.165 SA
HETATM    8  C4  UNL     1     -34.961   6.364   3.976  1.00 20.00     0.109 C 
HETATM    9  C5  UNL     1     -33.771   7.275   4.331  1.00 20.00     0.229 C 
HETATM   10  C6  UNL     1     -33.478   7.231   5.838  1.00 20.00     0.043 C 
ENDBRANCH   2   4
TORSDOF 1
