REMARK  1 active torsions:
REMARK  status: ('A' for Active; 'I' for Inactive)
REMARK    1  A    between atoms: C6_6  and  C7_7 
ROOT
HETATM    1  C3  UNL     1     -33.504   7.091   4.865  1.00 20.00     0.046 C 
HETATM    2  C4  UNL     1     -33.409   6.756   2.378  1.00 20.00     0.052 C 
HETATM    3  C5  UNL     1     -32.342   8.084   4.781  1.00 20.00     0.169 C 
HETATM    4  C7  UNL     1     -32.758   8.147   2.440  1.00 20.00     0.126 C 
HETATM    5  C8  UNL     1     -33.411   6.065   3.745  1.00 20.00     0.086 C 
HETATM    6  O9  UNL     1     -31.771   8.174   3.473  1.00 20.00    -0.385 OA
HETATM    7 CL10 UNL     1     -34.745   4.888   3.850  1.00 20.00    -0.125 Cl
ENDROOT
BRANCH   4   8
HETATM    8  C6  UNL     1     -32.109   8.516   1.140  1.00 20.00     0.015 A 
HETATM    9  C1  UNL     1     -32.937   9.061   0.008  1.00 20.00     0.007 A 
HETATM   10  C2  UNL     1     -31.981   9.961   0.742  1.00 20.00     0.007 A 
ENDBRANCH   4   8
TORSDOF 1
