REMARK  1 active torsions:
REMARK  status: ('A' for Active; 'I' for Inactive)
REMARK    1  A    between atoms: C4_4  and  S9_9 
ROOT
HETATM    1  C1  UNL     1     -32.993   6.335   1.797  1.00 20.00     0.041 C 
HETATM    2  C2  UNL     1     -33.627   7.351   4.000  1.00 20.00     0.052 C 
HETATM    3  C3  UNL     1     -33.297   4.942   2.344  1.00 20.00     0.170 C 
HETATM    4  C4  UNL     1     -32.548   7.267   2.915  1.00 20.00     0.049 C 
HETATM    5  C5  UNL     1     -34.279   5.978   4.298  1.00 20.00     0.054 C 
HETATM    6  C6  UNL     1     -35.720   5.905   3.768  1.00 20.00     0.045 C 
HETATM    7  C7  UNL     1     -34.317   5.743   5.815  1.00 20.00     0.045 C 
HETATM    8  O8  UNL     1     -33.489   4.912   3.757  1.00 20.00    -0.381 OA
ENDROOT
BRANCH   4   9
HETATM    9  S9  UNL     1     -32.171   8.926   2.261  1.00 20.00    -0.177 SA
HETATM   10  H23 UNL     1     -31.831   9.460   3.442  1.00 20.00     0.102 HD
ENDBRANCH   4   9
TORSDOF 1
