REMARK  0 active torsions:
REMARK  status: ('A' for Active; 'I' for Inactive)
ROOT
HETATM    1  C1  UNL     1     -33.150   7.884   5.263  1.00 20.00     0.046 C 
HETATM    2  C2  UNL     1     -33.200   6.177   3.433  1.00 20.00     0.057 C 
HETATM    3  C3  UNL     1     -34.396   7.224   5.837  1.00 20.00     0.170 C 
HETATM    4  C4  UNL     1     -33.081   7.666   3.755  1.00 20.00     0.087 C 
HETATM    5  C5  UNL     1     -34.433   5.538   4.103  1.00 20.00     0.055 C 
HETATM    6  C6  UNL     1     -34.327   4.010   4.001  1.00 20.00     0.045 C 
HETATM    7  C7  UNL     1     -35.746   5.975   3.437  1.00 20.00     0.045 C 
HETATM    8  O8  UNL     1     -34.451   5.838   5.508  1.00 20.00    -0.381 OA
HETATM    9 CL9  UNL     1     -31.549   8.316   3.109  1.00 20.00    -0.125 Cl
ENDROOT
TORSDOF 0
