REMARK  1 active torsions:
REMARK  status: ('A' for Active; 'I' for Inactive)
REMARK    1  A    between atoms: C4_4  and  S9_9 
ROOT
HETATM    1  C1  UNL     1     -32.284   7.711   4.341  1.00 20.00     0.041 C 
HETATM    2  C2  UNL     1     -33.028   5.734   2.958  1.00 20.00     0.052 C 
HETATM    3  C3  UNL     1     -33.609   7.594   5.080  1.00 20.00     0.170 C 
HETATM    4  C4  UNL     1     -32.337   7.103   2.941  1.00 20.00     0.049 C 
HETATM    5  C5  UNL     1     -34.271   5.614   3.868  1.00 20.00     0.054 C 
HETATM    6  C6  UNL     1     -34.506   4.125   4.179  1.00 20.00     0.045 C 
HETATM    7  C7  UNL     1     -35.555   6.150   3.220  1.00 20.00     0.045 C 
HETATM    8  O8  UNL     1     -34.046   6.240   5.138  1.00 20.00    -0.381 OA
ENDROOT
BRANCH   4   9
HETATM    9  S9  UNL     1     -33.068   8.251   1.719  1.00 20.00    -0.177 SA
HETATM   10  H23 UNL     1     -32.156   9.218   1.883  1.00 20.00     0.102 HD
ENDBRANCH   4   9
TORSDOF 1
