REMARK  1 active torsions:
REMARK  status: ('A' for Active; 'I' for Inactive)
REMARK    1  A    between atoms: C5_5  and  C7_7 
ROOT
HETATM    1  C1  UNL     1     -34.769   5.374   3.459  1.00 20.00     0.046 C 
HETATM    2  C2  UNL     1     -33.964   7.751   3.369  1.00 20.00     0.052 C 
HETATM    3  C3  UNL     1     -33.452   4.895   2.843  1.00 20.00     0.169 C 
HETATM    4  C4  UNL     1     -34.604   6.669   4.246  1.00 20.00     0.086 C 
HETATM    5  C5  UNL     1     -33.091   7.168   2.246  1.00 20.00     0.122 C 
HETATM    6  O8  UNL     1     -32.495   5.943   2.669  1.00 20.00    -0.386 OA
HETATM    7 CL9  UNL     1     -33.596   6.372   5.701  1.00 20.00    -0.125 Cl
ENDROOT
BRANCH   5   8
HETATM    8  C7  UNL     1     -31.981   8.130   1.849  1.00 20.00     0.027 C 
HETATM    9  C6  UNL     1     -32.525   9.426   1.337  1.00 20.00     0.007 C 
ENDBRANCH   5   8
TORSDOF 1
