REMARK  2 active torsions:
REMARK  status: ('A' for Active; 'I' for Inactive)
REMARK    1  A    between atoms: C6_6  and  C8_8 
REMARK    2  A    between atoms: C7_7  and  O11_11 
ROOT
HETATM    1  C3  UNL     1     -32.323   8.850   2.544  1.00 20.00     0.058 C 
HETATM    2  C4  UNL     1     -32.683   7.323   4.487  1.00 20.00     0.069 C 
HETATM    3  C5  UNL     1     -33.218   7.934   1.727  1.00 20.00     0.171 C 
HETATM    4  C7  UNL     1     -31.641   8.077   3.665  1.00 20.00     0.123 C 
HETATM    5  C8  UNL     1     -33.625   6.470   3.614  1.00 20.00     0.063 C 
HETATM    6  C9  UNL     1     -32.912   5.231   3.048  1.00 20.00     0.046 C 
HETATM    7  O10 UNL     1     -34.171   7.265   2.549  1.00 20.00    -0.380 OA
ENDROOT
BRANCH   5   8
HETATM    8  C6  UNL     1     -34.800   6.009   4.456  1.00 20.00     0.020 A 
HETATM    9  C1  UNL     1     -34.778   4.656   5.112  1.00 20.00     0.008 A 
HETATM   10  C2  UNL     1     -34.665   5.900   5.949  1.00 20.00     0.008 A 
ENDBRANCH   5   8
BRANCH   4  11
HETATM   11  O11 UNL     1     -30.942   8.976   4.519  1.00 20.00    -0.395 OA
HETATM   12  H27 UNL     1     -30.528   8.437   5.212  1.00 20.00     0.210 HD
ENDBRANCH   4  11
TORSDOF 2
