REMARK  0 active torsions:
REMARK  status: ('A' for Active; 'I' for Inactive)
ROOT
HETATM    1  C1  UNL     1     -32.490   5.958   2.099  1.00 20.00     0.046 C 
HETATM    2  C2  UNL     1     -33.605   7.036   4.063  1.00 20.00     0.057 C 
HETATM    3  C3  UNL     1     -33.318   4.713   2.382  1.00 20.00     0.170 C 
HETATM    4  C4  UNL     1     -33.217   7.203   2.594  1.00 20.00     0.087 C 
HETATM    5  C5  UNL     1     -34.373   5.722   4.311  1.00 20.00     0.055 C 
HETATM    6  C6  UNL     1     -34.459   5.467   5.822  1.00 20.00     0.045 C 
HETATM    7  C7  UNL     1     -35.801   5.769   3.748  1.00 20.00     0.045 C 
HETATM    8  O8  UNL     1     -33.647   4.609   3.766  1.00 20.00    -0.381 OA
HETATM    9 CL9  UNL     1     -32.182   8.643   2.390  1.00 20.00    -0.125 Cl
ENDROOT
TORSDOF 0
