REMARK  0 active torsions:
REMARK  status: ('A' for Active; 'I' for Inactive)
ROOT
HETATM    1  C1  UNL     1     -35.889   5.886   3.888  1.00 20.00     0.085 C 
HETATM    2  C2  UNL     1     -33.806   6.072   5.227  1.00 20.00     0.067 C 
HETATM    3  C3  UNL     1     -33.711   6.230   2.719  1.00 20.00     0.078 C 
HETATM    4  C4  UNL     1     -33.640   7.587   5.262  1.00 20.00     0.171 C 
HETATM    5  C5  UNL     1     -34.444   5.606   3.916  1.00 20.00     0.130 C 
HETATM    6  C6  UNL     1     -33.437   7.748   2.860  1.00 20.00     0.056 C 
HETATM    7  C7  UNL     1     -34.676   8.615   2.590  1.00 20.00     0.045 C 
HETATM    8  C8  UNL     1     -32.359   8.149   1.839  1.00 20.00     0.045 C 
HETATM    9  N9  UNL     1     -37.028   6.107   3.865  1.00 20.00    -0.195 NA
HETATM   10  O10 UNL     1     -32.881   8.048   4.148  1.00 20.00    -0.381 OA
HETATM   11 CL11 UNL     1     -34.320   3.812   3.810  1.00 20.00    -0.103 Cl
ENDROOT
TORSDOF 0
