REMARK  1 active torsions:
REMARK  status: ('A' for Active; 'I' for Inactive)
REMARK    1  A    between atoms: C6_6  and  C8_8 
ROOT
HETATM    1  C3  UNL     1     -34.278   5.245   3.554  1.00 20.00     0.046 C 
HETATM    2  C4  UNL     1     -34.295   7.748   3.784  1.00 20.00     0.058 C 
HETATM    3  C5  UNL     1     -32.820   5.363   3.136  1.00 20.00     0.170 C 
HETATM    4  C7  UNL     1     -34.717   6.421   4.419  1.00 20.00     0.087 C 
HETATM    5  C8  UNL     1     -32.860   7.781   3.198  1.00 20.00     0.062 C 
HETATM    6  C9  UNL     1     -31.778   7.999   4.270  1.00 20.00     0.046 C 
HETATM    7  O10 UNL     1     -32.582   6.589   2.451  1.00 20.00    -0.380 OA
HETATM    8 CL11 UNL     1     -34.086   6.259   6.084  1.00 20.00    -0.125 Cl
ENDROOT
BRANCH   5   9
HETATM    9  C6  UNL     1     -32.771   8.934   2.209  1.00 20.00     0.020 A 
HETATM   10  C1  UNL     1     -31.754   8.906   1.102  1.00 20.00     0.008 A 
HETATM   11  C2  UNL     1     -33.214   8.744   0.785  1.00 20.00     0.008 A 
ENDBRANCH   5   9
TORSDOF 1
