REMARK  2 active torsions:
REMARK  status: ('A' for Active; 'I' for Inactive)
REMARK    1  A    between atoms: C4_4  and  O10_10 
REMARK    2  A    between atoms: C5_5  and  C8_8 
ROOT
HETATM    1  C1  UNL     1     -34.383   4.946   5.695  1.00 20.00     0.058 C 
HETATM    2  C2  UNL     1     -33.570   5.359   3.356  1.00 20.00     0.069 C 
HETATM    3  C3  UNL     1     -34.242   6.441   5.942  1.00 20.00     0.171 C 
HETATM    4  C4  UNL     1     -34.617   4.653   4.218  1.00 20.00     0.123 C 
HETATM    5  C5  UNL     1     -33.338   6.840   3.734  1.00 20.00     0.059 C 
HETATM    6  C6  UNL     1     -34.420   7.759   3.203  1.00 20.00     0.046 C 
HETATM    7  O9  UNL     1     -33.194   6.999   5.155  1.00 20.00    -0.380 OA
ENDROOT
BRANCH   5   8
HETATM    8  C8  UNL     1     -31.993   7.291   3.133  1.00 20.00     0.033 C 
HETATM    9  C7  UNL     1     -31.703   8.716   3.459  1.00 20.00     0.008 C 
ENDBRANCH   5   8
BRANCH   4  10
HETATM   10  O10 UNL     1     -35.920   5.076   3.832  1.00 20.00    -0.395 OA
HETATM   11  H26 UNL     1     -36.548   4.579   4.380  1.00 20.00     0.210 HD
ENDBRANCH   4  10
TORSDOF 2
