REMARK  2 active torsions:
REMARK  status: ('A' for Active; 'I' for Inactive)
REMARK    1  A    between atoms: C5_5  and  C8_8 
REMARK    2  A    between atoms: C5_5  and  C9_9 
ROOT
HETATM    1  C1  UNL     1     -31.869   8.854   2.950  1.00 20.00     0.046 C 
HETATM    2  C2  UNL     1     -33.524   7.149   2.163  1.00 20.00     0.058 C 
HETATM    3  C3  UNL     1     -31.885   8.163   4.306  1.00 20.00     0.170 C 
HETATM    4  C4  UNL     1     -32.210   7.861   1.844  1.00 20.00     0.087 C 
HETATM    5  C5  UNL     1     -33.518   6.535   3.577  1.00 20.00     0.061 C 
HETATM    6  O10 UNL     1     -33.134   7.520   4.549  1.00 20.00    -0.380 OA
HETATM    7 CL11 UNL     1     -32.331   8.704   0.275  1.00 20.00    -0.125 Cl
ENDROOT
BRANCH   5   8
HETATM    8  C8  UNL     1     -34.947   6.113   3.948  1.00 20.00     0.033 C 
HETATM    9  C6  UNL     1     -35.000   5.511   5.311  1.00 20.00     0.008 C 
ENDBRANCH   5   8
BRANCH   5  10
HETATM   10  C9  UNL     1     -32.613   5.298   3.668  1.00 20.00     0.033 C 
HETATM   11  C7  UNL     1     -33.057   4.229   2.729  1.00 20.00     0.008 C 
ENDBRANCH   5  10
TORSDOF 2
