REMARK  0 active torsions:
REMARK  status: ('A' for Active; 'I' for Inactive)
ROOT
HETATM    1  C1  UNL     1     -33.158   4.497   5.189  1.00 20.00     0.000 C 
HETATM    2  C2  UNL     1     -33.977   5.398   6.102  1.00 20.00     0.000 C 
HETATM    3  C3  UNL     1     -33.656   4.404   3.752  1.00 20.00     0.003 C 
HETATM    4  C4  UNL     1     -33.564   6.863   5.998  1.00 20.00     0.003 C 
HETATM    5  C5  UNL     1     -34.275   5.653   3.122  1.00 20.00     0.038 C 
HETATM    6  C6  UNL     1     -34.034   7.588   4.739  1.00 20.00     0.038 C 
HETATM    7  C7  UNL     1     -31.645   8.887   2.214  1.00 20.00     0.046 C 
HETATM    8  C8  UNL     1     -33.976   7.972   2.227  1.00 20.00     0.058 C 
HETATM    9  C9  UNL     1     -31.343   7.956   3.379  1.00 20.00     0.170 C 
HETATM   10  C10 UNL     1     -33.126   9.244   2.196  1.00 20.00     0.087 C 
HETATM   11  C11 UNL     1     -33.569   7.009   3.377  1.00 20.00     0.062 C 
HETATM   12  O12 UNL     1     -32.154   6.785   3.330  1.00 20.00    -0.380 OA
HETATM   13 CL13 UNL     1     -33.509  10.206   0.741  1.00 20.00    -0.125 Cl
ENDROOT
TORSDOF 0
