REMARK  3 active torsions:
REMARK  status: ('A' for Active; 'I' for Inactive)
REMARK    1  A    between atoms: C4_4  and  N8_8 
REMARK    2  A    between atoms: C6_6  and  C7_7 
REMARK    3  A    between atoms: C6_6  and  N8_8 
ROOT
HETATM    1  C1  UNL     1     -33.474   5.360   3.273  1.00 20.00     0.064 C 
HETATM    2  C2  UNL     1     -34.225   4.503   4.266  1.00 20.00     0.170 C 
HETATM    3  C3  UNL     1     -34.279   6.704   5.029  1.00 20.00     0.203 C 
HETATM    4  C4  UNL     1     -34.075   6.724   3.525  1.00 20.00     0.248 C 
HETATM    5  O9  UNL     1     -34.492   5.334   5.404  1.00 20.00    -0.389 OA
ENDROOT
BRANCH   4   6
HETATM    6  N8  UNL     1     -33.243   7.803   3.080  1.00 20.00     0.092 N 
HETATM    7  C5  UNL     1     -31.954   7.771   3.769  1.00 20.00     0.310 C 
BRANCH   6   8
HETATM    8  C6  UNL     1     -33.053   7.736   1.632  1.00 20.00     0.287 C 
BRANCH   8   9
HETATM    9  C7  UNL     1     -32.691   9.083   1.028  1.00 20.00     0.144 C 
HETATM   10 CL10 UNL     1     -32.472   8.964  -0.735  1.00 20.00    -0.129 Cl
ENDBRANCH   8   9
ENDBRANCH   6   8
ENDBRANCH   4   6
TORSDOF 3
