REMARK  2 active torsions:
REMARK  status: ('A' for Active; 'I' for Inactive)
REMARK    1  A    between atoms: C4_4  and  S10_10 
REMARK    2  A    between atoms: C5_5  and  C8_8 
ROOT
HETATM    1  C1  UNL     1     -31.876   8.688   2.325  1.00 20.00     0.041 C 
HETATM    2  C2  UNL     1     -33.987   7.437   1.820  1.00 20.00     0.052 C 
HETATM    3  C3  UNL     1     -31.599   7.665   3.419  1.00 20.00     0.170 C 
HETATM    4  C4  UNL     1     -32.726   8.065   1.219  1.00 20.00     0.049 C 
HETATM    5  C5  UNL     1     -33.655   6.473   2.978  1.00 20.00     0.058 C 
HETATM    6  C6  UNL     1     -33.019   5.166   2.482  1.00 20.00     0.046 C 
HETATM    7  O9  UNL     1     -32.808   7.119   3.941  1.00 20.00    -0.381 OA
ENDROOT
BRANCH   5   8
HETATM    8  C8  UNL     1     -34.950   6.123   3.727  1.00 20.00     0.033 C 
HETATM    9  C7  UNL     1     -34.687   5.191   4.860  1.00 20.00     0.008 C 
ENDBRANCH   5   8
BRANCH   4  10
HETATM   10  S10 UNL     1     -33.178   9.325  -0.019  1.00 20.00    -0.177 SA
HETATM   11  H26 UNL     1     -33.880   8.497  -0.803  1.00 20.00     0.102 HD
ENDBRANCH   4  10
TORSDOF 2
