REMARK  0 active torsions:
REMARK  status: ('A' for Active; 'I' for Inactive)
ROOT
HETATM    1  C1  UNL     1     -32.870   8.290   1.046  1.00 20.00     0.088 C 
HETATM    2  C2  UNL     1     -32.693   7.608   3.350  1.00 20.00    -0.065 C 
HETATM    3  C3  UNL     1     -32.701   8.577   2.424  1.00 20.00     0.096 C 
HETATM    4  C4  UNL     1     -32.517   7.872   4.818  1.00 20.00     0.061 C 
HETATM    5  C5  UNL     1     -32.884   6.152   3.022  1.00 20.00     0.072 C 
HETATM    6  C6  UNL     1     -33.655   7.216   5.593  1.00 20.00     0.173 C 
HETATM    7  C7  UNL     1     -34.004   5.538   3.888  1.00 20.00     0.057 C 
HETATM    8  C8  UNL     1     -33.954   4.008   3.763  1.00 20.00     0.046 C 
HETATM    9  C9  UNL     1     -35.400   6.012   3.455  1.00 20.00     0.046 C 
HETATM   10  N10 UNL     1     -33.008   8.062  -0.083  1.00 20.00    -0.192 NA
HETATM   11  O11 UNL     1     -33.771   5.825   5.280  1.00 20.00    -0.380 OA
ENDROOT
TORSDOF 0
