REMARK  2 active torsions:
REMARK  status: ('A' for Active; 'I' for Inactive)
REMARK    1  A    between atoms: C5_5  and  C8_8 
REMARK    2  A    between atoms: C8_8  and  C9_9 
ROOT
HETATM    1  C1  UNL     1     -34.641   5.819   3.382  1.00 20.00     0.046 C 
HETATM    2  C2  UNL     1     -33.170   7.453   4.577  1.00 20.00     0.057 C 
HETATM    3  C3  UNL     1     -33.643   5.753   2.229  1.00 20.00     0.170 C 
HETATM    4  C4  UNL     1     -33.933   6.132   4.690  1.00 20.00     0.087 C 
HETATM    5  C5  UNL     1     -32.432   7.598   3.225  1.00 20.00     0.058 C 
HETATM    6  C6  UNL     1     -30.971   7.998   3.473  1.00 20.00     0.046 C 
HETATM    7  O10 UNL     1     -32.381   6.343   2.534  1.00 20.00    -0.380 OA
HETATM    8 CL11 UNL     1     -35.101   6.202   6.036  1.00 20.00    -0.125 Cl
ENDROOT
BRANCH   5   9
HETATM    9  C8  UNL     1     -33.080   8.673   2.338  1.00 20.00     0.037 C 
BRANCH   9  10
HETATM   10  C9  UNL     1     -32.320   8.830   1.029  1.00 20.00    -0.002 C 
HETATM   11  C7  UNL     1     -32.974   9.877   0.142  1.00 20.00     0.005 C 
ENDBRANCH   9  10
ENDBRANCH   5   9
TORSDOF 2
