REMARK  0 active torsions:
REMARK  status: ('A' for Active; 'I' for Inactive)
ROOT
HETATM    1  C1  UNL     1     -32.417   8.136   2.335  1.00 20.00     0.088 C 
HETATM    2  C2  UNL     1     -33.371   6.016   2.966  1.00 20.00    -0.066 C 
HETATM    3  C3  UNL     1     -32.357   6.724   2.452  1.00 20.00     0.096 C 
HETATM    4  C4  UNL     1     -33.345   4.520   3.106  1.00 20.00     0.061 C 
HETATM    5  C5  UNL     1     -34.636   6.646   3.483  1.00 20.00     0.066 C 
HETATM    6  C6  UNL     1     -33.677   4.138   4.545  1.00 20.00     0.172 C 
HETATM    7  C7  UNL     1     -34.944   6.154   4.904  1.00 20.00     0.121 C 
HETATM    8  C8  UNL     1     -34.050   6.784   5.971  1.00 20.00     0.040 C 
HETATM    9  N9  UNL     1     -32.459   9.291   2.236  1.00 20.00    -0.192 NA
HETATM   10  O10 UNL     1     -34.913   4.720   4.968  1.00 20.00    -0.386 OA
ENDROOT
TORSDOF 0
