REMARK  2 active torsions:
REMARK  status: ('A' for Active; 'I' for Inactive)
REMARK    1  A    between atoms: C5_5  and  C8_8 
REMARK    2  A    between atoms: C5_5  and  O10_10 
ROOT
HETATM    1  C1  UNL     1     -33.678   6.892   4.491  1.00 20.00     0.064 C 
HETATM    2  C2  UNL     1     -33.997   6.976   2.006  1.00 20.00     0.069 C 
HETATM    3  C3  UNL     1     -32.301   7.505   4.268  1.00 20.00     0.171 C 
HETATM    4  C4  UNL     1     -32.595   7.583   1.910  1.00 20.00     0.120 C 
HETATM    5  C5  UNL     1     -34.165   6.110   3.264  1.00 20.00     0.062 C 
HETATM    6  C6  UNL     1     -32.497   8.543   0.731  1.00 20.00     0.039 C 
HETATM    7  O9  UNL     1     -32.295   8.323   3.098  1.00 20.00    -0.386 OA
ENDROOT
BRANCH   5   8
HETATM    8  C8  UNL     1     -33.447   4.764   3.123  1.00 20.00     0.033 C 
HETATM    9  C7  UNL     1     -33.673   3.897   4.316  1.00 20.00     0.008 C 
ENDBRANCH   5   8
BRANCH   5  10
HETATM   10  O10 UNL     1     -35.560   5.836   3.420  1.00 20.00    -0.390 OA
HETATM   11  H26 UNL     1     -35.829   5.344   2.630  1.00 20.00     0.210 HD
ENDBRANCH   5  10
TORSDOF 2
