REMARK  2 active torsions:
REMARK  status: ('A' for Active; 'I' for Inactive)
REMARK    1  A    between atoms: C5_5  and  C8_8 
REMARK    2  A    between atoms: C8_8  and  C9_9 
ROOT
HETATM    1  C1  UNL     1     -34.145   5.132   3.598  1.00 20.00     0.046 C 
HETATM    2  C2  UNL     1     -33.188   7.103   4.811  1.00 20.00     0.052 C 
HETATM    3  C3  UNL     1     -33.599   5.731   2.309  1.00 20.00     0.169 C 
HETATM    4  C4  UNL     1     -34.430   6.237   4.609  1.00 20.00     0.086 C 
HETATM    5  C5  UNL     1     -32.609   7.592   3.479  1.00 20.00     0.123 C 
HETATM    6  O10 UNL     1     -32.432   6.515   2.550  1.00 20.00    -0.386 OA
HETATM    7 CL11 UNL     1     -34.949   5.531   6.165  1.00 20.00    -0.125 Cl
ENDROOT
BRANCH   5   8
HETATM    8  C8  UNL     1     -33.386   8.724   2.865  1.00 20.00     0.035 C 
BRANCH   8   9
HETATM    9  C9  UNL     1     -32.560   9.578   1.889  1.00 20.00    -0.020 C 
HETATM   10  C6  UNL     1     -32.019   8.761   0.714  1.00 20.00     0.009 C 
HETATM   11  C7  UNL     1     -33.413  10.736   1.364  1.00 20.00     0.009 C 
ENDBRANCH   8   9
ENDBRANCH   5   8
TORSDOF 2
