REMARK  1 active torsions:
REMARK  status: ('A' for Active; 'I' for Inactive)
REMARK    1  A    between atoms: C5_5  and  C9_9 
ROOT
HETATM    1  C1  UNL     1     -34.838   5.746   3.090  1.00 20.00     0.046 C 
HETATM    2  C2  UNL     1     -33.765   7.864   3.864  1.00 20.00     0.058 C 
HETATM    3  C3  UNL     1     -33.534   5.312   2.427  1.00 20.00     0.170 C 
HETATM    4  C4  UNL     1     -34.613   6.662   4.283  1.00 20.00     0.087 C 
HETATM    5  C5  UNL     1     -32.610   7.508   2.892  1.00 20.00     0.061 C 
HETATM    6  C6  UNL     1     -31.292   8.085   3.434  1.00 20.00     0.046 C 
HETATM    7  O10 UNL     1     -32.404   6.090   2.815  1.00 20.00    -0.380 OA
HETATM    8 CL11 UNL     1     -33.819   5.765   5.617  1.00 20.00    -0.125 Cl
ENDROOT
BRANCH   5   9
HETATM    9  C9  UNL     1     -32.852   8.074   1.507  1.00 20.00     0.012 C 
HETATM   10  C7  UNL     1     -32.998   9.590   1.574  1.00 20.00     0.012 C 
HETATM   11  C8  UNL     1     -31.718   7.677   0.569  1.00 20.00     0.012 C 
ENDBRANCH   5   9
TORSDOF 1
