REMARK  3 active torsions:
REMARK  status: ('A' for Active; 'I' for Inactive)
REMARK    1  A    between atoms: C1_1  and  C7_7 
REMARK    2  A    between atoms: C1_1  and  C9_9 
REMARK    3  A    between atoms: C8_8  and  C9_9 
ROOT
HETATM    1  C1  UNL     1     -32.559   7.613   2.925  1.00 20.00     0.141 C 
HETATM    2  O10 UNL     1     -31.846   7.948   3.870  1.00 20.00    -0.297 OA
ENDROOT
BRANCH   1   3
HETATM    3  C7  UNL     1     -33.704   6.680   3.120  1.00 20.00     0.116 C 
HETATM    4  C3  UNL     1     -33.286   5.219   3.039  1.00 20.00     0.024 C 
HETATM    5  C2  UNL     1     -34.303   4.431   3.850  1.00 20.00     0.012 C 
HETATM    6  C6  UNL     1     -34.418   5.129   5.194  1.00 20.00     0.075 C 
HETATM    7  S11 UNL     1     -34.346   6.899   4.804  1.00 20.00    -0.157 SA
ENDBRANCH   1   3
BRANCH   1   8
HETATM    8  C9  UNL     1     -32.336   8.110   1.509  1.00 20.00     0.084 C 
BRANCH   8   9
HETATM    9  C8  UNL     1     -33.118   9.375   1.204  1.00 20.00    -0.007 A 
HETATM   10  C4  UNL     1     -32.510  10.724   1.469  1.00 20.00     0.005 A 
HETATM   11  C5  UNL     1     -32.714  10.256   0.055  1.00 20.00     0.005 A 
ENDBRANCH   8   9
ENDBRANCH   1   8
TORSDOF 3
