REMARK  1 active torsions:
REMARK  status: ('A' for Active; 'I' for Inactive)
REMARK    1  A    between atoms: C4_4  and  C5_5 
ROOT
HETATM    1  C1  UNL     1     -34.217   4.578   5.632  1.00 20.00     0.011 C 
HETATM    2  C2  UNL     1     -35.004   5.838   5.296  1.00 20.00     0.017 C 
HETATM    3  C3  UNL     1     -34.082   3.795   4.338  1.00 20.00     0.074 C 
HETATM    4  C4  UNL     1     -34.359   6.466   4.063  1.00 20.00     0.061 C 
HETATM    5  S6  UNL     1     -33.833   5.045   3.047  1.00 20.00    -0.163 SA
ENDROOT
BRANCH   4   6
HETATM    6  C5  UNL     1     -33.155   7.337   4.400  1.00 20.00     0.129 C 
HETATM    7 CL7  UNL     1     -32.126   7.549   2.969  1.00 20.00    -0.129 Cl
ENDBRANCH   4   6
TORSDOF 1
