REMARK  1 active torsions:
REMARK  status: ('A' for Active; 'I' for Inactive)
REMARK    1  A    between atoms: C4_4  and  C5_5 
ROOT
HETATM    1  C1  UNL     1     -34.363   5.868   3.232  1.00 20.00     0.016 C 
HETATM    2  C2  UNL     1     -33.823   4.532   3.715  1.00 20.00     0.074 C 
HETATM    3  C3  UNL     1     -34.634   6.235   5.630  1.00 20.00     0.079 C 
HETATM    4  C4  UNL     1     -34.139   6.895   4.344  1.00 20.00     0.009 C 
HETATM    5  S6  UNL     1     -34.221   4.472   5.483  1.00 20.00    -0.169 SA
ENDROOT
BRANCH   4   6
HETATM    6  C5  UNL     1     -32.681   7.347   4.443  1.00 20.00     0.120 C 
HETATM    7 CL7  UNL     1     -32.160   8.083   2.915  1.00 20.00    -0.130 Cl
ENDBRANCH   4   6
TORSDOF 1
