REMARK  1 active torsions:
REMARK  status: ('A' for Active; 'I' for Inactive)
REMARK    1  A    between atoms: C4_4  and  C5_5 
ROOT
HETATM    1  C1  UNL     1     -33.710   6.678   4.693  1.00 20.00     0.016 C 
HETATM    2  C2  UNL     1     -34.828   5.916   5.383  1.00 20.00     0.074 C 
HETATM    3  C3  UNL     1     -33.535   4.598   3.433  1.00 20.00     0.079 C 
HETATM    4  C4  UNL     1     -33.608   6.115   3.276  1.00 20.00     0.005 C 
HETATM    5  S6  UNL     1     -34.658   4.206   4.803  1.00 20.00    -0.169 SA
ENDROOT
BRANCH   4   6
HETATM    6  C5  UNL     1     -32.423   6.661   2.534  1.00 20.00     0.090 C 
HETATM    7 BR7  UNL     1     -32.864   8.406   1.816  1.00 20.00    -0.096 Br
ENDBRANCH   4   6
TORSDOF 1
