REMARK  2 active torsions:
REMARK  status: ('A' for Active; 'I' for Inactive)
REMARK    1  A    between atoms: C3_3  and  C7_7 
REMARK    2  A    between atoms: C3_3  and  C10_10 
ROOT
HETATM    1  C1  UNL     1     -32.482  10.735   0.936  1.00 20.00     0.012 C 
HETATM    2  C2  UNL     1     -32.330   9.806   1.681  1.00 20.00    -0.110 C 
HETATM    3  C10 UNL     1     -32.135   8.670   2.589  1.00 20.00     0.171 C 
ENDROOT
BRANCH   3   4
HETATM    4  C3  UNL     1     -33.445   8.077   3.066  1.00 20.00     0.144 C 
HETATM    5  O11 UNL     1     -34.544   8.493   2.703  1.00 20.00    -0.297 OA
BRANCH   4   6
HETATM    6  C7  UNL     1     -33.337   6.931   4.024  1.00 20.00     0.087 C 
HETATM    7  C6  UNL     1     -33.375   5.590   3.282  1.00 20.00     0.046 C 
HETATM    8  C8  UNL     1     -34.607   4.925   3.896  1.00 20.00     0.122 C 
HETATM    9  C4  UNL     1     -34.343   4.520   5.346  1.00 20.00     0.034 C 
HETATM   10  O12 UNL     1     -35.479   6.063   4.076  1.00 20.00    -0.380 OA
HETATM   11  C5  UNL     1     -34.348   5.871   6.064  1.00 20.00     0.035 C 
HETATM   12  C9  UNL     1     -34.586   6.843   4.909  1.00 20.00     0.133 C 
ENDBRANCH   4   6
ENDBRANCH   3   4
TORSDOF 2
