REMARK  3 active torsions:
REMARK  status: ('A' for Active; 'I' for Inactive)
REMARK    1  A    between atoms: C1_1  and  C7_7 
REMARK    2  A    between atoms: C1_1  and  C9_9 
REMARK    3  A    between atoms: C8_8  and  C9_9 
ROOT
HETATM    1  C1  UNL     1     -32.354   8.000   3.380  1.00 20.00     0.141 C 
HETATM    2  O10 UNL     1     -31.274   8.311   3.881  1.00 20.00    -0.297 OA
ENDROOT
BRANCH   1   3
HETATM    3  C7  UNL     1     -33.451   7.438   4.213  1.00 20.00     0.116 C 
HETATM    4  C3  UNL     1     -33.064   7.218   5.673  1.00 20.00     0.024 C 
HETATM    5  C2  UNL     1     -34.056   6.206   6.228  1.00 20.00     0.012 C 
HETATM    6  C6  UNL     1     -34.065   5.036   5.258  1.00 20.00     0.075 C 
HETATM    7  S11 UNL     1     -33.926   5.788   3.612  1.00 20.00    -0.157 SA
ENDBRANCH   1   3
BRANCH   1   8
HETATM    8  C9  UNL     1     -32.652   8.160   1.901  1.00 20.00     0.084 C 
BRANCH   8   9
HETATM    9  C8  UNL     1     -31.918   9.335   1.281  1.00 20.00    -0.007 A 
HETATM   10  C4  UNL     1     -32.396   9.928  -0.016  1.00 20.00     0.005 A 
HETATM   11  C5  UNL     1     -32.550  10.700   1.265  1.00 20.00     0.005 A 
ENDBRANCH   8   9
ENDBRANCH   1   8
TORSDOF 3
