REMARK  0 active torsions:
REMARK  status: ('A' for Active; 'I' for Inactive)
ROOT
HETATM    1  C1  UNL     1     -33.797   7.672   5.190  1.00 20.00     0.066 C 
HETATM    2  C2  UNL     1     -34.800   6.238   3.362  1.00 20.00     0.071 C 
HETATM    3  C3  UNL     1     -33.788   6.426   6.067  1.00 20.00     0.171 C 
HETATM    4  C4  UNL     1     -33.247   8.222   2.707  1.00 20.00     0.207 A 
HETATM    5  C5  UNL     1     -34.802   5.070   4.357  1.00 20.00     0.120 C 
HETATM    6  C6  UNL     1     -33.790   7.275   3.748  1.00 20.00     0.086 A 
HETATM    7  C7  UNL     1     -33.650   4.091   4.142  1.00 20.00     0.039 C 
HETATM    8  O8  UNL     1     -34.854   5.542   5.711  1.00 20.00    -0.386 OA
HETATM    9  O9  UNL     1     -32.488   7.096   3.177  1.00 20.00    -0.375 OA
ENDROOT
TORSDOF 0
