REMARK  0 active torsions:
REMARK  status: ('A' for Active; 'I' for Inactive)
ROOT
HETATM    1  C1  UNL     1     -33.608   6.229   5.712  1.00 20.00     0.066 C 
HETATM    2  C2  UNL     1     -33.014   5.732   3.301  1.00 20.00     0.071 C 
HETATM    3  C3  UNL     1     -33.523   7.707   5.344  1.00 20.00     0.171 C 
HETATM    4  C4  UNL     1     -34.571   4.081   4.589  1.00 20.00     0.207 A 
HETATM    5  C5  UNL     1     -32.970   7.248   3.081  1.00 20.00     0.120 C 
HETATM    6  C6  UNL     1     -33.884   5.419   4.482  1.00 20.00     0.086 A 
HETATM    7  C7  UNL     1     -31.965   7.616   1.999  1.00 20.00     0.039 C 
HETATM    8  O8  UNL     1     -32.572   7.908   4.293  1.00 20.00    -0.386 OA
HETATM    9  O9  UNL     1     -35.275   5.262   4.172  1.00 20.00    -0.375 OA
ENDROOT
TORSDOF 0
