REMARK  1 active torsions:
REMARK  status: ('A' for Active; 'I' for Inactive)
REMARK    1  A    between atoms: C4_4  and  C6_6 
ROOT
HETATM    1  C1  UNL     1     -33.723   4.110   3.646  1.00 20.00     0.135 A 
HETATM    2  C2  UNL     1     -32.741   4.534   2.777  1.00 20.00     0.136 A 
HETATM    3  C3  UNL     1     -34.204   6.284   4.165  1.00 20.00     0.144 A 
HETATM    4  C4  UNL     1     -33.222   6.709   3.297  1.00 20.00     0.069 A 
HETATM    5  N7  UNL     1     -34.472   4.977   4.355  1.00 20.00    -0.270 NA
HETATM    6  N8  UNL     1     -32.473   5.841   2.587  1.00 20.00    -0.261 NA
ENDROOT
BRANCH   4   7
HETATM    7  C6  UNL     1     -32.953   8.161   3.112  1.00 20.00     0.131 C 
HETATM    8  C5  UNL     1     -33.125   8.663   1.671  1.00 20.00     0.033 C 
HETATM    9 CL9  UNL     1     -31.297   8.566   3.681  1.00 20.00    -0.119 Cl
ENDBRANCH   4   7
TORSDOF 1
