REMARK  4 active torsions:
REMARK  status: ('A' for Active; 'I' for Inactive)
REMARK    1  A    between atoms: C5_5  and  C7_7 
REMARK    2  A    between atoms: C5_5  and  S9_9 
REMARK    3  A    between atoms: C6_6  and  C7_7 
REMARK    4  A    between atoms: C8_8  and  S9_9 
ROOT
HETATM    1  C5  UNL     1     -33.343   7.282   2.006  1.00 20.00     0.080 C 
ENDROOT
BRANCH   1   2
HETATM    2  C7  UNL     1     -33.955   6.167   2.875  1.00 20.00     0.004 C 
HETATM    3  C1  UNL     1     -33.012   4.956   2.887  1.00 20.00     0.012 C 
BRANCH   2   4
HETATM    4  C6  UNL     1     -34.326   6.595   4.306  1.00 20.00     0.119 C 
HETATM    5 CL10 UNL     1     -35.118   5.311   5.252  1.00 20.00    -0.130 Cl
ENDBRANCH   2   4
ENDBRANCH   1   2
BRANCH   1   6
HETATM    6  S9  UNL     1     -31.694   7.808   2.562  1.00 20.00    -0.160 SA
BRANCH   6   7
HETATM    7  C8  UNL     1     -31.386   9.069   1.305  1.00 20.00    -0.003 C 
HETATM    8  C2  UNL     1     -32.476  10.140   1.408  1.00 20.00     0.026 C 
HETATM    9  C3  UNL     1     -30.009   9.686   1.567  1.00 20.00     0.026 C 
HETATM   10  C4  UNL     1     -31.419   8.406  -0.075  1.00 20.00     0.026 C 
ENDBRANCH   6   7
ENDBRANCH   1   6
TORSDOF 4
