REMARK  0 active torsions:
REMARK  status: ('A' for Active; 'I' for Inactive)
ROOT
HETATM    1  C1  UNL     1     -33.015   8.082   1.965  1.00 20.00     0.088 C 
HETATM    2  C2  UNL     1     -33.450   6.555   3.777  1.00 20.00    -0.046 C 
HETATM    3  C3  UNL     1     -33.477   6.840   2.467  1.00 20.00     0.098 C 
HETATM    4  C4  UNL     1     -33.935   5.245   4.335  1.00 20.00     0.039 C 
HETATM    5  C5  UNL     1     -32.960   7.529   4.811  1.00 20.00     0.202 C 
HETATM    6  C6  UNL     1     -34.890   5.501   5.500  1.00 20.00     0.030 C 
HETATM    7  C7  UNL     1     -34.293   6.500   6.488  1.00 20.00     0.168 C 
HETATM    8  N8  UNL     1     -32.638   9.097   1.547  1.00 20.00    -0.192 NA
HETATM    9  O9  UNL     1     -33.955   7.719   5.822  1.00 20.00    -0.387 OA
ENDROOT
TORSDOF 0
