REMARK  1 active torsions:
REMARK  status: ('A' for Active; 'I' for Inactive)
REMARK    1  A    between atoms: C1_1  and  C5_5 
ROOT
HETATM    1  C2  UNL     1     -34.037   6.264   5.266  1.00 20.00     0.022 C 
HETATM    2  C3  UNL     1     -34.618   4.879   5.491  1.00 20.00     0.075 C 
HETATM    3  C4  UNL     1     -33.427   5.280   3.117  1.00 20.00     0.085 C 
HETATM    4  C5  UNL     1     -34.063   6.504   3.761  1.00 20.00     0.057 C 
HETATM    5  S7  UNL     1     -33.973   3.874   4.127  1.00 20.00    -0.168 SA
ENDROOT
BRANCH   4   6
HETATM    6  C1  UNL     1     -33.298   7.737   3.400  1.00 20.00     0.236 C 
HETATM    7  O6  UNL     1     -32.694   7.872   2.341  1.00 20.00    -0.306 OA
ENDBRANCH   4   6
TORSDOF 1
