REMARK  4 active torsions:
REMARK  status: ('A' for Active; 'I' for Inactive)
REMARK    1  A    between atoms: C5_5  and  C7_7 
REMARK    2  A    between atoms: C5_5  and  O9_9 
REMARK    3  A    between atoms: C6_6  and  C7_7 
REMARK    4  A    between atoms: C8_8  and  O9_9 
ROOT
HETATM    1  C5  UNL     1     -32.718   6.333   2.694  1.00 20.00     0.174 C 
ENDROOT
BRANCH   1   2
HETATM    2  C7  UNL     1     -32.155   7.648   2.136  1.00 20.00     0.019 C 
HETATM    3  C1  UNL     1     -31.473   8.449   3.246  1.00 20.00     0.013 C 
BRANCH   2   4
HETATM    4  C6  UNL     1     -33.208   8.476   1.380  1.00 20.00     0.121 C 
HETATM    5 CL10 UNL     1     -32.539   9.921   0.584  1.00 20.00    -0.130 Cl
ENDBRANCH   2   4
ENDBRANCH   1   2
BRANCH   1   6
HETATM    6  O9  UNL     1     -33.284   6.530   3.983  1.00 20.00    -0.381 OA
BRANCH   6   7
HETATM    7  C8  UNL     1     -34.190   5.488   4.319  1.00 20.00     0.050 C 
HETATM    8  C2  UNL     1     -33.735   4.205   3.624  1.00 20.00     0.045 C 
HETATM    9  C3  UNL     1     -34.155   5.318   5.836  1.00 20.00     0.045 C 
HETATM   10  C4  UNL     1     -35.589   5.891   3.856  1.00 20.00     0.045 C 
ENDBRANCH   6   7
ENDBRANCH   1   6
TORSDOF 4
