REMARK  0 active torsions:
REMARK  status: ('A' for Active; 'I' for Inactive)
ROOT
HETATM    1  C1  UNL     1     -33.207   7.360   3.036  1.00 20.00     0.087 C 
HETATM    2  C2  UNL     1     -34.738   5.294   5.871  1.00 20.00     0.029 C 
HETATM    3  C3  UNL     1     -34.103   6.494   5.172  1.00 20.00     0.045 C 
HETATM    4  C4  UNL     1     -34.089   3.998   5.407  1.00 20.00     0.167 C 
HETATM    5  C5  UNL     1     -33.453   4.918   3.314  1.00 20.00     0.208 C 
HETATM    6  C6  UNL     1     -34.021   6.301   3.651  1.00 20.00     0.146 C 
HETATM    7  N7  UNL     1     -32.564   8.196   2.551  1.00 20.00    -0.195 NA
HETATM    8  O8  UNL     1     -34.163   3.876   3.988  1.00 20.00    -0.388 OA
HETATM    9 CL9  UNL     1     -35.665   6.451   2.933  1.00 20.00    -0.101 Cl
ENDROOT
TORSDOF 0
