REMARK  0 active torsions:
REMARK  status: ('A' for Active; 'I' for Inactive)
ROOT
HETATM    1  C1  UNL     1     -33.043   7.588   2.497  1.00 20.00     0.087 C 
HETATM    2  C2  UNL     1     -33.968   4.148   3.899  1.00 20.00     0.029 C 
HETATM    3  C3  UNL     1     -33.267   5.181   3.018  1.00 20.00     0.045 C 
HETATM    4  C4  UNL     1     -34.089   4.657   5.328  1.00 20.00     0.167 C 
HETATM    5  C5  UNL     1     -34.049   6.932   4.656  1.00 20.00     0.208 C 
HETATM    6  C6  UNL     1     -33.875   6.582   3.174  1.00 20.00     0.146 C 
HETATM    7  N7  UNL     1     -32.386   8.382   1.963  1.00 20.00    -0.195 NA
HETATM    8  O8  UNL     1     -34.762   5.914   5.361  1.00 20.00    -0.388 OA
HETATM    9 CL9  UNL     1     -35.483   6.637   2.367  1.00 20.00    -0.101 Cl
ENDROOT
TORSDOF 0
