REMARK  1 active torsions:
REMARK  status: ('A' for Active; 'I' for Inactive)
REMARK    1  A    between atoms: C1_1  and  C5_5 
ROOT
HETATM    1  C2  UNL     1     -35.262   5.942   3.922  1.00 20.00     0.022 C 
HETATM    2  C3  UNL     1     -34.767   4.557   4.309  1.00 20.00     0.075 C 
HETATM    3  C4  UNL     1     -34.100   6.542   5.999  1.00 20.00     0.085 C 
HETATM    4  C5  UNL     1     -34.333   6.970   4.557  1.00 20.00     0.057 C 
HETATM    5  S7  UNL     1     -34.145   4.725   6.002  1.00 20.00    -0.168 SA
ENDROOT
BRANCH   4   6
HETATM    6  C1  UNL     1     -33.036   7.095   3.810  1.00 20.00     0.236 C 
HETATM    7  O6  UNL     1     -32.771   6.448   2.802  1.00 20.00    -0.306 OA
ENDBRANCH   4   6
TORSDOF 1
