REMARK  3 active torsions:
REMARK  status: ('A' for Active; 'I' for Inactive)
REMARK    1  A    between atoms: C1_1  and  C3_3 
REMARK       I    between atoms: C1_1  and  N9_9 
REMARK    2  A    between atoms: C7_7  and  C8_8 
REMARK    3  A    between atoms: C8_8  and  N9_9 
ROOT
HETATM    1  C1  UNL     1     -33.308   7.141   3.023  1.00 20.00     0.222 C 
HETATM    2  N9  UNL     1     -32.458   8.212   2.823  1.00 20.00    -0.361 N 
HETATM    3  O10 UNL     1     -33.516   6.220   2.241  1.00 20.00    -0.273 OA
HETATM    4  H25 UNL     1     -32.379   8.910   3.556  1.00 20.00     0.162 HD
ENDROOT
BRANCH   1   5
HETATM    5  C3  UNL     1     -34.001   7.162   4.316  1.00 20.00     0.082 A 
HETATM    6  C2  UNL     1     -33.195   7.268   5.583  1.00 20.00     0.019 A 
HETATM    7  C4  UNL     1     -33.870   5.967   5.240  1.00 20.00    -0.005 A 
HETATM    8  C5  UNL     1     -35.044   5.500   6.030  1.00 20.00     0.011 C 
ENDBRANCH   1   5
BRANCH   2   9
HETATM    9  C8  UNL     1     -31.677   8.387   1.620  1.00 20.00     0.122 C 
BRANCH   9  10
HETATM   10  C7  UNL     1     -32.420   9.187   0.556  1.00 20.00     0.015 C 
HETATM   11  C6  UNL     1     -32.774  10.593   1.019  1.00 20.00     0.006 C 
ENDBRANCH   9  10
ENDBRANCH   2   9
TORSDOF 3
