REMARK  3 active torsions:
REMARK  status: ('A' for Active; 'I' for Inactive)
REMARK    1  A    between atoms: C2_2  and  C5_5 
REMARK    2  A    between atoms: C5_5  and  N7_7 
REMARK    3  A    between atoms: C6_6  and  N7_7 
ROOT
HETATM    1  C1  UNL     1     -35.147   6.300   3.356  1.00 20.00     0.052 A 
HETATM    2  C2  UNL     1     -33.799   6.832   3.758  1.00 20.00     0.055 A 
HETATM    3  C3  UNL     1     -34.179   5.407   4.093  1.00 20.00     0.119 A 
HETATM    4 CL8  UNL     1     -34.531   5.030   5.780  1.00 20.00    -0.101 Cl
HETATM    5 CL9  UNL     1     -33.464   4.061   3.217  1.00 20.00    -0.101 Cl
ENDROOT
BRANCH   2   6
HETATM    6  C5  UNL     1     -32.792   7.174   2.713  1.00 20.00     0.277 C 
BRANCH   6   7
HETATM    7  N7  UNL     1     -33.069   8.457   2.128  1.00 20.00     0.083 N 
HETATM    8  H20 UNL     1     -33.998   8.455   1.690  1.00 20.00     0.315 HD
BRANCH   7   9
HETATM    9  C6  UNL     1     -32.081   8.809   1.106  1.00 20.00     0.265 C 
HETATM   10  C4  UNL     1     -32.357  10.158   0.533  1.00 20.00     0.037 C 
ENDBRANCH   7   9
ENDBRANCH   6   7
ENDBRANCH   2   6
TORSDOF 3
