REMARK  3 active torsions:
REMARK  status: ('A' for Active; 'I' for Inactive)
REMARK    1  A    between atoms: C2_2  and  C5_5 
REMARK    2  A    between atoms: C5_5  and  N7_7 
REMARK    3  A    between atoms: C6_6  and  N7_7 
ROOT
HETATM    1  C1  UNL     1     -35.086   6.260   3.782  1.00 20.00     0.052 A 
HETATM    2  C2  UNL     1     -33.645   6.136   3.371  1.00 20.00     0.055 A 
HETATM    3  C3  UNL     1     -34.073   5.718   4.760  1.00 20.00     0.119 A 
HETATM    4 CL8  UNL     1     -33.662   6.704   6.156  1.00 20.00    -0.101 Cl
HETATM    5 CL9  UNL     1     -34.118   3.991   5.117  1.00 20.00    -0.101 Cl
ENDROOT
BRANCH   2   6
HETATM    6  C5  UNL     1     -32.838   7.362   3.110  1.00 20.00     0.277 C 
BRANCH   6   7
HETATM    7  N7  UNL     1     -33.099   7.885   1.797  1.00 20.00     0.083 N 
HETATM    8  H20 UNL     1     -34.092   8.128   1.703  1.00 20.00     0.315 HD
BRANCH   7   9
HETATM    9  C6  UNL     1     -32.304   9.083   1.523  1.00 20.00     0.265 C 
HETATM   10  C4  UNL     1     -32.556   9.591   0.145  1.00 20.00     0.037 C 
ENDBRANCH   7   9
ENDBRANCH   6   7
ENDBRANCH   2   6
TORSDOF 3
