REMARK  0 active torsions:
REMARK  status: ('A' for Active; 'I' for Inactive)
ROOT
HETATM    1  C1  UNL     1     -32.528   8.307   2.830  1.00 20.00     0.003 C 
HETATM    2  C2  UNL     1     -33.179   8.409   4.216  1.00 20.00     0.037 C 
HETATM    3  C3  UNL     1     -32.698   6.848   2.377  1.00 20.00     0.017 C 
HETATM    4  C4  UNL     1     -34.264   5.331   6.158  1.00 20.00     0.280 C 
HETATM    5  C5  UNL     1     -34.682   4.364   5.046  1.00 20.00     0.104 C 
HETATM    6  C6  UNL     1     -33.284   6.958   4.679  1.00 20.00     0.234 C 
HETATM    7  C7  UNL     1     -33.679   6.258   3.382  1.00 20.00     0.080 C 
HETATM    8  N8  UNL     1     -34.251   6.741   5.748  1.00 20.00     0.089 N 
HETATM    9  S9  UNL     1     -33.599   4.464   3.583  1.00 20.00    -0.160 SA
HETATM   10  H22 UNL     1     -35.182   7.007   5.428  1.00 20.00     0.316 HD
ENDROOT
TORSDOF 0
