REMARK  3 active torsions:
REMARK  status: ('A' for Active; 'I' for Inactive)
REMARK    1  A    between atoms: C1_1  and  C7_7 
REMARK       I    between atoms: C1_1  and  N9_9 
REMARK    2  A    between atoms: C4_4  and  C8_8 
REMARK    3  A    between atoms: C8_8  and  N9_9 
ROOT
HETATM    1  C1  UNL     1     -33.458   7.189   3.972  1.00 20.00     0.219 C 
HETATM    2  C6  UNL     1     -31.183   8.219   3.787  1.00 20.00     0.152 C 
HETATM    3  N9  UNL     1     -32.451   7.790   3.209  1.00 20.00    -0.356 N 
HETATM    4  O10 UNL     1     -33.637   7.427   5.169  1.00 20.00    -0.273 OA
ENDROOT
BRANCH   3   5
HETATM    5  C8  UNL     1     -32.595   8.034   1.775  1.00 20.00     0.130 C 
BRANCH   5   6
HETATM    6  C4  UNL     1     -32.484   9.487   1.463  1.00 20.00     0.004 A 
HETATM    7  C2  UNL     1     -33.022  10.027   0.167  1.00 20.00     0.007 A 
HETATM    8  C3  UNL     1     -33.710  10.357   1.462  1.00 20.00     0.007 A 
ENDBRANCH   5   6
ENDBRANCH   3   5
BRANCH   1   9
HETATM    9  C7  UNL     1     -34.350   6.195   3.242  1.00 20.00     0.098 C 
HETATM   10  C5  UNL     1     -34.867   5.092   4.152  1.00 20.00     0.014 C 
ENDBRANCH   1   9
TORSDOF 3
