REMARK  2 active torsions:
REMARK  status: ('A' for Active; 'I' for Inactive)
REMARK    1  A    between atoms: C1_1  and  C3_3 
REMARK       I    between atoms: C1_1  and  N9_9 
REMARK    2  A    between atoms: C8_8  and  N9_9 
ROOT
HETATM    1  C1  UNL     1     -34.005   6.948   4.282  1.00 20.00     0.222 C 
HETATM    2  N9  UNL     1     -33.650   7.293   2.992  1.00 20.00    -0.357 N 
HETATM    3  O10 UNL     1     -33.711   7.556   5.305  1.00 20.00    -0.273 OA
HETATM    4  H25 UNL     1     -33.961   6.698   2.230  1.00 20.00     0.162 HD
ENDROOT
BRANCH   1   5
HETATM    5  C3  UNL     1     -34.813   5.726   4.374  1.00 20.00     0.082 A 
HETATM    6  C2  UNL     1     -34.365   4.610   5.284  1.00 20.00     0.019 A 
HETATM    7  C4  UNL     1     -34.318   4.423   3.794  1.00 20.00    -0.005 A 
HETATM    8  C5  UNL     1     -33.005   4.311   3.098  1.00 20.00     0.011 C 
ENDBRANCH   1   5
BRANCH   2   9
HETATM    9  C8  UNL     1     -32.858   8.460   2.675  1.00 20.00     0.076 C 
HETATM   10  C6  UNL     1     -32.679   8.546   1.167  1.00 20.00     0.032 C 
HETATM   11  C7  UNL     1     -31.522   8.358   3.396  1.00 20.00     0.032 C 
ENDBRANCH   2   9
TORSDOF 2
