REMARK  4 active torsions:
REMARK  status: ('A' for Active; 'I' for Inactive)
REMARK    1  A    between atoms: C1_1  and  C7_7 
REMARK    2  A    between atoms: C1_1  and  O10_10 
REMARK    3  A    between atoms: C4_4  and  C7_7 
REMARK    4  A    between atoms: C8_8  and  O10_10 
ROOT
HETATM    1  C1  UNL     1     -32.858   7.868   3.744  1.00 20.00     0.259 C 
HETATM    2  O9  UNL     1     -31.791   8.163   4.263  1.00 20.00    -0.265 OA
ENDROOT
BRANCH   1   3
HETATM    3  C7  UNL     1     -33.159   7.944   2.266  1.00 20.00     0.115 C 
BRANCH   3   4
HETATM    4  C4  UNL     1     -32.377   9.052   1.580  1.00 20.00    -0.005 A 
HETATM    5  C2  UNL     1     -32.831   9.588   0.250  1.00 20.00     0.005 A 
HETATM    6  C3  UNL     1     -32.954  10.437   1.485  1.00 20.00     0.005 A 
ENDBRANCH   3   4
ENDBRANCH   1   3
BRANCH   1   7
HETATM    7  O10 UNL     1     -33.970   7.418   4.398  1.00 20.00    -0.317 OA
BRANCH   7   8
HETATM    8  C8  UNL     1     -33.804   6.199   5.130  1.00 20.00     0.123 C 
HETATM    9  C5  UNL     1     -34.721   6.214   6.343  1.00 20.00     0.040 C 
HETATM   10  C6  UNL     1     -34.095   5.021   4.212  1.00 20.00     0.040 C 
ENDBRANCH   7   8
ENDBRANCH   1   7
TORSDOF 4
