REMARK  3 active torsions:
REMARK  status: ('A' for Active; 'I' for Inactive)
REMARK    1  A    between atoms: C5_5  and  S11_11 
REMARK    2  A    between atoms: C8_8  and  C9_9 
REMARK    3  A    between atoms: C8_8  and  S11_11 
ROOT
HETATM    1  C1  UNL     1     -33.715   5.397   3.651  1.00 20.00     0.128 C 
HETATM    2  C2  UNL     1     -33.824   5.966   5.042  1.00 20.00     0.079 C 
HETATM    3  C3  UNL     1     -33.834   6.460   2.586  1.00 20.00     0.093 C 
HETATM    4  C4  UNL     1     -34.275   7.398   4.762  1.00 20.00     0.023 C 
HETATM    5  C5  UNL     1     -33.698   7.753   3.391  1.00 20.00     0.054 C 
HETATM    6  O10 UNL     1     -33.556   4.207   3.412  1.00 20.00    -0.298 OA
ENDROOT
BRANCH   5   7
HETATM    7  S11 UNL     1     -31.949   8.270   3.528  1.00 20.00    -0.164 SA
BRANCH   7   8
HETATM    8  C8  UNL     1     -31.605   8.454   1.765  1.00 20.00     0.078 C 
BRANCH   8   9
HETATM    9  C9  UNL     1     -32.709   9.144   0.947  1.00 20.00    -0.013 C 
HETATM   10  C6  UNL     1     -33.005  10.565   1.431  1.00 20.00     0.010 C 
HETATM   11  C7  UNL     1     -32.425   9.137  -0.557  1.00 20.00     0.010 C 
ENDBRANCH   8   9
ENDBRANCH   7   8
ENDBRANCH   5   7
TORSDOF 3
