REMARK  1 active torsions:
REMARK  status: ('A' for Active; 'I' for Inactive)
REMARK       I    between atoms: C1_1  and  N9_9 
REMARK    1  A    between atoms: C6_6  and  N9_9 
ROOT
HETATM    1  C2  UNL     1     -33.806   5.621   2.554  1.00 20.00     0.002 C 
HETATM    2  C3  UNL     1     -34.707   6.396   3.516  1.00 20.00     0.002 C 
HETATM    3  C4  UNL     1     -32.410   6.226   2.698  1.00 20.00     0.031 C 
HETATM    4  C5  UNL     1     -33.811   7.429   4.196  1.00 20.00     0.031 C 
HETATM    5  C6  UNL     1     -32.654   7.648   3.214  1.00 20.00     0.029 C 
HETATM    6  C8  UNL     1     -31.422   8.235   3.895  1.00 20.00     0.038 C 
ENDROOT
BRANCH   5   7
HETATM    7  N9  UNL     1     -33.064   8.522   2.130  1.00 20.00    -0.353 N 
HETATM    8  C1  UNL     1     -32.279   8.759   1.023  1.00 20.00     0.214 C 
HETATM    9  C7  UNL     1     -32.900   9.689   0.033  1.00 20.00     0.117 C 
HETATM   10  O10 UNL     1     -31.170   8.290   0.798  1.00 20.00    -0.274 OA
HETATM   11  H25 UNL     1     -33.966   8.977   2.190  1.00 20.00     0.163 HD
ENDBRANCH   5   7
TORSDOF 1
