REMARK  2 active torsions:
REMARK  status: ('A' for Active; 'I' for Inactive)
REMARK    1  A    between atoms: C8_8  and  C12_12 
REMARK    2  A    between atoms: C11_11  and  N13_13 
ROOT
HETATM    1  C1  UNL     1     -33.922   9.726  -0.380  1.00 20.00     0.013 C 
HETATM    2  C2  UNL     1     -33.184   9.254   0.442  1.00 20.00    -0.087 C 
HETATM    3  C11 UNL     1     -32.280   8.682   1.443  1.00 20.00     0.364 C 
ENDROOT
BRANCH   3   4
HETATM    4  N13 UNL     1     -33.018   7.835   2.381  1.00 20.00     0.099 N 
HETATM    5  C6  UNL     1     -32.268   7.642   3.624  1.00 20.00     0.273 C 
HETATM    6  C3  UNL     1     -33.130   7.194   4.822  1.00 20.00     0.031 C 
HETATM    7  C4  UNL     1     -34.633   7.087   4.545  1.00 20.00     0.007 C 
HETATM    8  C8  UNL     1     -35.033   5.907   3.636  1.00 20.00    -0.010 C 
HETATM    9  C5  UNL     1     -33.945   5.473   2.641  1.00 20.00     0.035 C 
HETATM   10  C7  UNL     1     -33.417   6.583   1.727  1.00 20.00     0.274 C 
BRANCH   8  11
HETATM   11  C12 UNL     1     -35.442   4.699   4.489  1.00 20.00    -0.019 C 
HETATM   12  C9  UNL     1     -34.496   4.542   5.674  1.00 20.00     0.010 C 
HETATM   13  C10 UNL     1     -36.884   4.847   4.961  1.00 20.00     0.010 C 
ENDBRANCH   8  11
ENDBRANCH   3   4
TORSDOF 2
