REMARK  1 active torsions:
REMARK  status: ('A' for Active; 'I' for Inactive)
REMARK    1  A    between atoms: C8_8  and  C10_10 
ROOT
HETATM    1  C1  UNL     1     -32.715   9.041   2.083  1.00 20.00     0.088 C 
HETATM    2  C2  UNL     1     -33.046   6.951   3.232  1.00 20.00    -0.070 C 
HETATM    3  C3  UNL     1     -33.054   7.665   2.098  1.00 20.00     0.096 C 
HETATM    4  C4  UNL     1     -32.679   7.550   4.564  1.00 20.00     0.035 C 
HETATM    5  C5  UNL     1     -33.422   5.491   3.273  1.00 20.00     0.039 C 
HETATM    6  C6  UNL     1     -33.776   7.295   5.599  1.00 20.00     0.005 C 
HETATM    7  C7  UNL     1     -34.157   5.814   5.677  1.00 20.00     0.005 C 
HETATM    8  C8  UNL     1     -34.527   5.214   4.308  1.00 20.00    -0.011 C 
HETATM    9  N11 UNL     1     -32.439  10.168   2.063  1.00 20.00    -0.192 NA
ENDROOT
BRANCH   8  10
HETATM   10  C10 UNL     1     -35.891   5.715   3.823  1.00 20.00     0.000 C 
HETATM   11  C9  UNL     1     -36.973   5.402   4.804  1.00 20.00     0.005 C 
ENDBRANCH   8  10
TORSDOF 1
