REMARK  3 active torsions:
REMARK  status: ('A' for Active; 'I' for Inactive)
REMARK    1  A    between atoms: C1_1  and  C9_9 
REMARK    2  A    between atoms: C6_6  and  C9_9 
REMARK    3  A    between atoms: C7_7  and  C10_10 
ROOT
HETATM    1  C2  UNL     1     -31.481   8.370   4.088  1.00 20.00     0.001 C 
HETATM    2  C3  UNL     1     -32.378   7.136   4.071  1.00 20.00     0.005 C 
HETATM    3  C4  UNL     1     -30.982   8.724   2.690  1.00 20.00     0.005 C 
HETATM    4  C5  UNL     1     -33.041   7.653   1.688  1.00 20.00     0.009 C 
HETATM    5  C6  UNL     1     -33.548   7.301   3.093  1.00 20.00    -0.008 C 
HETATM    6  C7  UNL     1     -32.143   8.899   1.703  1.00 20.00    -0.014 C 
ENDROOT
BRANCH   5   7
HETATM    7  C9  UNL     1     -34.403   6.035   3.057  1.00 20.00     0.074 C 
BRANCH   7   8
HETATM    8  C1  UNL     1     -34.954   5.678   4.411  1.00 20.00     0.231 C 
HETATM    9  O11 UNL     1     -34.720   4.637   5.015  1.00 20.00    -0.307 OA
ENDBRANCH   7   8
ENDBRANCH   5   7
BRANCH   6  10
HETATM   10  C10 UNL     1     -31.618   9.202   0.301  1.00 20.00     0.000 C 
HETATM   11  C8  UNL     1     -32.731   9.415  -0.671  1.00 20.00     0.005 C 
ENDBRANCH   6  10
TORSDOF 3
