REMARK  3 active torsions:
REMARK  status: ('A' for Active; 'I' for Inactive)
REMARK    1  A    between atoms: C1_1  and  C9_9 
REMARK    2  A    between atoms: C6_6  and  C9_9 
REMARK    3  A    between atoms: C7_7  and  C10_10 
ROOT
HETATM    1  C2  UNL     1     -33.153   4.951   2.964  1.00 20.00     0.001 C 
HETATM    2  C3  UNL     1     -32.413   5.972   2.105  1.00 20.00     0.005 C 
HETATM    3  C4  UNL     1     -34.528   5.463   3.391  1.00 20.00     0.005 C 
HETATM    4  C5  UNL     1     -33.691   7.843   3.227  1.00 20.00     0.009 C 
HETATM    5  C6  UNL     1     -32.305   7.334   2.802  1.00 20.00    -0.008 C 
HETATM    6  C7  UNL     1     -34.471   6.832   4.081  1.00 20.00    -0.014 C 
ENDROOT
BRANCH   5   7
HETATM    7  C9  UNL     1     -31.617   8.350   1.890  1.00 20.00     0.074 C 
BRANCH   7   8
HETATM    8  C1  UNL     1     -32.566   8.953   0.889  1.00 20.00     0.231 C 
HETATM    9  O11 UNL     1     -32.814  10.149   0.784  1.00 20.00    -0.307 OA
ENDBRANCH   7   8
ENDBRANCH   5   7
BRANCH   6  10
HETATM   10  C10 UNL     1     -33.903   6.729   5.499  1.00 20.00     0.000 C 
HETATM   11  C8  UNL     1     -34.699   5.789   6.342  1.00 20.00     0.005 C 
ENDBRANCH   6  10
TORSDOF 3
