REMARK  3 active torsions:
REMARK  status: ('A' for Active; 'I' for Inactive)
REMARK    1  A    between atoms: C5_5  and  C9_9 
REMARK    2  A    between atoms: C6_6  and  C10_10 
REMARK    3  A    between atoms: C10_10  and  O11_11 
ROOT
HETATM    1  C1  UNL     1     -32.479   5.801   2.660  1.00 20.00     0.001 C 
HETATM    2  C2  UNL     1     -32.494   6.936   1.640  1.00 20.00     0.005 C 
HETATM    3  C3  UNL     1     -33.851   5.595   3.296  1.00 20.00     0.007 C 
HETATM    4  C4  UNL     1     -34.407   8.027   2.881  1.00 20.00     0.011 C 
HETATM    5  C5  UNL     1     -33.025   8.242   2.245  1.00 20.00    -0.014 C 
HETATM    6  C6  UNL     1     -34.431   6.880   3.903  1.00 20.00     0.014 C 
ENDROOT
BRANCH   6   7
HETATM    7  C10 UNL     1     -33.719   7.263   5.203  1.00 20.00     0.118 C 
HETATM    8  C8  UNL     1     -33.815   6.157   6.237  1.00 20.00     0.040 C 
BRANCH   7   9
HETATM    9  O11 UNL     1     -32.353   7.531   4.917  1.00 20.00    -0.396 OA
HETATM   10  H31 UNL     1     -31.932   7.770   5.758  1.00 20.00     0.210 HD
ENDBRANCH   7   9
ENDBRANCH   6   7
BRANCH   5  11
HETATM   11  C9  UNL     1     -33.089   9.338   1.181  1.00 20.00     0.000 C 
HETATM   12  C7  UNL     1     -31.750   9.589   0.569  1.00 20.00     0.005 C 
ENDBRANCH   5  11
TORSDOF 3
