REMARK  3 active torsions:
REMARK  status: ('A' for Active; 'I' for Inactive)
REMARK    1  A    between atoms: C1_1  and  C6_6 
REMARK    2  A    between atoms: C1_1  and  C10_10 
REMARK    3  A    between atoms: C7_7  and  C11_11 
ROOT
HETATM    1  C2  UNL     1     -34.293   6.419   5.884  1.00 20.00     0.001 C 
HETATM    2  C3  UNL     1     -33.410   7.400   5.117  1.00 20.00     0.012 C 
HETATM    3  C4  UNL     1     -33.975   4.971   5.517  1.00 20.00     0.005 C 
HETATM    4  C5  UNL     1     -33.175   5.725   3.240  1.00 20.00     0.016 C 
HETATM    5  C6  UNL     1     -33.506   7.167   3.614  1.00 20.00     0.055 C 
HETATM    6  C7  UNL     1     -34.068   4.734   4.003  1.00 20.00    -0.014 C 
ENDROOT
BRANCH   5   7
HETATM    7  C1  UNL     1     -32.480   8.062   2.945  1.00 20.00     0.130 C 
HETATM    8  O12 UNL     1     -31.281   7.951   3.195  1.00 20.00    -0.298 OA
BRANCH   7   9
HETATM    9  C10 UNL     1     -33.025   9.085   1.965  1.00 20.00     0.074 C 
HETATM   10  C8  UNL     1     -31.937   9.957   1.365  1.00 20.00     0.013 C 
ENDBRANCH   7   9
ENDBRANCH   5   7
BRANCH   6  11
HETATM   11  C11 UNL     1     -33.693   3.294   3.658  1.00 20.00     0.000 C 
HETATM   12  C9  UNL     1     -34.575   2.312   4.358  1.00 20.00     0.005 C 
ENDBRANCH   6  11
TORSDOF 3
