REMARK  3 active torsions:
REMARK  status: ('A' for Active; 'I' for Inactive)
REMARK    1  A    between atoms: C5_5  and  C9_9 
REMARK    2  A    between atoms: C6_6  and  C10_10 
REMARK    3  A    between atoms: C6_6  and  O11_11 
ROOT
HETATM    1  C1  UNL     1     -32.991   8.203   5.001  1.00 20.00     0.003 C 
HETATM    2  C2  UNL     1     -32.326   8.828   3.779  1.00 20.00     0.005 C 
HETATM    3  C3  UNL     1     -33.002   6.676   4.919  1.00 20.00     0.038 C 
HETATM    4  C4  UNL     1     -32.992   6.827   2.382  1.00 20.00     0.042 C 
HETATM    5  C5  UNL     1     -32.983   8.362   2.474  1.00 20.00    -0.012 C 
HETATM    6  C6  UNL     1     -33.621   6.152   3.613  1.00 20.00     0.058 C 
ENDROOT
BRANCH   6   7
HETATM    7  C10 UNL     1     -33.488   4.631   3.529  1.00 20.00     0.033 C 
HETATM    8  C8  UNL     1     -34.180   3.955   4.666  1.00 20.00     0.008 C 
ENDBRANCH   6   7
BRANCH   6   9
HETATM    9  O11 UNL     1     -35.018   6.467   3.643  1.00 20.00    -0.390 OA
HETATM   10  H31 UNL     1     -35.388   6.129   2.814  1.00 20.00     0.210 HD
ENDBRANCH   6   9
BRANCH   5  11
HETATM   11  C9  UNL     1     -32.273   8.971   1.265  1.00 20.00     0.000 C 
HETATM   12  C7  UNL     1     -32.285  10.464   1.314  1.00 20.00     0.005 C 
ENDBRANCH   5  11
TORSDOF 3
