REMARK  4 active torsions:
REMARK  status: ('A' for Active; 'I' for Inactive)
REMARK    1  A    between atoms: C1_1  and  C6_6 
REMARK    2  A    between atoms: C1_1  and  C11_11 
REMARK    3  A    between atoms: C7_7  and  C12_12 
REMARK    4  A    between atoms: C11_11  and  C13_13 
ROOT
HETATM    1  C2  UNL     1     -31.045   8.115   3.400  1.00 20.00     0.001 C 
HETATM    2  C3  UNL     1     -32.331   8.355   4.190  1.00 20.00     0.012 C 
HETATM    3  C4  UNL     1     -31.050   8.854   2.066  1.00 20.00     0.005 C 
HETATM    4  C5  UNL     1     -33.574   8.755   2.003  1.00 20.00     0.016 C 
HETATM    5  C6  UNL     1     -33.596   8.094   3.381  1.00 20.00     0.056 C 
HETATM    6  C7  UNL     1     -32.277   8.484   1.225  1.00 20.00    -0.014 C 
ENDROOT
BRANCH   5   7
HETATM    7  C1  UNL     1     -33.829   6.604   3.189  1.00 20.00     0.131 C 
HETATM    8  O14 UNL     1     -32.992   5.901   2.624  1.00 20.00    -0.298 OA
BRANCH   7   9
HETATM    9  C11 UNL     1     -35.119   6.048   3.771  1.00 20.00     0.082 C 
BRANCH   9  10
HETATM   10  C13 UNL     1     -34.904   4.933   4.806  1.00 20.00    -0.016 C 
HETATM   11  C9  UNL     1     -34.079   5.428   5.996  1.00 20.00     0.010 C 
HETATM   12  C10 UNL     1     -34.204   3.740   4.153  1.00 20.00     0.010 C 
ENDBRANCH   9  10
ENDBRANCH   7   9
ENDBRANCH   5   7
BRANCH   6  13
HETATM   13  C12 UNL     1     -32.273   9.251  -0.097  1.00 20.00     0.000 C 
HETATM   14  C8  UNL     1     -33.439   8.879  -0.953  1.00 20.00     0.005 C 
ENDBRANCH   6  13
TORSDOF 4
