REMARK  0 active torsions:
REMARK  status: ('A' for Active; 'I' for Inactive)
ROOT
HETATM    1  C1  UNL     1     -32.501   7.752   4.554  1.00 20.00     0.066 C 
HETATM    2  C2  UNL     1     -33.213   5.849   3.059  1.00 20.00     0.077 C 
HETATM    3  C3  UNL     1     -33.530   7.264   5.565  1.00 20.00     0.171 C 
HETATM    4  C4  UNL     1     -33.457   8.305   2.182  1.00 20.00     0.207 A 
HETATM    5  C5  UNL     1     -32.918   7.314   3.186  1.00 20.00     0.087 A 
HETATM    6  C6  UNL     1     -34.191   5.403   4.165  1.00 20.00     0.056 C 
HETATM    7  C7  UNL     1     -35.624   5.884   3.894  1.00 20.00     0.045 C 
HETATM    8  C8  UNL     1     -34.201   3.869   4.239  1.00 20.00     0.045 C 
HETATM    9  O9  UNL     1     -32.102   7.838   2.130  1.00 20.00    -0.375 OA
HETATM   10  O10 UNL     1     -33.730   5.853   5.454  1.00 20.00    -0.381 OA
ENDROOT
TORSDOF 0
