REMARK  3 active torsions:
REMARK  status: ('A' for Active; 'I' for Inactive)
REMARK    1  A    between atoms: C5_5  and  C8_8 
REMARK    2  A    between atoms: C6_6  and  C9_9 
REMARK    3  A    between atoms: C9_9  and  C10_10 
ROOT
HETATM    1  C1  UNL     1     -33.530   5.063   2.950  1.00 20.00     0.001 C 
HETATM    2  C2  UNL     1     -34.874   5.407   3.588  1.00 20.00     0.005 C 
HETATM    3  C3  UNL     1     -32.869   6.292   2.330  1.00 20.00     0.005 C 
HETATM    4  C4  UNL     1     -34.081   7.776   3.980  1.00 20.00     0.009 C 
HETATM    5  C5  UNL     1     -34.782   6.558   4.600  1.00 20.00    -0.014 C 
HETATM    6  C6  UNL     1     -32.725   7.435   3.342  1.00 20.00    -0.013 C 
ENDROOT
BRANCH   6   7
HETATM    7  C9  UNL     1     -32.121   8.670   2.674  1.00 20.00     0.020 C 
BRANCH   7   8
HETATM    8  C10 UNL     1     -32.917   9.147   1.470  1.00 20.00     0.115 C 
HETATM    9 CL11 UNL     1     -32.175  10.565   0.694  1.00 20.00    -0.130 Cl
ENDBRANCH   7   8
ENDBRANCH   6   7
BRANCH   5  10
HETATM   10  C8  UNL     1     -34.106   6.115   5.901  1.00 20.00     0.000 C 
HETATM   11  C7  UNL     1     -34.820   4.964   6.528  1.00 20.00     0.005 C 
ENDBRANCH   5  10
TORSDOF 3
