REMARK  0 active torsions:
REMARK  status: ('A' for Active; 'I' for Inactive)
ROOT
HETATM    1  C1  UNL     1     -34.046   7.657   5.599  1.00 20.00     0.004 C 
HETATM    2  C2  UNL     1     -32.780   7.840   4.766  1.00 20.00     0.040 C 
HETATM    3  C3  UNL     1     -34.380   6.174   5.793  1.00 20.00     0.009 C 
HETATM    4  C4  UNL     1     -33.209   5.611   3.613  1.00 20.00     0.049 C 
HETATM    5  C5  UNL     1     -33.140   7.798   2.178  1.00 20.00     0.207 A 
HETATM    6  C6  UNL     1     -32.891   7.074   3.482  1.00 20.00     0.083 A 
HETATM    7  C7  UNL     1     -34.482   5.384   4.463  1.00 20.00    -0.045 C 
HETATM    8  C8  UNL     1     -35.735   5.811   3.674  1.00 20.00     0.015 C 
HETATM    9  C9  UNL     1     -34.609   3.884   4.784  1.00 20.00     0.015 C 
HETATM   10  O10 UNL     1     -31.831   7.350   2.554  1.00 20.00    -0.375 OA
ENDROOT
TORSDOF 0
