REMARK  3 active torsions:
REMARK  status: ('A' for Active; 'I' for Inactive)
REMARK    1  A    between atoms: C4_4  and  C6_6 
REMARK    2  A    between atoms: C5_5  and  C6_6 
REMARK    3  A    between atoms: C5_5  and  O8_8 
ROOT
HETATM    1  C1  UNL     1     -33.582   7.309   4.871  1.00 20.00     0.066 C 
HETATM    2  C6  UNL     1     -33.751   7.288   3.403  1.00 20.00     0.116 C 
HETATM    3  N7  UNL     1     -33.449   7.328   6.024  1.00 20.00    -0.197 NA
ENDROOT
BRANCH   2   4
HETATM    4  C4  UNL     1     -34.540   6.044   2.962  1.00 20.00     0.017 C 
HETATM    5  C2  UNL     1     -33.849   4.736   3.331  1.00 20.00     0.006 C 
ENDBRANCH   2   4
BRANCH   2   6
HETATM    6  C5  UNL     1     -32.377   7.310   2.722  1.00 20.00     0.186 C 
BRANCH   6   7
HETATM    7  O8  UNL     1     -31.890   8.646   2.671  1.00 20.00    -0.395 OA
HETATM    8  C3  UNL     1     -32.472   9.370   1.596  1.00 20.00     0.201 C 
ENDBRANCH   6   7
ENDBRANCH   2   6
TORSDOF 3
