REMARK  4 active torsions:
REMARK  status: ('A' for Active; 'I' for Inactive)
REMARK    1  A    between atoms: C7_7  and  C10_10 
REMARK    2  A    between atoms: C8_8  and  N11_11 
REMARK    3  A    between atoms: C9_9  and  N11_11 
REMARK    4  A    between atoms: C10_10  and  N11_11 
ROOT
HETATM    1  C1  UNL     1     -34.940   4.613   4.182  1.00 20.00     0.013 C 
HETATM    2  C2  UNL     1     -34.150   5.150   3.455  1.00 20.00    -0.087 C 
HETATM    3  C9  UNL     1     -33.185   5.801   2.565  1.00 20.00     0.365 C 
ENDROOT
BRANCH   3   4
HETATM    4  N11 UNL     1     -33.043   7.216   2.904  1.00 20.00     0.104 N 
BRANCH   4   5
HETATM    5  C8  UNL     1     -32.576   7.369   4.281  1.00 20.00     0.224 A 
HETATM    6  C5  UNL     1     -32.772   8.668   5.012  1.00 20.00     0.038 A 
HETATM    7  C6  UNL     1     -33.558   7.455   5.417  1.00 20.00     0.038 A 
ENDBRANCH   4   5
BRANCH   4   8
HETATM    8  C10 UNL     1     -32.124   7.875   1.976  1.00 20.00     0.278 C 
BRANCH   8   9
HETATM    9  C7  UNL     1     -32.363   9.346   1.935  1.00 20.00     0.014 A 
HETATM   10  C3  UNL     1     -31.871  10.161   0.772  1.00 20.00     0.007 A 
HETATM   11  C4  UNL     1     -33.345   9.926   0.955  1.00 20.00     0.007 A 
ENDBRANCH   8   9
ENDBRANCH   4   8
ENDBRANCH   3   4
TORSDOF 4
