REMARK  0 active torsions:
REMARK  status: ('A' for Active; 'I' for Inactive)
ROOT
HETATM    1  C1  UNL     1     -33.753   7.743   4.681  1.00 20.00     0.035 C 
HETATM    2  C2  UNL     1     -33.659   6.272   5.093  1.00 20.00     0.011 C 
HETATM    3  C3  UNL     1     -33.689   5.411   2.713  1.00 20.00     0.043 C 
HETATM    4  C4  UNL     1     -33.465   7.971   3.235  1.00 20.00     0.151 A 
HETATM    5  C5  UNL     1     -33.478   6.824   2.261  1.00 20.00     0.151 A 
HETATM    6  C6  UNL     1     -34.357   5.308   4.105  1.00 20.00    -0.045 C 
HETATM    7  C7  UNL     1     -34.201   3.867   4.625  1.00 20.00     0.015 C 
HETATM    8  C8  UNL     1     -35.862   5.619   3.997  1.00 20.00     0.015 C 
HETATM    9  O9  UNL     1     -32.250   7.400   2.749  1.00 20.00    -0.375 OA
ENDROOT
TORSDOF 0
