REMARK  0 active torsions:
REMARK  status: ('A' for Active; 'I' for Inactive)
ROOT
HETATM    1  C1  UNL     1     -33.517   7.374   5.370  1.00 20.00     0.035 C 
HETATM    2  C2  UNL     1     -33.668   5.856   5.466  1.00 20.00     0.011 C 
HETATM    3  C3  UNL     1     -33.234   5.494   2.990  1.00 20.00     0.043 C 
HETATM    4  C4  UNL     1     -32.755   7.784   4.155  1.00 20.00     0.151 A 
HETATM    5  C5  UNL     1     -32.645   6.869   2.966  1.00 20.00     0.151 A 
HETATM    6  C6  UNL     1     -34.196   5.202   4.168  1.00 20.00    -0.045 C 
HETATM    7  C7  UNL     1     -35.625   5.682   3.846  1.00 20.00     0.015 C 
HETATM    8  C8  UNL     1     -34.262   3.674   4.382  1.00 20.00     0.015 C 
HETATM    9  O9  UNL     1     -33.575   7.952   2.983  1.00 20.00    -0.375 OA
ENDROOT
TORSDOF 0
