REMARK  3 active torsions:
REMARK  status: ('A' for Active; 'I' for Inactive)
REMARK    1  A    between atoms: C4_4  and  C6_6 
REMARK    2  A    between atoms: C5_5  and  C6_6 
REMARK    3  A    between atoms: C5_5  and  O8_8 
ROOT
HETATM    1  C1  UNL     1     -33.378   7.088   4.782  1.00 20.00     0.066 C 
HETATM    2  C6  UNL     1     -33.197   6.312   3.537  1.00 20.00     0.116 C 
HETATM    3  N7  UNL     1     -33.517   7.695   5.761  1.00 20.00    -0.197 NA
ENDROOT
BRANCH   2   4
HETATM    4  C4  UNL     1     -34.216   5.162   3.457  1.00 20.00     0.017 C 
HETATM    5  C2  UNL     1     -34.109   4.188   4.625  1.00 20.00     0.006 C 
ENDBRANCH   2   4
BRANCH   2   6
HETATM    6  C5  UNL     1     -33.351   7.237   2.323  1.00 20.00     0.186 C 
BRANCH   6   7
HETATM    7  O8  UNL     1     -32.394   8.288   2.400  1.00 20.00    -0.395 OA
HETATM    8  C3  UNL     1     -32.496   9.165   1.288  1.00 20.00     0.201 C 
ENDBRANCH   6   7
ENDBRANCH   2   6
TORSDOF 3
