REMARK  0 active torsions:
REMARK  status: ('A' for Active; 'I' for Inactive)
ROOT
HETATM    1  C1  UNL     1     -31.844   7.833   2.009  1.00 20.00     0.064 C 
HETATM    2  C2  UNL     1     -33.074   5.744   2.467  1.00 20.00     0.020 C 
HETATM    3  C3  UNL     1     -32.888   7.551   4.226  1.00 20.00     0.020 C 
HETATM    4  C4  UNL     1     -33.513   4.746   3.540  1.00 20.00     0.010 C 
HETATM    5  C5  UNL     1     -33.327   6.553   5.298  1.00 20.00     0.010 C 
HETATM    6  C6  UNL     1     -32.194   6.854   3.052  1.00 20.00     0.093 C 
HETATM    7  C7  UNL     1     -34.209   5.410   4.749  1.00 20.00    -0.048 C 
HETATM    8  C8  UNL     1     -34.406   4.355   5.854  1.00 20.00     0.015 C 
HETATM    9  C9  UNL     1     -35.599   5.942   4.349  1.00 20.00     0.015 C 
HETATM   10  N10 UNL     1     -31.568   8.604   1.187  1.00 20.00    -0.197 NA
ENDROOT
TORSDOF 0
