REMARK  3 active torsions:
REMARK  status: ('A' for Active; 'I' for Inactive)
REMARK    1  A    between atoms: C6_6  and  C10_10 
REMARK    2  A    between atoms: C7_7  and  N11_11 
REMARK    3  A    between atoms: C9_9  and  N11_11 
ROOT
HETATM    1  C1  UNL     1     -34.586   3.855   4.300  1.00 20.00     0.013 C 
HETATM    2  C2  UNL     1     -34.438   4.980   4.690  1.00 20.00    -0.087 C 
HETATM    3  C9  UNL     1     -34.257   6.352   5.170  1.00 20.00     0.362 C 
ENDROOT
BRANCH   3   4
HETATM    4  N11 UNL     1     -34.207   7.285   4.055  1.00 20.00     0.098 N 
HETATM    5  H28 UNL     1     -34.414   8.224   4.388  1.00 20.00     0.317 HD
BRANCH   4   6
HETATM    6  C7  UNL     1     -32.899   7.282   3.445  1.00 20.00     0.222 C 
HETATM    7  C4  UNL     1     -31.917   8.142   4.241  1.00 20.00     0.036 C 
HETATM    8  C3  UNL     1     -32.024   9.514   3.592  1.00 20.00     0.007 C 
HETATM    9  C6  UNL     1     -32.096   9.177   2.106  1.00 20.00    -0.013 C 
HETATM   10  C5  UNL     1     -32.949   7.901   2.041  1.00 20.00     0.040 C 
BRANCH   9  11
HETATM   11  C10 UNL     1     -32.652  10.314   1.264  1.00 20.00     0.000 C 
HETATM   12  C8  UNL     1     -32.731   9.950  -0.185  1.00 20.00     0.005 C 
ENDBRANCH   9  11
ENDBRANCH   4   6
ENDBRANCH   3   4
TORSDOF 3
