REMARK  2 active torsions:
REMARK  status: ('A' for Active; 'I' for Inactive)
REMARK    1  A    between atoms: C2_2  and  C9_9 
REMARK    2  A    between atoms: C9_9  and  N11_11 
ROOT
HETATM    1  C1  UNL     1     -32.507   8.665   1.171  1.00 20.00    -0.109 C 
HETATM    2  C2  UNL     1     -32.400   7.647   1.801  1.00 20.00    -0.077 C 
HETATM    3  C8  UNL     1     -32.637   9.903   0.404  1.00 20.00     0.112 C 
ENDROOT
BRANCH   2   4
HETATM    4  C9  UNL     1     -32.263   6.407   2.570  1.00 20.00     0.367 C 
BRANCH   4   5
HETATM    5  N11 UNL     1     -33.564   5.844   2.883  1.00 20.00     0.117 N 
HETATM    6  C6  UNL     1     -33.496   4.602   3.651  1.00 20.00     0.275 C 
HETATM    7  C4  UNL     1     -34.910   4.429   4.196  1.00 20.00     0.033 C 
HETATM    8  C5  UNL     1     -35.612   5.763   3.944  1.00 20.00     0.053 C 
HETATM    9  C7  UNL     1     -34.494   6.738   3.584  1.00 20.00     0.329 C 
HETATM   10  C3  UNL     1     -33.948   7.379   4.794  1.00 20.00     0.095 C 
HETATM   11  N10 UNL     1     -33.518   7.883   5.747  1.00 20.00    -0.195 NA
ENDBRANCH   4   5
ENDBRANCH   2   4
TORSDOF 2
