REMARK  1 active torsions:
REMARK  status: ('A' for Active; 'I' for Inactive)
REMARK    1  A    between atoms: C2_2  and  C3_3 
ROOT
HETATM    1  C1  UNL     1     -33.740   4.453   3.450  1.00 20.00    -0.020 C 
HETATM    2  C2  UNL     1     -33.608   5.784   3.484  1.00 20.00    -0.062 C 
HETATM    3  C5  UNL     1     -34.386   3.931   4.690  1.00 20.00     0.028 C 
HETATM    4  C6  UNL     1     -34.146   6.363   4.753  1.00 20.00     0.038 C 
HETATM    5  C7  UNL     1     -34.316   5.127   5.638  1.00 20.00     0.008 C 
ENDROOT
BRANCH   2   6
HETATM    6  C3  UNL     1     -33.050   6.604   2.456  1.00 20.00     0.002 C 
HETATM    7  C4  UNL     1     -32.944   7.941   2.545  1.00 20.00    -0.030 C 
HETATM    8  C8  UNL     1     -32.364   8.803   1.472  1.00 20.00     0.036 C 
ENDBRANCH   2   6
TORSDOF 1
