REMARK  1 active torsions:
REMARK  status: ('A' for Active; 'I' for Inactive)
REMARK    1  A    between atoms: C8_8  and  N10_10 
ROOT
HETATM    1  C1  UNL     1     -32.618   8.462   1.980  1.00 20.00     0.177 C 
HETATM    2  N9  UNL     1     -31.829   8.793   1.197  1.00 20.00    -0.172 NA
HETATM    3  N10 UNL     1     -33.536   8.080   2.886  1.00 20.00    -0.324 N 
HETATM    4  H22 UNL     1     -34.496   8.448   2.834  1.00 20.00     0.172 HD
ENDROOT
BRANCH   3   5
HETATM    5  C8  UNL     1     -33.467   6.804   3.631  1.00 20.00     0.096 C 
HETATM    6  C5  UNL     1     -34.191   6.919   4.986  1.00 20.00     0.031 C 
HETATM    7  C6  UNL     1     -35.282   5.836   4.887  1.00 20.00    -0.012 C 
HETATM    8  C2  UNL     1     -34.618   4.449   4.927  1.00 20.00     0.005 C 
HETATM    9  C4  UNL     1     -35.697   5.941   3.421  1.00 20.00     0.011 C 
HETATM   10  C3  UNL     1     -33.938   4.351   3.552  1.00 20.00     0.007 C 
HETATM   11  C7  UNL     1     -34.274   5.706   2.905  1.00 20.00     0.009 C 
ENDBRANCH   3   5
TORSDOF 1
