REMARK  1 active torsions:
REMARK  status: ('A' for Active; 'I' for Inactive)
REMARK    1  A    between atoms: C6_6  and  C8_8 
ROOT
HETATM    1  C1  UNL     1     -32.497  10.045   1.716  1.00 20.00     0.064 C 
HETATM    2  C2  UNL     1     -31.517   8.700   3.563  1.00 20.00     0.019 C 
HETATM    3  C3  UNL     1     -32.565   7.866   4.290  1.00 20.00     0.006 C 
HETATM    4  C4  UNL     1     -33.041   7.636   1.962  1.00 20.00     0.024 C 
HETATM    5  C5  UNL     1     -31.966   8.727   2.094  1.00 20.00     0.093 C 
HETATM    6  C6  UNL     1     -32.946   6.818   3.251  1.00 20.00    -0.014 C 
HETATM    7  N9  UNL     1     -32.916  11.085   1.418  1.00 20.00    -0.197 NA
ENDROOT
BRANCH   6   8
HETATM    8  C8  UNL     1     -34.230   6.080   3.588  1.00 20.00     0.000 C 
HETATM    9  C7  UNL     1     -34.118   5.321   4.873  1.00 20.00     0.005 C 
ENDBRANCH   6   8
TORSDOF 1
