REMARK  1 active torsions:
REMARK  status: ('A' for Active; 'I' for Inactive)
REMARK    1  A    between atoms: C7_7  and  C9_9 
ROOT
HETATM    1  C1  UNL     1     -32.185  10.107   1.709  1.00 20.00     0.012 C 
HETATM    2  C2  UNL     1     -32.592   8.978   1.763  1.00 20.00    -0.117 C 
HETATM    3  C9  UNL     1     -33.084   7.599   1.818  1.00 20.00     0.097 C 
ENDROOT
BRANCH   3   4
HETATM    4  C7  UNL     1     -33.724   7.299   3.172  1.00 20.00    -0.002 C 
HETATM    5  C4  UNL     1     -32.661   7.047   4.242  1.00 20.00     0.005 C 
HETATM    6  C3  UNL     1     -33.276   6.834   5.627  1.00 20.00     0.002 C 
HETATM    7  C5  UNL     1     -34.709   6.296   5.592  1.00 20.00     0.020 C 
HETATM    8  C8  UNL     1     -34.990   5.402   4.387  1.00 20.00     0.082 C 
HETATM    9  C6  UNL     1     -34.712   6.122   3.059  1.00 20.00     0.025 C 
HETATM   10 CL10 UNL     1     -34.016   3.898   4.500  1.00 20.00    -0.125 Cl
ENDBRANCH   3   4
TORSDOF 1
