REMARK  1 active torsions:
REMARK  status: ('A' for Active; 'I' for Inactive)
REMARK    1  A    between atoms: C5_5  and  C8_8 
ROOT
HETATM    1  C1  UNL     1     -34.092   5.322   3.055  1.00 20.00     0.007 C 
HETATM    2  C2  UNL     1     -32.695   5.851   2.714  1.00 20.00     0.041 C 
HETATM    3  C3  UNL     1     -34.048   7.613   3.798  1.00 20.00     0.045 C 
HETATM    4  C4  UNL     1     -31.976   8.365   2.346  1.00 20.00     0.207 A 
HETATM    5  C5  UNL     1     -34.586   6.227   4.192  1.00 20.00    -0.012 C 
HETATM    6  C6  UNL     1     -32.785   7.307   3.051  1.00 20.00     0.083 A 
HETATM    7  O9  UNL     1     -31.595   7.859   3.632  1.00 20.00    -0.375 OA
ENDROOT
BRANCH   5   8
HETATM    8  C8  UNL     1     -34.055   5.777   5.553  1.00 20.00     0.000 C 
HETATM    9  C7  UNL     1     -34.530   4.404   5.914  1.00 20.00     0.005 C 
ENDBRANCH   5   8
TORSDOF 1
