REMARK  1 active torsions:
REMARK  status: ('A' for Active; 'I' for Inactive)
REMARK    1  A    between atoms: C6_6  and  C7_7 
ROOT
HETATM    1  C3  UNL     1     -33.860   6.329   2.349  1.00 20.00     0.006 C 
HETATM    2  C4  UNL     1     -34.522   5.713   3.573  1.00 20.00     0.020 C 
HETATM    3  C5  UNL     1     -33.348   7.668   4.339  1.00 20.00     0.025 C 
HETATM    4  C7  UNL     1     -33.473   7.741   2.806  1.00 20.00    -0.009 C 
HETATM    5  C8  UNL     1     -33.629   6.210   4.699  1.00 20.00     0.082 C 
HETATM    6 CL9  UNL     1     -34.389   6.036   6.287  1.00 20.00    -0.125 Cl
ENDROOT
BRANCH   4   7
HETATM    7  C6  UNL     1     -32.206   8.243   2.129  1.00 20.00    -0.010 A 
HETATM    8  C1  UNL     1     -32.259   8.790   0.730  1.00 20.00     0.005 A 
HETATM    9  C2  UNL     1     -32.007   9.714   1.889  1.00 20.00     0.005 A 
ENDBRANCH   4   7
TORSDOF 1
