REMARK  2 active torsions:
REMARK  status: ('A' for Active; 'I' for Inactive)
REMARK    1  A    between atoms: C7_7  and  C10_10 
REMARK    2  A    between atoms: C9_9  and  C10_10 
ROOT
HETATM    1  C1  UNL     1     -31.977  10.119   0.593  1.00 20.00     0.012 C 
HETATM    2  C2  UNL     1     -32.488   9.465   1.461  1.00 20.00    -0.117 C 
HETATM    3  C9  UNL     1     -33.118   8.668   2.522  1.00 20.00     0.093 C 
ENDROOT
BRANCH   3   4
HETATM    4  C10 UNL     1     -32.304   7.418   2.789  1.00 20.00     0.017 C 
BRANCH   4   5
HETATM    5  C7  UNL     1     -32.953   6.572   3.884  1.00 20.00    -0.012 C 
HETATM    6  C4  UNL     1     -33.097   7.384   5.178  1.00 20.00     0.005 C 
HETATM    7  C3  UNL     1     -33.798   6.587   6.275  1.00 20.00     0.002 C 
HETATM    8  C5  UNL     1     -35.152   6.054   5.807  1.00 20.00     0.020 C 
HETATM    9  C8  UNL     1     -35.063   5.259   4.503  1.00 20.00     0.082 C 
HETATM   10  C6  UNL     1     -34.318   6.041   3.417  1.00 20.00     0.024 C 
HETATM   11 CL11 UNL     1     -34.271   3.677   4.789  1.00 20.00    -0.125 Cl
ENDBRANCH   4   5
ENDBRANCH   3   4
TORSDOF 2
