REMARK  1 active torsions:
REMARK  status: ('A' for Active; 'I' for Inactive)
REMARK    1  A    between atoms: C8_8  and  C9_9 
ROOT
HETATM    1  C1  UNL     1     -33.000   6.024   2.595  1.00 20.00     0.006 C 
HETATM    2  C2  UNL     1     -33.712   5.337   3.764  1.00 20.00     0.020 C 
HETATM    3  C5  UNL     1     -33.825   7.686   4.162  1.00 20.00     0.025 C 
HETATM    4  C8  UNL     1     -33.289   7.526   2.739  1.00 20.00    -0.009 C 
HETATM    5  C10 UNL     1     -34.625   6.405   4.349  1.00 20.00     0.082 C 
HETATM    6 CL12 UNL     1     -35.021   6.101   6.046  1.00 20.00    -0.125 Cl
ENDROOT
BRANCH   4   7
HETATM    7  C9  UNL     1     -32.068   8.406   2.457  1.00 20.00    -0.006 C 
HETATM    8  C3  UNL     1     -32.387   9.894   2.651  1.00 20.00     0.031 C 
HETATM    9  C6  UNL     1     -33.199  10.462   1.492  1.00 20.00     0.168 C 
HETATM   10  O11 UNL     1     -32.538  10.229   0.250  1.00 20.00    -0.391 OA
HETATM   11  C7  UNL     1     -32.377   8.838  -0.024  1.00 20.00     0.168 C 
HETATM   12  C4  UNL     1     -31.517   8.172   1.045  1.00 20.00     0.031 C 
ENDBRANCH   4   7
TORSDOF 1
