REMARK  2 active torsions:
REMARK  status: ('A' for Active; 'I' for Inactive)
REMARK    1  A    between atoms: C6_6  and  C7_7 
REMARK    2  A    between atoms: C8_8  and  O9_9 
ROOT
HETATM    1  C3  UNL     1     -33.168   6.348   2.571  1.00 20.00     0.007 C 
HETATM    2  C4  UNL     1     -34.094   6.601   3.760  1.00 20.00     0.032 C 
HETATM    3  C5  UNL     1     -32.095   8.002   3.898  1.00 20.00     0.036 C 
HETATM    4  C7  UNL     1     -32.327   7.616   2.439  1.00 20.00    -0.008 C 
HETATM    5  C8  UNL     1     -33.413   7.684   4.601  1.00 20.00     0.118 C 
ENDROOT
BRANCH   4   6
HETATM    6  C6  UNL     1     -33.047   8.711   1.654  1.00 20.00    -0.010 A 
HETATM    7  C1  UNL     1     -32.274   9.864   1.078  1.00 20.00     0.005 A 
HETATM    8  C2  UNL     1     -32.861   8.823   0.167  1.00 20.00     0.005 A 
ENDBRANCH   4   6
BRANCH   5   9
HETATM    9  O9  UNL     1     -33.161   7.231   5.921  1.00 20.00    -0.396 OA
HETATM   10  H23 UNL     1     -32.732   7.965   6.388  1.00 20.00     0.210 HD
ENDBRANCH   5   9
TORSDOF 2
