REMARK  5 active torsions:
REMARK  status: ('A' for Active; 'I' for Inactive)
REMARK    1  A    between atoms: C2_2  and  C8_8 
REMARK    2  A    between atoms: C3_3  and  C9_9 
REMARK    3  A    between atoms: C3_3  and  C11_11 
REMARK    4  A    between atoms: C8_8  and  C10_10 
REMARK    5  A    between atoms: C9_9  and  C10_10 
ROOT
HETATM    1  C1  UNL     1     -32.505   9.389   0.287  1.00 20.00    -0.111 C 
HETATM    2  C2  UNL     1     -31.904   8.557   0.911  1.00 20.00    -0.107 C 
HETATM    3  C4  UNL     1     -33.242  10.401  -0.468  1.00 20.00     0.112 C 
ENDROOT
BRANCH   2   4
HETATM    4  C8  UNL     1     -31.175   7.534   1.672  1.00 20.00     0.094 C 
BRANCH   4   5
HETATM    5  C10 UNL     1     -31.297   7.736   3.186  1.00 20.00     0.020 C 
BRANCH   5   6
HETATM    6  C9  UNL     1     -32.739   7.745   3.703  1.00 20.00     0.080 C 
BRANCH   6   7
HETATM    7  C3  UNL     1     -33.476   6.432   3.460  1.00 20.00     0.134 C 
HETATM    8  O12 UNL     1     -33.229   5.747   2.464  1.00 20.00    -0.297 OA
BRANCH   7   9
HETATM    9  C11 UNL     1     -34.522   5.985   4.502  1.00 20.00     0.009 C 
HETATM   10  C5  UNL     1     -34.617   7.008   5.641  1.00 20.00     0.022 C 
HETATM   11  C6  UNL     1     -34.105   4.628   5.098  1.00 20.00     0.022 C 
HETATM   12  C7  UNL     1     -35.882   5.824   3.810  1.00 20.00     0.022 C 
ENDBRANCH   7   9
ENDBRANCH   6   7
ENDBRANCH   5   6
ENDBRANCH   4   5
ENDBRANCH   2   4
TORSDOF 5
