REMARK  2 active torsions:
REMARK  status: ('A' for Active; 'I' for Inactive)
REMARK    1  A    between atoms: C4_4  and  C10_10 
REMARK    2  A    between atoms: C8_8  and  C10_10 
ROOT
HETATM    1  C5  UNL     1     -34.126   4.495   2.910  1.00 20.00     0.006 C 
HETATM    2  C6  UNL     1     -34.241   4.380   4.425  1.00 20.00     0.016 C 
HETATM    3  C7  UNL     1     -35.064   6.566   3.663  1.00 20.00     0.020 C 
HETATM    4  C8  UNL     1     -34.067   5.998   2.648  1.00 20.00    -0.009 C 
HETATM    5  C9  UNL     1     -35.064   5.595   4.845  1.00 20.00     0.058 C 
HETATM    6 BR12 UNL     1     -34.300   6.425   6.431  1.00 20.00    -0.091 Br
ENDROOT
BRANCH   4   7
HETATM    7  C10 UNL     1     -32.662   6.568   2.836  1.00 20.00     0.043 C 
BRANCH   7   8
HETATM    8  C4  UNL     1     -32.510   7.916   2.180  1.00 20.00    -0.051 A 
HETATM    9  C1  UNL     1     -31.540   8.208   1.179  1.00 20.00     0.014 A 
HETATM   10  C2  UNL     1     -31.617   9.515   0.749  1.00 20.00     0.050 A 
HETATM   11  S11 UNL     1     -32.855  10.383   1.553  1.00 20.00    -0.113 SA
HETATM   12  C3  UNL     1     -33.292   9.011   2.478  1.00 20.00     0.056 A 
ENDBRANCH   7   8
ENDBRANCH   4   7
TORSDOF 2
