REMARK  4 active torsions:
REMARK  status: ('A' for Active; 'I' for Inactive)
REMARK    1  A    between atoms: C5_5  and  C6_6 
REMARK    2  A    between atoms: C6_6  and  C7_7 
REMARK    3  A    between atoms: C7_7  and  C9_9 
REMARK    4  A    between atoms: C8_8  and  C9_9 
ROOT
HETATM    1  C1  UNL     1     -33.480   9.595  -0.312  1.00 20.00     0.012 C 
HETATM    2  C2  UNL     1     -32.869   9.675   0.718  1.00 20.00    -0.117 C 
HETATM    3  C5  UNL     1     -32.118   9.776   1.978  1.00 20.00     0.093 C 
ENDROOT
BRANCH   3   4
HETATM    4  C6  UNL     1     -32.049   8.439   2.720  1.00 20.00     0.014 C 
BRANCH   4   5
HETATM    5  C7  UNL     1     -33.435   7.884   3.075  1.00 20.00     0.021 C 
BRANCH   5   6
HETATM    6  C9  UNL     1     -33.382   6.588   3.904  1.00 20.00     0.085 C 
HETATM    7 CL10 UNL     1     -32.870   5.252   2.812  1.00 20.00    -0.125 Cl
BRANCH   6   8
HETATM    8  C8  UNL     1     -34.687   6.227   4.659  1.00 20.00    -0.004 C 
HETATM    9  C3  UNL     1     -35.876   6.071   3.703  1.00 20.00     0.011 C 
HETATM   10  C4  UNL     1     -34.569   4.985   5.546  1.00 20.00     0.011 C 
ENDBRANCH   6   8
ENDBRANCH   5   6
ENDBRANCH   4   5
ENDBRANCH   3   4
TORSDOF 4
