REMARK  5 active torsions:
REMARK  status: ('A' for Active; 'I' for Inactive)
REMARK    1  A    between atoms: C6_6  and  C7_7 
REMARK    2  A    between atoms: C7_7  and  C8_8 
REMARK    3  A    between atoms: C8_8  and  C9_9 
REMARK    4  A    between atoms: C9_9  and  C10_10 
REMARK    5  A    between atoms: C10_10  and  C11_11 
ROOT
HETATM    1  C1  UNL     1     -34.115  10.020  -0.709  1.00 20.00     0.012 C 
HETATM    2  C2  UNL     1     -33.133   9.860  -0.037  1.00 20.00    -0.117 C 
HETATM    3  C6  UNL     1     -31.927   9.668   0.781  1.00 20.00     0.093 C 
ENDROOT
BRANCH   3   4
HETATM    4  C7  UNL     1     -32.254   9.153   2.184  1.00 20.00     0.012 C 
BRANCH   4   5
HETATM    5  C8  UNL     1     -32.916   7.770   2.173  1.00 20.00     0.002 C 
BRANCH   5   6
HETATM    6  C9  UNL     1     -33.266   7.313   3.598  1.00 20.00     0.021 C 
BRANCH   6   7
HETATM    7  C10 UNL     1     -34.010   5.961   3.644  1.00 20.00     0.089 C 
HETATM    8 CL12 UNL     1     -33.410   4.917   2.300  1.00 20.00    -0.124 Cl
BRANCH   7   9
HETATM    9  C11 UNL     1     -33.938   5.218   5.024  1.00 20.00    -0.035 C 
HETATM   10  C3  UNL     1     -34.697   3.875   4.946  1.00 20.00     0.016 C 
HETATM   11  C4  UNL     1     -32.471   4.887   5.383  1.00 20.00     0.016 C 
HETATM   12  C5  UNL     1     -34.546   6.047   6.172  1.00 20.00     0.016 C 
ENDBRANCH   7   9
ENDBRANCH   6   7
ENDBRANCH   5   6
ENDBRANCH   4   5
ENDBRANCH   3   4
TORSDOF 5
