REMARK  1 active torsions:
REMARK  status: ('A' for Active; 'I' for Inactive)
REMARK    1  A    between atoms: C7_7  and  C8_8 
ROOT
HETATM    1  C1  UNL     1     -33.663   4.727   3.080  1.00 20.00     0.002 C 
HETATM    2  C2  UNL     1     -33.084   6.028   2.532  1.00 20.00     0.005 C 
HETATM    3  C5  UNL     1     -34.955   4.966   3.861  1.00 20.00     0.016 C 
HETATM    4  C6  UNL     1     -34.150   7.317   4.429  1.00 20.00     0.020 C 
HETATM    5  C8  UNL     1     -32.853   7.056   3.645  1.00 20.00    -0.009 C 
HETATM    6  C9  UNL     1     -34.824   6.043   4.934  1.00 20.00     0.058 C 
HETATM    7 BR10 UNL     1     -33.851   5.334   6.483  1.00 20.00    -0.091 Br
ENDROOT
BRANCH   5   8
HETATM    8  C7  UNL     1     -32.306   8.361   3.065  1.00 20.00    -0.010 A 
HETATM    9  C3  UNL     1     -31.747   8.394   1.670  1.00 20.00     0.005 A 
HETATM   10  C4  UNL     1     -33.052   9.075   1.973  1.00 20.00     0.005 A 
ENDBRANCH   5   8
TORSDOF 1
