REMARK  4 active torsions:
REMARK  status: ('A' for Active; 'I' for Inactive)
REMARK    1  A    between atoms: C2_2  and  C5_5 
REMARK    2  A    between atoms: C5_5  and  C6_6 
REMARK    3  A    between atoms: C6_6  and  C7_7 
REMARK    4  A    between atoms: C7_7  and  C8_8 
ROOT
HETATM    1  C1  UNL     1     -32.880   9.304   0.729  1.00 20.00    -0.111 C 
HETATM    2  C2  UNL     1     -32.369   8.866   1.724  1.00 20.00    -0.107 C 
HETATM    3  C3  UNL     1     -33.505   9.834  -0.482  1.00 20.00     0.112 C 
ENDROOT
BRANCH   2   4
HETATM    4  C5  UNL     1     -31.744   8.332   2.941  1.00 20.00     0.094 C 
BRANCH   4   5
HETATM    5  C6  UNL     1     -32.524   7.150   3.523  1.00 20.00     0.014 C 
BRANCH   5   6
HETATM    6  C7  UNL     1     -33.937   7.540   3.982  1.00 20.00     0.020 C 
BRANCH   6   7
HETATM    7  C8  UNL     1     -34.735   6.360   4.553  1.00 20.00     0.078 C 
HETATM    8  C4  UNL     1     -34.891   5.251   3.519  1.00 20.00     0.026 C 
HETATM    9 CL9  UNL     1     -33.935   5.687   6.005  1.00 20.00    -0.125 Cl
ENDBRANCH   6   7
ENDBRANCH   5   6
ENDBRANCH   4   5
ENDBRANCH   2   4
TORSDOF 4
