REMARK  4 active torsions:
REMARK  status: ('A' for Active; 'I' for Inactive)
REMARK    1  A    between atoms: C5_5  and  C8_8 
REMARK    2  A    between atoms: C6_6  and  C7_7 
REMARK    3  A    between atoms: C6_6  and  C8_8 
REMARK    4  A    between atoms: C7_7  and  C9_9 
ROOT
HETATM    1  C6  UNL     1     -33.263   7.396   2.479  1.00 20.00     0.021 C 
ENDROOT
BRANCH   1   2
HETATM    2  C7  UNL     1     -32.340   8.616   2.628  1.00 20.00     0.010 C 
BRANCH   2   3
HETATM    3  C9  UNL     1     -32.157   9.482   1.352  1.00 20.00    -0.051 C 
HETATM    4  C2  UNL     1     -32.582  10.926   1.687  1.00 20.00     0.014 C 
HETATM    5  C3  UNL     1     -33.038   8.970   0.201  1.00 20.00     0.014 C 
HETATM    6  C4  UNL     1     -30.688   9.503   0.895  1.00 20.00     0.014 C 
ENDBRANCH   2   3
ENDBRANCH   1   2
BRANCH   1   7
HETATM    7  C8  UNL     1     -33.359   6.547   3.760  1.00 20.00     0.082 C 
HETATM    8 CL10 UNL     1     -34.025   7.522   5.109  1.00 20.00    -0.125 Cl
BRANCH   7   9
HETATM    9  C5  UNL     1     -34.229   5.303   3.522  1.00 20.00     0.016 C 
HETATM   10  C1  UNL     1     -34.381   4.419   4.753  1.00 20.00     0.006 C 
ENDBRANCH   7   9
ENDBRANCH   1   7
TORSDOF 4
