REMARK  2 active torsions:
REMARK  status: ('A' for Active; 'I' for Inactive)
REMARK    1  A    between atoms: C5_5  and  C8_8 
REMARK    2  A    between atoms: C8_8  and  C9_9 
ROOT
HETATM    1  C1  UNL     1     -33.468   4.418   3.499  1.00 20.00     0.002 C 
HETATM    2  C2  UNL     1     -32.565   5.479   2.888  1.00 20.00     0.005 C 
HETATM    3  C3  UNL     1     -34.200   4.903   4.753  1.00 20.00     0.020 C 
HETATM    4  C4  UNL     1     -34.508   7.066   3.453  1.00 20.00     0.024 C 
HETATM    5  C5  UNL     1     -33.361   6.727   2.479  1.00 20.00    -0.013 C 
HETATM    6  C6  UNL     1     -34.390   6.421   4.835  1.00 20.00     0.082 C 
HETATM    7 CL10 UNL     1     -33.058   7.175   5.770  1.00 20.00    -0.125 Cl
ENDROOT
BRANCH   5   8
HETATM    8  C8  UNL     1     -32.424   7.915   2.257  1.00 20.00     0.004 C 
BRANCH   8   9
HETATM    9  C9  UNL     1     -33.073   8.971   1.369  1.00 20.00    -0.004 C 
HETATM   10  C7  UNL     1     -32.152  10.164   1.169  1.00 20.00     0.005 C 
ENDBRANCH   8   9
ENDBRANCH   5   8
TORSDOF 2
