REMARK  2 active torsions:
REMARK  status: ('A' for Active; 'I' for Inactive)
REMARK    1  A    between atoms: C2_2  and  C10_10 
REMARK    2  A    between atoms: C7_7  and  C10_10 
ROOT
HETATM    1  C1  UNL     1     -32.617   9.432   1.158  1.00 20.00    -0.111 C 
HETATM    2  C2  UNL     1     -32.420   8.525   1.921  1.00 20.00    -0.107 C 
HETATM    3  C9  UNL     1     -32.857  10.535   0.229  1.00 20.00     0.112 C 
ENDROOT
BRANCH   2   4
HETATM    4  C10 UNL     1     -32.169   7.424   2.854  1.00 20.00     0.098 C 
BRANCH   4   5
HETATM    5  C7  UNL     1     -33.282   6.377   2.777  1.00 20.00    -0.002 C 
HETATM    6  C4  UNL     1     -32.770   5.009   3.250  1.00 20.00     0.005 C 
HETATM    7  C3  UNL     1     -33.919   4.064   3.569  1.00 20.00     0.002 C 
HETATM    8  C5  UNL     1     -34.841   4.593   4.671  1.00 20.00     0.020 C 
HETATM    9  C8  UNL     1     -34.841   6.117   4.828  1.00 20.00     0.082 C 
HETATM   10  C6  UNL     1     -34.561   6.836   3.507  1.00 20.00     0.025 C 
HETATM   11 CL11 UNL     1     -33.663   6.623   6.082  1.00 20.00    -0.125 Cl
ENDBRANCH   4   5
ENDBRANCH   2   4
TORSDOF 2
