REMARK  3 active torsions:
REMARK  status: ('A' for Active; 'I' for Inactive)
REMARK    1  A    between atoms: C5_5  and  C9_9 
REMARK    2  A    between atoms: C9_9  and  C11_11 
REMARK    3  A    between atoms: C10_10  and  C11_11 
ROOT
HETATM    1  C1  UNL     1     -34.069   6.442   6.272  1.00 20.00     0.002 C 
HETATM    2  C2  UNL     1     -32.905   6.922   5.417  1.00 20.00     0.005 C 
HETATM    3  C3  UNL     1     -34.894   5.341   5.598  1.00 20.00     0.020 C 
HETATM    4  C4  UNL     1     -34.602   6.737   3.493  1.00 20.00     0.024 C 
HETATM    5  C5  UNL     1     -33.391   7.495   4.077  1.00 20.00    -0.013 C 
HETATM    6  C6  UNL     1     -34.823   5.337   4.067  1.00 20.00     0.082 C 
HETATM    7 CL12 UNL     1     -33.547   4.214   3.496  1.00 20.00    -0.125 Cl
ENDROOT
BRANCH   5   8
HETATM    8  C9  UNL     1     -32.235   7.589   3.081  1.00 20.00     0.009 C 
BRANCH   8   9
HETATM    9  C11 UNL     1     -32.484   8.592   1.937  1.00 20.00    -0.019 C 
HETATM   10  C8  UNL     1     -31.595   8.299   0.724  1.00 20.00     0.010 C 
BRANCH   9  11
HETATM   11  C10 UNL     1     -32.259  10.020   2.475  1.00 20.00    -0.000 C 
HETATM   12  C7  UNL     1     -32.534  11.114   1.452  1.00 20.00     0.005 C 
ENDBRANCH   9  11
ENDBRANCH   8   9
ENDBRANCH   5   8
TORSDOF 3
