REMARK  2 active torsions:
REMARK  status: ('A' for Active; 'I' for Inactive)
REMARK    1  A    between atoms: C8_8  and  C10_10 
REMARK    2  A    between atoms: C9_9  and  O11_11 
ROOT
HETATM    1  C1  UNL     1     -32.868  10.181   0.916  1.00 20.00     0.012 C 
HETATM    2  C2  UNL     1     -32.726   9.077   1.366  1.00 20.00    -0.117 C 
HETATM    3  C10 UNL     1     -32.545   7.726   1.899  1.00 20.00     0.097 C 
ENDROOT
BRANCH   3   4
HETATM    4  C8  UNL     1     -33.170   7.604   3.295  1.00 20.00    -0.001 C 
HETATM    5  C5  UNL     1     -32.241   8.275   4.317  1.00 20.00     0.005 C 
HETATM    6  C3  UNL     1     -32.477   7.963   5.793  1.00 20.00     0.000 C 
HETATM    7  C4  UNL     1     -33.936   7.800   6.202  1.00 20.00     0.002 C 
HETATM    8  C6  UNL     1     -34.443   6.376   5.997  1.00 20.00     0.032 C 
HETATM    9  C9  UNL     1     -34.682   5.965   4.546  1.00 20.00     0.118 C 
HETATM   10  C7  UNL     1     -33.484   6.135   3.608  1.00 20.00     0.037 C 
BRANCH   9  11
HETATM   11  O11 UNL     1     -35.039   4.579   4.534  1.00 20.00    -0.396 OA
HETATM   12  H27 UNL     1     -35.844   4.504   5.066  1.00 20.00     0.210 HD
ENDBRANCH   9  11
ENDBRANCH   3   4
TORSDOF 2
