REMARK  3 active torsions:
REMARK  status: ('A' for Active; 'I' for Inactive)
REMARK    1  A    between atoms: C4_4  and  C5_5 
REMARK    2  A    between atoms: C5_5  and  C6_6 
REMARK    3  A    between atoms: C6_6  and  C7_7 
ROOT
HETATM    1  C1  UNL     1     -33.840   6.328   5.757  1.00 20.00     0.033 C 
HETATM    2  C2  UNL     1     -34.713   5.090   5.743  1.00 20.00     0.168 C 
HETATM    3  C3  UNL     1     -34.094   5.575   3.550  1.00 20.00     0.172 C 
HETATM    4  C4  UNL     1     -34.042   6.861   4.355  1.00 20.00     0.011 C 
HETATM    5  O8  UNL     1     -34.698   4.587   4.399  1.00 20.00    -0.391 OA
ENDROOT
BRANCH   4   6
HETATM    6  C5  UNL     1     -32.968   7.827   3.896  1.00 20.00     0.008 C 
BRANCH   6   7
HETATM    7  C6  UNL     1     -33.250   8.359   2.490  1.00 20.00     0.015 C 
BRANCH   7   8
HETATM    8  C7  UNL     1     -32.185   9.356   2.053  1.00 20.00     0.114 C 
HETATM    9 CL9  UNL     1     -32.525   9.947   0.410  1.00 20.00    -0.130 Cl
ENDBRANCH   7   8
ENDBRANCH   6   7
ENDBRANCH   4   6
TORSDOF 3
