REMARK  6 active torsions:
REMARK  status: ('A' for Active; 'I' for Inactive)
REMARK    1  A    between atoms: C2_2  and  C7_7 
REMARK    2  A    between atoms: C5_5  and  C10_10 
REMARK    3  A    between atoms: C7_7  and  C8_8 
REMARK    4  A    between atoms: C8_8  and  C9_9 
REMARK    5  A    between atoms: C9_9  and  C10_10 
REMARK    6  A    between atoms: C10_10  and  O11_11 
ROOT
HETATM    1  C1  UNL     1     -32.414   9.363   1.265  1.00 20.00    -0.111 C 
HETATM    2  C2  UNL     1     -32.138   8.560   2.114  1.00 20.00    -0.107 C 
HETATM    3  C6  UNL     1     -32.751  10.340   0.231  1.00 20.00     0.112 C 
ENDROOT
BRANCH   2   4
HETATM    4  C7  UNL     1     -31.797   7.576   3.151  1.00 20.00     0.094 C 
BRANCH   4   5
HETATM    5  C8  UNL     1     -32.705   7.727   4.373  1.00 20.00     0.014 C 
BRANCH   5   6
HETATM    6  C9  UNL     1     -34.177   7.556   3.994  1.00 20.00     0.033 C 
BRANCH   6   7
HETATM    7  C10 UNL     1     -34.501   6.174   3.415  1.00 20.00     0.122 C 
BRANCH   7   8
HETATM    8  C5  UNL     1     -33.756   5.062   4.093  1.00 20.00     0.014 A 
HETATM    9  C3  UNL     1     -33.990   4.770   5.549  1.00 20.00     0.007 A 
HETATM   10  C4  UNL     1     -34.478   3.808   4.502  1.00 20.00     0.007 A 
ENDBRANCH   7   8
BRANCH   7  11
HETATM   11  O11 UNL     1     -34.139   6.198   2.033  1.00 20.00    -0.395 OA
HETATM   12  H27 UNL     1     -34.389   5.336   1.671  1.00 20.00     0.210 HD
ENDBRANCH   7  11
ENDBRANCH   6   7
ENDBRANCH   5   6
ENDBRANCH   4   5
ENDBRANCH   2   4
TORSDOF 6
