REMARK  6 active torsions:
REMARK  status: ('A' for Active; 'I' for Inactive)
REMARK    1  A    between atoms: C1_1  and  C4_4 
REMARK    2  A    between atoms: C1_1  and  C8_8 
REMARK    3  A    between atoms: C8_8  and  C9_9 
REMARK    4  A    between atoms: C9_9  and  C10_10 
REMARK    5  A    between atoms: C10_10  and  C11_11 
REMARK    6  A    between atoms: C11_11  and  C12_12 
ROOT
HETATM    1  C9  UNL     1     -31.832   8.503   3.970  1.00 20.00     0.007 C 
ENDROOT
BRANCH   1   2
HETATM    2  C8  UNL     1     -31.204   9.256   2.799  1.00 20.00     0.079 C 
BRANCH   2   3
HETATM    3  C1  UNL     1     -32.220   9.943   1.910  1.00 20.00     0.131 C 
HETATM    4  O13 UNL     1     -33.313  10.348   2.286  1.00 20.00    -0.298 OA
BRANCH   3   5
HETATM    5  C4  UNL     1     -31.827  10.083   0.478  1.00 20.00     0.055 A 
HETATM    6  C2  UNL     1     -32.096   8.945  -0.450  1.00 20.00     0.013 A 
HETATM    7  C3  UNL     1     -32.905  10.203  -0.548  1.00 20.00     0.013 A 
ENDBRANCH   3   5
ENDBRANCH   2   3
ENDBRANCH   1   2
BRANCH   1   8
HETATM    8  C10 UNL     1     -32.789   7.397   3.509  1.00 20.00     0.001 C 
BRANCH   8   9
HETATM    9  C11 UNL     1     -33.428   6.689   4.711  1.00 20.00     0.008 C 
BRANCH   9  10
HETATM   10  C12 UNL     1     -34.468   5.587   4.371  1.00 20.00    -0.051 C 
HETATM   11  C5  UNL     1     -35.037   5.040   5.695  1.00 20.00     0.014 C 
HETATM   12  C6  UNL     1     -33.817   4.425   3.603  1.00 20.00     0.014 C 
HETATM   13  C7  UNL     1     -35.630   6.156   3.539  1.00 20.00     0.014 C 
ENDBRANCH   9  10
ENDBRANCH   8   9
ENDBRANCH   1   8
TORSDOF 6
