REMARK  6 active torsions:
REMARK  status: ('A' for Active; 'I' for Inactive)
REMARK    1  A    between atoms: C3_3  and  C10_10 
REMARK    2  A    between atoms: C6_6  and  C11_11 
REMARK    3  A    between atoms: C7_7  and  C8_8 
REMARK    4  A    between atoms: C7_7  and  C9_9 
REMARK    5  A    between atoms: C8_8  and  C10_10 
REMARK    6  A    between atoms: C9_9  and  C11_11 
ROOT
HETATM    1  C7  UNL     1     -32.617   7.829   2.243  1.00 20.00     0.002 C 
ENDROOT
BRANCH   1   2
HETATM    2  C8  UNL     1     -32.084   7.049   3.454  1.00 20.00     0.020 C 
BRANCH   2   3
HETATM    3  C10 UNL     1     -33.151   6.537   4.432  1.00 20.00     0.086 C 
HETATM    4 CL12 UNL     1     -33.566   7.770   5.657  1.00 20.00    -0.125 Cl
BRANCH   3   5
HETATM    5  C3  UNL     1     -34.407   6.070   3.758  1.00 20.00     0.004 A 
HETATM    6  C1  UNL     1     -34.359   4.945   2.761  1.00 20.00     0.006 A 
HETATM    7  C2  UNL     1     -35.000   4.732   4.104  1.00 20.00     0.006 A 
ENDBRANCH   3   5
ENDBRANCH   2   3
ENDBRANCH   1   2
BRANCH   1   8
HETATM    8  C9  UNL     1     -31.473   8.232   1.305  1.00 20.00     0.004 C 
BRANCH   8   9
HETATM    9  C11 UNL     1     -31.948   8.939   0.021  1.00 20.00    -0.019 C 
HETATM   10  C5  UNL     1     -33.265   8.315  -0.454  1.00 20.00     0.010 C 
BRANCH   9  11
HETATM   11  C6  UNL     1     -32.069  10.471   0.146  1.00 20.00    -0.000 C 
HETATM   12  C4  UNL     1     -33.063  10.962   1.190  1.00 20.00     0.005 C 
ENDBRANCH   9  11
ENDBRANCH   8   9
ENDBRANCH   1   8
TORSDOF 6
