REMARK  2 active torsions:
REMARK  status: ('A' for Active; 'I' for Inactive)
REMARK    1  A    between atoms: C6_6  and  C9_9 
REMARK    2  A    between atoms: C8_8  and  C9_9 
ROOT
HETATM    1  C1  UNL     1     -33.014  10.495  -0.485  1.00 20.00     0.012 C 
HETATM    2  C2  UNL     1     -32.819   9.921   0.551  1.00 20.00    -0.117 C 
HETATM    3  C8  UNL     1     -32.580   9.222   1.820  1.00 20.00     0.093 C 
ENDROOT
BRANCH   3   4
HETATM    4  C9  UNL     1     -33.046   7.779   1.727  1.00 20.00     0.017 C 
BRANCH   4   5
HETATM    5  C6  UNL     1     -32.805   7.042   3.036  1.00 20.00    -0.012 C 
HETATM    6  C3  UNL     1     -33.587   7.654   4.205  1.00 20.00     0.006 C 
HETATM    7  C4  UNL     1     -33.901   6.467   5.103  1.00 20.00     0.020 C 
HETATM    8  C7  UNL     1     -34.260   5.392   4.091  1.00 20.00     0.082 C 
HETATM    9  C5  UNL     1     -33.225   5.562   2.980  1.00 20.00     0.024 C 
HETATM   10 CL10 UNL     1     -34.240   3.769   4.797  1.00 20.00    -0.125 Cl
ENDBRANCH   4   5
ENDBRANCH   3   4
TORSDOF 2
