REMARK  1 active torsions:
REMARK  status: ('A' for Active; 'I' for Inactive)
REMARK    1  A    between atoms: C9_9  and  C10_10 
ROOT
HETATM    1  C1  UNL     1     -32.626   9.406   0.842  1.00 20.00     0.012 C 
HETATM    2  C2  UNL     1     -32.430   8.500   1.605  1.00 20.00    -0.117 C 
HETATM    3  C10 UNL     1     -32.174   7.402   2.538  1.00 20.00     0.098 C 
ENDROOT
BRANCH   3   4
HETATM    4  C9  UNL     1     -33.402   6.494   2.659  1.00 20.00     0.004 C 
HETATM    5  C5  UNL     1     -34.473   7.143   3.538  1.00 20.00     0.083 C 
HETATM    6  C3  UNL     1     -34.312   6.823   5.006  1.00 20.00     0.127 C 
HETATM    7  C4  UNL     1     -35.031   5.591   5.505  1.00 20.00     0.078 C 
HETATM    8  O11 UNL     1     -33.602   7.504   5.745  1.00 20.00    -0.298 OA
HETATM    9  C6  UNL     1     -34.325   4.307   5.099  1.00 20.00     0.007 C 
HETATM   10  C7  UNL     1     -34.071   4.161   3.595  1.00 20.00     0.001 C 
HETATM   11  C8  UNL     1     -32.959   5.081   3.084  1.00 20.00     0.006 C 
ENDBRANCH   3   4
TORSDOF 1
