REMARK  1 active torsions:
REMARK  status: ('A' for Active; 'I' for Inactive)
REMARK    1  A    between atoms: C8_8  and  C10_10 
ROOT
HETATM    1  C1  UNL     1     -33.138  10.748   1.333  1.00 20.00     0.012 C 
HETATM    2  C2  UNL     1     -32.899   9.590   1.539  1.00 20.00    -0.117 C 
HETATM    3  C10 UNL     1     -32.595   8.178   1.776  1.00 20.00     0.097 C 
ENDROOT
BRANCH   3   4
HETATM    4  C8  UNL     1     -33.342   7.662   3.013  1.00 20.00    -0.002 C 
HETATM    5  C5  UNL     1     -32.591   8.129   4.273  1.00 20.00     0.005 C 
HETATM    6  C3  UNL     1     -33.340   7.965   5.593  1.00 20.00     0.000 C 
HETATM    7  C4  UNL     1     -33.835   6.553   5.902  1.00 20.00     0.001 C 
HETATM    8  C6  UNL     1     -35.013   6.144   5.021  1.00 20.00     0.020 C 
HETATM    9  C9  UNL     1     -34.632   5.519   3.679  1.00 20.00     0.082 C 
HETATM   10  C7  UNL     1     -33.431   6.127   2.948  1.00 20.00     0.025 C 
HETATM   11 CL11 UNL     1     -34.332   3.757   3.892  1.00 20.00    -0.125 Cl
ENDBRANCH   3   4
TORSDOF 1
