REMARK  2 active torsions:
REMARK  status: ('A' for Active; 'I' for Inactive)
REMARK    1  A    between atoms: C6_6  and  C7_7 
REMARK    2  A    between atoms: C8_8  and  O9_9 
ROOT
HETATM    1  C1  UNL     1     -34.897   5.783   3.207  1.00 20.00     0.003 C 
HETATM    2  C2  UNL     1     -33.868   6.489   2.324  1.00 20.00     0.007 C 
HETATM    3  C5  UNL     1     -34.701   6.332   4.620  1.00 20.00     0.032 C 
HETATM    4  C7  UNL     1     -32.842   7.056   3.301  1.00 20.00     0.018 C 
HETATM    5  C8  UNL     1     -33.717   7.488   4.475  1.00 20.00     0.122 C 
ENDROOT
BRANCH   4   6
HETATM    6  C6  UNL     1     -32.019   8.192   2.714  1.00 20.00    -0.008 A 
HETATM    7  C3  UNL     1     -32.002   8.425   1.228  1.00 20.00     0.005 A 
HETATM    8  C4  UNL     1     -32.702   9.399   2.134  1.00 20.00     0.005 A 
ENDBRANCH   4   6
BRANCH   5   9
HETATM    9  O9  UNL     1     -32.947   7.666   5.649  1.00 20.00    -0.395 OA
HETATM   10  H23 UNL     1     -33.570   7.854   6.372  1.00 20.00     0.210 HD
ENDBRANCH   5   9
TORSDOF 2
