REMARK  4 active torsions:
REMARK  status: ('A' for Active; 'I' for Inactive)
REMARK    1  A    between atoms: C5_5  and  C8_8 
REMARK    2  A    between atoms: C6_6  and  C9_9 
REMARK    3  A    between atoms: C9_9  and  C10_10 
REMARK    4  A    between atoms: C10_10  and  C11_11 
ROOT
HETATM    1  C1  UNL     1     -34.050   4.353   3.614  1.00 20.00     0.001 C 
HETATM    2  C2  UNL     1     -35.127   5.017   4.470  1.00 20.00     0.005 C 
HETATM    3  C3  UNL     1     -33.633   5.241   2.445  1.00 20.00     0.005 C 
HETATM    4  C4  UNL     1     -34.277   7.294   3.772  1.00 20.00     0.009 C 
HETATM    5  C5  UNL     1     -34.733   6.420   4.951  1.00 20.00    -0.014 C 
HETATM    6  C6  UNL     1     -33.189   6.632   2.913  1.00 20.00    -0.014 C 
ENDROOT
BRANCH   6   7
HETATM    7  C9  UNL     1     -32.841   7.515   1.714  1.00 20.00     0.005 C 
BRANCH   7   8
HETATM    8  C10 UNL     1     -31.924   8.663   2.125  1.00 20.00     0.015 C 
BRANCH   8   9
HETATM    9  C11 UNL     1     -31.558   9.517   0.918  1.00 20.00     0.114 C 
HETATM   10 CL12 UNL     1     -33.022  10.193   0.168  1.00 20.00    -0.130 Cl
ENDBRANCH   8   9
ENDBRANCH   7   8
ENDBRANCH   6   7
BRANCH   5  11
HETATM   11  C8  UNL     1     -33.675   6.363   6.057  1.00 20.00     0.000 C 
HETATM   12  C7  UNL     1     -33.339   7.725   6.568  1.00 20.00     0.005 C 
ENDBRANCH   5  11
TORSDOF 4
