REMARK  1 active torsions:
REMARK  status: ('A' for Active; 'I' for Inactive)
REMARK    1  A    between atoms: C8_8  and  C9_9 
ROOT
HETATM    1  C1  UNL     1     -33.511   7.010   5.564  1.00 20.00     0.002 C 
HETATM    2  C2  UNL     1     -32.698   7.629   4.424  1.00 20.00     0.005 C 
HETATM    3  C3  UNL     1     -34.609   6.053   5.091  1.00 20.00     0.020 C 
HETATM    4  C5  UNL     1     -33.944   6.297   2.653  1.00 20.00     0.025 C 
HETATM    5  C8  UNL     1     -33.493   7.695   3.119  1.00 20.00    -0.007 C 
HETATM    6  C10 UNL     1     -34.259   5.323   3.797  1.00 20.00     0.082 C 
HETATM    7 CL12 UNL     1     -32.875   4.213   4.075  1.00 20.00    -0.125 Cl
ENDROOT
BRANCH   5   8
HETATM    8  C9  UNL     1     -32.700   8.394   2.031  1.00 20.00     0.015 C 
HETATM    9  C4  UNL     1     -32.358   9.835   2.340  1.00 20.00     0.033 C 
HETATM   10  C6  UNL     1     -32.045  10.378   0.961  1.00 20.00     0.168 C 
HETATM   11  O11 UNL     1     -32.866   9.653   0.033  1.00 20.00    -0.391 OA
HETATM   12  C7  UNL     1     -33.455   8.539   0.721  1.00 20.00     0.172 C 
ENDBRANCH   5   8
TORSDOF 1
