REMARK  4 active torsions:
REMARK  status: ('A' for Active; 'I' for Inactive)
REMARK    1  A    between atoms: C4_4  and  C8_8 
REMARK    2  A    between atoms: C5_5  and  C9_9 
REMARK    3  A    between atoms: C5_5  and  O11_11 
REMARK    4  A    between atoms: C9_9  and  C10_10 
ROOT
HETATM    1  C1  UNL     1     -31.510   8.190   1.711  1.00 20.00     0.007 C 
HETATM    2  C2  UNL     1     -32.181   6.934   2.280  1.00 20.00     0.038 C 
HETATM    3  C3  UNL     1     -33.473   8.809   3.006  1.00 20.00     0.042 C 
HETATM    4  C4  UNL     1     -32.213   9.391   2.359  1.00 20.00    -0.012 C 
HETATM    5  C5  UNL     1     -33.023   7.422   3.459  1.00 20.00     0.058 C 
ENDROOT
BRANCH   5   6
HETATM    6  C9  UNL     1     -34.185   6.499   3.795  1.00 20.00     0.037 C 
BRANCH   6   7
HETATM    7  C10 UNL     1     -33.700   5.089   4.127  1.00 20.00    -0.002 C 
HETATM    8  C7  UNL     1     -34.859   4.174   4.491  1.00 20.00     0.005 C 
ENDBRANCH   6   7
ENDBRANCH   5   6
BRANCH   5   9
HETATM    9  O11 UNL     1     -32.196   7.559   4.613  1.00 20.00    -0.390 OA
HETATM   10  H31 UNL     1     -32.772   7.868   5.329  1.00 20.00     0.210 HD
ENDBRANCH   5   9
BRANCH   4  11
HETATM   11  C8  UNL     1     -32.516  10.509   1.375  1.00 20.00     0.000 C 
HETATM   12  C6  UNL     1     -33.403  10.049   0.261  1.00 20.00     0.005 C 
ENDBRANCH   4  11
TORSDOF 4
