REMARK  1 active torsions:
REMARK  status: ('A' for Active; 'I' for Inactive)
REMARK    1  A    between atoms: C4_4  and  C7_7 
ROOT
HETATM    1  C1  UNL     1     -33.514   6.007   2.412  1.00 20.00     0.006 C 
HETATM    2  C2  UNL     1     -34.062   4.969   3.396  1.00 20.00     0.020 C 
HETATM    3  C3  UNL     1     -33.457   6.891   4.673  1.00 20.00     0.024 C 
HETATM    4  C4  UNL     1     -33.357   7.313   3.207  1.00 20.00    -0.013 C 
HETATM    5  C5  UNL     1     -34.488   5.774   4.617  1.00 20.00     0.082 C 
HETATM    6 CL8  UNL     1     -34.509   4.800   6.094  1.00 20.00    -0.125 Cl
ENDROOT
BRANCH   4   7
HETATM    7  C7  UNL     1     -32.071   8.058   2.889  1.00 20.00     0.000 C 
HETATM    8  C6  UNL     1     -31.999   8.455   1.450  1.00 20.00     0.005 C 
ENDBRANCH   4   7
TORSDOF 1
