REMARK  2 active torsions:
REMARK  status: ('A' for Active; 'I' for Inactive)
REMARK    1  A    between atoms: C9_9  and  C11_11 
REMARK    2  A    between atoms: C10_10  and  C11_11 
ROOT
HETATM    1  C1  UNL     1     -33.465   9.107  -0.873  1.00 20.00     0.012 C 
HETATM    2  C2  UNL     1     -33.063   9.352   0.231  1.00 20.00    -0.117 C 
HETATM    3  C10 UNL     1     -32.573   9.656   1.582  1.00 20.00     0.093 C 
ENDROOT
BRANCH   3   4
HETATM    4  C11 UNL     1     -32.157   8.378   2.281  1.00 20.00     0.017 C 
BRANCH   4   5
HETATM    5  C9  UNL     1     -33.339   7.408   2.378  1.00 20.00    -0.007 C 
HETATM    6  C5  UNL     1     -34.287   7.818   3.507  1.00 20.00     0.082 C 
HETATM    7  C3  UNL     1     -33.914   7.218   4.843  1.00 20.00     0.127 C 
HETATM    8  C4  UNL     1     -34.533   5.879   5.171  1.00 20.00     0.078 C 
HETATM    9  O12 UNL     1     -33.120   7.770   5.603  1.00 20.00    -0.298 OA
HETATM   10  C6  UNL     1     -33.867   4.737   4.420  1.00 20.00     0.007 C 
HETATM   11  C7  UNL     1     -33.826   4.907   2.898  1.00 20.00     0.001 C 
HETATM   12  C8  UNL     1     -32.814   5.961   2.441  1.00 20.00     0.005 C 
ENDBRANCH   4   5
ENDBRANCH   3   4
TORSDOF 2
