REMARK  2 active torsions:
REMARK  status: ('A' for Active; 'I' for Inactive)
REMARK    1  A    between atoms: C8_8  and  C10_10 
REMARK    2  A    between atoms: C9_9  and  C10_10 
ROOT
HETATM    1  C1  UNL     1     -32.303   9.636   0.841  1.00 20.00     0.012 C 
HETATM    2  C2  UNL     1     -32.101   9.166   1.927  1.00 20.00    -0.117 C 
HETATM    3  C9  UNL     1     -31.854   8.596   3.258  1.00 20.00     0.093 C 
ENDROOT
BRANCH   3   4
HETATM    4  C10 UNL     1     -32.027   7.089   3.223  1.00 20.00     0.017 C 
BRANCH   4   5
HETATM    5  C8  UNL     1     -33.446   6.715   2.783  1.00 20.00    -0.007 C 
HETATM    6  C5  UNL     1     -34.443   6.883   3.932  1.00 20.00     0.082 C 
HETATM    7  C3  UNL     1     -34.318   5.763   4.943  1.00 20.00     0.127 C 
HETATM    8  C4  UNL     1     -34.331   4.355   4.395  1.00 20.00     0.078 C 
HETATM    9  O11 UNL     1     -34.307   5.985   6.153  1.00 20.00    -0.298 OA
HETATM   10  C6  UNL     1     -33.327   4.210   3.261  1.00 20.00     0.008 C 
HETATM   11  C7  UNL     1     -33.508   5.295   2.199  1.00 20.00     0.005 C 
ENDBRANCH   4   5
ENDBRANCH   3   4
TORSDOF 2
