REMARK  2 active torsions:
REMARK  status: ('A' for Active; 'I' for Inactive)
REMARK    1  A    between atoms: C7_7  and  C9_9 
REMARK    2  A    between atoms: C8_8  and  O10_10 
ROOT
HETATM    1  C1  UNL     1     -31.963   9.014   0.606  1.00 20.00     0.012 C 
HETATM    2  C2  UNL     1     -32.078   8.605   1.728  1.00 20.00    -0.117 C 
HETATM    3  C9  UNL     1     -32.210   8.114   3.102  1.00 20.00     0.097 C 
ENDROOT
BRANCH   3   4
HETATM    4  C7  UNL     1     -33.165   6.923   3.169  1.00 20.00    -0.001 C 
HETATM    5  C4  UNL     1     -32.466   5.641   2.696  1.00 20.00     0.005 C 
HETATM    6  C3  UNL     1     -33.383   4.423   2.803  1.00 20.00     0.003 C 
HETATM    7  C5  UNL     1     -33.939   4.261   4.213  1.00 20.00     0.032 C 
HETATM    8  C8  UNL     1     -34.636   5.532   4.692  1.00 20.00     0.118 C 
HETATM    9  C6  UNL     1     -33.718   6.751   4.589  1.00 20.00     0.037 C 
BRANCH   8  10
HETATM   10  O10 UNL     1     -35.059   5.366   6.041  1.00 20.00    -0.396 OA
HETATM   11  H24 UNL     1     -35.671   4.613   6.048  1.00 20.00     0.210 HD
ENDBRANCH   8  10
ENDBRANCH   3   4
TORSDOF 2
