REMARK  7 active torsions:
REMARK  status: ('A' for Active; 'I' for Inactive)
REMARK    1  A    between atoms: C4_4  and  C8_8 
REMARK    2  A    between atoms: C5_5  and  C6_6 
REMARK    3  A    between atoms: C5_5  and  C7_7 
REMARK    4  A    between atoms: C6_6  and  C9_9 
REMARK    5  A    between atoms: C7_7  and  C10_10 
REMARK    6  A    between atoms: C8_8  and  C11_11 
REMARK    7  A    between atoms: C9_9  and  C11_11 
ROOT
HETATM    1  C6  UNL     1     -32.372   8.463   3.310  1.00 20.00     0.001 C 
ENDROOT
BRANCH   1   2
HETATM    2  C5  UNL     1     -33.394   9.583   3.082  1.00 20.00     0.000 C 
BRANCH   2   3
HETATM    3  C7  UNL     1     -33.993   9.576   1.672  1.00 20.00     0.004 C 
BRANCH   3   4
HETATM    4  C10 UNL     1     -32.937   9.724   0.560  1.00 20.00    -0.023 C 
HETATM    5  C2  UNL     1     -32.186  11.047   0.730  1.00 20.00     0.009 C 
HETATM    6  C3  UNL     1     -33.550   9.654  -0.839  1.00 20.00     0.009 C 
ENDBRANCH   3   4
ENDBRANCH   2   3
ENDBRANCH   1   2
BRANCH   1   7
HETATM    7  C9  UNL     1     -32.941   7.063   3.043  1.00 20.00     0.020 C 
BRANCH   7   8
HETATM    8  C11 UNL     1     -34.096   6.682   3.984  1.00 20.00     0.082 C 
HETATM    9 CL12 UNL     1     -33.564   6.805   5.697  1.00 20.00    -0.125 Cl
BRANCH   8  10
HETATM   10  C8  UNL     1     -34.622   5.256   3.751  1.00 20.00     0.020 C 
BRANCH  10  11
HETATM   11  C4  UNL     1     -35.727   4.848   4.729  1.00 20.00    -0.003 C 
HETATM   12  C1  UNL     1     -36.899   5.817   4.676  1.00 20.00     0.005 C 
ENDBRANCH  10  11
ENDBRANCH   8  10
ENDBRANCH   7   8
ENDBRANCH   1   7
TORSDOF 7
