REMARK  6 active torsions:
REMARK  status: ('A' for Active; 'I' for Inactive)
REMARK    1  A    between atoms: C3_3  and  C6_6 
REMARK    2  A    between atoms: C4_4  and  C5_5 
REMARK    3  A    between atoms: C4_4  and  C7_7 
REMARK    4  A    between atoms: C5_5  and  C8_8 
REMARK    5  A    between atoms: C6_6  and  C9_9 
REMARK    6  A    between atoms: C7_7  and  C9_9 
ROOT
HETATM    1  C7  UNL     1     -33.293   7.430   2.822  1.00 20.00     0.004 C 
ENDROOT
BRANCH   1   2
HETATM    2  C4  UNL     1     -32.914   5.980   3.137  1.00 20.00     0.001 C 
BRANCH   2   3
HETATM    3  C5  UNL     1     -34.153   5.083   3.196  1.00 20.00     0.015 C 
BRANCH   3   4
HETATM    4  C8  UNL     1     -35.135   5.575   4.252  1.00 20.00     0.114 C 
HETATM    5 CL10 UNL     1     -34.367   5.588   5.856  1.00 20.00    -0.130 Cl
ENDBRANCH   3   4
ENDBRANCH   2   3
ENDBRANCH   1   2
BRANCH   1   6
HETATM    6  C9  UNL     1     -32.078   8.364   2.657  1.00 20.00    -0.019 C 
HETATM    7  C2  UNL     1     -31.307   8.447   3.979  1.00 20.00     0.010 C 
BRANCH   6   8
HETATM    8  C6  UNL     1     -32.422   9.768   2.118  1.00 20.00     0.004 C 
BRANCH   8   9
HETATM    9  C3  UNL     1     -33.243   9.788   0.826  1.00 20.00    -0.004 C 
HETATM   10  C1  UNL     1     -32.483   9.132  -0.319  1.00 20.00     0.005 C 
ENDBRANCH   8   9
ENDBRANCH   6   8
ENDBRANCH   1   6
TORSDOF 6
