REMARK  2 active torsions:
REMARK  status: ('A' for Active; 'I' for Inactive)
REMARK    1  A    between atoms: C2_2  and  C9_9 
REMARK    2  A    between atoms: C7_7  and  C9_9 
ROOT
HETATM    1  C1  UNL     1     -32.857   9.392   1.331  1.00 20.00    -0.111 C 
HETATM    2  C2  UNL     1     -32.950   8.715   2.318  1.00 20.00    -0.107 C 
HETATM    3  C8  UNL     1     -32.745  10.216   0.128  1.00 20.00     0.112 C 
ENDROOT
BRANCH   2   4
HETATM    4  C9  UNL     1     -33.059   7.888   3.526  1.00 20.00     0.099 C 
BRANCH   4   5
HETATM    5  C7  UNL     1     -34.375   7.109   3.549  1.00 20.00     0.004 C 
HETATM    6  C5  UNL     1     -34.716   6.605   4.954  1.00 20.00     0.083 C 
HETATM    7  C3  UNL     1     -34.081   5.238   4.972  1.00 20.00     0.127 C 
HETATM    8  C4  UNL     1     -33.643   4.791   3.602  1.00 20.00     0.079 C 
HETATM    9  O10 UNL     1     -33.939   4.565   5.985  1.00 20.00    -0.298 OA
HETATM   10  C6  UNL     1     -34.304   5.833   2.706  1.00 20.00     0.013 C 
ENDBRANCH   4   5
ENDBRANCH   2   4
TORSDOF 2
