REMARK  2 active torsions:
REMARK  status: ('A' for Active; 'I' for Inactive)
REMARK    1  A    between atoms: C7_7  and  C10_10 
REMARK    2  A    between atoms: C9_9  and  C10_10 
ROOT
HETATM    1  C2  UNL     1     -31.190   8.392   1.577  1.00 20.00     0.006 C 
HETATM    2  C3  UNL     1     -31.413   9.250   0.340  1.00 20.00     0.020 C 
HETATM    3  C5  UNL     1     -33.591   8.730   1.189  1.00 20.00     0.025 C 
HETATM    4  C7  UNL     1     -32.576   7.823   1.908  1.00 20.00    -0.011 C 
HETATM    5  C8  UNL     1     -32.785   9.870   0.569  1.00 20.00     0.082 C 
HETATM    6 CL12 UNL     1     -32.678  11.249   1.701  1.00 20.00    -0.125 Cl
ENDROOT
BRANCH   4   7
HETATM    7  C10 UNL     1     -32.821   7.733   3.408  1.00 20.00     0.036 C 
BRANCH   7   8
HETATM    8  C9  UNL     1     -33.953   6.781   3.738  1.00 20.00     0.121 C 
HETATM    9  C4  UNL     1     -34.251   6.685   5.225  1.00 20.00     0.034 C 
HETATM   10  C1  UNL     1     -34.864   5.311   5.321  1.00 20.00     0.029 C 
HETATM   11  C6  UNL     1     -34.033   4.527   4.327  1.00 20.00     0.168 C 
HETATM   12  O11 UNL     1     -33.614   5.451   3.312  1.00 20.00    -0.386 OA
ENDBRANCH   7   8
ENDBRANCH   4   7
TORSDOF 2
