REMARK  1 active torsions:
REMARK  status: ('A' for Active; 'I' for Inactive)
REMARK    1  A    between atoms: C8_8  and  C10_10 
ROOT
HETATM    1  C1  UNL     1     -32.688   9.728   1.135  1.00 20.00     0.012 C 
HETATM    2  C2  UNL     1     -32.876   8.568   1.381  1.00 20.00    -0.117 C 
HETATM    3  C10 UNL     1     -33.096   7.150   1.663  1.00 20.00     0.097 C 
ENDROOT
BRANCH   3   4
HETATM    4  C8  UNL     1     -33.865   6.971   2.980  1.00 20.00    -0.002 C 
HETATM    5  C5  UNL     1     -32.905   7.178   4.162  1.00 20.00     0.005 C 
HETATM    6  C3  UNL     1     -33.633   7.461   5.471  1.00 20.00     0.000 C 
HETATM    7  C4  UNL     1     -34.090   6.237   6.254  1.00 20.00     0.001 C 
HETATM    8  C6  UNL     1     -34.519   4.997   5.474  1.00 20.00     0.016 C 
HETATM    9  C9  UNL     1     -35.341   5.170   4.204  1.00 20.00     0.058 C 
HETATM   10  C7  UNL     1     -34.554   5.598   2.968  1.00 20.00     0.021 C 
HETATM   11 BR11 UNL     1     -36.919   6.277   4.483  1.00 20.00    -0.091 Br
ENDBRANCH   3   4
TORSDOF 1
