REMARK  4 active torsions:
REMARK  status: ('A' for Active; 'I' for Inactive)
REMARK    1  A    between atoms: C1_1  and  C6_6 
REMARK    2  A    between atoms: C1_1  and  C8_8 
REMARK    3  A    between atoms: C7_7  and  C9_9 
REMARK    4  A    between atoms: C8_8  and  C9_9 
ROOT
HETATM    1  C1  UNL     1     -33.418   6.812   3.592  1.00 20.00     0.131 C 
HETATM    2  O10 UNL     1     -33.905   7.638   4.361  1.00 20.00    -0.298 OA
ENDROOT
BRANCH   1   3
HETATM    3  C6  UNL     1     -34.144   5.533   3.265  1.00 20.00     0.055 A 
HETATM    4  C2  UNL     1     -33.435   4.248   3.495  1.00 20.00     0.013 A 
HETATM    5  C3  UNL     1     -34.561   4.661   4.394  1.00 20.00     0.013 A 
ENDBRANCH   1   3
BRANCH   1   6
HETATM    6  C8  UNL     1     -32.071   7.006   2.918  1.00 20.00     0.079 C 
BRANCH   6   7
HETATM    7  C9  UNL     1     -31.729   8.478   2.707  1.00 20.00     0.012 C 
BRANCH   7   8
HETATM    8  C7  UNL     1     -32.743   9.162   1.805  1.00 20.00    -0.014 A 
HETATM    9  C4  UNL     1     -32.393  10.449   1.111  1.00 20.00     0.005 A 
HETATM   10  C5  UNL     1     -32.540   9.182   0.316  1.00 20.00     0.005 A 
ENDBRANCH   7   8
ENDBRANCH   6   7
ENDBRANCH   1   6
TORSDOF 4
