REMARK  1 active torsions:
REMARK  status: ('A' for Active; 'I' for Inactive)
REMARK    1  A    between atoms: C4_4  and  C8_8 
ROOT
HETATM    1  C1  UNL     1     -34.463   4.745   5.026  1.00 20.00     0.135 A 
HETATM    2  C2  UNL     1     -33.976   5.810   5.752  1.00 20.00     0.136 A 
HETATM    3  C3  UNL     1     -34.010   5.864   3.083  1.00 20.00     0.143 A 
HETATM    4  C4  UNL     1     -33.525   6.929   3.809  1.00 20.00     0.056 A 
HETATM    5  N10 UNL     1     -34.488   4.753   3.678  1.00 20.00    -0.270 NA
HETATM    6  N11 UNL     1     -33.498   6.921   5.157  1.00 20.00    -0.262 NA
ENDROOT
BRANCH   4   7
HETATM    7  C8  UNL     1     -32.997   8.159   3.107  1.00 20.00     0.041 C 
HETATM    8  C5  UNL     1     -31.517   8.484   3.408  1.00 20.00     0.012 C 
HETATM    9  C6  UNL     1     -30.808   8.490   2.054  1.00 20.00     0.021 C 
HETATM   10  C9  UNL     1     -31.896   8.833   1.045  1.00 20.00     0.083 C 
HETATM   11  C7  UNL     1     -33.096   8.055   1.573  1.00 20.00     0.031 C 
HETATM   12 CL12 UNL     1     -32.228  10.588   1.035  1.00 20.00    -0.125 Cl
ENDBRANCH   4   7
TORSDOF 1
