REMARK  3 active torsions:
REMARK  status: ('A' for Active; 'I' for Inactive)
REMARK    1  A    between atoms: C4_4  and  C7_7 
REMARK    2  A    between atoms: C7_7  and  C9_9 
REMARK    3  A    between atoms: C8_8  and  C9_9 
ROOT
HETATM    1  C1  UNL     1     -32.496   7.598   4.844  1.00 20.00     0.006 C 
HETATM    2  C2  UNL     1     -33.874   7.755   5.490  1.00 20.00     0.020 C 
HETATM    3  C3  UNL     1     -34.225   6.579   3.455  1.00 20.00     0.024 C 
HETATM    4  C4  UNL     1     -32.706   6.745   3.583  1.00 20.00    -0.013 C 
HETATM    5  C5  UNL     1     -34.734   6.650   4.890  1.00 20.00     0.082 C 
HETATM    6 CL10 UNL     1     -34.468   5.104   5.744  1.00 20.00    -0.125 Cl
ENDROOT
BRANCH   4   7
HETATM    7  C7  UNL     1     -32.077   7.354   2.339  1.00 20.00     0.005 C 
BRANCH   7   8
HETATM    8  C9  UNL     1     -32.690   8.716   2.013  1.00 20.00     0.000 C 
BRANCH   8   9
HETATM    9  C8  UNL     1     -32.079   9.309   0.743  1.00 20.00    -0.005 C 
HETATM   10  C6  UNL     1     -32.709  10.648   0.395  1.00 20.00     0.005 C 
ENDBRANCH   8   9
ENDBRANCH   7   8
ENDBRANCH   4   7
TORSDOF 3
