REMARK  3 active torsions:
REMARK  status: ('A' for Active; 'I' for Inactive)
REMARK    1  A    between atoms: C2_2  and  C9_9 
REMARK    2  A    between atoms: C6_6  and  C9_9 
REMARK    3  A    between atoms: C7_7  and  O10_10 
ROOT
HETATM    1  C1  UNL     1     -31.997   8.378   1.605  1.00 20.00    -0.111 C 
HETATM    2  C2  UNL     1     -32.238   7.825   2.644  1.00 20.00    -0.107 C 
HETATM    3  C8  UNL     1     -31.705   9.051   0.341  1.00 20.00     0.112 C 
ENDROOT
BRANCH   2   4
HETATM    4  C9  UNL     1     -32.528   7.148   3.914  1.00 20.00     0.098 C 
BRANCH   4   5
HETATM    5  C6  UNL     1     -33.982   7.354   4.332  1.00 20.00    -0.001 C 
HETATM    6  C3  UNL     1     -34.213   7.046   5.809  1.00 20.00     0.008 C 
HETATM    7  C4  UNL     1     -34.368   5.530   5.868  1.00 20.00     0.032 C 
HETATM    8  C7  UNL     1     -34.942   5.121   4.510  1.00 20.00     0.118 C 
HETATM    9  C5  UNL     1     -34.933   6.377   3.635  1.00 20.00     0.037 C 
BRANCH   8  10
HETATM   10  O10 UNL     1     -34.120   4.110   3.939  1.00 20.00    -0.396 OA
HETATM   11  H24 UNL     1     -34.129   3.364   4.559  1.00 20.00     0.210 HD
ENDBRANCH   8  10
ENDBRANCH   4   5
ENDBRANCH   2   4
TORSDOF 3
