REMARK  1 active torsions:
REMARK  status: ('A' for Active; 'I' for Inactive)
REMARK    1  A    between atoms: C7_7  and  C9_9 
ROOT
HETATM    1  C1  UNL     1     -32.342   9.318   0.884  1.00 20.00     0.012 C 
HETATM    2  C2  UNL     1     -31.996   8.870   1.943  1.00 20.00    -0.117 C 
HETATM    3  C9  UNL     1     -31.563   8.332   3.235  1.00 20.00     0.097 C 
ENDROOT
BRANCH   3   4
HETATM    4  C7  UNL     1     -32.498   7.218   3.704  1.00 20.00    -0.002 C 
HETATM    5  C4  UNL     1     -32.481   6.047   2.713  1.00 20.00     0.005 C 
HETATM    6  C3  UNL     1     -33.451   4.941   3.121  1.00 20.00     0.002 C 
HETATM    7  C5  UNL     1     -34.869   5.478   3.313  1.00 20.00     0.020 C 
HETATM    8  C8  UNL     1     -34.933   6.666   4.275  1.00 20.00     0.082 C 
HETATM    9  C6  UNL     1     -33.926   7.755   3.891  1.00 20.00     0.025 C 
HETATM   10 CL10 UNL     1     -34.653   6.122   5.960  1.00 20.00    -0.125 Cl
ENDBRANCH   3   4
TORSDOF 1
