REMARK  3 active torsions:
REMARK  status: ('A' for Active; 'I' for Inactive)
REMARK    1  A    between atoms: C1_1  and  C4_4 
REMARK    2  A    between atoms: C1_1  and  C5_5 
REMARK    3  A    between atoms: C5_5  and  C6_6 
ROOT
HETATM    1  C1  UNL     1     -33.059   7.960   3.277  1.00 20.00     0.139 C 
HETATM    2  O7  UNL     1     -33.902   8.603   3.888  1.00 20.00    -0.297 OA
ENDROOT
BRANCH   1   3
HETATM    3  C4  UNL     1     -32.138   8.651   2.328  1.00 20.00     0.056 A 
HETATM    4  C2  UNL     1     -32.502   8.690   0.881  1.00 20.00     0.013 A 
HETATM    5  C3  UNL     1     -32.583   9.935   1.711  1.00 20.00     0.013 A 
ENDBRANCH   1   3
BRANCH   1   6
HETATM    6  C5  UNL     1     -32.856   6.466   3.402  1.00 20.00     0.196 C 
BRANCH   6   7
HETATM    7  C6  UNL     1     -34.127   5.734   3.764  1.00 20.00     0.394 C 
HETATM    8  F8  UNL     1     -33.918   4.406   3.881  1.00 20.00    -0.171 F 
HETATM    9  F9  UNL     1     -35.092   5.929   2.840  1.00 20.00    -0.171 F 
HETATM   10  F10 UNL     1     -34.603   6.177   4.950  1.00 20.00    -0.171 F 
ENDBRANCH   6   7
ENDBRANCH   1   6
TORSDOF 3
