REMARK  1 active torsions:
REMARK  status: ('A' for Active; 'I' for Inactive)
REMARK    1  A    between atoms: C8_8  and  C9_9 
ROOT
HETATM    1  C1  UNL     1     -32.395  10.331   1.087  1.00 20.00     0.012 C 
HETATM    2  C2  UNL     1     -32.228   9.209   1.481  1.00 20.00    -0.117 C 
HETATM    3  C9  UNL     1     -32.015   7.839   1.955  1.00 20.00     0.098 C 
ENDROOT
BRANCH   3   4
HETATM    4  C8  UNL     1     -33.025   7.471   3.040  1.00 20.00     0.004 C 
HETATM    5  C5  UNL     1     -33.165   5.951   3.151  1.00 20.00     0.083 C 
HETATM    6  C3  UNL     1     -34.081   5.580   4.295  1.00 20.00     0.127 C 
HETATM    7  C4  UNL     1     -33.785   6.222   5.631  1.00 20.00     0.078 C 
HETATM    8  O10 UNL     1     -34.956   4.724   4.171  1.00 20.00    -0.298 OA
HETATM    9  C6  UNL     1     -33.630   7.728   5.478  1.00 20.00     0.008 C 
HETATM   10  C7  UNL     1     -32.622   8.086   4.388  1.00 20.00     0.006 C 
ENDBRANCH   3   4
TORSDOF 1
