REMARK  1 active torsions:
REMARK  status: ('A' for Active; 'I' for Inactive)
REMARK    1  A    between atoms: C7_7  and  C8_8 
ROOT
HETATM    1  C1  UNL     1     -32.673  10.286   1.579  1.00 20.00     0.012 C 
HETATM    2  C2  UNL     1     -32.362   9.134   1.706  1.00 20.00    -0.117 C 
HETATM    3  C8  UNL     1     -31.978   7.725   1.859  1.00 20.00     0.098 C 
ENDROOT
BRANCH   3   4
HETATM    4  C7  UNL     1     -33.048   6.938   2.596  1.00 20.00     0.004 C 
HETATM    5  C5  UNL     1     -33.295   7.455   4.015  1.00 20.00     0.083 C 
HETATM    6  C3  UNL     1     -33.827   6.223   4.702  1.00 20.00     0.127 C 
HETATM    7  C4  UNL     1     -33.631   4.979   3.876  1.00 20.00     0.079 C 
HETATM    8  O9  UNL     1     -34.360   6.234   5.805  1.00 20.00    -0.298 OA
HETATM    9  C6  UNL     1     -32.671   5.470   2.799  1.00 20.00     0.013 C 
ENDBRANCH   3   4
TORSDOF 1
