REMARK  1 active torsions:
REMARK  status: ('A' for Active; 'I' for Inactive)
REMARK    1  A    between atoms: C4_4  and  C9_9 
ROOT
HETATM    1  C1  UNL     1     -33.223   7.564   4.414  1.00 20.00     0.052 A 
HETATM    2  C2  UNL     1     -33.727   5.991   2.703  1.00 20.00     0.123 A 
HETATM    3  C3  UNL     1     -34.773   5.790   4.738  1.00 20.00     0.158 A 
HETATM    4  C4  UNL     1     -33.020   7.109   3.116  1.00 20.00    -0.034 A 
HETATM    5  C5  UNL     1     -34.115   6.897   5.247  1.00 20.00     0.134 A 
HETATM    6  N11 UNL     1     -34.602   5.318   3.483  1.00 20.00    -0.269 NA
HETATM    7  F12 UNL     1     -34.331   7.313   6.500  1.00 20.00    -0.205 F 
ENDROOT
BRANCH   4   8
HETATM    8  C9  UNL     1     -32.057   7.811   2.187  1.00 20.00     0.021 C 
HETATM    9  C6  UNL     1     -32.420   7.669   0.702  1.00 20.00     0.011 C 
HETATM   10  C7  UNL     1     -31.793   8.900   0.062  1.00 20.00     0.021 C 
HETATM   11  C10 UNL     1     -32.056  10.009   1.073  1.00 20.00     0.083 C 
HETATM   12  C8  UNL     1     -31.905   9.328   2.437  1.00 20.00     0.029 C 
HETATM   13 CL13 UNL     1     -33.710  10.660   0.875  1.00 20.00    -0.125 Cl
ENDBRANCH   4   8
TORSDOF 1
