REMARK  1 active torsions:
REMARK  status: ('A' for Active; 'I' for Inactive)
REMARK    1  A    between atoms: C4_4  and  C8_8 
ROOT
HETATM    1  C1  UNL     1     -34.328   7.542   3.548  1.00 20.00     0.006 C 
HETATM    2  C2  UNL     1     -34.636   6.372   4.488  1.00 20.00     0.020 C 
HETATM    3  C3  UNL     1     -33.138   5.553   2.822  1.00 20.00     0.025 C 
HETATM    4  C4  UNL     1     -33.567   6.944   2.354  1.00 20.00    -0.010 C 
HETATM    5  C5  UNL     1     -34.321   5.122   3.675  1.00 20.00     0.082 C 
HETATM    6 CL9  UNL     1     -33.943   3.729   4.697  1.00 20.00    -0.125 Cl
ENDROOT
BRANCH   4   7
HETATM    7  C8  UNL     1     -32.400   7.803   1.896  1.00 20.00    -0.019 C 
HETATM    8  C6  UNL     1     -32.887   9.176   1.433  1.00 20.00     0.010 C 
HETATM    9  C7  UNL     1     -31.367   7.953   3.013  1.00 20.00     0.010 C 
ENDBRANCH   4   7
TORSDOF 1
