REMARK  1 active torsions:
REMARK  status: ('A' for Active; 'I' for Inactive)
REMARK    1  A    between atoms: C6_6  and  C7_7 
ROOT
HETATM    1  C1  UNL     1     -34.419   4.702   3.641  1.00 20.00     0.002 C 
HETATM    2  C2  UNL     1     -34.455   5.905   2.693  1.00 20.00     0.006 C 
HETATM    3  C5  UNL     1     -34.265   5.266   5.055  1.00 20.00     0.020 C 
HETATM    4  C7  UNL     1     -33.923   7.090   3.507  1.00 20.00     0.008 C 
HETATM    5  C8  UNL     1     -34.478   6.767   4.899  1.00 20.00     0.086 C 
HETATM    6 CL9  UNL     1     -33.768   7.694   6.230  1.00 20.00    -0.125 Cl
ENDROOT
BRANCH   4   7
HETATM    7  C6  UNL     1     -32.420   7.181   3.418  1.00 20.00    -0.009 A 
HETATM    8  C3  UNL     1     -31.772   7.891   2.262  1.00 20.00     0.005 A 
HETATM    9  C4  UNL     1     -31.727   8.497   3.637  1.00 20.00     0.005 A 
ENDBRANCH   4   7
TORSDOF 1
