REMARK  2 active torsions:
REMARK  status: ('A' for Active; 'I' for Inactive)
REMARK    1  A    between atoms: C2_2  and  C9_9 
REMARK    2  A    between atoms: C7_7  and  C9_9 
ROOT
HETATM    1  C3  UNL     1     -33.542   6.476   5.913  1.00 20.00     0.002 C 
HETATM    2  C4  UNL     1     -32.962   7.670   5.159  1.00 20.00     0.005 C 
HETATM    3  C5  UNL     1     -34.819   5.959   5.252  1.00 20.00     0.020 C 
HETATM    4  C6  UNL     1     -34.014   6.833   3.017  1.00 20.00     0.025 C 
HETATM    5  C7  UNL     1     -32.725   7.351   3.677  1.00 20.00    -0.010 C 
HETATM    6  C8  UNL     1     -34.640   5.651   3.764  1.00 20.00     0.082 C 
HETATM    7 CL10 UNL     1     -33.644   4.177   3.546  1.00 20.00    -0.125 Cl
ENDROOT
BRANCH   5   8
HETATM    8  C9  UNL     1     -32.203   8.584   2.939  1.00 20.00     0.031 C 
BRANCH   8   9
HETATM    9  C2  UNL     1     -31.925   8.275   1.502  1.00 20.00    -0.037 C 
HETATM   10  C1  UNL     1     -32.547   8.871   0.478  1.00 20.00     0.007 C 
ENDBRANCH   8   9
ENDBRANCH   5   8
TORSDOF 2
