REMARK  3 active torsions:
REMARK  status: ('A' for Active; 'I' for Inactive)
REMARK    1  A    between atoms: C1_1  and  C3_3 
REMARK    2  A    between atoms: C2_2  and  C7_7 
REMARK    3  A    between atoms: C7_7  and  C8_8 
ROOT
HETATM    1  C1  UNL     1     -32.790   7.935   1.812  1.00 20.00     0.005 C 
HETATM    2  C2  UNL     1     -32.792   6.930   2.471  1.00 20.00    -0.090 C 
ENDROOT
BRANCH   2   3
HETATM    3  C7  UNL     1     -32.792   5.697   3.283  1.00 20.00     0.065 C 
HETATM    4  C4  UNL     1     -32.894   4.474   2.368  1.00 20.00     0.024 C 
BRANCH   3   5
HETATM    5  C8  UNL     1     -33.895   5.697   4.373  1.00 20.00    -0.007 C 
HETATM    6  C5  UNL     1     -33.757   6.823   5.404  1.00 20.00     0.011 C 
HETATM    7  C6  UNL     1     -35.298   5.730   3.755  1.00 20.00     0.011 C 
ENDBRANCH   3   5
ENDBRANCH   2   3
BRANCH   1   8
HETATM    8  C3  UNL     1     -32.788   9.220   0.963  1.00 20.00     0.258 C 
HETATM    9  O9  UNL     1     -32.611   9.061  -0.280  1.00 20.00    -0.637 OA
HETATM   10  O10 UNL     1     -32.964  10.301   1.596  1.00 20.00    -0.637 OA
ENDBRANCH   1   8
TORSDOF 3
