REMARK  0 active torsions:
REMARK  status: ('A' for Active; 'I' for Inactive)
ROOT
HETATM    1  C1  UNL     1     -32.567   7.242   2.236  1.00 20.00     0.088 C 
HETATM    2  C2  UNL     1     -33.786   5.894   3.817  1.00 20.00    -0.044 C 
HETATM    3  C3  UNL     1     -33.166   6.021   2.639  1.00 20.00     0.098 C 
HETATM    4  C4  UNL     1     -34.442   4.661   4.330  1.00 20.00     0.063 C 
HETATM    5  C5  UNL     1     -33.861   6.943   4.874  1.00 20.00     0.202 C 
HETATM    6  C6  UNL     1     -34.337   4.894   5.822  1.00 20.00     0.172 C 
HETATM    7  N7  UNL     1     -32.076   8.240   1.903  1.00 20.00    -0.192 NA
HETATM    8  O8  UNL     1     -34.494   6.309   6.000  1.00 20.00    -0.387 OA
ENDROOT
TORSDOF 0
