REMARK  3 active torsions:
REMARK  status: ('A' for Active; 'I' for Inactive)
REMARK    1  A    between atoms: C6_6  and  C7_7 
REMARK    2  A    between atoms: C7_7  and  C8_8 
REMARK    3  A    between atoms: C8_8  and  N9_9 
ROOT
HETATM    1  C1  UNL     1     -34.182   5.660   3.707  1.00 20.00     0.052 C 
HETATM    2  C2  UNL     1     -33.181   6.219   2.696  1.00 20.00     0.274 C 
HETATM    3  C3  UNL     1     -33.187   7.707   4.490  1.00 20.00     0.292 C 
HETATM    4  C4  UNL     1     -34.362   6.774   4.734  1.00 20.00     0.112 C 
HETATM    5  N9  UNL     1     -33.078   7.641   3.031  1.00 20.00     0.089 N 
HETATM    6 CL10 UNL     1     -34.400   6.168   6.398  1.00 20.00    -0.123 Cl
ENDROOT
BRANCH   5   7
HETATM    7  C8  UNL     1     -31.849   8.243   2.536  1.00 20.00     0.272 C 
BRANCH   7   8
HETATM    8  C7  UNL     1     -31.902   8.526   1.038  1.00 20.00     0.030 C 
BRANCH   8   9
HETATM    9  C6  UNL     1     -33.015   9.508   0.664  1.00 20.00    -0.003 C 
HETATM   10  C5  UNL     1     -32.863  10.827   1.406  1.00 20.00     0.005 C 
ENDBRANCH   8   9
ENDBRANCH   7   8
ENDBRANCH   5   7
TORSDOF 3
