REMARK  1 active torsions:
REMARK  status: ('A' for Active; 'I' for Inactive)
REMARK    1  A    between atoms: C1_1  and  C8_8 
REMARK       I    between atoms: C1_1  and  N10_10 
ROOT
HETATM    1  C1  UNL     1     -32.647   8.127   3.200  1.00 20.00     0.224 C 
HETATM    2  C2  UNL     1     -33.983   6.177   5.913  1.00 20.00     0.021 C 
HETATM    3  C5  UNL     1     -34.987   5.259   5.215  1.00 20.00     0.023 C 
HETATM    4  C6  UNL     1     -33.919   7.546   5.242  1.00 20.00     0.126 C 
HETATM    5  C7  UNL     1     -34.665   6.583   3.085  1.00 20.00     0.145 C 
HETATM    6  C9  UNL     1     -34.764   5.186   3.702  1.00 20.00     0.100 C 
HETATM    7  N10 UNL     1     -33.695   7.424   3.801  1.00 20.00    -0.350 N 
HETATM    8  O11 UNL     1     -31.868   8.867   3.795  1.00 20.00    -0.273 OA
HETATM    9 CL12 UNL     1     -33.281   4.248   3.332  1.00 20.00    -0.123 Cl
ENDROOT
BRANCH   1  10
HETATM   10  C8  UNL     1     -32.466   7.962   1.725  1.00 20.00     0.078 A 
HETATM   11  C3  UNL     1     -33.263   8.828   0.810  1.00 20.00     0.015 A 
HETATM   12  C4  UNL     1     -31.789   9.054   0.968  1.00 20.00     0.015 A 
ENDBRANCH   1  10
TORSDOF 1
