REMARK  2 active torsions:
REMARK  status: ('A' for Active; 'I' for Inactive)
REMARK    1  A    between atoms: C3_3  and  C6_6 
REMARK    2  A    between atoms: C5_5  and  C6_6 
ROOT
HETATM    1  C6  UNL     1     -33.562   6.948   2.672  1.00 20.00     0.086 C 
HETATM    2 CL7  UNL     1     -32.727   5.369   2.569  1.00 20.00    -0.125 Cl
ENDROOT
BRANCH   1   3
HETATM    3  C3  UNL     1     -32.532   8.035   2.565  1.00 20.00     0.004 A 
HETATM    4  C1  UNL     1     -31.924   8.373   1.231  1.00 20.00     0.006 A 
HETATM    5  C2  UNL     1     -32.871   9.335   1.891  1.00 20.00     0.006 A 
ENDBRANCH   1   3
BRANCH   1   6
HETATM    6  C5  UNL     1     -34.365   7.061   3.973  1.00 20.00     0.016 C 
HETATM    7  C4  UNL     1     -33.504   6.986   5.227  1.00 20.00     0.006 C 
ENDBRANCH   1   6
TORSDOF 2
