REMARK  3 active torsions:
REMARK  status: ('A' for Active; 'I' for Inactive)
REMARK    1  A    between atoms: C1_1  and  C7_7 
REMARK       I    between atoms: C1_1  and  N8_8 
REMARK    2  A    between atoms: C5_5  and  C6_6 
REMARK    3  A    between atoms: C5_5  and  N8_8 
ROOT
HETATM    1  C1  UNL     1     -33.242   5.677   3.212  1.00 20.00     0.222 C 
HETATM    2  C4  UNL     1     -32.418   7.557   4.576  1.00 20.00     0.152 C 
HETATM    3  N8  UNL     1     -32.515   6.869   3.293  1.00 20.00    -0.355 N 
HETATM    4  O9  UNL     1     -33.367   5.041   2.159  1.00 20.00    -0.273 OA
ENDROOT
BRANCH   1   5
HETATM    5  C7  UNL     1     -33.880   5.141   4.498  1.00 20.00     0.070 C 
HETATM    6  C2  UNL     1     -33.965   3.617   4.443  1.00 20.00     0.019 C 
HETATM    7  C3  UNL     1     -35.280   5.729   4.698  1.00 20.00     0.019 C 
ENDBRANCH   1   5
BRANCH   3   8
HETATM    8  C5  UNL     1     -31.785   7.509   2.200  1.00 20.00     0.140 C 
BRANCH   8   9
HETATM    9  C6  UNL     1     -32.644   8.490   1.420  1.00 20.00     0.134 C 
HETATM   10 CL10 UNL     1     -31.723   9.246   0.095  1.00 20.00    -0.129 Cl
ENDBRANCH   8   9
ENDBRANCH   3   8
TORSDOF 3
