REMARK  3 active torsions:
REMARK  status: ('A' for Active; 'I' for Inactive)
REMARK    1  A    between atoms: C2_2  and  C8_8 
REMARK    2  A    between atoms: C7_7  and  C9_9 
REMARK    3  A    between atoms: C8_8  and  N10_10 
ROOT
HETATM    1  C3  UNL     1     -32.165   7.872   4.517  1.00 20.00     0.031 C 
HETATM    2  C4  UNL     1     -33.379   6.955   4.413  1.00 20.00     0.009 C 
HETATM    3  C5  UNL     1     -31.969   8.682   3.235  1.00 20.00     0.272 C 
HETATM    4  C6  UNL     1     -33.061   6.969   1.909  1.00 20.00     0.278 C 
HETATM    5  C7  UNL     1     -33.293   6.091   3.150  1.00 20.00     0.028 C 
HETATM    6  N10 UNL     1     -31.858   7.801   2.065  1.00 20.00     0.092 N 
ENDROOT
BRANCH   6   7
HETATM    7  C8  UNL     1     -31.619   8.587   0.854  1.00 20.00     0.299 C 
BRANCH   7   8
HETATM    8  C2  UNL     1     -32.763   9.528   0.659  1.00 20.00    -0.007 C 
HETATM    9  C1  UNL     1     -32.640  10.859   0.642  1.00 20.00     0.008 C 
ENDBRANCH   7   8
ENDBRANCH   6   7
BRANCH   5  10
HETATM   10  C9  UNL     1     -34.556   5.247   2.988  1.00 20.00     0.121 C 
HETATM   11 CL11 UNL     1     -34.755   4.172   4.383  1.00 20.00    -0.130 Cl
ENDBRANCH   5  10
TORSDOF 3
