REMARK  1 active torsions:
REMARK  status: ('A' for Active; 'I' for Inactive)
REMARK    1  A    between atoms: C8_8  and  N9_9 
ROOT
HETATM    1  C1  UNL     1     -33.470   4.590   2.736  1.00 20.00     0.050 C 
HETATM    2  C2  UNL     1     -35.199   6.185   3.608  1.00 20.00     0.050 C 
HETATM    3  C3  UNL     1     -32.500   5.770   2.617  1.00 20.00     0.274 C 
HETATM    4  C4  UNL     1     -34.173   7.313   3.460  1.00 20.00     0.274 C 
HETATM    5  C5  UNL     1     -34.544   4.817   3.800  1.00 20.00     0.085 C 
HETATM    6  N9  UNL     1     -33.223   7.026   2.377  1.00 20.00     0.092 N 
HETATM    7 CL10 UNL     1     -33.837   4.688   5.441  1.00 20.00    -0.125 Cl
ENDROOT
BRANCH   6   8
HETATM    8  C8  UNL     1     -32.282   8.134   2.213  1.00 20.00     0.215 C 
HETATM    9  C6  UNL     1     -31.795   8.582   3.583  1.00 20.00     0.042 C 
HETATM   10  C7  UNL     1     -32.977   9.264   1.466  1.00 20.00     0.042 C 
ENDBRANCH   6   8
TORSDOF 1
