REMARK  1 active torsions:
REMARK  status: ('A' for Active; 'I' for Inactive)
REMARK    1  A    between atoms: C3_3  and  N9_9 
ROOT
HETATM    1  C4  UNL     1     -32.411  10.416   1.752  1.00 20.00     0.041 C 
HETATM    2  C5  UNL     1     -33.430   9.617   2.565  1.00 20.00     0.126 C 
HETATM    3  C6  UNL     1     -31.784   8.112   1.618  1.00 20.00     0.145 C 
HETATM    4  C7  UNL     1     -31.828   9.394   0.784  1.00 20.00     0.102 C 
HETATM    5  N9  UNL     1     -32.900   8.255   2.553  1.00 20.00    -0.358 N 
HETATM    6 CL11 UNL     1     -32.899   9.186  -0.633  1.00 20.00    -0.123 Cl
ENDROOT
BRANCH   5   7
HETATM    7  C3  UNL     1     -33.379   7.236   3.348  1.00 20.00     0.168 A 
HETATM    8  N8  UNL     1     -33.384   7.262   4.662  1.00 20.00    -0.236 NA
HETATM    9  C1  UNL     1     -33.930   6.082   5.131  1.00 20.00     0.126 A 
HETATM   10  C2  UNL     1     -34.330   5.180   4.168  1.00 20.00     0.072 A 
HETATM   11  S10 UNL     1     -34.017   5.824   2.609  1.00 20.00    -0.063 SA
ENDBRANCH   5   7
TORSDOF 1
