REMARK  2 active torsions:
REMARK  status: ('A' for Active; 'I' for Inactive)
REMARK    1  A    between atoms: C6_6  and  C7_7 
REMARK    2  A    between atoms: C6_6  and  N8_8 
ROOT
HETATM    1  C1  UNL     1     -34.416   5.154   3.277  1.00 20.00     0.050 C 
HETATM    2  C2  UNL     1     -34.229   7.174   4.766  1.00 20.00     0.050 C 
HETATM    3  C3  UNL     1     -32.930   5.321   2.939  1.00 20.00     0.274 C 
HETATM    4  C4  UNL     1     -32.750   7.270   4.375  1.00 20.00     0.274 C 
HETATM    5  C5  UNL     1     -34.778   5.752   4.638  1.00 20.00     0.085 C 
HETATM    6  N8  UNL     1     -32.438   6.700   3.058  1.00 20.00     0.093 N 
HETATM    7 CL11 UNL     1     -34.145   4.719   5.960  1.00 20.00    -0.125 Cl
ENDROOT
BRANCH   6   8
HETATM    8  C6  UNL     1     -32.901   7.549   1.964  1.00 20.00     0.343 C 
BRANCH   8   9
HETATM    9  C7  UNL     1     -32.013   8.768   1.823  1.00 20.00     0.381 C 
HETATM   10  F9  UNL     1     -32.389   9.720   2.713  1.00 20.00    -0.213 F 
HETATM   11  F10 UNL     1     -32.188   9.305   0.588  1.00 20.00    -0.213 F 
ENDBRANCH   8   9
ENDBRANCH   6   8
TORSDOF 2
