REMARK  2 active torsions:
REMARK  status: ('A' for Active; 'I' for Inactive)
REMARK    1  A    between atoms: C3_3  and  C6_6 
REMARK    2  A    between atoms: C5_5  and  C6_6 
ROOT
HETATM    1  C6  UNL     1     -32.768   7.700   2.774  1.00 20.00     0.086 C 
HETATM    2 CL7  UNL     1     -32.056   8.005   4.387  1.00 20.00    -0.125 Cl
ENDROOT
BRANCH   1   3
HETATM    3  C3  UNL     1     -31.921   8.392   1.745  1.00 20.00     0.004 A 
HETATM    4  C1  UNL     1     -32.510   8.784   0.419  1.00 20.00     0.006 A 
HETATM    5  C2  UNL     1     -32.154   9.842   1.425  1.00 20.00     0.006 A 
ENDBRANCH   1   3
BRANCH   1   6
HETATM    6  C5  UNL     1     -32.875   6.196   2.495  1.00 20.00     0.016 C 
HETATM    7  C4  UNL     1     -33.706   5.444   3.526  1.00 20.00     0.006 C 
ENDBRANCH   1   6
TORSDOF 2
