REMARK  5 active torsions:
REMARK  status: ('A' for Active; 'I' for Inactive)
REMARK    1  A    between atoms: C2_2  and  C8_8 
REMARK    2  A    between atoms: C5_5  and  C9_9 
REMARK    3  A    between atoms: C7_7  and  C8_8 
REMARK    4  A    between atoms: C7_7  and  C9_9 
REMARK    5  A    between atoms: C9_9  and  O10_10 
ROOT
HETATM    1  C9  UNL     1     -33.158   8.034   3.678  1.00 20.00     0.122 C 
ENDROOT
BRANCH   1   2
HETATM    2  C5  UNL     1     -32.300   8.060   2.420  1.00 20.00     0.014 A 
HETATM    3  C3  UNL     1     -32.936   8.266   1.074  1.00 20.00     0.007 A 
HETATM    4  C4  UNL     1     -32.087   9.349   1.677  1.00 20.00     0.007 A 
ENDBRANCH   1   2
BRANCH   1   5
HETATM    5  C7  UNL     1     -34.144   6.857   3.718  1.00 20.00     0.040 C 
BRANCH   5   6
HETATM    6  C8  UNL     1     -33.504   5.457   3.754  1.00 20.00     0.005 C 
HETATM    7  C6  UNL     1     -33.100   5.033   2.338  1.00 20.00     0.014 C 
BRANCH   6   8
HETATM    8  C2  UNL     1     -34.442   4.428   4.334  1.00 20.00    -0.033 C 
HETATM    9  C1  UNL     1     -34.168   3.693   5.419  1.00 20.00     0.007 C 
ENDBRANCH   6   8
ENDBRANCH   5   6
ENDBRANCH   1   5
BRANCH   1  10
HETATM   10  O10 UNL     1     -32.272   7.921   4.794  1.00 20.00    -0.395 OA
HETATM   11  H26 UNL     1     -32.832   7.905   5.585  1.00 20.00     0.210 HD
ENDBRANCH   1  10
TORSDOF 5
