REMARK  3 active torsions:
REMARK  status: ('A' for Active; 'I' for Inactive)
REMARK    1  A    between atoms: C4_4  and  C6_6 
REMARK    2  A    between atoms: C7_7  and  C8_8 
REMARK    3  A    between atoms: C8_8  and  N9_9 
ROOT
HETATM    1  C1  UNL     1     -33.651   5.084   2.747  1.00 20.00     0.032 C 
HETATM    2  C2  UNL     1     -34.642   5.850   3.616  1.00 20.00     0.038 C 
HETATM    3  C3  UNL     1     -32.733   6.142   2.147  1.00 20.00     0.273 C 
HETATM    4  C4  UNL     1     -34.032   7.241   3.777  1.00 20.00     0.236 C 
HETATM    5  N9  UNL     1     -33.381   7.411   2.473  1.00 20.00     0.094 N 
ENDROOT
BRANCH   5   6
HETATM    6  C8  UNL     1     -32.488   8.551   2.361  1.00 20.00     0.272 C 
BRANCH   6   7
HETATM    7  C7  UNL     1     -31.945   8.726   0.947  1.00 20.00     0.026 C 
HETATM    8  C5  UNL     1     -33.043   8.966  -0.079  1.00 20.00     0.007 C 
ENDBRANCH   6   7
ENDBRANCH   5   6
BRANCH   4   9
HETATM    9  C6  UNL     1     -33.114   7.313   5.002  1.00 20.00     0.150 C 
HETATM   10 CL10 UNL     1     -34.030   6.950   6.476  1.00 20.00    -0.128 Cl
ENDBRANCH   4   9
TORSDOF 3
