REMARK  4 active torsions:
REMARK  status: ('A' for Active; 'I' for Inactive)
REMARK    1  A    between atoms: C4_4  and  C7_7 
REMARK    2  A    between atoms: C8_8  and  C10_10 
REMARK    3  A    between atoms: C9_9  and  C10_10 
REMARK    4  A    between atoms: C9_9  and  N11_11 
ROOT
HETATM    1  C1  UNL     1     -31.470   8.429   3.248  1.00 20.00     0.035 C 
HETATM    2  C2  UNL     1     -32.471   8.101   4.337  1.00 20.00     0.235 C 
HETATM    3  C3  UNL     1     -33.129   7.044   2.225  1.00 20.00     0.240 C 
HETATM    4  C4  UNL     1     -32.267   8.274   1.959  1.00 20.00     0.027 C 
HETATM    5  N11 UNL     1     -33.308   6.995   3.733  1.00 20.00    -0.070 N 
HETATM    6  H33 UNL     1     -32.900   6.104   4.054  1.00 20.00     0.279 HD
ENDROOT
BRANCH   5   7
HETATM    7  C9  UNL     1     -34.735   7.005   4.183  1.00 20.00     0.239 C 
BRANCH   7   8
HETATM    8  C10 UNL     1     -35.429   5.660   3.929  1.00 20.00     0.007 C 
HETATM    9  C6  UNL     1     -36.882   5.679   4.418  1.00 20.00     0.011 C 
BRANCH   8  10
HETATM   10  C8  UNL     1     -34.699   4.439   4.523  1.00 20.00     0.001 C 
HETATM   11  C5  UNL     1     -34.571   4.481   6.039  1.00 20.00     0.005 C 
ENDBRANCH   8  10
ENDBRANCH   7   8
ENDBRANCH   5   7
BRANCH   4  12
HETATM   12  C7  UNL     1     -33.112   9.508   1.644  1.00 20.00     0.121 C 
HETATM   13 CL12 UNL     1     -32.106  10.778   0.918  1.00 20.00    -0.130 Cl
ENDBRANCH   4  12
TORSDOF 4
