REMARK  3 active torsions:
REMARK  status: ('A' for Active; 'I' for Inactive)
REMARK    1  A    between atoms: C7_7  and  C9_9 
REMARK    2  A    between atoms: C8_8  and  C9_9 
REMARK    3  A    between atoms: C8_8  and  N10_10 
ROOT
HETATM    1  C1  UNL     1     -34.235   6.306   5.719  1.00 20.00     0.052 C 
HETATM    2  C2  UNL     1     -33.677   7.461   4.887  1.00 20.00     0.274 C 
HETATM    3  C3  UNL     1     -35.181   6.322   3.510  1.00 20.00     0.292 C 
HETATM    4  C4  UNL     1     -35.007   5.432   4.733  1.00 20.00     0.112 C 
HETATM    5  N10 UNL     1     -33.926   7.076   3.497  1.00 20.00     0.090 N 
HETATM    6 CL11 UNL     1     -34.064   3.969   4.315  1.00 20.00    -0.123 Cl
ENDROOT
BRANCH   5   7
HETATM    7  C8  UNL     1     -33.967   8.219   2.598  1.00 20.00     0.276 C 
BRANCH   7   8
HETATM    8  C9  UNL     1     -32.578   8.781   2.257  1.00 20.00     0.009 C 
HETATM    9  C6  UNL     1     -31.719   7.726   1.551  1.00 20.00     0.011 C 
BRANCH   8  10
HETATM   10  C7  UNL     1     -32.615  10.071   1.415  1.00 20.00     0.001 C 
HETATM   11  C5  UNL     1     -33.280   9.895   0.057  1.00 20.00     0.005 C 
ENDBRANCH   8  10
ENDBRANCH   7   8
ENDBRANCH   5   7
TORSDOF 3
