REMARK  2 active torsions:
REMARK  status: ('A' for Active; 'I' for Inactive)
REMARK    1  A    between atoms: C6_6  and  C8_8 
REMARK    2  A    between atoms: C8_8  and  N9_9 
ROOT
HETATM    1  C3  UNL     1     -32.997   7.338   5.430  1.00 20.00     0.052 C 
HETATM    2  C4  UNL     1     -32.385   7.883   4.140  1.00 20.00     0.274 C 
HETATM    3  C5  UNL     1     -34.164   6.527   3.487  1.00 20.00     0.292 C 
HETATM    4  C7  UNL     1     -34.302   6.677   4.993  1.00 20.00     0.112 C 
HETATM    5  N9  UNL     1     -33.455   7.762   3.147  1.00 20.00     0.090 N 
HETATM    6 CL10 UNL     1     -34.583   5.124   5.798  1.00 20.00    -0.123 Cl
ENDROOT
BRANCH   5   7
HETATM    7  C8  UNL     1     -32.951   7.758   1.782  1.00 20.00     0.277 C 
BRANCH   7   8
HETATM    8  C6  UNL     1     -32.239   9.030   1.468  1.00 20.00     0.014 A 
HETATM    9  C1  UNL     1     -32.022   9.444   0.039  1.00 20.00     0.007 A 
HETATM   10  C2  UNL     1     -32.994  10.200   0.901  1.00 20.00     0.007 A 
ENDBRANCH   7   8
ENDBRANCH   5   7
TORSDOF 2
