REMARK  3 active torsions:
REMARK  status: ('A' for Active; 'I' for Inactive)
REMARK    1  A    between atoms: C4_4  and  C7_7 
REMARK    2  A    between atoms: C8_8  and  C9_9 
REMARK    3  A    between atoms: C8_8  and  N10_10 
ROOT
HETATM    1  C1  UNL     1     -33.810   7.353   5.514  1.00 20.00     0.032 C 
HETATM    2  C2  UNL     1     -34.778   6.402   4.823  1.00 20.00     0.038 C 
HETATM    3  C3  UNL     1     -32.649   7.519   4.548  1.00 20.00     0.273 C 
HETATM    4  C4  UNL     1     -34.153   6.087   3.464  1.00 20.00     0.236 C 
HETATM    5  N10 UNL     1     -33.165   7.156   3.220  1.00 20.00     0.094 N 
ENDROOT
BRANCH   5   6
HETATM    6  C8  UNL     1     -33.783   8.310   2.564  1.00 20.00     0.277 C 
BRANCH   6   7
HETATM    7  C9  UNL     1     -32.740   9.207   1.886  1.00 20.00     0.006 C 
HETATM    8  C5  UNL     1     -31.944   8.463   0.813  1.00 20.00     0.011 C 
HETATM    9  C6  UNL     1     -33.363  10.478   1.309  1.00 20.00     0.011 C 
ENDBRANCH   6   7
ENDBRANCH   5   6
BRANCH   4  10
HETATM   10  C7  UNL     1     -33.456   4.724   3.464  1.00 20.00     0.150 C 
HETATM   11 CL11 UNL     1     -32.754   4.395   1.869  1.00 20.00    -0.128 Cl
ENDBRANCH   4  10
TORSDOF 3
