REMARK  1 active torsions:
REMARK  status: ('A' for Active; 'I' for Inactive)
REMARK    1  A    between atoms: C6_6  and  N7_7 
ROOT
HETATM    1  C1  UNL     1     -32.645   8.191   2.128  1.00 20.00     0.158 C 
HETATM    2  N7  UNL     1     -32.614   7.082   2.507  1.00 20.00    -0.268 NA
HETATM    3  S9  UNL     1     -32.655   9.692   1.596  1.00 20.00    -0.055 SA
ENDROOT
BRANCH   2   4
HETATM    4  C6  UNL     1     -33.741   6.696   3.356  1.00 20.00     0.133 C 
HETATM    5  C3  UNL     1     -34.030   5.210   3.164  1.00 20.00     0.032 C 
HETATM    6  C2  UNL     1     -35.060   4.732   4.182  1.00 20.00     0.028 C 
HETATM    7  C4  UNL     1     -34.651   5.138   5.592  1.00 20.00     0.167 C 
HETATM    8  O8  UNL     1     -34.449   6.549   5.675  1.00 20.00    -0.389 OA
HETATM    9  C5  UNL     1     -33.402   6.994   4.812  1.00 20.00     0.195 C 
ENDBRANCH   2   4
TORSDOF 1
