REMARK  3 active torsions:
REMARK  status: ('A' for Active; 'I' for Inactive)
REMARK    1  A    between atoms: C6_6  and  C7_7 
REMARK    2  A    between atoms: C7_7  and  C8_8 
REMARK    3  A    between atoms: C8_8  and  N9_9 
ROOT
HETATM    1  C1  UNL     1     -34.128   6.678   5.064  1.00 20.00     0.052 C 
HETATM    2  C2  UNL     1     -33.100   7.725   4.635  1.00 20.00     0.274 C 
HETATM    3  C3  UNL     1     -33.247   6.205   2.875  1.00 20.00     0.292 C 
HETATM    4  C4  UNL     1     -34.397   5.858   3.805  1.00 20.00     0.112 C 
HETATM    5  N9  UNL     1     -33.066   7.627   3.174  1.00 20.00     0.089 N 
HETATM    6 CL10 UNL     1     -34.492   4.119   4.132  1.00 20.00    -0.123 Cl
ENDROOT
BRANCH   5   7
HETATM    7  C8  UNL     1     -31.837   8.164   2.609  1.00 20.00     0.272 C 
BRANCH   7   8
HETATM    8  C7  UNL     1     -31.958   8.445   1.115  1.00 20.00     0.030 C 
BRANCH   8   9
HETATM    9  C6  UNL     1     -33.038   9.481   0.797  1.00 20.00    -0.003 C 
HETATM   10  C5  UNL     1     -33.095   9.785  -0.692  1.00 20.00     0.005 C 
ENDBRANCH   8   9
ENDBRANCH   7   8
ENDBRANCH   5   7
TORSDOF 3
