REMARK  1 active torsions:
REMARK  status: ('A' for Active; 'I' for Inactive)
REMARK    1  A    between atoms: C4_4  and  C9_9 
ROOT
HETATM    1  C1  UNL     1     -31.692   8.670   3.591  1.00 20.00    -0.003 A 
HETATM    2  C2  UNL     1     -32.453   7.749   4.394  1.00 20.00     0.004 A 
HETATM    3  C3  UNL     1     -31.886   8.401   2.292  1.00 20.00    -0.022 A 
HETATM    4  C4  UNL     1     -33.122   6.905   3.594  1.00 20.00    -0.069 A 
HETATM    5  C5  UNL     1     -32.826   7.238   2.156  1.00 20.00     0.062 A 
ENDROOT
BRANCH   4   6
HETATM    6  C9  UNL     1     -34.041   5.780   3.987  1.00 20.00    -0.028 C 
HETATM    7  C6  UNL     1     -33.484   4.461   3.436  1.00 20.00     0.019 C 
HETATM    8  C7  UNL     1     -35.440   6.032   3.407  1.00 20.00     0.019 C 
HETATM    9  C8  UNL     1     -34.133   5.701   5.517  1.00 20.00     0.019 C 
ENDBRANCH   4   6
TORSDOF 1
