REMARK  0 active torsions:
REMARK  status: ('A' for Active; 'I' for Inactive)
ROOT
HETATM    1  C1  UNL     1     -34.077   5.371   3.072  1.00 20.00     0.009 A 
HETATM    2  C2  UNL     1     -33.512   6.441   2.373  1.00 20.00     0.019 A 
HETATM    3  C3  UNL     1     -33.394   7.774   4.411  1.00 20.00     0.026 A 
HETATM    4  C4  UNL     1     -34.283   5.539   4.421  1.00 20.00    -0.051 A 
HETATM    5  C5  UNL     1     -33.951   6.704   5.070  1.00 20.00    -0.050 A 
HETATM    6  C6  UNL     1     -33.172   7.635   3.038  1.00 20.00     0.011 A 
HETATM    7  C7  UNL     1     -34.795   4.879   5.666  1.00 20.00     0.043 A 
HETATM    8  C8  UNL     1     -34.418   6.206   6.405  1.00 20.00     0.043 A 
HETATM    9 BR9  UNL     1     -32.408   9.063   2.062  1.00 20.00    -0.051 Br
ENDROOT
TORSDOF 0
