REMARK  2 active torsions:
REMARK  status: ('A' for Active; 'I' for Inactive)
REMARK    1  A    between atoms: C3_3  and  C10_10 
REMARK    2  A    between atoms: C4_4  and  C10_10 
ROOT
HETATM    1  C5  UNL     1     -32.207  10.384   0.349  1.00 20.00     0.000 C 
HETATM    2  C6  UNL     1     -31.943   8.883   0.326  1.00 20.00     0.001 C 
HETATM    3  C7  UNL     1     -33.056  10.783   1.549  1.00 20.00     0.001 C 
HETATM    4  C8  UNL     1     -31.306   8.403   1.630  1.00 20.00     0.017 C 
HETATM    5  C9  UNL     1     -32.433  10.316   2.865  1.00 20.00     0.017 C 
HETATM    6  C10 UNL     1     -32.109   8.813   2.878  1.00 20.00    -0.006 C 
ENDROOT
BRANCH   6   7
HETATM    7  C3  UNL     1     -33.386   8.012   2.948  1.00 20.00    -0.023 C 
HETATM    8  C1  UNL     1     -33.429   6.677   3.014  1.00 20.00     0.008 C 
ENDBRANCH   6   7
BRANCH   6   9
HETATM    9  C4  UNL     1     -31.273   8.541   4.102  1.00 20.00    -0.023 C 
HETATM   10  C2  UNL     1     -30.039   8.027   4.066  1.00 20.00     0.008 C 
ENDBRANCH   6   9
TORSDOF 2
