REMARK  0 active torsions:
REMARK  status: ('A' for Active; 'I' for Inactive)
ROOT
HETATM    1  C1  UNL     1     -32.916   8.483   2.302  1.00 20.00     0.119 C 
HETATM    2  C2  UNL     1     -33.348   7.004   4.250  1.00 20.00     0.063 A 
HETATM    3  C3  UNL     1     -34.193   5.310   3.124  1.00 20.00     0.137 A 
HETATM    4  C4  UNL     1     -33.375   7.268   2.899  1.00 20.00     0.137 A 
HETATM    5  C5  UNL     1     -33.879   5.733   4.396  1.00 20.00     0.031 A 
HETATM    6  N6  UNL     1     -32.543   9.469   1.817  1.00 20.00    -0.190 NA
HETATM    7  N7  UNL     1     -33.887   6.241   2.213  1.00 20.00    -0.249 NA
HETATM    8 BR8  UNL     1     -34.122   4.787   5.998  1.00 20.00    -0.050 Br
ENDROOT
TORSDOF 0
