REMARK  0 active torsions:
REMARK  status: ('A' for Active; 'I' for Inactive)
ROOT
HETATM    1  C1  UNL     1     -32.933   8.194   3.905  1.00 20.00     0.017 A 
HETATM    2  C2  UNL     1     -32.347   8.793   2.790  1.00 20.00     0.025 A 
HETATM    3  C3  UNL     1     -33.399   4.718   2.707  1.00 20.00     0.031 A 
HETATM    4  C4  UNL     1     -32.452   6.691   1.602  1.00 20.00     0.036 A 
HETATM    5  C5  UNL     1     -33.978   4.180   3.847  1.00 20.00     0.119 A 
HETATM    6  C6  UNL     1     -33.284   6.834   3.877  1.00 20.00     0.010 A 
HETATM    7  C7  UNL     1     -33.042   6.071   2.715  1.00 20.00    -0.020 A 
HETATM    8  C8  UNL     1     -32.107   8.043   1.641  1.00 20.00     0.034 A 
HETATM    9  C9  UNL     1     -33.872   6.184   4.964  1.00 20.00     0.113 A 
HETATM   10  N10 UNL     1     -34.224   4.879   4.975  1.00 20.00    -0.253 NA
HETATM   11 CL11 UNL     1     -31.384   8.785   0.266  1.00 20.00    -0.084 Cl
HETATM   12 BR12 UNL     1     -34.264   7.080   6.611  1.00 20.00    -0.028 Br
ENDROOT
TORSDOF 0
