REMARK  0 active torsions:
REMARK  status: ('A' for Active; 'I' for Inactive)
ROOT
HETATM    1  C1  UNL     1     -33.176   7.321   5.497  1.00 20.00     0.036 A 
HETATM    2  C2  UNL     1     -33.959   6.288   5.820  1.00 20.00     0.007 A 
HETATM    3  C3  UNL     1     -32.912   7.385   4.054  1.00 20.00     0.086 A 
HETATM    4  C4  UNL     1     -34.435   5.394   4.725  1.00 20.00     0.172 A 
HETATM    5  N5  UNL     1     -32.191   8.259   3.449  1.00 20.00    -0.293 NA
HETATM    6  S6  UNL     1     -33.722   6.087   3.204  1.00 20.00    -0.086 SA
HETATM    7 CL7  UNL     1     -33.877   3.733   4.991  1.00 20.00    -0.109 Cl
HETATM    8  H11 UNL     1     -32.187   8.062   2.441  1.00 20.00     0.187 HD
ENDROOT
TORSDOF 0
