REMARK  1 active torsions:
REMARK  status: ('A' for Active; 'I' for Inactive)
REMARK    1  A    between atoms: C6_6  and  C7_7 
ROOT
HETATM    1  C3  UNL     1     -34.701   6.406   4.037  1.00 20.00     0.296 C 
HETATM    2  C4  UNL     1     -33.795   6.300   5.257  1.00 20.00     0.197 C 
HETATM    3  C5  UNL     1     -32.319   7.889   4.348  1.00 20.00     0.203 C 
HETATM    4  C7  UNL     1     -33.192   8.033   3.097  1.00 20.00     0.248 C 
HETATM    5  N8  UNL     1     -33.923   6.781   2.855  1.00 20.00     0.092 N 
HETATM    6  O9  UNL     1     -33.119   7.538   5.478  1.00 20.00    -0.387 OA
HETATM    7  H22 UNL     1     -33.252   6.037   2.659  1.00 20.00     0.316 HD
ENDROOT
BRANCH   4   8
HETATM    8  C6  UNL     1     -32.358   8.364   1.892  1.00 20.00     0.021 A 
HETATM    9  C1  UNL     1     -32.995   8.975   0.675  1.00 20.00     0.007 A 
HETATM   10  C2  UNL     1     -32.079   9.798   1.537  1.00 20.00     0.007 A 
ENDBRANCH   4   8
TORSDOF 1
