REMARK  1 active torsions:
REMARK  status: ('A' for Active; 'I' for Inactive)
REMARK    1  A    between atoms: C1_1  and  C4_4 
ROOT
HETATM    1  C2  UNL     1     -33.864   7.189   5.229  1.00 20.00     0.013 C 
HETATM    2  C3  UNL     1     -34.677   5.982   5.732  1.00 20.00     0.010 C 
HETATM    3  C4  UNL     1     -33.439   6.337   4.007  1.00 20.00     0.062 C 
HETATM    4  C5  UNL     1     -34.715   5.459   4.267  1.00 20.00    -0.037 C 
HETATM    5  C7  UNL     1     -34.463   3.958   4.141  1.00 20.00     0.015 C 
HETATM    6  C8  UNL     1     -35.982   5.870   3.512  1.00 20.00     0.015 C 
ENDROOT
BRANCH   3   7
HETATM    7  C1  UNL     1     -33.295   7.040   2.654  1.00 20.00     0.128 C 
HETATM    8  C6  UNL     1     -32.736   8.437   2.673  1.00 20.00     0.091 C 
HETATM    9  O9  UNL     1     -33.619   6.488   1.604  1.00 20.00    -0.298 OA
ENDBRANCH   3   7
TORSDOF 1
