REMARK  1 active torsions:
REMARK  status: ('A' for Active; 'I' for Inactive)
REMARK    1  A    between atoms: C1_1  and  C2_2 
ROOT
HETATM    1  C2  UNL     1     -34.477   5.609   4.441  1.00 20.00     0.357 C 
HETATM    2  F5  UNL     1     -34.651   6.047   5.712  1.00 20.00    -0.187 F 
HETATM    3  F6  UNL     1     -35.615   5.896   3.763  1.00 20.00    -0.187 F 
HETATM    4 BR7  UNL     1     -34.173   3.694   4.432  1.00 20.00    -0.005 Br
ENDROOT
BRANCH   1   5
HETATM    5  C1  UNL     1     -33.318   6.333   3.807  1.00 20.00     0.436 C 
HETATM    6  F3  UNL     1     -33.579   7.661   3.728  1.00 20.00    -0.207 F 
HETATM    7  F4  UNL     1     -33.165   5.893   2.531  1.00 20.00    -0.207 F 
ENDBRANCH   1   5
TORSDOF 1
