REMARK  0 active torsions:
REMARK  status: ('A' for Active; 'I' for Inactive)
ROOT
HETATM    1  C1  UNL     1     -35.592   4.844   4.360  1.00 20.00     0.009 C 
HETATM    2  C2  UNL     1     -33.093   4.637   4.312  1.00 20.00     0.012 C 
HETATM    3  C3  UNL     1     -34.194   6.239   5.906  1.00 20.00     0.012 C 
HETATM    4  C4  UNL     1     -34.298   5.720   2.398  1.00 20.00     0.012 C 
HETATM    5  C5  UNL     1     -35.396   7.317   3.987  1.00 20.00     0.012 C 
HETATM    6  C6  UNL     1     -34.317   4.865   5.220  1.00 20.00    -0.013 C 
HETATM    7  C7  UNL     1     -35.528   5.951   3.292  1.00 20.00    -0.013 C 
HETATM    8  C8  UNL     1     -33.014   5.745   3.247  1.00 20.00     0.021 C 
HETATM    9  C9  UNL     1     -34.119   7.352   4.847  1.00 20.00     0.021 C 
HETATM   10  C10 UNL     1     -32.895   7.103   3.954  1.00 20.00     0.178 C 
HETATM   11  F11 UNL     1     -32.813   8.089   3.020  1.00 20.00    -0.249 F 
ENDROOT
TORSDOF 0
