REMARK  1 active torsions:
REMARK  status: ('A' for Active; 'I' for Inactive)
REMARK    1  A    between atoms: C2_2  and  C3_3 
ROOT
HETATM    1  C1  UNL     1     -34.164   4.921   5.383  1.00 20.00     0.058 C 
HETATM    2  C2  UNL     1     -34.223   6.042   4.346  1.00 20.00     0.189 C 
HETATM    3 CL6  UNL     1     -35.816   5.992   3.514  1.00 20.00    -0.094 Cl
HETATM    4 CL7  UNL     1     -34.129   7.616   5.222  1.00 20.00    -0.094 Cl
ENDROOT
BRANCH   2   5
HETATM    5  C3  UNL     1     -33.078   5.982   3.326  1.00 20.00     0.354 C 
HETATM    6  F4  UNL     1     -31.886   6.084   3.973  1.00 20.00    -0.184 F 
HETATM    7  F5  UNL     1     -33.147   7.049   2.486  1.00 20.00    -0.184 F 
HETATM    8 CL8  UNL     1     -33.056   4.494   2.349  1.00 20.00    -0.045 Cl
ENDBRANCH   2   5
TORSDOF 1
