REMARK  0 active torsions:
REMARK  status: ('A' for Active; 'I' for Inactive)
ROOT
HETATM    1  C1  UNL     1     -33.744   5.884   2.574  1.00 20.00     0.105 C 
HETATM    2  C2  UNL     1     -33.784   7.130   4.307  1.00 20.00     0.260 C 
HETATM    3  C3  UNL     1     -32.687   6.760   3.278  1.00 20.00     0.128 C 
HETATM    4  C4  UNL     1     -34.472   5.789   3.934  1.00 20.00     0.276 C 
HETATM    5  F5  UNL     1     -33.375   7.245   5.590  1.00 20.00    -0.241 F 
HETATM    6  F6  UNL     1     -34.128   4.730   4.703  1.00 20.00    -0.203 F 
HETATM    7  F7  UNL     1     -35.821   5.817   3.884  1.00 20.00    -0.203 F 
HETATM    8 CL8  UNL     1     -31.906   8.068   2.349  1.00 20.00    -0.122 Cl
ENDROOT
TORSDOF 0
