REMARK  0 active torsions:
REMARK  status: ('A' for Active; 'I' for Inactive)
ROOT
HETATM    1  C1  UNL     1     -34.514   4.708   5.029  1.00 20.00    -0.025 C 
HETATM    2  C2  UNL     1     -33.864   4.502   3.874  1.00 20.00    -0.025 C 
HETATM    3  C3  UNL     1     -35.239   6.327   3.548  1.00 20.00     0.017 C 
HETATM    4  C4  UNL     1     -33.700   7.039   5.209  1.00 20.00     0.013 C 
HETATM    5  C5  UNL     1     -34.954   6.153   5.042  1.00 20.00     0.009 C 
HETATM    6  C6  UNL     1     -33.857   5.816   3.124  1.00 20.00     0.012 C 
HETATM    7  C7  UNL     1     -32.906   6.772   3.891  1.00 20.00    -0.010 C 
HETATM    8  C8  UNL     1     -32.605   8.054   3.126  1.00 20.00     0.010 C 
ENDROOT
TORSDOF 0
