REMARK  0 active torsions:
REMARK  status: ('A' for Active; 'I' for Inactive)
ROOT
HETATM    1  C1  UNL     1     -33.346   5.204   2.151  1.00 20.00    -0.018 C 
HETATM    2  C2  UNL     1     -33.286   6.901   5.624  1.00 20.00    -0.018 C 
HETATM    3  C3  UNL     1     -33.355   6.560   2.255  1.00 20.00    -0.078 C 
HETATM    4  C4  UNL     1     -34.060   5.820   5.412  1.00 20.00    -0.078 C 
HETATM    5  C5  UNL     1     -32.183   7.471   2.094  1.00 20.00     0.035 C 
HETATM    6  C6  UNL     1     -34.042   4.381   5.875  1.00 20.00     0.035 C 
HETATM    7  C7  UNL     1     -31.882   7.835   3.579  1.00 20.00     0.013 C 
HETATM    8  C8  UNL     1     -34.043   3.609   4.477  1.00 20.00     0.013 C 
HETATM    9  C9  UNL     1     -33.597   4.738   3.550  1.00 20.00     0.017 C 
HETATM   10  C10 UNL     1     -33.218   7.792   4.370  1.00 20.00     0.017 C 
HETATM   11  C11 UNL     1     -34.169   7.097   3.395  1.00 20.00     0.030 C 
HETATM   12  C12 UNL     1     -34.564   5.816   4.034  1.00 20.00     0.030 C 
ENDROOT
TORSDOF 0
