REMARK  0 active torsions:
REMARK  status: ('A' for Active; 'I' for Inactive)
ROOT
HETATM    1  C1  UNL     1     -32.748   5.671   2.675  1.00 20.00     0.123 C 
HETATM    2  C2  UNL     1     -32.751   7.791   5.332  1.00 20.00     0.123 C 
HETATM    3  C3  UNL     1     -34.180   4.718   5.607  1.00 20.00     0.123 C 
HETATM    4  C4  UNL     1     -34.198   5.549   3.146  1.00 20.00     0.296 C 
HETATM    5  C5  UNL     1     -33.564   7.727   4.037  1.00 20.00     0.296 C 
HETATM    6  C6  UNL     1     -34.746   6.131   5.448  1.00 20.00     0.296 C 
HETATM    7  N7  UNL     1     -34.540   6.630   4.082  1.00 20.00     0.133 N 
HETATM    8  S8  UNL     1     -32.469   7.451   2.620  1.00 20.00    -0.130 SA
HETATM    9  S9  UNL     1     -33.927   7.270   6.595  1.00 20.00    -0.130 SA
HETATM   10  S10 UNL     1     -34.456   3.968   3.992  1.00 20.00    -0.130 SA
ENDROOT
TORSDOF 0
