REMARK  0 active torsions:
REMARK  status: ('A' for Active; 'I' for Inactive)
ROOT
HETATM    1  C1  UNL     1     -33.527   5.331   2.294  1.00 20.00    -0.018 C 
HETATM    2  C2  UNL     1     -33.519   7.450   5.616  1.00 20.00    -0.018 C 
HETATM    3  C3  UNL     1     -33.266   6.670   2.240  1.00 20.00    -0.078 C 
HETATM    4  C4  UNL     1     -34.513   6.540   5.398  1.00 20.00    -0.078 C 
HETATM    5  C5  UNL     1     -32.020   7.500   1.977  1.00 20.00     0.035 C 
HETATM    6  C6  UNL     1     -34.863   5.186   5.994  1.00 20.00     0.035 C 
HETATM    7  C7  UNL     1     -31.933   8.421   3.306  1.00 20.00     0.013 C 
HETATM    8  C8  UNL     1     -34.895   4.232   4.685  1.00 20.00     0.013 C 
HETATM    9  C9  UNL     1     -34.047   5.048   3.704  1.00 20.00     0.017 C 
HETATM   10  C10 UNL     1     -32.771   7.600   4.290  1.00 20.00     0.017 C 
HETATM   11  C11 UNL     1     -33.935   7.385   3.338  1.00 20.00     0.030 C 
HETATM   12  C12 UNL     1     -34.763   6.363   3.960  1.00 20.00     0.030 C 
ENDROOT
TORSDOF 0
