REMARK  3 active torsions:
REMARK  status: ('A' for Active; 'I' for Inactive)
REMARK    1  A    between atoms: C1_1  and  C3_3 
REMARK    2  A    between atoms: C1_1  and  C4_4 
REMARK    3  A    between atoms: C2_2  and  C3_3 
ROOT
HETATM    1  C1  UNL     1     -33.342   6.005   3.365  1.00 20.00     0.197 C 
ENDROOT
BRANCH   1   2
HETATM    2  C3  UNL     1     -33.541   7.481   3.039  1.00 20.00     0.264 C 
HETATM    3  F5  UNL     1     -33.519   8.201   4.189  1.00 20.00    -0.205 F 
HETATM    4  F6  UNL     1     -34.767   7.657   2.483  1.00 20.00    -0.205 F 
BRANCH   2   5
HETATM    5  C2  UNL     1     -32.475   8.005   2.092  1.00 20.00     0.193 C 
HETATM    6 CL10 UNL     1     -32.761   9.722   1.711  1.00 20.00    -0.124 Cl
ENDBRANCH   2   5
ENDBRANCH   1   2
BRANCH   1   7
HETATM    7  C4  UNL     1     -34.389   5.477   4.325  1.00 20.00     0.393 C 
HETATM    8  F7  UNL     1     -34.175   4.179   4.625  1.00 20.00    -0.171 F 
HETATM    9  F8  UNL     1     -34.360   6.174   5.483  1.00 20.00    -0.171 F 
HETATM   10  F9  UNL     1     -35.632   5.589   3.812  1.00 20.00    -0.171 F 
ENDBRANCH   1   7
TORSDOF 3
