REMARK  0 active torsions:
REMARK  status: ('A' for Active; 'I' for Inactive)
ROOT
HETATM    1  C1  UNL     1     -33.723   6.503   5.751  1.00 20.00     0.006 C 
HETATM    2  C2  UNL     1     -33.165   7.339   4.581  1.00 20.00     0.009 C 
HETATM    3  C3  UNL     1     -32.973   5.262   3.178  1.00 20.00     0.014 C 
HETATM    4  C4  UNL     1     -35.033   6.530   3.105  1.00 20.00     0.014 C 
HETATM    5  C5  UNL     1     -34.460   5.276   5.292  1.00 20.00    -0.006 A 
HETATM    6  C6  UNL     1     -33.976   4.565   4.056  1.00 20.00    -0.005 A 
HETATM    7  C7  UNL     1     -35.248   5.348   4.011  1.00 20.00    -0.005 A 
HETATM    8  C8  UNL     1     -33.494   6.725   3.197  1.00 20.00    -0.043 C 
HETATM    9  C9  UNL     1     -32.936   7.566   2.059  1.00 20.00     0.015 C 
ENDROOT
TORSDOF 0
