REMARK  0 active torsions:
REMARK  status: ('A' for Active; 'I' for Inactive)
ROOT
HETATM    1  C1  UNL     1     -33.939   4.228   4.233  1.00 20.00    -0.025 A 
HETATM    2  C2  UNL     1     -33.339   4.405   3.052  1.00 20.00    -0.025 A 
HETATM    3  C3  UNL     1     -34.461   6.173   5.789  1.00 20.00     0.009 C 
HETATM    4  C4  UNL     1     -32.612   6.703   2.270  1.00 20.00     0.009 C 
HETATM    5  C5  UNL     1     -33.523   7.235   5.225  1.00 20.00     0.005 C 
HETATM    6  C6  UNL     1     -33.190   8.014   2.794  1.00 20.00     0.005 C 
HETATM    7  C7  UNL     1     -34.881   5.338   4.579  1.00 20.00     0.013 A 
HETATM    8  C8  UNL     1     -33.747   5.682   2.394  1.00 20.00     0.013 A 
HETATM    9  C9  UNL     1     -34.164   7.596   3.884  1.00 20.00    -0.009 C 
HETATM   10  C10 UNL     1     -34.772   6.285   3.374  1.00 20.00     0.005 A 
ENDROOT
TORSDOF 0
