REMARK  1 active torsions:
REMARK  status: ('A' for Active; 'I' for Inactive)
REMARK    1  A    between atoms: C8_8  and  O12_12 
ROOT
HETATM    1  C1  UNL     1     -32.371   7.898   4.174  1.00 20.00    -0.049 C 
HETATM    2  C2  UNL     1     -34.177   6.431   5.201  1.00 20.00     0.135 C 
HETATM    3  C3  UNL     1     -31.681   8.702   4.987  1.00 20.00     0.017 C 
HETATM    4  C4  UNL     1     -35.405   5.821   4.555  1.00 20.00     0.079 C 
HETATM    5  C5  UNL     1     -35.564   6.299   3.117  1.00 20.00     0.008 C 
HETATM    6  C6  UNL     1     -34.361   5.922   2.255  1.00 20.00     0.009 C 
HETATM    7  C7  UNL     1     -32.894   6.483   4.332  1.00 20.00     0.092 C 
HETATM    8  C8  UNL     1     -32.909   8.074   2.768  1.00 20.00     0.155 C 
HETATM    9  C9  UNL     1     -33.063   6.525   2.790  1.00 20.00     0.034 C 
HETATM   10  O11 UNL     1     -34.224   6.796   6.382  1.00 20.00    -0.297 OA
ENDROOT
BRANCH   8  11
HETATM   11  O12 UNL     1     -31.964   8.584   1.811  1.00 20.00    -0.386 OA
HETATM   12  C10 UNL     1     -32.559   8.713   0.533  1.00 20.00     0.202 C 
ENDBRANCH   8  11
TORSDOF 1
