REMARK  0 active torsions:
REMARK  status: ('A' for Active; 'I' for Inactive)
ROOT
HETATM    1  C1  UNL     1     -34.186   4.394   3.426  1.00 20.00     0.006 C 
HETATM    2  C2  UNL     1     -33.259   4.852   2.295  1.00 20.00     0.011 C 
HETATM    3  C3  UNL     1     -34.285   6.717   4.678  1.00 20.00     0.010 C 
HETATM    4  C4  UNL     1     -32.945   7.271   4.208  1.00 20.00     0.069 C 
HETATM    5  C5  UNL     1     -33.012   9.505   1.758  1.00 20.00     0.197 C 
HETATM    6  C6  UNL     1     -32.075   8.558   1.059  1.00 20.00     0.197 C 
HETATM    7  C7  UNL     1     -34.763   5.819   3.536  1.00 20.00    -0.005 C 
HETATM    8  C8  UNL     1     -33.959   6.232   2.281  1.00 20.00     0.052 C 
HETATM    9  C9  UNL     1     -33.148   7.454   2.707  1.00 20.00     0.168 C 
HETATM   10  O10 UNL     1     -33.914   8.640   2.445  1.00 20.00    -0.353 OA
HETATM   11  O11 UNL     1     -31.901   7.511   2.013  1.00 20.00    -0.353 OA
ENDROOT
TORSDOF 0
