REMARK  0 active torsions:
REMARK  status: ('A' for Active; 'I' for Inactive)
ROOT
HETATM    1  C1  UNL     1     -34.347   4.844   3.883  1.00 20.00     0.131 C 
HETATM    2  C2  UNL     1     -33.949   5.244   2.431  1.00 20.00     0.083 C 
HETATM    3  C3  UNL     1     -33.791   6.385   6.123  1.00 20.00     0.013 C 
HETATM    4  C4  UNL     1     -33.194   7.839   5.939  1.00 20.00     0.006 C 
HETATM    5  C5  UNL     1     -32.420   7.590   2.142  1.00 20.00     0.006 C 
HETATM    6  C6  UNL     1     -32.154   8.553   3.407  1.00 20.00     0.005 C 
HETATM    7  C7  UNL     1     -34.469   6.071   4.788  1.00 20.00     0.060 C 
HETATM    8  C8  UNL     1     -32.968   6.320   2.802  1.00 20.00    -0.002 C 
HETATM    9  C9  UNL     1     -32.578   7.668   4.578  1.00 20.00    -0.009 C 
HETATM   10  C10 UNL     1     -33.741   7.016   3.885  1.00 20.00     0.005 C 
HETATM   11  O11 UNL     1     -34.602   3.701   4.237  1.00 20.00    -0.298 OA
ENDROOT
TORSDOF 0
