REMARK  3 active torsions:
REMARK  status: ('A' for Active; 'I' for Inactive)
REMARK    1  A    between atoms: C2_2  and  C5_5 
REMARK    2  A    between atoms: C4_4  and  C5_5 
REMARK    3  A    between atoms: C4_4  and  C6_6 
ROOT
HETATM    1  C4  UNL     1     -33.246   6.551   3.916  1.00 20.00     0.353 C 
HETATM    2  F7  UNL     1     -33.621   7.754   4.445  1.00 20.00    -0.233 F 
ENDROOT
BRANCH   1   3
HETATM    3  C5  UNL     1     -33.301   6.689   2.397  1.00 20.00     0.300 C 
HETATM    4  F8  UNL     1     -34.606   6.793   2.019  1.00 20.00    -0.198 F 
HETATM    5  F9  UNL     1     -32.855   5.517   1.860  1.00 20.00    -0.198 F 
BRANCH   3   6
HETATM    6  C2  UNL     1     -32.474   7.819   1.861  1.00 20.00     0.050 C 
HETATM    7  C1  UNL     1     -32.961   8.850   1.157  1.00 20.00    -0.029 C 
HETATM    8  C3  UNL     1     -32.122   9.965   0.628  1.00 20.00     0.036 C 
ENDBRANCH   3   6
ENDBRANCH   1   3
BRANCH   1   9
HETATM    9  C6  UNL     1     -34.170   5.503   4.497  1.00 20.00     0.424 C 
HETATM   10  F10 UNL     1     -34.158   5.515   5.846  1.00 20.00    -0.168 F 
HETATM   11  F11 UNL     1     -35.443   5.686   4.089  1.00 20.00    -0.168 F 
HETATM   12  F12 UNL     1     -33.785   4.268   4.103  1.00 20.00    -0.168 F 
ENDBRANCH   1   9
TORSDOF 3
