REMARK  1 active torsions:
REMARK  status: ('A' for Active; 'I' for Inactive)
REMARK    1  A    between atoms: C7_7  and  C8_8 
ROOT
HETATM    1  C1  UNL     1     -34.207   4.446   5.906  1.00 20.00    -0.026 C 
HETATM    2  C2  UNL     1     -33.956   5.761   5.992  1.00 20.00    -0.025 C 
HETATM    3  C3  UNL     1     -35.632   5.504   4.427  1.00 20.00     0.017 C 
HETATM    4  C4  UNL     1     -33.760   4.400   3.471  1.00 20.00     0.014 C 
HETATM    5  C5  UNL     1     -34.840   4.201   4.557  1.00 20.00     0.009 C 
HETATM    6  C6  UNL     1     -34.409   6.390   4.693  1.00 20.00     0.013 C 
HETATM    7  C7  UNL     1     -33.420   5.920   3.593  1.00 20.00     0.007 C 
ENDROOT
BRANCH   7   8
HETATM    8  C8  UNL     1     -33.600   6.661   2.274  1.00 20.00     0.119 C 
HETATM    9 CL9  UNL     1     -33.211   8.379   2.478  1.00 20.00    -0.130 Cl
ENDBRANCH   7   8
TORSDOF 1
