REMARK  0 active torsions:
REMARK  status: ('A' for Active; 'I' for Inactive)
ROOT
HETATM    1  C1  UNL     1     -33.411   7.681   4.879  1.00 20.00     0.006 C 
HETATM    2  C2  UNL     1     -33.656   6.227   5.283  1.00 20.00     0.009 C 
HETATM    3  C3  UNL     1     -32.710   7.771   3.547  1.00 20.00    -0.005 A 
HETATM    4  C4  UNL     1     -32.116   6.561   2.895  1.00 20.00    -0.000 A 
HETATM    5  C5  UNL     1     -33.389   7.209   2.345  1.00 20.00    -0.000 A 
HETATM    6  C6  UNL     1     -33.395   5.784   2.808  1.00 20.00     0.003 A 
HETATM    7  C7  UNL     1     -34.133   5.369   4.084  1.00 20.00    -0.043 C 
HETATM    8  C8  UNL     1     -33.831   3.888   4.384  1.00 20.00     0.015 C 
HETATM    9  C9  UNL     1     -35.653   5.519   3.890  1.00 20.00     0.015 C 
ENDROOT
TORSDOF 0
