REMARK  0 active torsions:
REMARK  status: ('A' for Active; 'I' for Inactive)
ROOT
HETATM    1  C1  UNL     1     -34.112   5.793   6.018  1.00 20.00    -0.021 C 
HETATM    2  C2  UNL     1     -33.776   4.196   3.925  1.00 20.00    -0.021 C 
HETATM    3  C3  UNL     1     -33.555   6.989   5.700  1.00 20.00    -0.023 C 
HETATM    4  C4  UNL     1     -33.502   4.726   2.704  1.00 20.00    -0.023 C 
HETATM    5  C5  UNL     1     -34.673   5.062   4.797  1.00 20.00     0.035 C 
HETATM    6  C6  UNL     1     -33.299   6.923   4.268  1.00 20.00     0.033 C 
HETATM    7  C7  UNL     1     -34.162   6.072   2.511  1.00 20.00     0.033 C 
HETATM    8  C8  UNL     1     -34.757   6.266   3.895  1.00 20.00     0.015 C 
HETATM    9  C9  UNL     1     -33.481   7.492   2.879  1.00 20.00     0.098 C 
HETATM   10 CL10 UNL     1     -32.023   7.984   1.955  1.00 20.00    -0.124 Cl
ENDROOT
TORSDOF 0
