REMARK  2 active torsions:
REMARK  status: ('A' for Active; 'I' for Inactive)
REMARK    1  A    between atoms: C1_1  and  C2_2 
REMARK    2  A    between atoms: C1_1  and  C3_3 
ROOT
HETATM    1  C1  UNL     1     -32.761   7.344   3.097  1.00 20.00     0.386 C 
HETATM    2  F4  UNL     1     -31.605   7.764   3.688  1.00 20.00    -0.191 F 
HETATM    3  F5  UNL     1     -32.462   6.149   2.510  1.00 20.00    -0.191 F 
ENDROOT
BRANCH   1   4
HETATM    4  C2  UNL     1     -33.095   8.335   1.990  1.00 20.00     0.390 C 
HETATM    5  F6  UNL     1     -34.205   7.891   1.340  1.00 20.00    -0.181 F 
HETATM    6  F7  UNL     1     -32.105   8.365   1.064  1.00 20.00    -0.181 F 
HETATM    7 CL9  UNL     1     -33.404   9.976   2.578  1.00 20.00    -0.042 Cl
ENDBRANCH   1   4
BRANCH   1   8
HETATM    8  C3  UNL     1     -33.810   7.100   4.186  1.00 20.00     0.328 C 
HETATM    9  F8  UNL     1     -34.908   7.863   3.941  1.00 20.00    -0.200 F 
HETATM   10 CL10 UNL     1     -33.201   7.488   5.814  1.00 20.00    -0.059 Cl
HETATM   11 CL11 UNL     1     -34.326   5.387   4.167  1.00 20.00    -0.059 Cl
ENDBRANCH   1   8
TORSDOF 2
