REMARK  0 active torsions:
REMARK  status: ('A' for Active; 'I' for Inactive)
ROOT
HETATM    1  C1  UNL     1     -33.777   7.568   4.702  1.00 20.00     0.129 C 
HETATM    2  C2  UNL     1     -33.833   6.039   4.882  1.00 20.00     0.254 C 
HETATM    3  C3  UNL     1     -33.250   7.328   3.272  1.00 20.00     0.313 C 
HETATM    4  C4  UNL     1     -33.916   5.929   3.340  1.00 20.00     0.338 C 
HETATM    5  F5  UNL     1     -34.898   5.562   5.564  1.00 20.00    -0.243 F 
HETATM    6  F6  UNL     1     -33.729   8.159   2.321  1.00 20.00    -0.199 F 
HETATM    7  F7  UNL     1     -31.903   7.319   3.145  1.00 20.00    -0.199 F 
HETATM    8  F8  UNL     1     -35.168   5.862   2.832  1.00 20.00    -0.196 F 
HETATM    9  F9  UNL     1     -33.213   4.918   2.785  1.00 20.00    -0.196 F 
ENDROOT
TORSDOF 0
