REMARK  0 active torsions:
REMARK  status: ('A' for Active; 'I' for Inactive)
ROOT
HETATM    1  C1  UNL     1     -33.235   8.065   1.873  1.00 20.00    -0.080 C 
HETATM    2  C2  UNL     1     -32.816   8.712   0.778  1.00 20.00     0.015 C 
HETATM    3  C3  UNL     1     -34.583   7.403   1.983  1.00 20.00     0.043 C 
HETATM    4  C4  UNL     1     -32.751   8.646   5.404  1.00 20.00     0.002 C 
HETATM    5  C5  UNL     1     -33.863   7.657   5.108  1.00 20.00     0.006 C 
HETATM    6  C6  UNL     1     -32.330   9.097   4.014  1.00 20.00     0.014 C 
HETATM    7  C7  UNL     1     -33.298   6.824   3.948  1.00 20.00     0.006 C 
HETATM    8  C8  UNL     1     -32.421   7.828   3.134  1.00 20.00    -0.017 C 
HETATM    9  C9  UNL     1     -34.339   6.240   2.958  1.00 20.00    -0.040 C 
HETATM   10  C10 UNL     1     -31.019   7.265   2.864  1.00 20.00     0.020 C 
HETATM   11  C11 UNL     1     -33.756   5.023   2.207  1.00 20.00     0.015 C 
HETATM   12  C12 UNL     1     -35.644   5.786   3.627  1.00 20.00     0.015 C 
ENDROOT
TORSDOF 0
