REMARK  0 active torsions:
REMARK  status: ('A' for Active; 'I' for Inactive)
ROOT
HETATM    1  C1  UNL     1     -32.220   5.537   3.615  1.00 20.00    -0.019 A 
HETATM    2  C2  UNL     1     -33.049   5.286   2.587  1.00 20.00    -0.019 A 
HETATM    3  C3  UNL     1     -32.065   8.532   2.752  1.00 20.00    -0.023 C 
HETATM    4  C4  UNL     1     -32.883   8.287   1.715  1.00 20.00    -0.086 C 
HETATM    5  C5  UNL     1     -32.337   8.055   4.146  1.00 20.00     0.042 C 
HETATM    6  C6  UNL     1     -34.160   7.504   1.886  1.00 20.00     0.048 C 
HETATM    7  C7  UNL     1     -34.442   5.122   5.634  1.00 20.00     0.001 C 
HETATM    8  C8  UNL     1     -35.388   4.838   4.464  1.00 20.00     0.001 C 
HETATM    9  C9  UNL     1     -33.696   6.452   5.545  1.00 20.00     0.015 C 
HETATM   10  C10 UNL     1     -35.432   5.929   3.396  1.00 20.00     0.015 C 
HETATM   11  C11 UNL     1     -33.062   6.696   4.162  1.00 20.00    -0.009 A 
HETATM   12  C12 UNL     1     -34.032   6.404   2.960  1.00 20.00    -0.008 A 
HETATM   13  C13 UNL     1     -32.597   8.808   0.338  1.00 20.00     0.043 C 
ENDROOT
TORSDOF 0
