REMARK  1 active torsions:
REMARK  status: ('A' for Active; 'I' for Inactive)
REMARK    1  A    between atoms: C2_2  and  C3_3 
ROOT
HETATM    1  C1  UNL     1     -33.928   6.107   5.865  1.00 20.00     0.105 C 
HETATM    2  C2  UNL     1     -34.378   5.468   4.779  1.00 20.00     0.036 C 
HETATM    3 CL4  UNL     1     -33.957   7.804   6.094  1.00 20.00    -0.096 Cl
HETATM    4 CL5  UNL     1     -34.255   3.733   4.731  1.00 20.00    -0.087 Cl
ENDROOT
BRANCH   2   5
HETATM    5  C3  UNL     1     -34.951   6.090   3.544  1.00 20.00     0.166 C 
HETATM    6 CL6  UNL     1     -33.665   6.417   2.359  1.00 20.00    -0.125 Cl
ENDBRANCH   2   5
TORSDOF 1
