REMARK  1 active torsions:
REMARK  status: ('A' for Active; 'I' for Inactive)
REMARK    1  A    between atoms: C5_5  and  O10_10 
ROOT
HETATM    1  C1  UNL     1     -33.101   7.766   5.492  1.00 20.00     0.001 C 
HETATM    2  C2  UNL     1     -34.102   6.919   5.774  1.00 20.00    -0.018 C 
HETATM    3  C3  UNL     1     -33.148   7.053   3.072  1.00 20.00     0.046 C 
HETATM    4  C4  UNL     1     -35.413   6.005   3.770  1.00 20.00     0.024 A 
HETATM    5  C5  UNL     1     -32.315   7.639   4.221  1.00 20.00     0.141 C 
HETATM    6  C6  UNL     1     -34.474   5.763   4.926  1.00 20.00    -0.018 A 
HETATM    7  C7  UNL     1     -33.936   5.817   3.483  1.00 20.00    -0.030 A 
HETATM    8  C8  UNL     1     -34.572   4.446   5.653  1.00 20.00     0.020 C 
HETATM    9  C9  UNL     1     -33.503   4.553   2.788  1.00 20.00     0.016 C 
ENDROOT
BRANCH   5  10
HETATM   10  O10 UNL     1     -31.865   8.937   3.839  1.00 20.00    -0.392 OA
HETATM   11  H24 UNL     1     -31.362   8.824   3.018  1.00 20.00     0.210 HD
ENDBRANCH   5  10
TORSDOF 1
