REMARK  1 active torsions:
REMARK  status: ('A' for Active; 'I' for Inactive)
REMARK    1  A    between atoms: C1_1  and  C4_4 
ROOT
HETATM    1  C3  UNL     1     -31.974   9.000   3.125  1.00 20.00     0.018 A 
HETATM    2  C4  UNL     1     -33.169   8.287   2.548  1.00 20.00     0.017 A 
HETATM    3  C5  UNL     1     -32.262   9.107   1.647  1.00 20.00    -0.040 A 
HETATM    4  C8  UNL     1     -32.806  10.414   1.129  1.00 20.00     0.015 C 
HETATM    5  C9  UNL     1     -31.308   8.427   0.698  1.00 20.00     0.015 C 
ENDROOT
BRANCH   2   6
HETATM    6  C1  UNL     1     -33.165   6.832   2.493  1.00 20.00    -0.019 C 
HETATM    7  C2  UNL     1     -33.473   5.970   3.481  1.00 20.00    -0.091 C 
HETATM    8  C6  UNL     1     -33.418   4.484   3.260  1.00 20.00     0.042 C 
HETATM    9  C7  UNL     1     -33.889   6.394   4.861  1.00 20.00     0.042 C 
ENDBRANCH   2   6
TORSDOF 1
