REMARK  0 active torsions:
REMARK  status: ('A' for Active; 'I' for Inactive)
ROOT
HETATM    1  C1  UNL     1     -33.660   7.590   4.946  1.00 20.00    -0.019 A 
HETATM    2  C2  UNL     1     -32.757   7.359   3.984  1.00 20.00    -0.086 A 
HETATM    3  C3  UNL     1     -34.168   4.545   4.846  1.00 20.00     0.132 C 
HETATM    4  C4  UNL     1     -33.097   6.183   3.110  1.00 20.00     0.046 A 
HETATM    5  C5  UNL     1     -34.734   5.473   5.934  1.00 20.00     0.088 C 
HETATM    6  C6  UNL     1     -34.760   6.603   4.876  1.00 20.00     0.027 A 
HETATM    7  C7  UNL     1     -34.364   5.608   3.741  1.00 20.00     0.067 A 
HETATM    8  C8  UNL     1     -31.519   8.146   3.737  1.00 20.00     0.043 C 
HETATM    9  O9  UNL     1     -33.724   3.416   4.856  1.00 20.00    -0.298 OA
ENDROOT
TORSDOF 0
