REMARK  0 active torsions:
REMARK  status: ('A' for Active; 'I' for Inactive)
ROOT
HETATM    1  C1  UNL     1     -34.560   6.271   3.236  1.00 20.00     0.135 C 
HETATM    2  C2  UNL     1     -34.144   6.513   1.808  1.00 20.00     0.080 C 
HETATM    3  C3  UNL     1     -33.984   7.997   1.499  1.00 20.00     0.016 C 
HETATM    4  C4  UNL     1     -33.587   7.028   5.502  1.00 20.00     0.023 A 
HETATM    5  C5  UNL     1     -32.949   8.780   3.715  1.00 20.00     0.014 C 
HETATM    6  C6  UNL     1     -32.643   7.495   4.430  1.00 20.00     0.003 A 
HETATM    7  C7  UNL     1     -33.444   6.220   4.227  1.00 20.00     0.021 A 
HETATM    8  C8  UNL     1     -32.794   8.733   2.175  1.00 20.00    -0.047 C 
HETATM    9  C9  UNL     1     -32.712   4.906   4.354  1.00 20.00     0.024 C 
HETATM   10  C10 UNL     1     -31.444   8.122   1.758  1.00 20.00     0.015 C 
HETATM   11  C11 UNL     1     -32.819  10.195   1.664  1.00 20.00     0.015 C 
HETATM   12  O12 UNL     1     -35.723   6.111   3.584  1.00 20.00    -0.297 OA
ENDROOT
TORSDOF 0
