REMARK  0 active torsions:
REMARK  status: ('A' for Active; 'I' for Inactive)
ROOT
HETATM    1  C1  UNL     1     -32.440   7.902   4.894  1.00 20.00     0.132 C 
HETATM    2  C2  UNL     1     -32.229   9.384   4.764  1.00 20.00     0.079 C 
HETATM    3  C3  UNL     1     -32.145   9.561   3.257  1.00 20.00     0.017 C 
HETATM    4  C4  UNL     1     -32.027   7.905   1.320  1.00 20.00     0.011 C 
HETATM    5  C5  UNL     1     -33.384   7.262   1.578  1.00 20.00     0.010 C 
HETATM    6  C6  UNL     1     -32.052   7.140   3.640  1.00 20.00     0.071 C 
HETATM    7  C7  UNL     1     -31.513   8.262   2.717  1.00 20.00    -0.033 C 
HETATM    8  C8  UNL     1     -33.189   6.424   2.859  1.00 20.00    -0.037 C 
HETATM    9  C9  UNL     1     -29.984   8.352   2.740  1.00 20.00     0.016 C 
HETATM   10  C10 UNL     1     -34.517   6.296   3.614  1.00 20.00     0.015 C 
HETATM   11  C11 UNL     1     -32.717   5.005   2.480  1.00 20.00     0.015 C 
HETATM   12  O12 UNL     1     -32.831   7.368   5.925  1.00 20.00    -0.298 OA
ENDROOT
TORSDOF 0
