REMARK  0 active torsions:
REMARK  status: ('A' for Active; 'I' for Inactive)
ROOT
HETATM    1  C1  UNL     1     -32.562   7.815   4.624  1.00 20.00    -0.080 C 
HETATM    2  C2  UNL     1     -32.515   8.057   5.941  1.00 20.00     0.015 C 
HETATM    3  C3  UNL     1     -31.626   8.453   3.630  1.00 20.00     0.043 C 
HETATM    4  C4  UNL     1     -33.294   4.855   2.690  1.00 20.00     0.002 C 
HETATM    5  C5  UNL     1     -32.646   5.957   1.873  1.00 20.00     0.006 C 
HETATM    6  C6  UNL     1     -33.283   5.435   4.096  1.00 20.00     0.014 C 
HETATM    7  C7  UNL     1     -33.317   7.234   2.401  1.00 20.00     0.006 C 
HETATM    8  C8  UNL     1     -33.581   6.942   3.913  1.00 20.00    -0.017 C 
HETATM    9  C9  UNL     1     -32.463   8.527   2.341  1.00 20.00    -0.040 C 
HETATM   10  C10 UNL     1     -35.033   7.249   4.303  1.00 20.00     0.020 C 
HETATM   11  C11 UNL     1     -33.367   9.779   2.359  1.00 20.00     0.015 C 
HETATM   12  C12 UNL     1     -31.569   8.622   1.097  1.00 20.00     0.015 C 
ENDROOT
TORSDOF 0
