REMARK  0 active torsions:
REMARK  status: ('A' for Active; 'I' for Inactive)
ROOT
HETATM    1  C1  UNL     1     -34.166   6.984   6.050  1.00 20.00     0.003 C 
HETATM    2  C2  UNL     1     -33.538   7.707   5.115  1.00 20.00     0.050 C 
HETATM    3  C3  UNL     1     -34.287   5.548   6.129  1.00 20.00    -0.004 C 
HETATM    4  C4  UNL     1     -34.386   4.695   5.101  1.00 20.00    -0.021 C 
HETATM    5  C5  UNL     1     -32.903   7.151   3.900  1.00 20.00     0.154 C 
HETATM    6  C6  UNL     1     -33.144   4.800   2.882  1.00 20.00     0.022 A 
HETATM    7  C7  UNL     1     -34.409   5.001   3.672  1.00 20.00     0.020 A 
HETATM    8  C8  UNL     1     -33.687   6.188   3.096  1.00 20.00     0.068 A 
HETATM    9  O9  UNL     1     -31.818   7.561   3.504  1.00 20.00    -0.293 OA
ENDROOT
TORSDOF 0
