REMARK  0 active torsions:
REMARK  status: ('A' for Active; 'I' for Inactive)
ROOT
HETATM    1  C1  UNL     1     -34.332   6.282   6.235  1.00 20.00    -0.021 C 
HETATM    2  C2  UNL     1     -34.155   4.395   4.432  1.00 20.00    -0.021 C 
HETATM    3  C3  UNL     1     -33.412   7.238   5.975  1.00 20.00    -0.025 C 
HETATM    4  C4  UNL     1     -33.681   4.602   3.184  1.00 20.00    -0.025 C 
HETATM    5  C5  UNL     1     -32.547   7.937   3.409  1.00 20.00     0.009 C 
HETATM    6  C6  UNL     1     -32.792   6.930   2.234  1.00 20.00     0.009 C 
HETATM    7  C7  UNL     1     -34.853   5.610   4.981  1.00 20.00     0.035 C 
HETATM    8  C8  UNL     1     -33.005   7.085   4.562  1.00 20.00     0.013 C 
HETATM    9  C9  UNL     1     -33.962   5.999   2.673  1.00 20.00     0.013 C 
HETATM   10  C10 UNL     1     -34.361   6.630   3.984  1.00 20.00     0.012 C 
ENDROOT
TORSDOF 0
