REMARK  0 active torsions:
REMARK  status: ('A' for Active; 'I' for Inactive)
ROOT
HETATM    1  C1  UNL     1     -32.566   8.221   4.129  1.00 20.00     0.131 C 
HETATM    2  C2  UNL     1     -33.144   7.359   5.238  1.00 20.00     0.079 C 
HETATM    3  C3  UNL     1     -33.212   5.885   4.829  1.00 20.00     0.016 C 
HETATM    4  C4  UNL     1     -33.566   6.528   0.962  1.00 20.00     0.006 C 
HETATM    5  C5  UNL     1     -32.900   7.779   0.372  1.00 20.00     0.005 C 
HETATM    6  C6  UNL     1     -33.197   8.022   2.767  1.00 20.00     0.064 C 
HETATM    7  C7  UNL     1     -33.124   6.532   2.421  1.00 20.00     0.005 C 
HETATM    8  C8  UNL     1     -32.495   8.666   1.569  1.00 20.00    -0.007 C 
HETATM    9  C9  UNL     1     -33.865   5.634   3.438  1.00 20.00    -0.043 C 
HETATM   10  C10 UNL     1     -32.878  10.125   1.367  1.00 20.00     0.011 C 
HETATM   11  C11 UNL     1     -33.670   4.152   3.062  1.00 20.00     0.015 C 
HETATM   12  C12 UNL     1     -35.380   5.906   3.510  1.00 20.00     0.015 C 
HETATM   13  O13 UNL     1     -31.718   9.080   4.354  1.00 20.00    -0.298 OA
ENDROOT
TORSDOF 0
