REMARK  0 active torsions:
REMARK  status: ('A' for Active; 'I' for Inactive)
ROOT
HETATM    1  C1  UNL     1     -35.154   7.504   4.179  1.00 20.00    -0.019 A 
HETATM    2  C2  UNL     1     -35.074   6.739   3.076  1.00 20.00    -0.019 A 
HETATM    3  C3  UNL     1     -32.528   8.970   3.348  1.00 20.00    -0.023 C 
HETATM    4  C4  UNL     1     -32.449   8.220   2.236  1.00 20.00    -0.086 C 
HETATM    5  C5  UNL     1     -32.797   8.400   4.708  1.00 20.00     0.042 C 
HETATM    6  C6  UNL     1     -32.623   6.724   2.280  1.00 20.00     0.048 C 
HETATM    7  C7  UNL     1     -34.535   5.140   5.973  1.00 20.00     0.001 C 
HETATM    8  C8  UNL     1     -34.440   4.270   4.717  1.00 20.00     0.001 C 
HETATM    9  C9  UNL     1     -33.640   6.378   5.963  1.00 20.00     0.015 C 
HETATM   10  C10 UNL     1     -33.470   4.781   3.654  1.00 20.00     0.015 C 
HETATM   11  C11 UNL     1     -33.730   7.176   4.648  1.00 20.00    -0.009 A 
HETATM   12  C12 UNL     1     -33.636   6.284   3.356  1.00 20.00    -0.008 A 
HETATM   13  C13 UNL     1     -32.148   8.820   0.895  1.00 20.00     0.043 C 
ENDROOT
TORSDOF 0
