REMARK  0 active torsions:
REMARK  status: ('A' for Active; 'I' for Inactive)
ROOT
HETATM    1  C1  UNL     1     -33.899   5.716   2.238  1.00 20.00     0.004 C 
HETATM    2  C2  UNL     1     -34.777   5.509   3.470  1.00 20.00     0.005 C 
HETATM    3  C3  UNL     1     -32.538   6.306   2.614  1.00 20.00     0.042 C 
HETATM    4  C4  UNL     1     -33.764   6.791   5.471  1.00 20.00     0.013 A 
HETATM    5  C5  UNL     1     -34.802   6.702   4.379  1.00 20.00    -0.007 A 
HETATM    6  C6  UNL     1     -33.726   7.763   4.321  1.00 20.00     0.029 A 
HETATM    7  C7  UNL     1     -32.676   7.698   3.247  1.00 20.00     0.117 C 
HETATM    8 CL8  UNL     1     -31.107   8.202   3.949  1.00 20.00    -0.101 Cl
HETATM    9 CL9  UNL     1     -33.120   8.898   1.979  1.00 20.00    -0.101 Cl
ENDROOT
TORSDOF 0
