REMARK  0 active torsions:
REMARK  status: ('A' for Active; 'I' for Inactive)
ROOT
HETATM    1  C1  UNL     1     -34.283   5.630   5.573  1.00 20.00     0.147 A 
HETATM    2  C2  UNL     1     -34.519   4.792   3.621  1.00 20.00     0.214 A 
HETATM    3  C3  UNL     1     -33.587   6.462   4.729  1.00 20.00     0.057 A 
HETATM    4  C4  UNL     1     -32.815   7.647   4.845  1.00 20.00     0.033 A 
HETATM    5  C5  UNL     1     -32.268   8.190   3.739  1.00 20.00     0.023 A 
HETATM    6  C6  UNL     1     -33.185   6.464   2.316  1.00 20.00     0.117 A 
HETATM    7  C7  UNL     1     -32.451   7.587   2.420  1.00 20.00     0.027 A 
HETATM    8  N8  UNL     1     -34.858   4.595   4.877  1.00 20.00    -0.253 NA
HETATM    9  N9  UNL     1     -33.744   5.913   3.466  1.00 20.00    -0.314 N 
HETATM   10 BR10 UNL     1     -31.657   8.409   0.951  1.00 20.00    -0.050 Br
ENDROOT
TORSDOF 0
