REMARK  1 active torsions:
REMARK  status: ('A' for Active; 'I' for Inactive)
REMARK    1  A    between atoms: C2_2  and  C10_10 
ROOT
HETATM    1  C1  UNL     1     -33.502   5.467   2.439  1.00 20.00    -0.018 A 
HETATM    2  C2  UNL     1     -33.165   6.677   2.927  1.00 20.00    -0.075 A 
HETATM    3  C3  UNL     1     -34.360   5.058   5.857  1.00 20.00     0.001 C 
HETATM    4  C4  UNL     1     -34.283   4.221   4.586  1.00 20.00     0.009 C 
HETATM    5  C5  UNL     1     -33.690   6.369   5.462  1.00 20.00     0.010 C 
HETATM    6  C6  UNL     1     -34.579   5.227   3.475  1.00 20.00     0.016 A 
HETATM    7  C7  UNL     1     -34.196   6.617   4.042  1.00 20.00     0.022 A 
ENDROOT
BRANCH   2   8
HETATM    8  C10 UNL     1     -32.122   7.735   2.519  1.00 20.00     0.006 C 
HETATM    9  C8  UNL     1     -32.743   8.663   1.500  1.00 20.00     0.014 C 
HETATM   10  C9  UNL     1     -31.644   8.468   3.752  1.00 20.00     0.014 C 
ENDBRANCH   2   8
TORSDOF 1
