REMARK  1 active torsions:
REMARK  status: ('A' for Active; 'I' for Inactive)
REMARK    1  A    between atoms: C1_1  and  C4_4 
ROOT
HETATM    1  C1  UNL     1     -33.041   7.965   1.505  1.00 20.00     0.102 C 
HETATM    2  C2  UNL     1     -32.522   7.617   2.696  1.00 20.00    -0.015 C 
HETATM    3  C3  UNL     1     -31.367   8.301   3.371  1.00 20.00     0.055 C 
HETATM    4  I8  UNL     1     -33.347   6.000   3.736  1.00 20.00    -0.050 I 
ENDROOT
BRANCH   1   5
HETATM    5  C4  UNL     1     -32.569   9.086   0.646  1.00 20.00     0.408 C 
HETATM    6  F5  UNL     1     -33.289   9.194  -0.499  1.00 20.00    -0.167 F 
HETATM    7  F6  UNL     1     -31.267   8.948   0.290  1.00 20.00    -0.167 F 
HETATM    8  F7  UNL     1     -32.673  10.280   1.285  1.00 20.00    -0.167 F 
ENDBRANCH   1   5
TORSDOF 1
