REMARK  0 active torsions:
REMARK  status: ('A' for Active; 'I' for Inactive)
ROOT
HETATM    1  C1  UNL     1     -34.425   5.146   5.839  1.00 20.00    -0.021 C 
HETATM    2  C2  UNL     1     -33.760   6.319   5.981  1.00 20.00    -0.021 C 
HETATM    3  C3  UNL     1     -33.732   4.070   3.515  1.00 20.00    -0.021 C 
HETATM    4  C4  UNL     1     -33.322   4.814   2.458  1.00 20.00    -0.021 C 
HETATM    5  C5  UNL     1     -32.926   7.829   3.841  1.00 20.00    -0.015 C 
HETATM    6  C6  UNL     1     -33.150   7.466   2.551  1.00 20.00    -0.079 C 
HETATM    7  C7  UNL     1     -34.728   4.804   4.384  1.00 20.00     0.036 C 
HETATM    8  C8  UNL     1     -33.237   6.641   4.647  1.00 20.00     0.036 C 
HETATM    9  C9  UNL     1     -33.970   6.180   2.428  1.00 20.00     0.042 C 
HETATM   10  C10 UNL     1     -34.474   6.184   3.844  1.00 20.00     0.020 C 
HETATM   11  C11 UNL     1     -32.779   8.240   1.338  1.00 20.00     0.044 C 
ENDROOT
TORSDOF 0
