REMARK  0 active torsions:
REMARK  status: ('A' for Active; 'I' for Inactive)
ROOT
HETATM    1  C1  UNL     1     -34.120   6.178   6.016  1.00 20.00    -0.021 C 
HETATM    2  C2  UNL     1     -33.932   4.168   4.535  1.00 20.00    -0.021 C 
HETATM    3  C3  UNL     1     -33.566   7.311   5.562  1.00 20.00    -0.023 C 
HETATM    4  C4  UNL     1     -33.288   4.338   3.372  1.00 20.00    -0.023 C 
HETATM    5  C5  UNL     1     -34.764   5.353   4.937  1.00 20.00     0.035 C 
HETATM    6  C6  UNL     1     -33.752   7.436   4.098  1.00 20.00     0.033 A 
HETATM    7  C7  UNL     1     -33.587   5.670   2.796  1.00 20.00     0.033 A 
HETATM    8  C8  UNL     1     -34.681   6.271   3.702  1.00 20.00     0.015 A 
HETATM    9  C9  UNL     1     -32.637   6.828   3.205  1.00 20.00     0.098 A 
HETATM   10 CL10 UNL     1     -31.981   7.866   1.880  1.00 20.00    -0.124 Cl
ENDROOT
TORSDOF 0
