REMARK  2 active torsions:
REMARK  status: ('A' for Active; 'I' for Inactive)
REMARK    1  A    between atoms: C7_7  and  C10_10 
REMARK    2  A    between atoms: C8_8  and  C9_9 
ROOT
HETATM    1  C1  UNL     1     -32.757   5.463   2.714  1.00 20.00    -0.019 C 
HETATM    2  C3  UNL     1     -33.798   5.233   3.550  1.00 20.00    -0.087 C 
HETATM    3  C5  UNL     1     -34.616   6.509   3.803  1.00 20.00     0.039 C 
HETATM    4  C8  UNL     1     -32.922   6.837   2.170  1.00 20.00     0.021 C 
HETATM    5  C10 UNL     1     -33.505   7.467   3.463  1.00 20.00     0.005 C 
HETATM    6  C11 UNL     1     -34.154   3.952   4.210  1.00 20.00     0.043 C 
ENDROOT
BRANCH   4   7
HETATM    7  C9  UNL     1     -32.034   8.002   1.666  1.00 20.00     0.022 C 
HETATM    8  C4  UNL     1     -33.042   8.869   0.906  1.00 20.00    -0.082 C 
HETATM    9  C2  UNL     1     -33.904   9.376   1.810  1.00 20.00    -0.019 C 
HETATM   10  C12 UNL     1     -33.056   8.986  -0.570  1.00 20.00     0.043 C 
HETATM   11  C7  UNL     1     -33.420   8.967   3.182  1.00 20.00     0.014 C 
HETATM   12  C6  UNL     1     -31.895   8.966   2.855  1.00 20.00     0.018 C 
ENDBRANCH   4   7
TORSDOF 2
