REMARK  0 active torsions:
REMARK  status: ('A' for Active; 'I' for Inactive)
ROOT
HETATM    1  C1  UNL     1     -33.200   7.418   4.062  1.00 20.00     0.196 C 
HETATM    2  C2  UNL     1     -34.000   7.538   5.342  1.00 20.00     0.092 C 
HETATM    3  C3  UNL     1     -34.129   6.216   6.097  1.00 20.00     0.019 C 
HETATM    4  C4  UNL     1     -34.883   5.125   5.333  1.00 20.00     0.087 C 
HETATM    5  O5  UNL     1     -32.136   7.989   3.867  1.00 20.00    -0.285 OA
HETATM    6  S6  UNL     1     -33.969   6.433   2.824  1.00 20.00    -0.020 SA
HETATM    7  S7  UNL     1     -33.985   4.645   3.828  1.00 20.00    -0.090 SA
ENDROOT
TORSDOF 0
