REMARK  1 active torsions:
REMARK  status: ('A' for Active; 'I' for Inactive)
REMARK    1  A    between atoms: C2_2  and  C4_4 
ROOT
HETATM    1  C1  UNL     1     -32.878  10.535   0.629  1.00 20.00    -0.034 C 
HETATM    2  C2  UNL     1     -32.252  10.060   1.716  1.00 20.00    -0.016 C 
HETATM    3  C3  UNL     1     -33.317   9.684  -0.516  1.00 20.00     0.036 C 
ENDROOT
BRANCH   2   4
HETATM    4  C4  UNL     1     -31.916   8.618   1.913  1.00 20.00     0.141 C 
HETATM    5 CL5  UNL     1     -33.256   7.791   2.735  1.00 20.00    -0.126 Cl
ENDBRANCH   2   4
TORSDOF 1
