REMARK  2 active torsions:
REMARK  status: ('A' for Active; 'I' for Inactive)
REMARK    1  A    between atoms: C2_2  and  C3_3 
REMARK    2  A    between atoms: C2_2  and  C4_4 
ROOT
HETATM    1  C2  UNL     1     -33.259   6.696   4.539  1.00 20.00     0.244 C 
HETATM    2 CL9  UNL     1     -34.031   7.503   5.952  1.00 20.00    -0.111 Cl
ENDROOT
BRANCH   1   3
HETATM    3  C3  UNL     1     -32.949   7.725   3.432  1.00 20.00     0.200 C 
HETATM    4  C1  UNL     1     -32.075   8.888   3.896  1.00 20.00     0.072 C 
HETATM    5  F5  UNL     1     -32.294   7.095   2.415  1.00 20.00    -0.224 F 
HETATM    6 CL10 UNL     1     -34.458   8.424   2.757  1.00 20.00    -0.081 Cl
ENDBRANCH   1   3
BRANCH   1   7
HETATM    7  C4  UNL     1     -34.188   5.563   4.112  1.00 20.00     0.408 C 
HETATM    8  F6  UNL     1     -34.478   4.738   5.141  1.00 20.00    -0.169 F 
HETATM    9  F7  UNL     1     -35.358   6.050   3.635  1.00 20.00    -0.169 F 
HETATM   10  F8  UNL     1     -33.651   4.815   3.125  1.00 20.00    -0.169 F 
ENDBRANCH   1   7
TORSDOF 2
