REMARK  0 active torsions:
REMARK  status: ('A' for Active; 'I' for Inactive)
ROOT
HETATM    1  C1  UNL     1     -33.242   6.292   1.947  1.00 20.00    -0.023 C 
HETATM    2  C2  UNL     1     -32.761   7.539   2.061  1.00 20.00    -0.080 C 
HETATM    3  C3  UNL     1     -34.465   6.165   5.030  1.00 20.00     0.127 C 
HETATM    4  C4  UNL     1     -33.258   5.228   3.001  1.00 20.00     0.035 C 
HETATM    5  C5  UNL     1     -32.855   8.518   0.912  1.00 20.00     0.034 C 
HETATM    6  C6  UNL     1     -34.546   5.257   3.816  1.00 20.00     0.082 C 
HETATM    7  C7  UNL     1     -34.160   7.635   4.820  1.00 20.00     0.079 C 
HETATM    8  C8  UNL     1     -32.190   9.780   1.442  1.00 20.00     0.005 C 
HETATM    9  C9  UNL     1     -32.657   7.871   4.683  1.00 20.00     0.016 C 
HETATM   10  C10 UNL     1     -32.413   9.707   2.944  1.00 20.00     0.009 C 
HETATM   11  C11 UNL     1     -32.167   8.227   3.272  1.00 20.00     0.014 C 
HETATM   12  O12 UNL     1     -34.658   5.718   6.163  1.00 20.00    -0.298 OA
ENDROOT
TORSDOF 0
