REMARK  0 active torsions:
REMARK  status: ('A' for Active; 'I' for Inactive)
ROOT
HETATM    1  C1  UNL     1     -34.567   4.205   5.121  1.00 20.00     0.004 C 
HETATM    2  C2  UNL     1     -34.239   4.098   3.798  1.00 20.00    -0.017 C 
HETATM    3  C3  UNL     1     -33.222   6.310   2.393  1.00 20.00    -0.021 C 
HETATM    4  C4  UNL     1     -33.132   7.535   3.004  1.00 20.00    -0.024 C 
HETATM    5  C5  UNL     1     -34.549   6.577   6.401  1.00 20.00    -0.019 C 
HETATM    6  C6  UNL     1     -34.450   5.576   5.526  1.00 20.00    -0.056 C 
HETATM    7  C7  UNL     1     -33.938   7.869   5.762  1.00 20.00     0.036 C 
HETATM    8  C8  UNL     1     -34.215   5.454   3.137  1.00 20.00     0.039 C 
HETATM    9  C9  UNL     1     -34.019   7.576   4.241  1.00 20.00     0.020 C 
HETATM   10  C10 UNL     1     -33.759   6.119   4.387  1.00 20.00     0.037 C 
ENDROOT
TORSDOF 0
