REMARK  0 active torsions:
REMARK  status: ('A' for Active; 'I' for Inactive)
ROOT
HETATM    1  C1  UNL     1     -35.389   5.884   3.312  1.00 20.00    -0.020 A 
HETATM    2  C2  UNL     1     -35.396   6.887   4.208  1.00 20.00    -0.020 A 
HETATM    3  C3  UNL     1     -34.448   4.488   5.890  1.00 20.00     0.002 C 
HETATM    4  C4  UNL     1     -33.911   4.115   4.513  1.00 20.00     0.014 C 
HETATM    5  C5  UNL     1     -33.924   5.902   6.110  1.00 20.00     0.014 C 
HETATM    6  C6  UNL     1     -33.986   5.411   3.685  1.00 20.00    -0.016 A 
HETATM    7  C7  UNL     1     -33.994   6.580   4.730  1.00 20.00    -0.016 A 
HETATM    8  C8  UNL     1     -32.991   5.427   2.533  1.00 20.00     0.020 C 
HETATM    9  C9  UNL     1     -33.007   7.731   4.593  1.00 20.00     0.020 C 
ENDROOT
TORSDOF 0
