REMARK  1 active torsions:
REMARK  status: ('A' for Active; 'I' for Inactive)
REMARK    1  A    between atoms: C4_4  and  C6_6 
ROOT
HETATM    1  C1  UNL     1     -31.739   7.901   4.149  1.00 20.00     0.279 C 
HETATM    2  C2  UNL     1     -33.325   6.602   5.450  1.00 20.00     0.284 C 
HETATM    3  C3  UNL     1     -32.484   7.776   2.825  1.00 20.00     0.104 C 
HETATM    4  C4  UNL     1     -34.282   6.304   4.291  1.00 20.00     0.075 C 
HETATM    5  N7  UNL     1     -32.634   7.886   5.305  1.00 20.00     0.085 N 
HETATM    6  S8  UNL     1     -33.373   6.199   2.710  1.00 20.00    -0.161 SA
HETATM    7  H21 UNL     1     -32.085   8.058   6.147  1.00 20.00     0.315 HD
ENDROOT
BRANCH   4   8
HETATM    8  C6  UNL     1     -35.023   4.989   4.520  1.00 20.00     0.012 C 
HETATM    9  C5  UNL     1     -34.079   3.839   4.654  1.00 20.00     0.006 C 
ENDBRANCH   4   8
TORSDOF 1
