REMARK  0 active torsions:
REMARK  status: ('A' for Active; 'I' for Inactive)
ROOT
HETATM    1  C1  UNL     1     -33.840   7.072   4.826  1.00 20.00     0.014 C 
HETATM    2  C2  UNL     1     -33.455   4.870   3.638  1.00 20.00     0.014 C 
HETATM    3  C3  UNL     1     -33.222   7.674   3.593  1.00 20.00    -0.004 A 
HETATM    4  C4  UNL     1     -32.882   5.730   2.545  1.00 20.00    -0.004 A 
HETATM    5  C5  UNL     1     -33.455   7.075   2.246  1.00 20.00    -0.001 A 
HETATM    6  C6  UNL     1     -32.103   6.942   2.932  1.00 20.00    -0.001 A 
HETATM    7  C7  UNL     1     -34.402   5.652   4.580  1.00 20.00    -0.046 C 
HETATM    8  C8  UNL     1     -35.816   5.735   3.967  1.00 20.00     0.015 C 
HETATM    9  C9  UNL     1     -34.518   4.907   5.922  1.00 20.00     0.015 C 
ENDROOT
TORSDOF 0
