REMARK  1 active torsions:
REMARK  status: ('A' for Active; 'I' for Inactive)
REMARK    1  A    between atoms: C7_7  and  O9_9 
ROOT
HETATM    1  C1  UNL     1     -32.291   7.384   3.911  1.00 20.00    -0.019 A 
HETATM    2  C2  UNL     1     -33.446   7.482   4.597  1.00 20.00    -0.080 A 
HETATM    3  C3  UNL     1     -32.681   5.220   2.517  1.00 20.00     0.012 C 
HETATM    4  C4  UNL     1     -33.514   4.540   3.597  1.00 20.00     0.033 C 
HETATM    5  C5  UNL     1     -32.933   6.717   2.712  1.00 20.00     0.019 A 
HETATM    6  C6  UNL     1     -34.269   6.842   3.486  1.00 20.00     0.050 A 
HETATM    7  C7  UNL     1     -34.767   5.407   3.671  1.00 20.00     0.127 C 
HETATM    8  C8  UNL     1     -33.812   8.043   5.985  1.00 20.00     0.043 C 
ENDROOT
BRANCH   7   9
HETATM    9  O9  UNL     1     -35.434   5.264   4.912  1.00 20.00    -0.395 OA
HETATM   10  H21 UNL     1     -35.681   4.328   4.997  1.00 20.00     0.210 HD
ENDBRANCH   7   9
TORSDOF 1
