REMARK  0 active torsions:
REMARK  status: ('A' for Active; 'I' for Inactive)
ROOT
HETATM    1  C1  UNL     1     -33.949   7.661   3.360  1.00 20.00    -0.020 C 
HETATM    2  C2  UNL     1     -32.850   7.538   4.177  1.00 20.00    -0.020 C 
HETATM    3  C3  UNL     1     -34.640   4.348   4.947  1.00 20.00     0.002 C 
HETATM    4  C4  UNL     1     -35.348   5.331   3.966  1.00 20.00     0.014 C 
HETATM    5  C5  UNL     1     -33.293   5.037   5.320  1.00 20.00     0.014 C 
HETATM    6  C6  UNL     1     -34.171   6.159   3.494  1.00 20.00    -0.016 C 
HETATM    7  C7  UNL     1     -33.605   6.477   4.971  1.00 20.00    -0.016 C 
HETATM    8  C8  UNL     1     -33.425   5.409   2.359  1.00 20.00     0.020 C 
HETATM    9  C9  UNL     1     -34.383   7.143   6.137  1.00 20.00     0.020 C 
ENDROOT
TORSDOF 0
