REMARK  0 active torsions:
REMARK  status: ('A' for Active; 'I' for Inactive)
ROOT
HETATM    1  C1  UNL     1     -33.068   6.239   2.563  1.00 20.00     0.004 C 
HETATM    2  C2  UNL     1     -32.630   7.049   3.787  1.00 20.00     0.005 C 
HETATM    3  C3  UNL     1     -34.522   5.737   2.588  1.00 20.00     0.042 C 
HETATM    4  C4  UNL     1     -34.208   7.411   5.821  1.00 20.00     0.013 A 
HETATM    5  C5  UNL     1     -33.770   7.776   4.430  1.00 20.00    -0.007 A 
HETATM    6  C6  UNL     1     -35.069   7.027   4.640  1.00 20.00     0.029 A 
HETATM    7  C7  UNL     1     -35.148   5.665   3.989  1.00 20.00     0.117 C 
HETATM    8 CL8  UNL     1     -34.375   4.378   4.961  1.00 20.00    -0.101 Cl
HETATM    9 CL9  UNL     1     -36.885   5.217   3.826  1.00 20.00    -0.101 Cl
ENDROOT
TORSDOF 0
