REMARK  1 active torsions:
REMARK  status: ('A' for Active; 'I' for Inactive)
REMARK    1  A    between atoms: C3_3  and  C5_5 
ROOT
HETATM    1  C1  UNL     1     -31.928   8.443   3.667  1.00 20.00     0.144 A 
HETATM    2  C2  UNL     1     -32.451   8.393   2.392  1.00 20.00     0.071 A 
HETATM    3  C3  UNL     1     -33.228   6.694   3.913  1.00 20.00     0.103 A 
HETATM    4  N7  UNL     1     -32.372   7.470   4.541  1.00 20.00    -0.251 NA
HETATM    5  S8  UNL     1     -33.544   7.077   2.270  1.00 20.00    -0.061 SA
HETATM    6 BR9  UNL     1     -32.038   9.584   0.982  1.00 20.00    -0.041 Br
ENDROOT
BRANCH   3   7
HETATM    7  C5  UNL     1     -33.912   5.562   4.486  1.00 20.00    -0.035 C 
HETATM    8  C4  UNL     1     -34.709   5.785   5.549  1.00 20.00     0.021 C 
HETATM    9  C6  UNL     1     -33.766   4.154   3.960  1.00 20.00     0.050 C 
ENDBRANCH   3   7
TORSDOF 1
