REMARK  0 active torsions:
REMARK  status: ('A' for Active; 'I' for Inactive)
ROOT
HETATM    1  C1  UNL     1     -32.892   7.381   3.767  1.00 20.00     0.136 C 
HETATM    2  C2  UNL     1     -33.021   5.883   3.586  1.00 20.00     0.088 C 
HETATM    3  C3  UNL     1     -32.755   7.892   5.175  1.00 20.00     0.152 C 
HETATM    4  C4  UNL     1     -34.280   5.686   5.792  1.00 20.00     0.083 C 
HETATM    5  C5  UNL     1     -34.262   5.305   4.294  1.00 20.00    -0.033 C 
HETATM    6  C6  UNL     1     -34.201   3.766   4.193  1.00 20.00     0.016 C 
HETATM    7  C7  UNL     1     -35.549   5.772   3.583  1.00 20.00     0.016 C 
HETATM    8  O8  UNL     1     -32.844   8.141   2.800  1.00 20.00    -0.297 OA
HETATM    9  S9  UNL     1     -34.241   7.479   6.111  1.00 20.00    -0.161 SA
ENDROOT
TORSDOF 0
