REMARK  1 active torsions:
REMARK  status: ('A' for Active; 'I' for Inactive)
REMARK    1  A    between atoms: C3_3  and  C9_9 
ROOT
HETATM    1  C1  UNL     1     -33.563   6.702   2.416  1.00 20.00     0.017 A 
HETATM    2  C2  UNL     1     -34.074   5.749   3.345  1.00 20.00     0.028 A 
HETATM    3  C3  UNL     1     -32.978   7.777   3.047  1.00 20.00    -0.012 A 
HETATM    4  C4  UNL     1     -33.859   6.132   4.650  1.00 20.00     0.051 A 
HETATM    5  S10 UNL     1     -33.045   7.636   4.753  1.00 20.00    -0.087 SA
HETATM    6 BR11 UNL     1     -34.395   5.125   6.168  1.00 20.00    -0.043 Br
ENDROOT
BRANCH   3   7
HETATM    7  C9  UNL     1     -32.327   8.988   2.429  1.00 20.00     0.026 C 
HETATM    8  C7  UNL     1     -33.284   9.814   1.550  1.00 20.00     0.010 C 
HETATM    9  C5  UNL     1     -32.415  10.332   0.414  1.00 20.00     0.001 C 
HETATM   10  C6  UNL     1     -31.475   9.171   0.144  1.00 20.00     0.001 C 
HETATM   11  C8  UNL     1     -31.111   8.667   1.537  1.00 20.00     0.010 C 
ENDBRANCH   3   7
TORSDOF 1
