REMARK  1 active torsions:
REMARK  status: ('A' for Active; 'I' for Inactive)
REMARK    1  A    between atoms: C3_3  and  C5_5 
ROOT
HETATM    1  C1  UNL     1     -32.882   7.271   4.692  1.00 20.00     0.022 A 
HETATM    2  C2  UNL     1     -32.258   8.139   3.751  1.00 20.00     0.028 A 
HETATM    3  C3  UNL     1     -33.826   6.460   4.101  1.00 20.00     0.048 A 
HETATM    4  C4  UNL     1     -32.749   7.959   2.476  1.00 20.00     0.052 A 
HETATM    5  S8  UNL     1     -33.958   6.748   2.418  1.00 20.00    -0.082 SA
HETATM    6 BR9  UNL     1     -32.166   8.932   0.953  1.00 20.00    -0.043 Br
ENDROOT
BRANCH   3   7
HETATM    7  C5  UNL     1     -34.683   5.433   4.733  1.00 20.00     0.393 C 
HETATM    8  F6  UNL     1     -34.427   5.326   6.068  1.00 20.00    -0.208 F 
HETATM    9  F7  UNL     1     -34.446   4.198   4.206  1.00 20.00    -0.208 F 
ENDBRANCH   3   7
TORSDOF 1
