REMARK  0 active torsions:
REMARK  status: ('A' for Active; 'I' for Inactive)
ROOT
HETATM    1  C1  UNL     1     -32.504   8.896   0.803  1.00 20.00     0.012 C 
HETATM    2  C2  UNL     1     -32.635   8.098   1.690  1.00 20.00    -0.113 C 
HETATM    3  C3  UNL     1     -33.786   6.023   2.378  1.00 20.00     0.047 C 
HETATM    4  C4  UNL     1     -33.272   7.809   4.060  1.00 20.00     0.047 C 
HETATM    5  C5  UNL     1     -34.055   5.064   3.540  1.00 20.00     0.273 C 
HETATM    6  C6  UNL     1     -33.557   6.791   5.166  1.00 20.00     0.273 C 
HETATM    7  C7  UNL     1     -32.795   7.120   2.778  1.00 20.00     0.067 C 
HETATM    8  C8  UNL     1     -34.836   4.854   5.809  1.00 20.00     0.309 C 
HETATM    9  N9  UNL     1     -34.536   5.788   4.724  1.00 20.00     0.084 N 
ENDROOT
TORSDOF 0
