REMARK  0 active torsions:
REMARK  status: ('A' for Active; 'I' for Inactive)
ROOT
HETATM    1  C1  UNL     1     -34.459   6.662   3.899  1.00 20.00     0.075 C 
HETATM    2  C2  UNL     1     -35.521   5.617   3.563  1.00 20.00     0.273 C 
HETATM    3  C3  UNL     1     -35.030   5.379   5.837  1.00 20.00     0.312 C 
HETATM    4  C4  UNL     1     -33.921   6.236   5.258  1.00 20.00     0.127 C 
HETATM    5  C5  UNL     1     -33.498   7.386   6.149  1.00 20.00     0.053 C 
HETATM    6  N6  UNL     1     -35.494   4.648   4.658  1.00 20.00     0.086 N 
HETATM    7  F7  UNL     1     -32.830   5.439   5.055  1.00 20.00    -0.241 F 
HETATM    8  H17 UNL     1     -36.417   4.248   4.814  1.00 20.00     0.316 HD
ENDROOT
TORSDOF 0
