REMARK  1 active torsions:
REMARK  status: ('A' for Active; 'I' for Inactive)
REMARK    1  A    between atoms: C2_2  and  C6_6 
ROOT
HETATM    1  C1  UNL     1     -32.278   7.090   2.319  1.00 20.00     0.119 A 
HETATM    2  C2  UNL     1     -33.785   6.344   3.767  1.00 20.00     0.043 A 
HETATM    3  C3  UNL     1     -32.869   5.794   2.743  1.00 20.00     0.105 A 
HETATM    4  N7  UNL     1     -32.755   8.109   2.957  1.00 20.00    -0.167 NA
HETATM    5  N8  UNL     1     -33.727   7.631   3.894  1.00 20.00    -0.159 NA
ENDROOT
BRANCH   2   6
HETATM    6  C6  UNL     1     -34.677   5.498   4.572  1.00 20.00     0.035 A 
HETATM    7  C4  UNL     1     -34.095   4.364   5.370  1.00 20.00     0.011 A 
HETATM    8  C5  UNL     1     -34.613   5.583   6.072  1.00 20.00     0.011 A 
ENDBRANCH   2   6
TORSDOF 1
