REMARK  1 active torsions:
REMARK  status: ('A' for Active; 'I' for Inactive)
REMARK    1  A    between atoms: C1_1  and  C3_3 
ROOT
HETATM    1  C3  UNL     1     -34.407   5.618   4.137  1.00 20.00     0.408 C 
HETATM    2  F4  UNL     1     -34.931   4.636   4.914  1.00 20.00    -0.167 F 
HETATM    3  F5  UNL     1     -33.601   5.011   3.229  1.00 20.00    -0.167 F 
HETATM    4  F6  UNL     1     -35.439   6.161   3.443  1.00 20.00    -0.167 F 
ENDROOT
BRANCH   1   5
HETATM    5  C1  UNL     1     -33.656   6.611   4.952  1.00 20.00     0.096 C 
HETATM    6  C2  UNL     1     -33.038   7.683   4.446  1.00 20.00     0.060 C 
HETATM    7 BR7  UNL     1     -33.011   8.119   2.643  1.00 20.00    -0.064 Br
ENDBRANCH   1   5
TORSDOF 1
