REMARK  3 active torsions:
REMARK  status: ('A' for Active; 'I' for Inactive)
REMARK    1  A    between atoms: C5_5  and  C8_8 
REMARK    2  A    between atoms: C7_7  and  N9_9 
REMARK    3  A    between atoms: C8_8  and  N9_9 
ROOT
HETATM    1  C1  UNL     1     -32.928  10.552   1.204  1.00 20.00     0.013 C 
HETATM    2  C2  UNL     1     -32.568   9.498   1.653  1.00 20.00    -0.087 C 
HETATM    3  C7  UNL     1     -32.124   8.214   2.202  1.00 20.00     0.362 C 
ENDROOT
BRANCH   3   4
HETATM    4  N9  UNL     1     -33.271   7.348   2.483  1.00 20.00     0.094 N 
HETATM    5  H22 UNL     1     -33.873   7.822   3.165  1.00 20.00     0.317 HD
BRANCH   4   6
HETATM    6  C8  UNL     1     -32.857   6.068   2.989  1.00 20.00     0.275 C 
BRANCH   6   7
HETATM    7  C5  UNL     1     -34.030   5.192   3.261  1.00 20.00     0.018 A 
HETATM    8  C3  UNL     1     -33.898   4.009   4.184  1.00 20.00     0.011 A 
HETATM    9  C4  UNL     1     -34.745   5.185   4.593  1.00 20.00    -0.013 A 
HETATM   10  C6  UNL     1     -34.328   6.054   5.729  1.00 20.00     0.010 C 
ENDBRANCH   6   7
ENDBRANCH   4   6
ENDBRANCH   3   4
TORSDOF 3
