REMARK  1 active torsions:
REMARK  status: ('A' for Active; 'I' for Inactive)
REMARK    1  A    between atoms: C9_9  and  S11_11 
ROOT
HETATM    1  C1  UNL     1     -33.531   8.006   5.343  1.00 20.00     0.015 A 
HETATM    2  C2  UNL     1     -34.466   5.986   6.368  1.00 20.00     0.016 A 
HETATM    3  C3  UNL     1     -32.983   8.646   4.235  1.00 20.00     0.025 A 
HETATM    4  C4  UNL     1     -34.833   4.653   6.261  1.00 20.00     0.039 A 
HETATM    5  C5  UNL     1     -33.194   6.598   2.975  1.00 20.00     0.056 A 
HETATM    6  C6  UNL     1     -33.912   6.655   5.267  1.00 20.00    -0.007 A 
HETATM    7  C7  UNL     1     -33.744   5.933   4.067  1.00 20.00     0.070 A 
HETATM    8  C8  UNL     1     -32.815   7.940   3.049  1.00 20.00     0.036 A 
HETATM    9  C9  UNL     1     -34.630   4.030   5.046  1.00 20.00     0.091 A 
HETATM   10  N10 UNL     1     -34.099   4.639   3.961  1.00 20.00    -0.242 NA
HETATM   11 CL12 UNL     1     -32.140   8.721   1.672  1.00 20.00    -0.084 Cl
ENDROOT
BRANCH   9  12
HETATM   12  S11 UNL     1     -35.082   2.315   4.853  1.00 20.00    -0.123 SA
HETATM   13  H18 UNL     1     -35.539   2.119   6.099  1.00 20.00     0.108 HD
ENDBRANCH   9  12
TORSDOF 1
