REMARK  0 active torsions:
REMARK  status: ('A' for Active; 'I' for Inactive)
ROOT
HETATM    1  C1  UNL     1     -33.392   7.007   1.942  1.00 20.00     0.050 A 
HETATM    2  C2  UNL     1     -33.297   8.539   3.836  1.00 20.00     0.062 A 
HETATM    3  C3  UNL     1     -33.686   6.226   4.192  1.00 20.00     0.034 A 
HETATM    4  C4  UNL     1     -33.623   5.968   2.828  1.00 20.00    -0.040 A 
HETATM    5  C5  UNL     1     -33.228   8.299   2.453  1.00 20.00     0.118 A 
HETATM    6  C6  UNL     1     -33.529   7.491   4.727  1.00 20.00     0.028 A 
HETATM    7  C7  UNL     1     -33.936   4.971   4.881  1.00 20.00     0.161 A 
HETATM    8  C8  UNL     1     -33.825   4.523   2.501  1.00 20.00     0.047 A 
HETATM    9  C9  UNL     1     -34.035   3.853   3.871  1.00 20.00     0.088 A 
HETATM   10  O10 UNL     1     -34.050   4.827   6.085  1.00 20.00    -0.292 OA
HETATM   11  F11 UNL     1     -33.003   9.320   1.616  1.00 20.00    -0.206 F 
HETATM   12 BR12 UNL     1     -33.608   7.879   6.574  1.00 20.00    -0.050 Br
ENDROOT
TORSDOF 0
