REMARK  1 active torsions:
REMARK  status: ('A' for Active; 'I' for Inactive)
REMARK    1  A    between atoms: C4_4  and  C8_8 
ROOT
HETATM    1  C5  UNL     1     -34.311   5.423   3.561  1.00 20.00     0.033 C 
HETATM    2  C6  UNL     1     -33.177   5.871   2.650  1.00 20.00     0.042 C 
HETATM    3  C7  UNL     1     -33.933   5.999   4.911  1.00 20.00     0.273 C 
HETATM    4  C8  UNL     1     -32.565   7.102   3.345  1.00 20.00     0.256 C 
HETATM    5  C9  UNL     1     -32.683   7.941   5.643  1.00 20.00     0.310 C 
HETATM    6  N10 UNL     1     -33.403   7.312   4.542  1.00 20.00     0.093 N 
ENDROOT
BRANCH   4   7
HETATM    7  C4  UNL     1     -32.520   8.319   2.445  1.00 20.00    -0.018 A 
HETATM    8  C1  UNL     1     -31.838   8.358   1.194  1.00 20.00     0.017 A 
HETATM    9  C2  UNL     1     -31.955   9.585   0.579  1.00 20.00     0.050 A 
HETATM   10  S11 UNL     1     -32.884  10.683   1.508  1.00 20.00    -0.113 SA
HETATM   11  C3  UNL     1     -33.133   9.518   2.738  1.00 20.00     0.058 A 
ENDBRANCH   4   7
TORSDOF 1
