REMARK  1 active torsions:
REMARK  status: ('A' for Active; 'I' for Inactive)
REMARK    1  A    between atoms: C3_3  and  C4_4 
ROOT
HETATM    1  C1  UNL     1     -33.560   6.544   4.479  1.00 20.00     0.067 A 
HETATM    2  C2  UNL     1     -33.505   5.570   3.516  1.00 20.00     0.080 A 
HETATM    3  C3  UNL     1     -32.905   7.436   2.700  1.00 20.00     0.208 A 
HETATM    4  C5  UNL     1     -33.966   6.277   5.875  1.00 20.00     0.062 C 
HETATM    5  C6  UNL     1     -33.855   4.146   3.640  1.00 20.00     0.067 C 
HETATM    6  C7  UNL     1     -34.671   4.901   5.969  1.00 20.00     0.006 C 
HETATM    7  C8  UNL     1     -33.959   3.800   5.144  1.00 20.00     0.007 C 
HETATM    8  N9  UNL     1     -33.170   7.743   3.955  1.00 20.00    -0.224 NA
HETATM    9  O11 UNL     1     -33.088   6.125   2.352  1.00 20.00    -0.292 OA
ENDROOT
BRANCH   3  10
HETATM   10  C4  UNL     1     -32.455   8.354   1.712  1.00 20.00     0.316 C 
HETATM   11  O10 UNL     1     -32.256   9.573   1.919  1.00 20.00    -0.298 OA
ENDBRANCH   3  10
TORSDOF 1
