REMARK  0 active torsions:
REMARK  status: ('A' for Active; 'I' for Inactive)
ROOT
HETATM    1  C1  UNL     1     -33.195   7.048   4.461  1.00 20.00    -0.037 C 
HETATM    2  C2  UNL     1     -33.722   6.734   3.094  1.00 20.00     0.040 C 
HETATM    3  C3  UNL     1     -32.126   8.042   2.020  1.00 20.00     0.243 C 
HETATM    4  C4  UNL     1     -33.602   6.391   5.554  1.00 20.00    -0.022 C 
HETATM    5  C5  UNL     1     -32.152   8.122   4.500  1.00 20.00     0.049 C 
HETATM    6  C6  UNL     1     -31.271   8.014   3.269  1.00 20.00     0.110 C 
HETATM    7  C7  UNL     1     -34.909   5.805   2.955  1.00 20.00     0.071 C 
HETATM    8  C8  UNL     1     -34.609   5.291   5.538  1.00 20.00     0.036 C 
HETATM    9  N9  UNL     1     -33.223   7.208   1.993  1.00 20.00    -0.219 NA
HETATM   10  O10 UNL     1     -31.792   8.734   1.060  1.00 20.00    -0.271 OA
ENDROOT
TORSDOF 0
