REMARK  0 active torsions:
REMARK  status: ('A' for Active; 'I' for Inactive)
ROOT
HETATM    1  C1  UNL     1     -34.408   5.847   4.804  1.00 20.00    -0.057 C 
HETATM    2  C2  UNL     1     -33.127   7.585   3.582  1.00 20.00    -0.057 C 
HETATM    3  C3  UNL     1     -34.354   5.119   5.928  1.00 20.00     0.016 C 
HETATM    4  C4  UNL     1     -32.002   8.309   3.686  1.00 20.00     0.016 C 
HETATM    5  C5  UNL     1     -34.025   7.307   4.763  1.00 20.00     0.070 C 
HETATM    6  C6  UNL     1     -34.832   5.259   3.475  1.00 20.00     0.306 C 
HETATM    7  C7  UNL     1     -33.575   6.963   2.276  1.00 20.00     0.306 C 
HETATM    8  C8  UNL     1     -32.676   4.706   2.479  1.00 20.00     0.310 C 
HETATM    9  N9  UNL     1     -33.884   5.525   2.376  1.00 20.00     0.091 N 
ENDROOT
TORSDOF 0
