REMARK  1 active torsions:
REMARK  status: ('A' for Active; 'I' for Inactive)
REMARK    1  A    between atoms: C2_2  and  C3_3 
ROOT
HETATM    1  C1  UNL     1     -34.240   7.033   5.526  1.00 20.00     0.080 C 
HETATM    2  C2  UNL     1     -34.517   6.112   4.349  1.00 20.00     0.272 C 
HETATM    3  F4  UNL     1     -35.855   6.139   4.096  1.00 20.00    -0.216 F 
HETATM    4 CL8  UNL     1     -34.059   4.441   4.773  1.00 20.00    -0.073 Cl
ENDROOT
BRANCH   2   5
HETATM    5  C3  UNL     1     -33.792   6.550   3.094  1.00 20.00     0.437 C 
HETATM    6  F5  UNL     1     -32.454   6.565   3.279  1.00 20.00    -0.166 F 
HETATM    7  F6  UNL     1     -34.050   5.706   2.069  1.00 20.00    -0.166 F 
HETATM    8  F7  UNL     1     -34.169   7.788   2.705  1.00 20.00    -0.166 F 
ENDBRANCH   2   5
TORSDOF 1
