REMARK  0 active torsions:
REMARK  status: ('A' for Active; 'I' for Inactive)
ROOT
HETATM    1  C1  UNL     1     -33.588   4.328   3.462  1.00 20.00     0.011 C 
HETATM    2  C2  UNL     1     -33.381   5.560   2.582  1.00 20.00     0.017 C 
HETATM    3  C3  UNL     1     -34.653   4.530   4.531  1.00 20.00     0.074 C 
HETATM    4  C4  UNL     1     -33.969   7.199   4.446  1.00 20.00     0.089 C 
HETATM    5  C5  UNL     1     -32.956   6.784   3.389  1.00 20.00     0.067 C 
HETATM    6  S6  UNL     1     -34.225   5.879   5.668  1.00 20.00    -0.168 SA
HETATM    7 BR7  UNL     1     -32.708   8.287   2.149  1.00 20.00    -0.090 Br
ENDROOT
TORSDOF 0
