REMARK  0 active torsions:
REMARK  status: ('A' for Active; 'I' for Inactive)
ROOT
HETATM    1  C1  UNL     1     -34.379   4.237   5.186  1.00 20.00    -0.002 C 
HETATM    2  C2  UNL     1     -33.961   4.513   3.829  1.00 20.00     0.009 C 
HETATM    3  C3  UNL     1     -34.401   5.374   5.905  1.00 20.00    -0.013 C 
HETATM    4  C4  UNL     1     -33.005   7.466   5.377  1.00 20.00     0.006 C 
HETATM    5  C5  UNL     1     -32.150   7.903   4.431  1.00 20.00     0.113 C 
HETATM    6  C6  UNL     1     -32.909   6.535   2.767  1.00 20.00     0.124 C 
HETATM    7  C7  UNL     1     -33.757   5.830   3.733  1.00 20.00    -0.029 C 
HETATM    8  C8  UNL     1     -34.119   6.540   5.000  1.00 20.00     0.066 C 
HETATM    9  N9  UNL     1     -32.152   7.540   3.095  1.00 20.00    -0.273 NA
ENDROOT
TORSDOF 0
