REMARK  0 active torsions:
REMARK  status: ('A' for Active; 'I' for Inactive)
ROOT
HETATM    1  C1  UNL     1     -33.915   5.405   3.909  1.00 20.00     0.014 C 
HETATM    2  C2  UNL     1     -33.514   5.551   2.475  1.00 20.00     0.085 C 
HETATM    3  C3  UNL     1     -34.209   6.062   6.083  1.00 20.00     0.034 C 
HETATM    4  C4  UNL     1     -34.529   4.591   5.863  1.00 20.00     0.149 C 
HETATM    5  C5  UNL     1     -32.599   6.765   2.315  1.00 20.00     0.277 C 
HETATM    6  C6  UNL     1     -33.322   7.770   4.399  1.00 20.00     0.282 C 
HETATM    7  C7  UNL     1     -34.293   6.629   4.682  1.00 20.00     0.063 C 
HETATM    8  C8  UNL     1     -32.322   9.132   2.681  1.00 20.00     0.309 C 
HETATM    9  N9  UNL     1     -34.025   4.261   4.512  1.00 20.00    -0.298 NA
HETATM   10  N10 UNL     1     -33.171   7.970   2.946  1.00 20.00     0.085 N 
ENDROOT
TORSDOF 0
