REMARK  0 active torsions:
REMARK  status: ('A' for Active; 'I' for Inactive)
ROOT
HETATM    1  C1  UNL     1     -33.873   6.609   6.243  1.00 20.00     0.034 A 
HETATM    2  C2  UNL     1     -33.684   5.868   2.808  1.00 20.00     0.027 A 
HETATM    3  C3  UNL     1     -34.792   5.485   6.010  1.00 20.00     0.118 A 
HETATM    4  C4  UNL     1     -32.456   7.751   4.482  1.00 20.00     0.124 A 
HETATM    5  C5  UNL     1     -33.422   6.784   5.005  1.00 20.00     0.011 A 
HETATM    6  C6  UNL     1     -34.011   5.852   4.100  1.00 20.00     0.066 A 
HETATM    7  C7  UNL     1     -32.688   6.867   2.272  1.00 20.00     0.178 A 
HETATM    8  N8  UNL     1     -34.877   5.046   4.788  1.00 20.00    -0.261 NA
HETATM    9  N9  UNL     1     -32.099   7.817   3.247  1.00 20.00    -0.297 NA
ENDROOT
TORSDOF 0
