REMARK  1 active torsions:
REMARK  status: ('A' for Active; 'I' for Inactive)
REMARK    1  A    between atoms: C4_4  and  C5_5 
ROOT
HETATM    1  C5  UNL     1     -33.618   7.190   3.595  1.00 20.00     0.039 C 
HETATM    2  C6  UNL     1     -33.994   5.752   3.270  1.00 20.00     0.060 C 
HETATM    3  C7  UNL     1     -34.782   5.080   4.379  1.00 20.00     0.008 C 
HETATM    4  C8  UNL     1     -34.154   5.431   5.712  1.00 20.00     0.022 C 
HETATM    5  C9  UNL     1     -34.221   6.935   5.907  1.00 20.00     0.149 C 
HETATM    6  N10 UNL     1     -33.698   7.697   4.777  1.00 20.00    -0.293 NA
ENDROOT
BRANCH   1   7
HETATM    7  C4  UNL     1     -33.096   8.046   2.483  1.00 20.00    -0.005 A 
HETATM    8  C1  UNL     1     -33.690   9.257   2.023  1.00 20.00     0.021 A 
HETATM    9  C2  UNL     1     -32.982   9.819   0.984  1.00 20.00     0.050 A 
HETATM   10  S11 UNL     1     -31.607   8.888   0.566  1.00 20.00    -0.113 SA
HETATM   11  C3  UNL     1     -31.956   7.729   1.777  1.00 20.00     0.063 A 
ENDBRANCH   1   7
TORSDOF 1
