REMARK  2 active torsions:
REMARK  status: ('A' for Active; 'I' for Inactive)
REMARK    1  A    between atoms: C1_1  and  C8_8 
REMARK    2  A    between atoms: C8_8  and  O9_9 
ROOT
HETATM    1  C1  UNL     1     -34.745   6.360   3.412  1.00 20.00     0.026 A 
HETATM    2  C2  UNL     1     -33.825   6.643   4.591  1.00 20.00    -0.034 A 
HETATM    3  C3  UNL     1     -33.587   5.411   3.691  1.00 20.00    -0.034 A 
HETATM    4  C4  UNL     1     -32.901   7.838   4.470  1.00 20.00     0.016 C 
HETATM    5  C5  UNL     1     -34.313   6.459   6.011  1.00 20.00     0.016 C 
HETATM    6  C6  UNL     1     -33.843   4.022   4.228  1.00 20.00     0.016 C 
HETATM    7  C7  UNL     1     -32.435   5.425   2.708  1.00 20.00     0.016 C 
ENDROOT
BRANCH   1   8
HETATM    8  C8  UNL     1     -36.175   5.972   3.565  1.00 20.00     0.170 C 
BRANCH   8   9
HETATM    9  O9  UNL     1     -36.968   7.130   3.823  1.00 20.00    -0.400 OA
HETATM   10  H25 UNL     1     -37.883   6.822   3.913  1.00 20.00     0.209 HD
ENDBRANCH   8   9
ENDBRANCH   1   8
TORSDOF 2
