REMARK  0 active torsions:
REMARK  status: ('A' for Active; 'I' for Inactive)
ROOT
HETATM    1  C1  UNL     1     -33.231   5.513   3.052  1.00 20.00     0.136 C 
HETATM    2  C2  UNL     1     -32.125   6.493   2.739  1.00 20.00     0.084 C 
HETATM    3  C3  UNL     1     -34.367   5.885   5.935  1.00 20.00     0.002 C 
HETATM    4  C4  UNL     1     -33.278   6.911   5.557  1.00 20.00     0.006 C 
HETATM    5  C5  UNL     1     -34.000   7.978   1.949  1.00 20.00     0.006 C 
HETATM    6  C6  UNL     1     -35.222   5.627   4.674  1.00 20.00     0.018 C 
HETATM    7  C7  UNL     1     -35.081   6.926   2.339  1.00 20.00     0.018 C 
HETATM    8  C8  UNL     1     -32.892   7.798   3.034  1.00 20.00    -0.002 C 
HETATM    9  C9  UNL     1     -33.772   7.484   4.240  1.00 20.00     0.006 C 
HETATM   10  C10 UNL     1     -34.446   6.287   3.568  1.00 20.00     0.024 C 
HETATM   11  O11 UNL     1     -33.166   4.304   2.893  1.00 20.00    -0.297 OA
ENDROOT
TORSDOF 0
