REMARK  0 active torsions:
REMARK  status: ('A' for Active; 'I' for Inactive)
ROOT
HETATM    1  C1  UNL     1     -34.139   4.859   4.918  1.00 20.00     0.136 C 
HETATM    2  C2  UNL     1     -33.880   3.933   3.733  1.00 20.00     0.084 C 
HETATM    3  C3  UNL     1     -32.284   8.119   4.496  1.00 20.00     0.002 C 
HETATM    4  C4  UNL     1     -32.091   7.300   3.202  1.00 20.00     0.006 C 
HETATM    5  C5  UNL     1     -34.624   5.832   2.250  1.00 20.00     0.006 C 
HETATM    6  C6  UNL     1     -33.287   7.347   5.384  1.00 20.00     0.018 C 
HETATM    7  C7  UNL     1     -34.940   6.677   3.496  1.00 20.00     0.018 C 
HETATM    8  C8  UNL     1     -33.410   4.993   2.688  1.00 20.00    -0.002 C 
HETATM    9  C9  UNL     1     -32.619   5.934   3.589  1.00 20.00     0.006 C 
HETATM   10  C10 UNL     1     -33.823   6.272   4.481  1.00 20.00     0.024 C 
HETATM   11  O11 UNL     1     -34.553   4.519   6.014  1.00 20.00    -0.297 OA
ENDROOT
TORSDOF 0
