REMARK  1 active torsions:
REMARK  status: ('A' for Active; 'I' for Inactive)
REMARK    1  A    between atoms: C3_3  and  C5_5 
ROOT
HETATM    1  C1  UNL     1     -35.870   5.043   4.429  1.00 20.00     0.221 A 
HETATM    2  C4  UNL     1     -34.510   4.908   5.138  1.00 20.00     0.138 A 
HETATM    3  C5  UNL     1     -34.058   6.095   4.240  1.00 20.00     0.060 A 
HETATM    4  C7  UNL     1     -33.043   5.768   3.158  1.00 20.00     0.044 C 
HETATM    5  N8  UNL     1     -35.416   6.098   3.700  1.00 20.00    -0.348 N 
HETATM    6  O9  UNL     1     -36.937   4.475   4.465  1.00 20.00    -0.273 OA
HETATM    7  H20 UNL     1     -35.884   6.651   2.995  1.00 20.00     0.163 HD
ENDROOT
BRANCH   3   8
HETATM    8  C3  UNL     1     -33.761   7.350   4.965  1.00 20.00    -0.065 C 
HETATM    9  C2  UNL     1     -33.878   7.443   6.298  1.00 20.00     0.016 C 
HETATM   10  C6  UNL     1     -33.322   8.511   4.124  1.00 20.00     0.045 C 
ENDBRANCH   3   8
TORSDOF 1
