REMARK  0 active torsions:
REMARK  status: ('A' for Active; 'I' for Inactive)
ROOT
HETATM    1  C1  UNL     1     -31.156   7.999   3.350  1.00 20.00     0.272 A 
HETATM    2  C2  UNL     1     -33.357   7.497   3.261  1.00 20.00     0.272 A 
HETATM    3  C3  UNL     1     -31.466   7.931   1.908  1.00 20.00     0.109 A 
HETATM    4  C4  UNL     1     -32.938   7.595   1.849  1.00 20.00     0.109 A 
HETATM    5  C5  UNL     1     -32.430   8.877   1.227  1.00 20.00    -0.021 A 
HETATM    6  C6  UNL     1     -32.757  10.203   1.867  1.00 20.00     0.016 C 
HETATM    7  C7  UNL     1     -32.382   8.938  -0.279  1.00 20.00     0.016 C 
HETATM    8  O8  UNL     1     -30.052   8.259   3.800  1.00 20.00    -0.264 OA
HETATM    9  O9  UNL     1     -34.496   7.246   3.620  1.00 20.00    -0.264 OA
HETATM   10  O10 UNL     1     -32.282   7.720   4.082  1.00 20.00    -0.244 OA
ENDROOT
TORSDOF 0
