REMARK  0 active torsions:
REMARK  status: ('A' for Active; 'I' for Inactive)
ROOT
HETATM    1  C1  UNL     1     -32.098  10.162   0.693  1.00 20.00    -0.019 C 
HETATM    2  C2  UNL     1     -32.149   8.906   1.144  1.00 20.00     0.080 C 
HETATM    3  C3  UNL     1     -32.594  11.336   1.470  1.00 20.00     0.037 C 
HETATM    4 CL4  UNL     1     -32.792   8.488   2.676  1.00 20.00    -0.097 Cl
ENDROOT
TORSDOF 0
