REMARK  1 active torsions:
REMARK  status: ('A' for Active; 'I' for Inactive)
REMARK    1  A    between atoms: C7_7  and  N9_9 
ROOT
HETATM    1  C1  UNL     1     -32.327   8.265   4.589  1.00 20.00     0.031 C 
HETATM    2  C4  UNL     1     -33.384   7.190   4.831  1.00 20.00     0.019 C 
HETATM    3  C5  UNL     1     -31.555   8.003   3.294  1.00 20.00     0.273 C 
HETATM    4  C6  UNL     1     -33.433   6.796   2.336  1.00 20.00     0.288 C 
HETATM    5  C8  UNL     1     -34.264   7.033   3.597  1.00 20.00     0.086 C 
HETATM    6  N9  UNL     1     -32.413   7.831   2.114  1.00 20.00     0.094 N 
HETATM    7 BR10 UNL     1     -35.481   5.525   3.862  1.00 20.00    -0.089 Br
ENDROOT
BRANCH   6   8
HETATM    8  C7  UNL     1     -32.978   9.108   1.612  1.00 20.00     0.223 A 
HETATM    9  C2  UNL     1     -32.068  10.216   1.158  1.00 20.00     0.038 A 
HETATM   10  C3  UNL     1     -32.888   9.461   0.153  1.00 20.00     0.038 A 
ENDBRANCH   6   8
TORSDOF 1
