REMARK  1 active torsions:
REMARK  status: ('A' for Active; 'I' for Inactive)
REMARK    1  A    between atoms: C5_5  and  O7_7 
ROOT
HETATM    1  C1  UNL     1     -34.697   4.551   5.657  1.00 20.00     0.015 C 
HETATM    2  C2  UNL     1     -34.152   5.559   5.300  1.00 20.00    -0.075 C 
HETATM    3  C3  UNL     1     -32.448   6.593   3.761  1.00 20.00     0.221 A 
HETATM    4  C4  UNL     1     -34.256   7.591   3.816  1.00 20.00     0.221 A 
HETATM    5  C5  UNL     1     -33.495   6.773   4.871  1.00 20.00     0.162 A 
HETATM    6  O6  UNL     1     -33.189   7.438   2.854  1.00 20.00    -0.383 OA
ENDROOT
BRANCH   5   7
HETATM    7  O7  UNL     1     -33.059   7.498   6.036  1.00 20.00    -0.373 OA
HETATM    8  H13 UNL     1     -33.860   7.686   6.542  1.00 20.00     0.212 HD
ENDBRANCH   5   7
TORSDOF 1
