REMARK  2 active torsions:
REMARK  status: ('A' for Active; 'I' for Inactive)
REMARK    1  A    between atoms: C3_3  and  C4_4 
REMARK    2  A    between atoms: C5_5  and  C6_6 
ROOT
HETATM    1  C1  UNL     1     -34.104   4.829   4.051  1.00 20.00     0.087 C 
HETATM    2  C2  UNL     1     -33.994   5.787   3.007  1.00 20.00     0.093 C 
HETATM    3  C3  UNL     1     -33.242   6.888   3.144  1.00 20.00     0.011 C 
HETATM    4  N7  UNL     1     -34.196   4.044   4.901  1.00 20.00    -0.192 NA
ENDROOT
BRANCH   3   5
HETATM    5  C4  UNL     1     -33.108   7.883   2.104  1.00 20.00    -0.002 C 
HETATM    6  C5  UNL     1     -32.356   8.987   2.236  1.00 20.00    -0.012 C 
BRANCH   6   7
HETATM    7  C6  UNL     1     -32.205  10.014   1.162  1.00 20.00     0.141 C 
HETATM    8 CL8  UNL     1     -33.154   9.543  -0.264  1.00 20.00    -0.126 Cl
ENDBRANCH   6   7
ENDBRANCH   3   5
TORSDOF 2
