REMARK  2 active torsions:
REMARK  status: ('A' for Active; 'I' for Inactive)
REMARK    1  A    between atoms: C1_1  and  C2_2 
REMARK    2  A    between atoms: C3_3  and  C7_7 
ROOT
HETATM    1  C1  UNL     1     -35.940   5.899   3.294  1.00 20.00     0.061 C 
HETATM    2  C3  UNL     1     -34.703   5.868   3.823  1.00 20.00     0.022 C 
HETATM    3 CL9  UNL     1     -34.183   4.493   4.773  1.00 20.00    -0.088 Cl
ENDROOT
BRANCH   2   4
HETATM    4  C7  UNL     1     -33.645   6.979   3.665  1.00 20.00    -0.013 C 
HETATM    5  C4  UNL     1     -32.383   6.422   2.971  1.00 20.00     0.020 C 
HETATM    6  C5  UNL     1     -34.137   8.173   2.812  1.00 20.00     0.020 C 
HETATM    7  C6  UNL     1     -33.255   7.547   5.047  1.00 20.00     0.020 C 
ENDBRANCH   2   4
BRANCH   1   8
HETATM    8  C2  UNL     1     -36.965   4.838   3.439  1.00 20.00     0.260 C 
HETATM    9  O8  UNL     1     -37.013   4.122   4.433  1.00 20.00    -0.302 OA
ENDBRANCH   1   8
TORSDOF 2
