REMARK  3 active torsions:
REMARK  status: ('A' for Active; 'I' for Inactive)
REMARK    1  A    between atoms: C3_3  and  C8_8 
REMARK    2  A    between atoms: C3_3  and  O10_10 
REMARK    3  A    between atoms: C6_6  and  C8_8 
ROOT
HETATM    1  C1  UNL     1     -31.272   8.086   2.517  1.00 20.00    -0.026 C 
HETATM    2  C2  UNL     1     -32.092   7.812   3.536  1.00 20.00    -0.025 C 
HETATM    3  C4  UNL     1     -33.472   8.370   1.702  1.00 20.00     0.017 C 
HETATM    4  C5  UNL     1     -32.017   8.232   1.227  1.00 20.00     0.004 C 
HETATM    5  C6  UNL     1     -33.525   7.740   3.103  1.00 20.00     0.018 C 
HETATM    6  C7  UNL     1     -31.562   9.429   0.404  1.00 20.00     0.014 C 
ENDROOT
BRANCH   5   7
HETATM    7  C8  UNL     1     -34.037   6.305   3.084  1.00 20.00     0.118 C 
BRANCH   7   8
HETATM    8  C3  UNL     1     -34.405   5.822   4.463  1.00 20.00     0.140 C 
HETATM    9  O9  UNL     1     -34.331   6.465   5.498  1.00 20.00    -0.650 OA
BRANCH   8  10
HETATM   10  O10 UNL     1     -34.843   4.538   4.402  1.00 20.00    -0.776 OA
HETATM   11  H22 UNL     1     -35.091   4.194   5.286  1.00 20.00     0.167 HD
ENDBRANCH   8  10
ENDBRANCH   7   8
ENDBRANCH   5   7
TORSDOF 3
