REMARK  0 active torsions:
REMARK  status: ('A' for Active; 'I' for Inactive)
ROOT
HETATM    1  C1  UNL     1     -33.395   7.067   3.005  1.00 20.00     0.069 C 
HETATM    2  C2  UNL     1     -34.025   3.675   4.558  1.00 20.00     0.002 C 
HETATM    3  C3  UNL     1     -34.161   4.599   5.768  1.00 20.00     0.002 C 
HETATM    4  C4  UNL     1     -33.638   4.569   3.381  1.00 20.00     0.024 C 
HETATM    5  C5  UNL     1     -33.850   6.009   5.266  1.00 20.00     0.024 C 
HETATM    6  C6  UNL     1     -34.140   5.967   3.761  1.00 20.00     0.045 C 
HETATM    7  C7  UNL     1     -35.590   6.094   3.501  1.00 20.00     0.031 C 
HETATM    8  N8  UNL     1     -32.829   7.902   2.431  1.00 20.00    -0.196 NA
ENDROOT
TORSDOF 0
