REMARK  3 active torsions:
REMARK  status: ('A' for Active; 'I' for Inactive)
REMARK    1  A    between atoms: C1_1  and  C5_5 
REMARK    2  A    between atoms: C3_3  and  C4_4 
REMARK    3  A    between atoms: C3_3  and  C5_5 
ROOT
HETATM    1  C2  UNL     1     -33.303   5.489   2.796  1.00 20.00     0.017 C 
HETATM    2  C5  UNL     1     -32.785   6.894   3.095  1.00 20.00     0.044 C 
ENDROOT
BRANCH   2   3
HETATM    3  C1  UNL     1     -33.429   7.359   4.389  1.00 20.00     0.235 C 
HETATM    4  O6  UNL     1     -34.264   6.726   5.027  1.00 20.00    -0.306 OA
ENDBRANCH   2   3
BRANCH   2   5
HETATM    5  C3  UNL     1     -33.061   7.838   1.916  1.00 20.00     0.026 C 
BRANCH   5   6
HETATM    6  C4  UNL     1     -32.155   9.066   1.936  1.00 20.00     0.115 C 
HETATM    7 CL7  UNL     1     -32.499  10.111   0.536  1.00 20.00    -0.130 Cl
ENDBRANCH   5   6
ENDBRANCH   2   5
TORSDOF 3
