REMARK  2 active torsions:
REMARK  status: ('A' for Active; 'I' for Inactive)
REMARK    1  A    between atoms: C3_3  and  C4_4 
REMARK    2  A    between atoms: C3_3  and  O6_6 
ROOT
HETATM    1  C1  UNL     1     -32.833   7.428   2.567  1.00 20.00     0.081 C 
HETATM    2  C4  UNL     1     -33.135   6.250   3.388  1.00 20.00     0.212 C 
HETATM    3  N5  UNL     1     -32.593   8.362   1.921  1.00 20.00    -0.196 NA
HETATM    4 CL7  UNL     1     -32.722   4.792   2.445  1.00 20.00    -0.107 Cl
ENDROOT
BRANCH   2   5
HETATM    5  C3  UNL     1     -34.595   6.214   3.829  1.00 20.00     0.202 C 
BRANCH   5   6
HETATM    6  O6  UNL     1     -34.864   5.060   4.616  1.00 20.00    -0.394 OA
HETATM    7  C2  UNL     1     -34.469   5.249   5.968  1.00 20.00     0.201 C 
ENDBRANCH   5   6
ENDBRANCH   2   5
TORSDOF 2
