REMARK  1 active torsions:
REMARK  status: ('A' for Active; 'I' for Inactive)
REMARK    1  A    between atoms: C1_1  and  C5_5 
ROOT
HETATM    1  C2  UNL     1     -34.690   5.111   3.870  1.00 20.00     0.029 C 
HETATM    2  C3  UNL     1     -34.894   6.581   3.589  1.00 20.00     0.047 C 
HETATM    3  C4  UNL     1     -33.430   4.814   3.088  1.00 20.00     0.169 C 
HETATM    4  C5  UNL     1     -33.463   7.102   3.534  1.00 20.00     0.110 C 
HETATM    5  C6  UNL     1     -33.285   8.268   2.575  1.00 20.00     0.053 C 
HETATM    6  O8  UNL     1     -32.633   6.006   3.127  1.00 20.00    -0.373 OA
ENDROOT
BRANCH   4   7
HETATM    7  C1  UNL     1     -32.967   7.508   4.892  1.00 20.00     0.268 C 
HETATM    8  O7  UNL     1     -33.698   7.935   5.780  1.00 20.00    -0.304 OA
ENDBRANCH   4   7
TORSDOF 1
