REMARK  2 active torsions:
REMARK  status: ('A' for Active; 'I' for Inactive)
REMARK    1  A    between atoms: C6_6  and  C7_7 
REMARK    2  A    between atoms: C7_7  and  C8_8 
ROOT
HETATM    1  C1  UNL     1     -32.484   8.157   1.970  1.00 20.00     0.059 C 
HETATM    2  C6  UNL     1     -33.590   7.373   2.548  1.00 20.00     0.129 C 
HETATM    3  N9  UNL     1     -31.616   8.776   1.514  1.00 20.00    -0.197 NA
ENDROOT
BRANCH   2   4
HETATM    4  C7  UNL     1     -33.145   6.561   3.789  1.00 20.00     0.002 C 
HETATM    5  C2  UNL     1     -32.509   7.515   4.820  1.00 20.00     0.011 C 
BRANCH   4   6
HETATM    6  C8  UNL     1     -34.301   5.676   4.393  1.00 20.00    -0.047 C 
HETATM    7  C3  UNL     1     -33.969   4.172   4.354  1.00 20.00     0.015 C 
HETATM    8  C4  UNL     1     -35.614   5.902   3.608  1.00 20.00     0.015 C 
HETATM    9  C5  UNL     1     -34.583   6.070   5.860  1.00 20.00     0.015 C 
ENDBRANCH   4   6
ENDBRANCH   2   4
TORSDOF 2
