REMARK  1 active torsions:
REMARK  status: ('A' for Active; 'I' for Inactive)
REMARK    1  A    between atoms: C5_5  and  C6_6 
ROOT
HETATM    1  C1  UNL     1     -32.085   8.744   1.543  1.00 20.00     0.100 C 
HETATM    2  C2  UNL     1     -33.574   6.927   2.481  1.00 20.00     0.038 A 
HETATM    3  C3  UNL     1     -32.209   8.131   3.927  1.00 20.00     0.072 A 
HETATM    4  C4  UNL     1     -32.604   7.962   2.618  1.00 20.00     0.052 A 
HETATM    5  C5  UNL     1     -33.883   6.345   3.691  1.00 20.00    -0.002 A 
HETATM    6  N7  UNL     1     -31.664   9.381   0.669  1.00 20.00    -0.191 NA
HETATM    7  S8  UNL     1     -33.006   7.045   4.984  1.00 20.00    -0.104 SA
ENDROOT
BRANCH   5   8
HETATM    8  C6  UNL     1     -34.835   5.247   3.967  1.00 20.00     0.160 C 
HETATM    9 CL9  UNL     1     -34.575   4.568   5.595  1.00 20.00    -0.125 Cl
ENDBRANCH   5   8
TORSDOF 1
