REMARK  2 active torsions:
REMARK  status: ('A' for Active; 'I' for Inactive)
REMARK    1  A    between atoms: C3_3  and  C4_4 
REMARK    2  A    between atoms: C3_3  and  O6_6 
ROOT
HETATM    1  C1  UNL     1     -33.248   7.198   3.756  1.00 20.00     0.081 C 
HETATM    2  C4  UNL     1     -34.130   6.279   3.028  1.00 20.00     0.212 C 
HETATM    3  N5  UNL     1     -32.548   7.925   4.329  1.00 20.00    -0.196 NA
HETATM    4 CL7  UNL     1     -33.140   4.931   2.405  1.00 20.00    -0.107 Cl
ENDROOT
BRANCH   2   5
HETATM    5  C3  UNL     1     -35.267   5.756   3.901  1.00 20.00     0.202 C 
BRANCH   5   6
HETATM    6  O6  UNL     1     -34.824   4.691   4.734  1.00 20.00    -0.394 OA
HETATM    7  C2  UNL     1     -34.167   5.178   5.896  1.00 20.00     0.201 C 
ENDBRANCH   5   6
ENDBRANCH   2   5
TORSDOF 2
