REMARK  0 active torsions:
REMARK  status: ('A' for Active; 'I' for Inactive)
ROOT
HETATM    1  C1  UNL     1     -33.700   7.291   4.451  1.00 20.00     0.095 C 
HETATM    2  C2  UNL     1     -34.117   4.489   2.875  1.00 20.00    -0.026 C 
HETATM    3  C3  UNL     1     -33.822   3.896   4.039  1.00 20.00    -0.001 C 
HETATM    4  C4  UNL     1     -34.855   5.795   2.821  1.00 20.00     0.077 C 
HETATM    5  C5  UNL     1     -34.237   4.478   5.358  1.00 20.00     0.298 C 
HETATM    6  C6  UNL     1     -34.925   6.514   4.182  1.00 20.00     0.329 C 
HETATM    7  N7  UNL     1     -32.736   7.902   4.663  1.00 20.00    -0.195 NA
HETATM    8  N8  UNL     1     -35.217   5.570   5.272  1.00 20.00     0.105 N 
HETATM    9  H16 UNL     1     -36.150   5.164   5.139  1.00 20.00     0.318 HD
ENDROOT
TORSDOF 0
