REMARK  2 active torsions:
REMARK  status: ('A' for Active; 'I' for Inactive)
REMARK    1  A    between atoms: C1_1  and  C7_7 
REMARK    2  A    between atoms: C2_2  and  C3_3 
ROOT
HETATM    1  C1  UNL     1     -32.658   6.719   2.835  1.00 20.00    -0.013 C 
HETATM    2  C3  UNL     1     -33.429   5.825   3.478  1.00 20.00    -0.028 C 
HETATM    3  C4  UNL     1     -33.507   4.349   3.249  1.00 20.00     0.051 C 
ENDROOT
BRANCH   1   4
HETATM    4  C7  UNL     1     -32.594   8.210   3.072  1.00 20.00     0.000 C 
HETATM    5  C5  UNL     1     -31.544   8.526   4.137  1.00 20.00     0.013 C 
HETATM    6  C6  UNL     1     -32.266   8.933   1.765  1.00 20.00     0.013 C 
ENDBRANCH   1   4
BRANCH   2   7
HETATM    7  C2  UNL     1     -34.313   6.380   4.541  1.00 20.00     0.265 C 
HETATM    8  O8  UNL     1     -35.069   5.685   5.211  1.00 20.00    -0.302 OA
ENDBRANCH   2   7
TORSDOF 2
