REMARK  0 active torsions:
REMARK  status: ('A' for Active; 'I' for Inactive)
ROOT
HETATM    1  C1  UNL     1     -34.573   4.875   4.000  1.00 20.00     0.068 C 
HETATM    2  C2  UNL     1     -31.773   8.421   4.053  1.00 20.00     0.009 A 
HETATM    3  C3  UNL     1     -31.705   8.776   2.704  1.00 20.00     0.019 A 
HETATM    4  C4  UNL     1     -33.730   7.517   2.223  1.00 20.00     0.028 A 
HETATM    5  C5  UNL     1     -32.827   7.626   4.470  1.00 20.00    -0.050 A 
HETATM    6  C6  UNL     1     -33.795   7.173   3.564  1.00 20.00    -0.033 A 
HETATM    7  C7  UNL     1     -32.677   8.328   1.796  1.00 20.00     0.011 A 
HETATM    8  C8  UNL     1     -33.089   7.095   5.844  1.00 20.00     0.041 C 
HETATM    9  C9  UNL     1     -34.565   6.676   5.724  1.00 20.00     0.028 C 
HETATM   10  C10 UNL     1     -34.811   6.302   4.247  1.00 20.00     0.126 C 
HETATM   11  N11 UNL     1     -34.384   3.747   3.806  1.00 20.00    -0.197 NA
HETATM   12 BR12 UNL     1     -32.552   8.821  -0.026  1.00 20.00    -0.051 Br
ENDROOT
TORSDOF 0
