REMARK  2 active torsions:
REMARK  status: ('A' for Active; 'I' for Inactive)
REMARK    1  A    between atoms: C5_5  and  C6_6 
REMARK    2  A    between atoms: C6_6  and  C7_7 
ROOT
HETATM    1  C1  UNL     1     -33.651   5.258   3.631  1.00 20.00     0.131 C 
HETATM    2  C2  UNL     1     -34.374   4.196   4.422  1.00 20.00     0.079 C 
HETATM    3  C3  UNL     1     -34.500   4.852   5.791  1.00 20.00     0.008 C 
HETATM    4  C4  UNL     1     -34.605   6.342   5.490  1.00 20.00     0.013 C 
HETATM    5  C5  UNL     1     -33.577   6.572   4.381  1.00 20.00     0.064 C 
HETATM    6  O8  UNL     1     -33.184   5.070   2.515  1.00 20.00    -0.298 OA
ENDROOT
BRANCH   5   7
HETATM    7  C6  UNL     1     -33.902   7.770   3.511  1.00 20.00     0.129 C 
BRANCH   7   8
HETATM    8  C7  UNL     1     -32.736   8.154   2.639  1.00 20.00     0.388 C 
HETATM    9  F9  UNL     1     -31.651   8.483   3.371  1.00 20.00    -0.171 F 
HETATM   10  F10 UNL     1     -33.064   9.229   1.888  1.00 20.00    -0.171 F 
HETATM   11  F11 UNL     1     -32.389   7.158   1.798  1.00 20.00    -0.171 F 
ENDBRANCH   7   8
ENDBRANCH   5   7
TORSDOF 2
