REMARK  4 active torsions:
REMARK  status: ('A' for Active; 'I' for Inactive)
REMARK    1  A    between atoms: C1_1  and  C6_6 
REMARK    2  A    between atoms: C1_1  and  C8_8 
REMARK    3  A    between atoms: C7_7  and  C8_8 
REMARK    4  A    between atoms: C7_7  and  C9_9 
ROOT
HETATM    1  C3  UNL     1     -31.498   8.704   4.044  1.00 20.00     0.018 C 
HETATM    2  C8  UNL     1     -31.975   7.486   3.256  1.00 20.00     0.051 C 
ENDROOT
BRANCH   2   3
HETATM    3  C1  UNL     1     -33.340   7.066   3.798  1.00 20.00     0.130 C 
HETATM    4  O10 UNL     1     -33.893   7.688   4.705  1.00 20.00    -0.298 OA
BRANCH   3   5
HETATM    5  C6  UNL     1     -33.951   5.820   3.180  1.00 20.00     0.074 C 
HETATM    6  C2  UNL     1     -34.820   5.048   4.156  1.00 20.00     0.013 C 
ENDBRANCH   3   5
ENDBRANCH   2   3
BRANCH   2   7
HETATM    7  C7  UNL     1     -32.032   7.799   1.751  1.00 20.00     0.015 C 
BRANCH   7   8
HETATM    8  C9  UNL     1     -32.534   9.216   1.401  1.00 20.00    -0.022 C 
HETATM    9  C4  UNL     1     -33.951   9.479   1.912  1.00 20.00     0.009 C 
HETATM   10  C5  UNL     1     -32.488   9.417  -0.117  1.00 20.00     0.009 C 
ENDBRANCH   7   8
ENDBRANCH   2   7
TORSDOF 4
