REMARK  2 active torsions:
REMARK  status: ('A' for Active; 'I' for Inactive)
REMARK    1  A    between atoms: C5_5  and  C6_6 
REMARK    2  A    between atoms: C6_6  and  C7_7 
ROOT
HETATM    1  C1  UNL     1     -34.253   5.630   4.523  1.00 20.00     0.131 C 
HETATM    2  C2  UNL     1     -34.220   5.531   6.027  1.00 20.00     0.079 C 
HETATM    3  C3  UNL     1     -33.976   6.979   6.433  1.00 20.00     0.008 C 
HETATM    4  C4  UNL     1     -33.146   7.558   5.295  1.00 20.00     0.013 C 
HETATM    5  C5  UNL     1     -33.796   6.988   4.032  1.00 20.00     0.064 C 
HETATM    6  O8  UNL     1     -34.608   4.714   3.792  1.00 20.00    -0.298 OA
ENDROOT
BRANCH   5   7
HETATM    7  C6  UNL     1     -32.838   6.903   2.861  1.00 20.00     0.129 C 
BRANCH   7   8
HETATM    8  C7  UNL     1     -32.375   8.267   2.423  1.00 20.00     0.388 C 
HETATM    9  F9  UNL     1     -33.407   9.045   2.031  1.00 20.00    -0.171 F 
HETATM   10  F10 UNL     1     -31.532   8.149   1.373  1.00 20.00    -0.171 F 
HETATM   11  F11 UNL     1     -31.714   8.913   3.407  1.00 20.00    -0.171 F 
ENDBRANCH   7   8
ENDBRANCH   5   7
TORSDOF 2
