REMARK  1 active torsions:
REMARK  status: ('A' for Active; 'I' for Inactive)
REMARK    1  A    between atoms: C4_4  and  O6_6 
ROOT
HETATM    1  C1  UNL     1     -33.287   7.673   3.488  1.00 20.00     0.038 C 
HETATM    2  C2  UNL     1     -33.132   6.219   3.054  1.00 20.00     0.081 C 
HETATM    3  C3  UNL     1     -33.910   6.144   5.307  1.00 20.00     0.110 C 
HETATM    4  C4  UNL     1     -33.650   7.617   4.978  1.00 20.00     0.124 C 
HETATM    5  C5  UNL     1     -34.108   5.496   3.954  1.00 20.00     0.246 C 
HETATM    6  F7  UNL     1     -33.883   4.171   3.989  1.00 20.00    -0.206 F 
HETATM    7  F8  UNL     1     -35.375   5.691   3.522  1.00 20.00    -0.206 F 
ENDROOT
BRANCH   4   8
HETATM    8  O6  UNL     1     -32.570   8.110   5.757  1.00 20.00    -0.395 OA
HETATM    9  H16 UNL     1     -32.849   8.053   6.684  1.00 20.00     0.210 HD
ENDBRANCH   4   8
TORSDOF 1
