REMARK  3 active torsions:
REMARK  status: ('A' for Active; 'I' for Inactive)
REMARK    1  A    between atoms: C4_4  and  C7_7 
REMARK    2  A    between atoms: C7_7  and  C8_8 
REMARK    3  A    between atoms: C8_8  and  C9_9 
ROOT
HETATM    1  C1  UNL     1     -33.546   5.513   3.108  1.00 20.00     0.141 C 
HETATM    2  C2  UNL     1     -34.173   4.466   3.993  1.00 20.00     0.152 C 
HETATM    3  C3  UNL     1     -34.419   6.973   4.840  1.00 20.00     0.086 C 
HETATM    4  C4  UNL     1     -33.342   6.866   3.768  1.00 20.00     0.065 C 
HETATM    5  O10 UNL     1     -33.187   5.261   1.960  1.00 20.00    -0.297 OA
HETATM    6  S11 UNL     1     -34.540   5.314   5.546  1.00 20.00    -0.161 SA
ENDROOT
BRANCH   4   7
HETATM    7  C7  UNL     1     -33.426   8.011   2.771  1.00 20.00     0.013 C 
BRANCH   7   8
HETATM    8  C8  UNL     1     -32.104   8.195   2.021  1.00 20.00     0.005 C 
BRANCH   8   9
HETATM    9  C9  UNL     1     -32.156   9.297   0.947  1.00 20.00    -0.023 C 
HETATM   10  C5  UNL     1     -32.500  10.640   1.597  1.00 20.00     0.009 C 
HETATM   11  C6  UNL     1     -33.165   8.987  -0.160  1.00 20.00     0.009 C 
ENDBRANCH   8   9
ENDBRANCH   7   8
ENDBRANCH   4   7
TORSDOF 3
