REMARK  2 active torsions:
REMARK  status: ('A' for Active; 'I' for Inactive)
REMARK    1  A    between atoms: C6_6  and  C7_7 
REMARK    2  A    between atoms: C7_7  and  C8_8 
ROOT
HETATM    1  C1  UNL     1     -33.517   5.287   3.457  1.00 20.00     0.131 C 
HETATM    2  C2  UNL     1     -34.893   5.197   4.082  1.00 20.00     0.079 C 
HETATM    3  C3  UNL     1     -34.924   5.895   5.433  1.00 20.00     0.007 C 
HETATM    4  C4  UNL     1     -34.395   7.323   5.345  1.00 20.00     0.001 C 
HETATM    5  C5  UNL     1     -32.974   7.343   4.783  1.00 20.00     0.012 C 
HETATM    6  C6  UNL     1     -32.855   6.655   3.419  1.00 20.00     0.064 C 
HETATM    7  O9  UNL     1     -32.998   4.311   2.914  1.00 20.00    -0.298 OA
ENDROOT
BRANCH   6   8
HETATM    8  C7  UNL     1     -33.447   7.485   2.284  1.00 20.00     0.129 C 
BRANCH   8   9
HETATM    9  C8  UNL     1     -32.516   8.590   1.875  1.00 20.00     0.388 C 
HETATM   10  F10 UNL     1     -32.252   9.432   2.896  1.00 20.00    -0.171 F 
HETATM   11  F11 UNL     1     -33.086   9.314   0.885  1.00 20.00    -0.171 F 
HETATM   12  F12 UNL     1     -31.342   8.114   1.408  1.00 20.00    -0.171 F 
ENDBRANCH   8   9
ENDBRANCH   6   8
TORSDOF 2
