REMARK  2 active torsions:
REMARK  status: ('A' for Active; 'I' for Inactive)
REMARK    1  A    between atoms: C1_1  and  C3_3 
REMARK    2  A    between atoms: C2_2  and  C4_4 
ROOT
HETATM    1  C1  UNL     1     -32.981   7.124   4.016  1.00 20.00     0.223 C 
HETATM    2  C2  UNL     1     -32.042   7.900   3.450  1.00 20.00     0.223 C 
HETATM    3  F5  UNL     1     -33.170   7.217   5.354  1.00 20.00    -0.200 F 
HETATM    4  F6  UNL     1     -31.307   8.708   4.250  1.00 20.00    -0.200 F 
ENDROOT
BRANCH   1   5
HETATM    5  C3  UNL     1     -33.858   6.168   3.276  1.00 20.00     0.377 C 
HETATM    6  F7  UNL     1     -34.627   6.777   2.333  1.00 20.00    -0.180 F 
HETATM    7  F8  UNL     1     -34.727   5.565   4.133  1.00 20.00    -0.180 F 
HETATM    8 CL11 UNL     1     -32.868   4.922   2.491  1.00 20.00    -0.040 Cl
ENDBRANCH   1   5
BRANCH   2   9
HETATM    9  C4  UNL     1     -31.727   7.929   1.990  1.00 20.00     0.377 C 
HETATM   10  F9  UNL     1     -32.527   7.058   1.317  1.00 20.00    -0.180 F 
HETATM   11  F10 UNL     1     -31.944   9.147   1.426  1.00 20.00    -0.180 F 
HETATM   12 CL12 UNL     1     -30.032   7.471   1.728  1.00 20.00    -0.040 Cl
ENDBRANCH   2   9
TORSDOF 2
