REMARK  1 active torsions:
REMARK  status: ('A' for Active; 'I' for Inactive)
REMARK    1  A    between atoms: C4_4  and  C6_6 
ROOT
HETATM    1  C1  UNL     1     -32.863   7.950   3.680  1.00 20.00     0.039 A 
HETATM    2  C2  UNL     1     -33.151   6.636   1.719  1.00 20.00     0.129 A 
HETATM    3  C3  UNL     1     -33.832   5.778   3.738  1.00 20.00     0.140 A 
HETATM    4  C4  UNL     1     -32.717   7.814   2.304  1.00 20.00    -0.000 A 
HETATM    5  C5  UNL     1     -33.430   6.917   4.418  1.00 20.00     0.052 A 
HETATM    6  N8  UNL     1     -33.706   5.611   2.403  1.00 20.00    -0.271 NA
HETATM    7 CL10 UNL     1     -33.626   7.047   6.117  1.00 20.00    -0.083 Cl
ENDROOT
BRANCH   4   8
HETATM    8  C6  UNL     1     -32.129   8.875   1.505  1.00 20.00     0.017 C 
HETATM    9  C7  UNL     1     -32.298  10.324   1.966  1.00 20.00     0.062 C 
HETATM   10  S9  UNL     1     -31.209   8.606   0.099  1.00 20.00    -0.084 SA
ENDBRANCH   4   8
TORSDOF 1
