REMARK  1 active torsions:
REMARK  status: ('A' for Active; 'I' for Inactive)
REMARK    1  A    between atoms: C3_3  and  C9_9 
ROOT
HETATM    1  C1  UNL     1     -31.589   8.129   2.193  1.00 20.00     0.017 A 
HETATM    2  C2  UNL     1     -31.798   8.924   1.029  1.00 20.00     0.032 A 
HETATM    3  C3  UNL     1     -32.763   7.582   2.664  1.00 20.00    -0.011 A 
HETATM    4  C4  UNL     1     -33.124   8.955   0.655  1.00 20.00     0.075 A 
HETATM    5  S11 UNL     1     -34.109   8.028   1.705  1.00 20.00    -0.082 SA
HETATM    6 CL12 UNL     1     -33.821   9.781  -0.674  1.00 20.00    -0.076 Cl
ENDROOT
BRANCH   3   7
HETATM    7  C9  UNL     1     -32.968   6.687   3.864  1.00 20.00     0.033 C 
HETATM    8  C7  UNL     1     -33.571   5.319   3.524  1.00 20.00     0.088 C 
HETATM    9  C5  UNL     1     -34.193   4.927   4.841  1.00 20.00     0.127 C 
HETATM   10  C6  UNL     1     -34.247   6.075   5.816  1.00 20.00     0.079 C 
HETATM   11  O10 UNL     1     -34.606   3.801   5.090  1.00 20.00    -0.298 OA
HETATM   12  C8  UNL     1     -33.915   7.265   4.921  1.00 20.00     0.018 C 
ENDBRANCH   3   7
TORSDOF 1
