REMARK  0 active torsions:
REMARK  status: ('A' for Active; 'I' for Inactive)
ROOT
HETATM    1  C1  UNL     1     -33.784   7.377   6.117  1.00 20.00     0.017 C 
HETATM    2  C2  UNL     1     -34.162   6.247   5.970  1.00 20.00    -0.090 C 
HETATM    3  C3  UNL     1     -34.610   4.909   5.803  1.00 20.00     0.059 C 
HETATM    4  C4  UNL     1     -34.632   4.318   4.601  1.00 20.00    -0.022 C 
HETATM    5  C5  UNL     1     -34.198   4.991   3.340  1.00 20.00     0.036 C 
ENDROOT
TORSDOF 0
