REMARK  2 active torsions:
REMARK  status: ('A' for Active; 'I' for Inactive)
REMARK    1  A    between atoms: C1_1  and  C3_3 
REMARK    2  A    between atoms: C2_2  and  C8_8 
ROOT
HETATM    1  C4  UNL     1     -34.584   6.406   5.741  1.00 20.00     0.011 C 
HETATM    2  C5  UNL     1     -34.061   7.202   4.540  1.00 20.00     0.010 C 
HETATM    3  C6  UNL     1     -34.324   4.904   5.699  1.00 20.00     0.074 C 
HETATM    4  C7  UNL     1     -33.439   5.205   3.087  1.00 20.00     0.082 C 
HETATM    5  C8  UNL     1     -32.943   6.482   3.782  1.00 20.00     0.017 C 
HETATM    6  S11 UNL     1     -34.616   4.202   4.055  1.00 20.00    -0.168 SA
ENDROOT
BRANCH   5   7
HETATM    7  C2  UNL     1     -32.317   7.407   2.780  1.00 20.00    -0.018 C 
HETATM    8  C1  UNL     1     -32.996   8.370   2.143  1.00 20.00     0.046 C 
BRANCH   8   9
HETATM    9  C3  UNL     1     -32.315   9.255   1.159  1.00 20.00     0.145 C 
HETATM   10  C9  UNL     1     -32.855  10.654   1.015  1.00 20.00     0.096 C 
HETATM   11  O10 UNL     1     -31.365   8.870   0.480  1.00 20.00    -0.294 OA
ENDBRANCH   8   9
ENDBRANCH   5   7
TORSDOF 2
