REMARK  2 active torsions:
REMARK  status: ('A' for Active; 'I' for Inactive)
REMARK    1  A    between atoms: C6_6  and  O11_11 
REMARK    2  A    between atoms: C9_9  and  O11_11 
ROOT
HETATM    1  C1  UNL     1     -34.658   4.724   3.815  1.00 20.00     0.002 C 
HETATM    2  C2  UNL     1     -33.312   5.177   3.196  1.00 20.00     0.015 C 
HETATM    3  C3  UNL     1     -35.122   6.200   3.744  1.00 20.00     0.015 C 
HETATM    4  C4  UNL     1     -32.093   7.968   3.973  1.00 20.00     0.069 C 
HETATM    5  C5  UNL     1     -32.892   7.040   4.935  1.00 20.00     0.173 C 
HETATM    6  C6  UNL     1     -33.202   7.773   2.897  1.00 20.00     0.135 C 
HETATM    7  C7  UNL     1     -33.656   6.574   3.705  1.00 20.00     0.015 C 
HETATM    8  O10 UNL     1     -33.646   7.779   5.866  1.00 20.00    -0.234 OA
ENDROOT
BRANCH   6   9
HETATM    9  O11 UNL     1     -32.735   7.550   1.555  1.00 20.00    -0.385 OA
BRANCH   9  10
HETATM   10  C9  UNL     1     -31.959   8.643   1.102  1.00 20.00     0.163 C 
HETATM   11  C8  UNL     1     -32.809   9.896   1.126  1.00 20.00     0.033 C 
ENDBRANCH   9  10
ENDBRANCH   6   9
TORSDOF 2
