REMARK  2 active torsions:
REMARK  status: ('A' for Active; 'I' for Inactive)
REMARK    1  A    between atoms: C6_6  and  C8_8 
REMARK    2  A    between atoms: C7_7  and  C9_9 
ROOT
HETATM    1  C1  UNL     1     -32.565   7.990   3.377  1.00 20.00     0.132 C 
HETATM    2  C2  UNL     1     -32.946   8.216   4.982  1.00 20.00     0.084 C 
HETATM    3  C6  UNL     1     -33.026   6.546   3.609  1.00 20.00     0.064 C 
HETATM    4  C7  UNL     1     -34.108   7.254   4.540  1.00 20.00     0.008 C 
HETATM    5  O10 UNL     1     -32.139   8.630   2.449  1.00 20.00    -0.298 OA
ENDROOT
BRANCH   3   6
HETATM    6  C8  UNL     1     -33.901   5.506   2.910  1.00 20.00    -0.003 C 
HETATM    7  C3  UNL     1     -33.779   4.264   3.833  1.00 20.00     0.006 C 
HETATM    8  C4  UNL     1     -34.420   4.784   5.146  1.00 20.00     0.005 C 
HETATM    9  C9  UNL     1     -35.092   6.101   4.721  1.00 20.00    -0.009 C 
HETATM   10  C5  UNL     1     -35.362   5.855   3.217  1.00 20.00     0.010 C 
ENDBRANCH   3   6
TORSDOF 2
