REMARK  2 active torsions:
REMARK  status: ('A' for Active; 'I' for Inactive)
REMARK    1  A    between atoms: C6_6  and  O11_11 
REMARK    2  A    between atoms: C9_9  and  O11_11 
ROOT
HETATM    1  C1  UNL     1     -34.335   7.728   5.640  1.00 20.00     0.002 C 
HETATM    2  C2  UNL     1     -34.695   7.503   4.149  1.00 20.00     0.015 C 
HETATM    3  C3  UNL     1     -32.882   7.311   5.301  1.00 20.00     0.015 C 
HETATM    4  C4  UNL     1     -33.183   5.212   2.538  1.00 20.00     0.069 C 
HETATM    5  C5  UNL     1     -33.504   5.113   4.055  1.00 20.00     0.173 C 
HETATM    6  C6  UNL     1     -32.619   6.638   2.802  1.00 20.00     0.135 C 
HETATM    7  C7  UNL     1     -33.453   6.632   4.071  1.00 20.00     0.015 C 
HETATM    8  O10 UNL     1     -34.748   4.518   4.307  1.00 20.00    -0.234 OA
ENDROOT
BRANCH   6   9
HETATM    9  O11 UNL     1     -32.921   7.628   1.804  1.00 20.00    -0.385 OA
BRANCH   9  10
HETATM   10  C9  UNL     1     -32.359   8.880   2.149  1.00 20.00     0.163 C 
HETATM   11  C8  UNL     1     -32.702   9.888   1.073  1.00 20.00     0.033 C 
ENDBRANCH   9  10
ENDBRANCH   6   9
TORSDOF 2
