REMARK  2 active torsions:
REMARK  status: ('A' for Active; 'I' for Inactive)
REMARK    1  A    between atoms: C3_3  and  C6_6 
REMARK    2  A    between atoms: C6_6  and  C7_7 
ROOT
HETATM    1  C1  UNL     1     -32.270   9.816   1.851  1.00 20.00    -0.176 C 
HETATM    2  C2  UNL     1     -32.624  10.828   1.119  1.00 20.00     0.091 C 
HETATM    3  C3  UNL     1     -31.912   8.803   2.587  1.00 20.00     0.067 C 
ENDROOT
BRANCH   3   4
HETATM    4  C6  UNL     1     -32.566   7.452   2.561  1.00 20.00     0.021 C 
BRANCH   4   5
HETATM    5  C7  UNL     1     -33.717   7.316   3.576  1.00 20.00    -0.021 C 
HETATM    6  C4  UNL     1     -33.245   7.532   5.016  1.00 20.00     0.009 C 
HETATM    7  C5  UNL     1     -34.365   5.936   3.446  1.00 20.00     0.009 C 
ENDBRANCH   4   5
ENDBRANCH   3   4
TORSDOF 2
