REMARK  3 active torsions:
REMARK  status: ('A' for Active; 'I' for Inactive)
REMARK    1  A    between atoms: C1_1  and  C6_6 
REMARK    2  A    between atoms: C6_6  and  C7_7 
REMARK    3  A    between atoms: C6_6  and  O9_9 
ROOT
HETATM    1  C2  UNL     1     -33.876   5.591   5.626  1.00 20.00     0.054 C 
HETATM    2  C6  UNL     1     -34.467   5.401   4.224  1.00 20.00     0.113 C 
ENDROOT
BRANCH   2   3
HETATM    3  C1  UNL     1     -34.439   3.907   3.912  1.00 20.00     0.269 C 
HETATM    4  O8  UNL     1     -33.604   3.123   4.355  1.00 20.00    -0.304 OA
ENDBRANCH   2   3
BRANCH   2   5
HETATM    5  C7  UNL     1     -33.762   6.238   3.099  1.00 20.00    -0.014 C 
HETATM    6  C3  UNL     1     -34.469   6.024   1.739  1.00 20.00     0.018 C 
HETATM    7  C4  UNL     1     -32.294   5.786   2.921  1.00 20.00     0.018 C 
HETATM    8  C5  UNL     1     -33.755   7.750   3.403  1.00 20.00     0.018 C 
ENDBRANCH   2   5
BRANCH   2   9
HETATM    9  O9  UNL     1     -35.846   5.774   4.277  1.00 20.00    -0.382 OA
HETATM   10  H23 UNL     1     -36.245   5.242   4.981  1.00 20.00     0.211 HD
ENDBRANCH   2   9
TORSDOF 3
