REMARK  4 active torsions:
REMARK  status: ('A' for Active; 'I' for Inactive)
REMARK    1  A    between atoms: C3_3  and  C4_4 
REMARK    2  A    between atoms: C3_3  and  C6_6 
REMARK    3  A    between atoms: C4_4  and  O7_7 
REMARK    4  A    between atoms: C5_5  and  C6_6 
ROOT
HETATM    1  C3  UNL     1     -32.165   7.521   3.493  1.00 20.00     0.031 C 
ENDROOT
BRANCH   1   2
HETATM    2  C4  UNL     1     -32.036   7.872   2.015  1.00 20.00     0.167 C 
BRANCH   2   3
HETATM    3  O7  UNL     1     -32.793   9.047   1.758  1.00 20.00    -0.396 OA
HETATM    4  C2  UNL     1     -32.701   9.438   0.395  1.00 20.00     0.201 C 
ENDBRANCH   2   3
ENDBRANCH   1   2
BRANCH   1   5
HETATM    5  C6  UNL     1     -33.615   7.272   3.949  1.00 20.00    -0.003 C 
HETATM    6  C1  UNL     1     -33.647   7.022   5.461  1.00 20.00     0.011 C 
BRANCH   5   7
HETATM    7  C5  UNL     1     -34.343   6.157   3.181  1.00 20.00     0.119 C 
HETATM    8 CL8  UNL     1     -33.662   4.537   3.463  1.00 20.00    -0.130 Cl
ENDBRANCH   5   7
ENDBRANCH   1   5
TORSDOF 4
