REMARK  4 active torsions:
REMARK  status: ('A' for Active; 'I' for Inactive)
REMARK    1  A    between atoms: C1_1  and  C6_6 
REMARK    2  A    between atoms: C2_2  and  C7_7 
REMARK    3  A    between atoms: C6_6  and  O9_9 
REMARK    4  A    between atoms: C8_8  and  O9_9 
ROOT
HETATM    1  C6  UNL     1     -32.008   7.380   2.260  1.00 20.00     0.196 C 
ENDROOT
BRANCH   1   2
HETATM    2  C1  UNL     1     -32.602   6.685   3.441  1.00 20.00    -0.004 C 
HETATM    3  C2  UNL     1     -33.787   7.010   3.979  1.00 20.00    -0.014 C 
BRANCH   3   4
HETATM    4  C7  UNL     1     -34.384   6.303   5.151  1.00 20.00     0.141 C 
HETATM    5 CL10 UNL     1     -34.594   4.579   4.777  1.00 20.00    -0.126 Cl
ENDBRANCH   3   4
ENDBRANCH   1   2
BRANCH   1   6
HETATM    6  O9  UNL     1     -33.060   7.881   1.450  1.00 20.00    -0.378 OA
BRANCH   6   7
HETATM    7  C8  UNL     1     -32.599   8.920   0.585  1.00 20.00     0.050 C 
HETATM    8  C3  UNL     1     -31.129   8.661   0.255  1.00 20.00     0.045 C 
HETATM    9  C4  UNL     1     -33.450   8.875  -0.682  1.00 20.00     0.045 C 
HETATM   10  C5  UNL     1     -32.769  10.260   1.300  1.00 20.00     0.045 C 
ENDBRANCH   6   7
ENDBRANCH   1   6
TORSDOF 4
