REMARK  2 active torsions:
REMARK  status: ('A' for Active; 'I' for Inactive)
REMARK    1  A    between atoms: C2_2  and  C4_4 
REMARK    2  A    between atoms: C4_4  and  C5_5 
ROOT
HETATM    1  C1  UNL     1     -32.158   9.507   1.196  1.00 20.00    -0.035 C 
HETATM    2  C2  UNL     1     -32.672   8.876   2.263  1.00 20.00    -0.030 C 
HETATM    3  C3  UNL     1     -32.281  10.947   0.908  1.00 20.00     0.036 C 
ENDROOT
BRANCH   2   4
HETATM    4  C4  UNL     1     -32.519   7.404   2.522  1.00 20.00     0.042 C 
BRANCH   4   5
HETATM    5  C5  UNL     1     -33.858   6.677   2.602  1.00 20.00     0.118 C 
HETATM    6 CL6  UNL     1     -33.644   4.942   2.941  1.00 20.00    -0.130 Cl
ENDBRANCH   4   5
ENDBRANCH   2   4
TORSDOF 2
