REMARK  2 active torsions:
REMARK  status: ('A' for Active; 'I' for Inactive)
REMARK    1  A    between atoms: C1_1  and  C6_6 
REMARK    2  A    between atoms: C2_2  and  C7_7 
ROOT
HETATM    1  C1  UNL     1     -32.620   7.307   3.102  1.00 20.00    -0.015 C 
HETATM    2  C2  UNL     1     -33.667   7.074   3.911  1.00 20.00    -0.021 C 
ENDROOT
BRANCH   2   3
HETATM    3  C7  UNL     1     -34.404   5.758   4.117  1.00 20.00    -0.034 C 
HETATM    4  C3  UNL     1     -35.876   5.964   3.716  1.00 20.00     0.018 C 
HETATM    5  C4  UNL     1     -33.836   4.580   3.303  1.00 20.00     0.018 C 
HETATM    6  C5  UNL     1     -34.335   5.397   5.611  1.00 20.00     0.018 C 
ENDBRANCH   2   3
BRANCH   1   7
HETATM    7  C6  UNL     1     -31.960   8.642   2.977  1.00 20.00     0.141 C 
HETATM    8 CL8  UNL     1     -32.061   9.211   1.297  1.00 20.00    -0.126 Cl
ENDBRANCH   1   7
TORSDOF 2
