REMARK  0 active torsions:
REMARK  status: ('A' for Active; 'I' for Inactive)
ROOT
HETATM    1  C1  UNL     1     -31.834   8.690   3.158  1.00 20.00     0.109 C 
HETATM    2  C2  UNL     1     -32.799   8.563   1.973  1.00 20.00     0.226 C 
HETATM    3  C3  UNL     1     -33.889   6.468   2.705  1.00 20.00     0.230 C 
HETATM    4  C4  UNL     1     -33.971   7.177   4.080  1.00 20.00     0.076 C 
HETATM    5  C5  UNL     1     -32.174   9.204   0.731  1.00 20.00     0.043 C 
HETATM    6  C6  UNL     1     -33.372   5.026   2.767  1.00 20.00     0.043 C 
HETATM    7  C7  UNL     1     -34.604   6.327   5.180  1.00 20.00     0.023 C 
HETATM    8  N8  UNL     1     -33.082   7.159   1.687  1.00 20.00     0.093 N 
HETATM    9  S9  UNL     1     -32.340   7.770   4.648  1.00 20.00    -0.160 SA
HETATM   10  H24 UNL     1     -33.566   7.091   0.778  1.00 20.00     0.316 HD
ENDROOT
TORSDOF 0
