REMARK  3 active torsions:
REMARK  status: ('A' for Active; 'I' for Inactive)
REMARK    1  A    between atoms: C4_4  and  O9_9 
REMARK    2  A    between atoms: C6_6  and  C7_7 
REMARK    3  A    between atoms: C6_6  and  N8_8 
ROOT
HETATM    1  C1  UNL     1     -33.019   7.380   4.808  1.00 20.00     0.064 C 
HETATM    2  C2  UNL     1     -31.851   7.835   3.947  1.00 20.00     0.275 C 
HETATM    3  C3  UNL     1     -33.464   7.099   2.435  1.00 20.00     0.304 C 
HETATM    4  C4  UNL     1     -33.967   6.703   3.821  1.00 20.00     0.150 C 
HETATM    5  N8  UNL     1     -32.520   8.188   2.696  1.00 20.00     0.092 N 
ENDROOT
BRANCH   5   6
HETATM    6  C6  UNL     1     -31.583   8.390   1.600  1.00 20.00     0.287 C 
BRANCH   6   7
HETATM    7  C7  UNL     1     -32.205   9.136   0.431  1.00 20.00     0.144 C 
HETATM    8 CL10 UNL     1     -32.775  10.751   0.923  1.00 20.00    -0.129 Cl
ENDBRANCH   6   7
ENDBRANCH   5   6
BRANCH   4   9
HETATM    9  O9  UNL     1     -33.899   5.291   3.962  1.00 20.00    -0.389 OA
HETATM   10  C5  UNL     1     -34.671   4.838   5.066  1.00 20.00     0.202 C 
ENDBRANCH   4   9
TORSDOF 3
