REMARK  0 active torsions:
REMARK  status: ('A' for Active; 'I' for Inactive)
ROOT
HETATM    1  C1  UNL     1     -32.086   7.324   3.128  1.00 20.00    -0.088 C 
HETATM    2  C2  UNL     1     -31.728   8.026   2.043  1.00 20.00     0.014 C 
HETATM    3  C3  UNL     1     -32.257   7.959   4.482  1.00 20.00     0.033 C 
HETATM    4  C4  UNL     1     -32.365   5.842   3.081  1.00 20.00     0.042 C 
HETATM    5  C5  UNL     1     -33.637   7.646   5.060  1.00 20.00     0.005 C 
HETATM    6  C6  UNL     1     -33.938   6.144   5.047  1.00 20.00     0.009 C 
HETATM    7  C7  UNL     1     -33.762   5.494   3.651  1.00 20.00    -0.044 C 
HETATM    8  C8  UNL     1     -34.870   5.969   2.690  1.00 20.00     0.015 C 
HETATM    9  C9  UNL     1     -33.878   3.965   3.793  1.00 20.00     0.015 C 
ENDROOT
TORSDOF 0
