REMARK  3 active torsions:
REMARK  status: ('A' for Active; 'I' for Inactive)
REMARK    1  A    between atoms: C6_6  and  C8_8 
REMARK    2  A    between atoms: C6_6  and  C9_9 
REMARK    3  A    between atoms: C9_9  and  O10_10 
ROOT
HETATM    1  C1  UNL     1     -34.560   5.133   4.535  1.00 20.00     0.000 C 
HETATM    2  C2  UNL     1     -33.446   4.890   3.524  1.00 20.00     0.001 C 
HETATM    3  C3  UNL     1     -34.313   6.389   5.363  1.00 20.00     0.001 C 
HETATM    4  C4  UNL     1     -33.213   6.111   2.635  1.00 20.00     0.011 C 
HETATM    5  C5  UNL     1     -34.082   7.613   4.477  1.00 20.00     0.011 C 
HETATM    6  C6  UNL     1     -32.961   7.412   3.432  1.00 20.00    -0.019 C 
ENDROOT
BRANCH   6   7
HETATM    7  C8  UNL     1     -32.966   8.605   2.457  1.00 20.00     0.007 C 
HETATM    8  C7  UNL     1     -31.905   8.460   1.424  1.00 20.00     0.006 C 
ENDBRANCH   6   7
BRANCH   6   9
HETATM    9  C9  UNL     1     -31.582   7.367   4.118  1.00 20.00     0.173 C 
BRANCH   9  10
HETATM   10  O10 UNL     1     -31.405   8.580   4.818  1.00 20.00    -0.400 OA
HETATM   11  H28 UNL     1     -30.532   8.542   5.247  1.00 20.00     0.209 HD
ENDBRANCH   9  10
ENDBRANCH   6   9
TORSDOF 3
