REMARK  2 active torsions:
REMARK  status: ('A' for Active; 'I' for Inactive)
REMARK    1  A    between atoms: C2_2  and  C6_6 
REMARK    2  A    between atoms: C3_3  and  O7_7 
ROOT
HETATM    1  C1  UNL     1     -34.635   5.925   6.069  1.00 20.00     0.045 A 
HETATM    2  C2  UNL     1     -33.652   6.300   4.992  1.00 20.00     0.022 A 
HETATM    3  C3  UNL     1     -34.625   5.168   4.766  1.00 20.00     0.058 A 
HETATM    4  C4  UNL     1     -34.133   3.760   4.727  1.00 20.00     0.046 C 
ENDROOT
BRANCH   3   5
HETATM    5  O7  UNL     1     -35.735   5.417   3.887  1.00 20.00    -0.390 OA
HETATM    6  H19 UNL     1     -36.525   5.159   4.381  1.00 20.00     0.210 HD
ENDBRANCH   3   5
BRANCH   2   7
HETATM    7  C6  UNL     1     -33.788   7.600   4.275  1.00 20.00     0.003 C 
HETATM    8  C5  UNL     1     -33.125   7.598   2.921  1.00 20.00     0.005 C 
ENDBRANCH   2   7
TORSDOF 2
