REMARK  3 active torsions:
REMARK  status: ('A' for Active; 'I' for Inactive)
REMARK    1  A    between atoms: C1_1  and  C6_6 
REMARK    2  A    between atoms: C2_2  and  C7_7 
REMARK    3  A    between atoms: C3_3  and  C7_7 
ROOT
HETATM    1  C1  UNL     1     -33.069   8.293   2.690  1.00 20.00    -0.026 C 
HETATM    2  C2  UNL     1     -32.832   7.200   3.431  1.00 20.00    -0.020 C 
ENDROOT
BRANCH   2   3
HETATM    3  C7  UNL     1     -33.894   6.442   4.164  1.00 20.00     0.140 C 
BRANCH   3   4
HETATM    4  C3  UNL     1     -33.892   5.009   3.643  1.00 20.00     0.176 C 
HETATM    5  O8  UNL     1     -34.712   4.231   4.207  1.00 20.00    -0.648 OA
HETATM    6  O9  UNL     1     -33.060   4.773   2.722  1.00 20.00    -0.648 OA
ENDBRANCH   3   4
ENDBRANCH   2   3
BRANCH   1   7
HETATM    7  C6  UNL     1     -32.054   9.074   1.961  1.00 20.00     0.008 A 
HETATM    8  C4  UNL     1     -32.125   9.115   0.468  1.00 20.00     0.009 A 
HETATM    9  C5  UNL     1     -32.484  10.329   1.271  1.00 20.00     0.009 A 
ENDBRANCH   1   7
TORSDOF 3
