REMARK  3 active torsions:
REMARK  status: ('A' for Active; 'I' for Inactive)
REMARK    1  A    between atoms: C4_4  and  C5_5 
REMARK    2  A    between atoms: C5_5  and  C6_6 
REMARK    3  A    between atoms: C6_6  and  N8_8 
ROOT
HETATM    1  C1  UNL     1     -33.576   6.254   3.725  1.00 20.00     0.177 C 
HETATM    2  N7  UNL     1     -33.987   5.184   3.549  1.00 20.00    -0.172 NA
HETATM    3  N8  UNL     1     -33.063   7.509   3.917  1.00 20.00    -0.329 N 
HETATM    4  H18 UNL     1     -33.418   8.039   4.746  1.00 20.00     0.171 HD
ENDROOT
BRANCH   3   5
HETATM    5  C6  UNL     1     -31.796   7.968   3.419  1.00 20.00     0.132 C 
BRANCH   5   6
HETATM    6  C5  UNL     1     -31.718   7.919   1.898  1.00 20.00     0.025 C 
BRANCH   6   7
HETATM    7  C4  UNL     1     -32.762   8.800   1.227  1.00 20.00    -0.013 A 
HETATM    8  C2  UNL     1     -32.452  10.237   0.911  1.00 20.00     0.005 A 
HETATM    9  C3  UNL     1     -32.582   9.234  -0.201  1.00 20.00     0.005 A 
ENDBRANCH   6   7
ENDBRANCH   5   6
ENDBRANCH   3   5
TORSDOF 3
