REMARK  1 active torsions:
REMARK  status: ('A' for Active; 'I' for Inactive)
REMARK    1  A    between atoms: C1_1  and  C7_7 
ROOT
HETATM    1  C2  UNL     1     -32.672   7.445   5.137  1.00 20.00     0.002 C 
HETATM    2  C3  UNL     1     -31.844   8.286   4.172  1.00 20.00     0.010 C 
HETATM    3  C4  UNL     1     -32.940   6.051   4.569  1.00 20.00     0.009 C 
HETATM    4  C5  UNL     1     -33.422   9.499   2.493  1.00 20.00     0.026 A 
HETATM    5  C6  UNL     1     -32.795   6.985   2.213  1.00 20.00     0.019 C 
HETATM    6  C7  UNL     1     -32.039   9.483   1.894  1.00 20.00     0.096 A 
HETATM    7  C8  UNL     1     -32.493   8.349   2.807  1.00 20.00    -0.025 A 
HETATM    8  C9  UNL     1     -33.604   6.080   3.173  1.00 20.00    -0.047 C 
HETATM    9  C10 UNL     1     -33.625   4.647   2.605  1.00 20.00     0.015 C 
HETATM   10  C11 UNL     1     -35.063   6.565   3.278  1.00 20.00     0.015 C 
ENDROOT
BRANCH   6  11
HETATM   11  C1  UNL     1     -31.924   9.248   0.468  1.00 20.00     0.177 C 
HETATM   12  O12 UNL     1     -32.620  10.008  -0.261  1.00 20.00    -0.648 OA
HETATM   13  O13 UNL     1     -31.140   8.312   0.147  1.00 20.00    -0.648 OA
ENDBRANCH   6  11
TORSDOF 1
