REMARK  0 active torsions:
REMARK  status: ('A' for Active; 'I' for Inactive)
ROOT
HETATM    1  C1  UNL     1     -34.286   4.309   4.425  1.00 20.00     0.290 C 
HETATM    2  C2  UNL     1     -34.361   5.603   6.384  1.00 20.00     0.344 C 
HETATM    3  C3  UNL     1     -34.280   5.684   3.738  1.00 20.00     0.029 C 
HETATM    4  C4  UNL     1     -35.653   6.051   3.163  1.00 20.00     0.028 C 
HETATM    5  C5  UNL     1     -33.204   5.767   2.658  1.00 20.00     0.028 C 
HETATM    6  N6  UNL     1     -34.971   4.458   5.712  1.00 20.00     0.093 N 
HETATM    7  S7  UNL     1     -33.892   6.815   5.119  1.00 20.00    -0.128 SA
HETATM    8  H18 UNL     1     -35.954   4.667   5.540  1.00 20.00     0.316 HD
ENDROOT
TORSDOF 0
