REMARK  3 active torsions:
REMARK  status: ('A' for Active; 'I' for Inactive)
REMARK    1  A    between atoms: C1_1  and  C5_5 
REMARK    2  A    between atoms: C3_3  and  C5_5 
REMARK    3  A    between atoms: C4_4  and  C5_5 
ROOT
HETATM    1  C5  UNL     1     -33.796   7.139   3.077  1.00 20.00     0.085 C 
ENDROOT
BRANCH   1   2
HETATM    2  C1  UNL     1     -32.527   7.925   2.745  1.00 20.00     0.224 C 
HETATM    3  O6  UNL     1     -31.499   7.811   3.408  1.00 20.00    -0.279 OA
HETATM    4 CL7  UNL     1     -32.722   8.960   1.358  1.00 20.00    -0.043 Cl
ENDBRANCH   1   2
BRANCH   1   5
HETATM    5  C3  UNL     1     -33.795   5.805   2.309  1.00 20.00     0.010 C 
HETATM    6  C2  UNL     1     -32.596   4.930   2.650  1.00 20.00     0.006 C 
ENDBRANCH   1   5
BRANCH   1   7
HETATM    7  C4  UNL     1     -33.862   6.875   4.586  1.00 20.00     0.128 C 
HETATM    8 CL8  UNL     1     -35.326   5.956   5.024  1.00 20.00    -0.130 Cl
ENDBRANCH   1   7
TORSDOF 3
