REMARK  4 active torsions:
REMARK  status: ('A' for Active; 'I' for Inactive)
REMARK    1  A    between atoms: C2_2  and  C8_8 
REMARK    2  A    between atoms: C2_2  and  C9_9 
REMARK    3  A    between atoms: C3_3  and  C8_8 
REMARK    4  A    between atoms: C3_3  and  C10_10 
ROOT
HETATM    1  C3  UNL     1     -33.523   6.353   2.961  1.00 20.00     0.138 C 
HETATM    2  O11 UNL     1     -32.718   5.499   2.579  1.00 20.00    -0.297 OA
ENDROOT
BRANCH   1   3
HETATM    3  C8  UNL     1     -33.711   7.654   2.184  1.00 20.00     0.112 C 
BRANCH   3   4
HETATM    4  C2  UNL     1     -32.419   8.425   2.095  1.00 20.00    -0.083 C 
HETATM    5  C1  UNL     1     -31.513   8.376   3.086  1.00 20.00     0.014 C 
BRANCH   4   6
HETATM    6  C9  UNL     1     -32.180   9.261   0.859  1.00 20.00     0.029 C 
HETATM    7  C4  UNL     1     -32.706  10.683   0.996  1.00 20.00     0.010 C 
ENDBRANCH   4   6
ENDBRANCH   3   4
ENDBRANCH   1   3
BRANCH   1   8
HETATM    8  C10 UNL     1     -34.386   6.133   4.222  1.00 20.00     0.010 C 
HETATM    9  C5  UNL     1     -35.868   6.158   3.827  1.00 20.00     0.022 C 
HETATM   10  C6  UNL     1     -34.029   4.797   4.887  1.00 20.00     0.022 C 
HETATM   11  C7  UNL     1     -34.122   7.266   5.230  1.00 20.00     0.022 C 
ENDBRANCH   1   8
TORSDOF 4
