REMARK  2 active torsions:
REMARK  status: ('A' for Active; 'I' for Inactive)
REMARK    1  A    between atoms: C1_1  and  C2_2 
REMARK    2  A    between atoms: C1_1  and  C3_3 
ROOT
HETATM    1  C1  UNL     1     -33.556   6.024   3.535  1.00 20.00     0.299 C 
HETATM    2  F4  UNL     1     -33.553   6.405   2.225  1.00 20.00    -0.238 F 
ENDROOT
BRANCH   1   3
HETATM    3  C2  UNL     1     -34.811   5.218   3.783  1.00 20.00     0.392 C 
HETATM    4  F5  UNL     1     -34.888   4.864   5.089  1.00 20.00    -0.211 F 
HETATM    5  F6  UNL     1     -35.898   5.984   3.519  1.00 20.00    -0.211 F 
ENDBRANCH   1   3
BRANCH   1   6
HETATM    6  C3  UNL     1     -33.482   7.273   4.384  1.00 20.00     0.392 C 
HETATM    7  F7  UNL     1     -32.321   7.930   4.149  1.00 20.00    -0.211 F 
HETATM    8  F8  UNL     1     -33.478   6.926   5.695  1.00 20.00    -0.211 F 
ENDBRANCH   1   6
TORSDOF 2
