REMARK  0 active torsions:
REMARK  status: ('A' for Active; 'I' for Inactive)
ROOT
HETATM    1  C1  UNL     1     -34.093   6.244   5.603  1.00 20.00    -0.021 C 
HETATM    2  C2  UNL     1     -34.185   4.907   5.702  1.00 20.00    -0.025 C 
HETATM    3  C3  UNL     1     -33.409   6.070   3.255  1.00 20.00    -0.076 C 
HETATM    4  C4  UNL     1     -32.582   6.781   2.485  1.00 20.00    -0.027 C 
HETATM    5  C5  UNL     1     -33.493   4.550   3.332  1.00 20.00     0.043 C 
HETATM    6  C6  UNL     1     -35.559   5.553   3.957  1.00 20.00     0.022 C 
HETATM    7  C7  UNL     1     -34.477   6.614   4.189  1.00 20.00     0.037 C 
HETATM    8  C8  UNL     1     -34.644   4.388   4.354  1.00 20.00     0.013 C 
HETATM    9  C9  UNL     1     -32.545   8.273   2.452  1.00 20.00     0.036 C 
ENDROOT
TORSDOF 0
