REMARK  3 active torsions:
REMARK  status: ('A' for Active; 'I' for Inactive)
REMARK    1  A    between atoms: C2_2  and  C6_6 
REMARK    2  A    between atoms: C6_6  and  C7_7 
REMARK    3  A    between atoms: C7_7  and  C8_8 
ROOT
HETATM    1  C6  UNL     1     -33.051   7.870   1.812  1.00 20.00     0.027 C 
ENDROOT
BRANCH   1   2
HETATM    2  C2  UNL     1     -31.878   8.649   1.292  1.00 20.00    -0.031 C 
HETATM    3  C1  UNL     1     -31.973   9.602   0.354  1.00 20.00    -0.035 C 
HETATM    4  C3  UNL     1     -33.256  10.009  -0.291  1.00 20.00     0.035 C 
ENDBRANCH   1   2
BRANCH   1   5
HETATM    5  C7  UNL     1     -32.926   7.518   3.300  1.00 20.00     0.007 C 
BRANCH   5   6
HETATM    6  C8  UNL     1     -34.073   6.664   3.878  1.00 20.00    -0.022 C 
HETATM    7  C4  UNL     1     -34.152   5.332   3.126  1.00 20.00     0.009 C 
HETATM    8  C5  UNL     1     -33.906   6.401   5.375  1.00 20.00     0.009 C 
ENDBRANCH   5   6
ENDBRANCH   1   5
TORSDOF 3
