REMARK  3 active torsions:
REMARK  status: ('A' for Active; 'I' for Inactive)
REMARK    1  A    between atoms: C5_5  and  C7_7 
REMARK    2  A    between atoms: C5_5  and  N8_8 
REMARK    3  A    between atoms: C6_6  and  C7_7 
ROOT
HETATM    1  C1  UNL     1     -32.451   8.830   1.729  1.00 20.00     0.157 C 
HETATM    2  N8  UNL     1     -31.957   7.803   2.011  1.00 20.00    -0.275 NA
HETATM    3  S9  UNL     1     -33.111  10.221   1.318  1.00 20.00    -0.055 SA
ENDROOT
BRANCH   2   4
HETATM    4  C5  UNL     1     -32.214   7.352   3.381  1.00 20.00     0.155 C 
BRANCH   4   5
HETATM    5  C7  UNL     1     -33.504   6.515   3.449  1.00 20.00     0.005 C 
HETATM    6  C4  UNL     1     -33.366   5.280   2.545  1.00 20.00     0.012 C 
BRANCH   5   7
HETATM    7  C6  UNL     1     -33.917   6.134   4.902  1.00 20.00    -0.017 C 
HETATM    8  C2  UNL     1     -34.116   7.372   5.786  1.00 20.00     0.010 C 
HETATM    9  C3  UNL     1     -35.203   5.298   4.937  1.00 20.00     0.010 C 
ENDBRANCH   5   7
ENDBRANCH   4   5
ENDBRANCH   2   4
TORSDOF 3
