REMARK  3 active torsions:
REMARK  status: ('A' for Active; 'I' for Inactive)
REMARK    1  A    between atoms: C1_1  and  C8_8 
REMARK       I    between atoms: C1_1  and  N10_10 
REMARK    2  A    between atoms: C4_4  and  C9_9 
REMARK    3  A    between atoms: C9_9  and  N10_10 
ROOT
HETATM    1  C1  UNL     1     -33.565   6.929   4.743  1.00 20.00     0.219 C 
HETATM    2  C7  UNL     1     -32.062   8.899   5.103  1.00 20.00     0.152 C 
HETATM    3  N10 UNL     1     -32.552   7.786   4.299  1.00 20.00    -0.356 N 
HETATM    4  O11 UNL     1     -34.121   7.045   5.838  1.00 20.00    -0.273 OA
ENDROOT
BRANCH   3   5
HETATM    5  C9  UNL     1     -31.907   7.629   2.998  1.00 20.00     0.130 C 
BRANCH   5   6
HETATM    6  C4  UNL     1     -32.625   8.404   1.945  1.00 20.00     0.008 A 
HETATM    7  C2  UNL     1     -32.403   9.888   1.815  1.00 20.00     0.011 A 
HETATM    8  C3  UNL     1     -31.869   8.952   0.763  1.00 20.00    -0.013 A 
HETATM    9  C5  UNL     1     -32.481   8.924  -0.594  1.00 20.00     0.010 C 
ENDBRANCH   5   6
ENDBRANCH   3   5
BRANCH   1  10
HETATM   10  C8  UNL     1     -33.965   5.812   3.789  1.00 20.00     0.098 C 
HETATM   11  C6  UNL     1     -35.060   4.922   4.355  1.00 20.00     0.014 C 
ENDBRANCH   1  10
TORSDOF 3
