REMARK  1 active torsions:
REMARK  status: ('A' for Active; 'I' for Inactive)
REMARK       I    between atoms: C1_1  and  N8_8 
REMARK    1  A    between atoms: C5_5  and  N8_8 
ROOT
HETATM    1  C2  UNL     1     -31.643   7.926   2.249  1.00 20.00     0.036 C 
HETATM    2  C3  UNL     1     -31.290   9.259   1.607  1.00 20.00     0.076 C 
HETATM    3  C4  UNL     1     -33.913   8.701   1.807  1.00 20.00     0.099 C 
HETATM    4  C5  UNL     1     -33.015   8.110   2.885  1.00 20.00     0.096 C 
HETATM    5  S10 UNL     1     -32.852   9.882   0.923  1.00 20.00    -0.167 SA
ENDROOT
BRANCH   4   6
HETATM    6  N8  UNL     1     -33.538   6.874   3.401  1.00 20.00    -0.351 N 
HETATM    7  C1  UNL     1     -33.855   6.709   4.760  1.00 20.00     0.215 C 
HETATM    8  C6  UNL     1     -34.397   5.367   5.186  1.00 20.00     0.117 C 
HETATM    9  O9  UNL     1     -33.713   7.597   5.605  1.00 20.00    -0.274 OA
HETATM   10  C7  UNL     1     -33.721   5.794   2.423  1.00 20.00     0.153 C 
ENDBRANCH   4   6
TORSDOF 1
