REMARK  1 active torsions:
REMARK  status: ('A' for Active; 'I' for Inactive)
REMARK    1  A    between atoms: C8_8  and  C9_9 
ROOT
HETATM    1  C1  UNL     1     -35.842   5.046   4.479  1.00 20.00     0.085 C 
HETATM    2  C2  UNL     1     -33.258   7.611   5.704  1.00 20.00     0.003 C 
HETATM    3  C3  UNL     1     -32.822   8.109   4.330  1.00 20.00     0.005 C 
HETATM    4  C6  UNL     1     -34.563   6.817   5.628  1.00 20.00     0.041 C 
HETATM    5  C7  UNL     1     -34.023   6.168   3.240  1.00 20.00     0.046 C 
HETATM    6  C9  UNL     1     -32.708   6.965   3.314  1.00 20.00    -0.008 C 
HETATM    7  C10 UNL     1     -34.513   5.668   4.609  1.00 20.00     0.125 C 
HETATM    8  N11 UNL     1     -36.888   4.555   4.376  1.00 20.00    -0.195 NA
HETATM    9 CL12 UNL     1     -33.422   4.368   5.209  1.00 20.00    -0.103 Cl
ENDROOT
BRANCH   6  10
HETATM   10  C8  UNL     1     -32.327   7.495   1.954  1.00 20.00    -0.010 A 
HETATM   11  C4  UNL     1     -33.158   8.562   1.297  1.00 20.00     0.005 A 
HETATM   12  C5  UNL     1     -31.783   8.889   1.811  1.00 20.00     0.005 A 
ENDBRANCH   6  10
TORSDOF 1
