REMARK  1 active torsions:
REMARK  status: ('A' for Active; 'I' for Inactive)
REMARK    1  A    between atoms: C8_8  and  C9_9 
ROOT
HETATM    1  C1  UNL     1     -32.590   7.921   4.972  1.00 20.00     0.004 C 
HETATM    2  C2  UNL     1     -31.493   8.032   3.907  1.00 20.00     0.005 C 
HETATM    3  C5  UNL     1     -33.204   6.524   5.001  1.00 20.00     0.040 C 
HETATM    4  C6  UNL     1     -32.624   6.212   2.543  1.00 20.00     0.045 C 
HETATM    5  C7  UNL     1     -35.132   6.137   3.281  1.00 20.00     0.207 A 
HETATM    6  C9  UNL     1     -31.963   7.600   2.505  1.00 20.00    -0.008 C 
HETATM    7  C10 UNL     1     -33.661   6.133   3.627  1.00 20.00     0.083 A 
HETATM    8  O11 UNL     1     -34.435   4.925   3.599  1.00 20.00    -0.375 OA
ENDROOT
BRANCH   6   9
HETATM    9  C8  UNL     1     -32.868   8.632   1.874  1.00 20.00    -0.010 A 
HETATM   10  C3  UNL     1     -32.281   9.800   1.132  1.00 20.00     0.005 A 
HETATM   11  C4  UNL     1     -32.995   8.713   0.378  1.00 20.00     0.005 A 
ENDBRANCH   6   9
TORSDOF 1
