REMARK  1 active torsions:
REMARK  status: ('A' for Active; 'I' for Inactive)
REMARK    1  A    between atoms: C8_8  and  C9_9 
ROOT
HETATM    1  C1  UNL     1     -31.890   8.026   4.194  1.00 20.00     0.004 C 
HETATM    2  C2  UNL     1     -31.892   8.952   2.976  1.00 20.00     0.005 C 
HETATM    3  C5  UNL     1     -33.241   7.337   4.377  1.00 20.00     0.040 C 
HETATM    4  C6  UNL     1     -33.662   7.514   1.875  1.00 20.00     0.045 C 
HETATM    5  C7  UNL     1     -33.533   5.151   2.979  1.00 20.00     0.207 A 
HETATM    6  C9  UNL     1     -32.300   8.205   1.692  1.00 20.00    -0.008 C 
HETATM    7  C10 UNL     1     -33.642   6.653   3.104  1.00 20.00     0.083 A 
HETATM    8  O11 UNL     1     -34.787   5.800   3.236  1.00 20.00    -0.375 OA
ENDROOT
BRANCH   6   9
HETATM    9  C8  UNL     1     -32.326   9.139   0.512  1.00 20.00    -0.010 A 
HETATM   10  C3  UNL     1     -33.472   9.100  -0.461  1.00 20.00     0.005 A 
HETATM   11  C4  UNL     1     -33.312  10.273   0.465  1.00 20.00     0.005 A 
ENDBRANCH   6   9
TORSDOF 1
