REMARK  1 active torsions:
REMARK  status: ('A' for Active; 'I' for Inactive)
REMARK    1  A    between atoms: C9_9  and  C10_10 
ROOT
HETATM    1  C1  UNL     1     -36.190   6.003   3.625  1.00 20.00     0.064 C 
HETATM    2  C2  UNL     1     -33.368   4.689   3.275  1.00 20.00     0.002 C 
HETATM    3  C3  UNL     1     -34.157   4.935   4.561  1.00 20.00     0.019 C 
HETATM    4  C4  UNL     1     -32.540   5.907   2.879  1.00 20.00     0.005 C 
HETATM    5  C7  UNL     1     -34.197   7.417   4.053  1.00 20.00     0.024 C 
HETATM    6  C8  UNL     1     -35.019   6.201   4.501  1.00 20.00     0.093 C 
HETATM    7  C10 UNL     1     -33.405   7.169   2.756  1.00 20.00    -0.009 C 
HETATM    8  N11 UNL     1     -37.111   5.847   2.937  1.00 20.00    -0.197 NA
ENDROOT
BRANCH   7   9
HETATM    9  C9  UNL     1     -32.559   8.366   2.410  1.00 20.00    -0.010 A 
HETATM   10  C5  UNL     1     -32.208   8.657   0.977  1.00 20.00     0.005 A 
HETATM   11  C6  UNL     1     -33.171   9.549   1.710  1.00 20.00     0.005 A 
ENDBRANCH   7   9
TORSDOF 1
