REMARK  1 active torsions:
REMARK  status: ('A' for Active; 'I' for Inactive)
REMARK    1  A    between atoms: C10_10  and  C11_11 
ROOT
HETATM    1  C1  UNL     1     -33.504   9.299   0.743  1.00 20.00     0.088 C 
HETATM    2  C2  UNL     1     -32.290   8.291   2.563  1.00 20.00    -0.070 C 
HETATM    3  C3  UNL     1     -32.372   9.211   1.590  1.00 20.00     0.096 C 
HETATM    4  C4  UNL     1     -31.095   8.186   3.469  1.00 20.00     0.035 C 
HETATM    5  C5  UNL     1     -33.419   7.326   2.830  1.00 20.00     0.039 C 
HETATM    6  C6  UNL     1     -31.506   8.270   4.940  1.00 20.00     0.005 C 
HETATM    7  C7  UNL     1     -32.806   7.528   5.275  1.00 20.00     0.005 C 
HETATM    8  C10 UNL     1     -33.250   6.570   4.161  1.00 20.00    -0.007 C 
HETATM    9  N12 UNL     1     -34.428   9.377   0.045  1.00 20.00    -0.192 NA
ENDROOT
BRANCH   8  10
HETATM   10  C11 UNL     1     -34.542   5.848   4.540  1.00 20.00    -0.010 A 
HETATM   11  C8  UNL     1     -34.824   4.492   3.978  1.00 20.00     0.005 A 
HETATM   12  C9  UNL     1     -34.485   4.651   5.433  1.00 20.00     0.005 A 
ENDBRANCH   8  10
TORSDOF 1
