REMARK  1 active torsions:
REMARK  status: ('A' for Active; 'I' for Inactive)
REMARK    1  A    between atoms: C1_1  and  C2_2 
ROOT
HETATM    1  C1  UNL     1     -34.282   6.379   3.715  1.00 20.00     0.401 C 
HETATM    2  F3  UNL     1     -33.739   5.490   2.847  1.00 20.00    -0.210 F 
HETATM    3  F4  UNL     1     -33.758   7.593   3.409  1.00 20.00    -0.210 F 
ENDROOT
BRANCH   1   4
HETATM    4  C2  UNL     1     -33.906   6.017   5.131  1.00 20.00     0.330 C 
HETATM    5  F5  UNL     1     -34.437   6.945   5.972  1.00 20.00    -0.227 F 
HETATM    6 CL6  UNL     1     -34.529   4.417   5.567  1.00 20.00    -0.084 Cl
ENDBRANCH   1   4
TORSDOF 1
