REMARK  1 active torsions:
REMARK  status: ('A' for Active; 'I' for Inactive)
REMARK    1  A    between atoms: C1_1  and  C2_2 
ROOT
HETATM    1  C1  UNL     1     -33.736   6.476   3.625  1.00 20.00     0.385 C 
HETATM    2  F3  UNL     1     -33.610   7.803   3.376  1.00 20.00    -0.212 F 
HETATM    3  F4  UNL     1     -34.378   5.936   2.558  1.00 20.00    -0.212 F 
ENDROOT
BRANCH   1   4
HETATM    4  C2  UNL     1     -34.546   6.239   4.885  1.00 20.00     0.242 C 
HETATM    5 CL5  UNL     1     -34.714   4.497   5.196  1.00 20.00    -0.102 Cl
HETATM    6 CL6  UNL     1     -33.778   7.029   6.285  1.00 20.00    -0.102 Cl
ENDBRANCH   1   4
TORSDOF 1
