REMARK  0 active torsions:
REMARK  status: ('A' for Active; 'I' for Inactive)
ROOT
HETATM    1  C1  UNL     1     -34.320   5.931   4.650  1.00 20.00     0.127 C 
HETATM    2  C2  UNL     1     -33.927   7.339   5.037  1.00 20.00     0.079 C 
HETATM    3  C3  UNL     1     -34.308   5.611   3.172  1.00 20.00     0.079 C 
HETATM    4  C4  UNL     1     -32.606   7.722   4.383  1.00 20.00     0.017 C 
HETATM    5  C5  UNL     1     -32.989   6.037   2.539  1.00 20.00     0.017 C 
HETATM    6  C6  UNL     1     -32.377   8.602   1.030  1.00 20.00     0.002 C 
HETATM    7  C7  UNL     1     -31.428   8.056   2.112  1.00 20.00     0.009 C 
HETATM    8  C8  UNL     1     -33.505   8.572   2.078  1.00 20.00     0.009 C 
HETATM    9  C9  UNL     1     -32.678   7.507   2.866  1.00 20.00    -0.040 C 
HETATM   10  O10 UNL     1     -34.727   5.122   5.482  1.00 20.00    -0.298 OA
ENDROOT
TORSDOF 0
