REMARK  0 active torsions:
REMARK  status: ('A' for Active; 'I' for Inactive)
ROOT
HETATM    1  C1  UNL     1     -34.153   4.902   3.704  1.00 20.00     0.005 C 
HETATM    2  C2  UNL     1     -34.982   5.505   4.835  1.00 20.00     0.026 C 
HETATM    3  C3  UNL     1     -33.947   5.919   2.584  1.00 20.00     0.042 C 
HETATM    4  C4  UNL     1     -31.796   7.170   3.408  1.00 20.00     0.309 C 
HETATM    5  C5  UNL     1     -32.973   8.251   2.072  1.00 20.00     0.309 C 
HETATM    6  C6  UNL     1     -34.359   6.804   5.327  1.00 20.00     0.169 C 
HETATM    7  C7  UNL     1     -33.327   7.195   3.151  1.00 20.00     0.113 C 
HETATM    8  N8  UNL     1     -31.711   8.507   2.790  1.00 20.00     0.089 N 
HETATM    9  O9  UNL     1     -34.152   7.699   4.235  1.00 20.00    -0.377 OA
HETATM   10  H22 UNL     1     -31.787   9.264   3.470  1.00 20.00     0.316 HD
ENDROOT
TORSDOF 0
