REMARK  1 active torsions:
REMARK  status: ('A' for Active; 'I' for Inactive)
REMARK    1  A    between atoms: C7_7  and  C10_10 
ROOT
HETATM    1  C1  UNL     1     -34.283   5.189   4.615  1.00 20.00     0.127 C 
HETATM    2  C2  UNL     1     -34.404   6.396   5.517  1.00 20.00     0.078 C 
HETATM    3  C3  UNL     1     -34.446   5.391   3.125  1.00 20.00     0.079 C 
HETATM    4  C4  UNL     1     -33.455   7.533   5.152  1.00 20.00     0.008 C 
HETATM    5  C5  UNL     1     -33.219   6.072   2.541  1.00 20.00     0.012 C 
HETATM    6  C6  UNL     1     -33.845   8.235   3.851  1.00 20.00     0.005 C 
HETATM    7  C7  UNL     1     -33.275   7.609   2.565  1.00 20.00    -0.011 C 
HETATM    8  O11 UNL     1     -34.099   4.064   5.085  1.00 20.00    -0.298 OA
ENDROOT
BRANCH   7   9
HETATM    9  C10 UNL     1     -31.883   8.173   2.258  1.00 20.00    -0.019 C 
HETATM   10  C8  UNL     1     -31.990   9.609   1.758  1.00 20.00     0.010 C 
HETATM   11  C9  UNL     1     -30.994   8.095   3.494  1.00 20.00     0.010 C 
ENDBRANCH   7   9
TORSDOF 1
