REMARK  1 active torsions:
REMARK  status: ('A' for Active; 'I' for Inactive)
REMARK    1  A    between atoms: C6_6  and  O8_8 
ROOT
HETATM    1  C1  UNL     1     -33.358   7.104   2.402  1.00 20.00     0.064 C 
HETATM    2  C2  UNL     1     -33.376   4.840   3.417  1.00 20.00     0.022 C 
HETATM    3  C3  UNL     1     -34.185   4.438   4.648  1.00 20.00     0.033 C 
HETATM    4  C4  UNL     1     -35.330   6.300   3.690  1.00 20.00     0.051 C 
HETATM    5  C5  UNL     1     -34.194   5.937   2.719  1.00 20.00     0.095 C 
HETATM    6  C6  UNL     1     -34.914   5.714   5.035  1.00 20.00     0.119 C 
HETATM    7  N7  UNL     1     -32.699   8.026   2.153  1.00 20.00    -0.197 NA
ENDROOT
BRANCH   6   8
HETATM    8  O8  UNL     1     -34.015   6.592   5.701  1.00 20.00    -0.396 OA
HETATM    9  H17 UNL     1     -34.520   7.389   5.929  1.00 20.00     0.210 HD
ENDBRANCH   6   8
TORSDOF 1
