REMARK  0 active torsions:
REMARK  status: ('A' for Active; 'I' for Inactive)
ROOT
HETATM    1  C1  UNL     1     -32.711   6.783   1.892  1.00 20.00     0.013 C 
HETATM    2  C2  UNL     1     -33.950   5.861   2.069  1.00 20.00     0.080 C 
HETATM    3  C3  UNL     1     -31.570   8.259   3.812  1.00 20.00     0.274 C 
HETATM    4  C4  UNL     1     -33.101   7.368   5.452  1.00 20.00     0.280 C 
HETATM    5  C5  UNL     1     -32.258   7.015   3.318  1.00 20.00     0.025 C 
HETATM    6  C6  UNL     1     -33.578   7.113   4.049  1.00 20.00     0.092 C 
HETATM    7  C7  UNL     1     -34.259   5.859   3.577  1.00 20.00     0.249 C 
HETATM    8  N8  UNL     1     -31.987   8.333   5.239  1.00 20.00     0.084 N 
HETATM    9  F9  UNL     1     -35.577   5.857   3.830  1.00 20.00    -0.206 F 
HETATM   10  F10 UNL     1     -33.718   4.764   4.157  1.00 20.00    -0.206 F 
HETATM   11  H21 UNL     1     -31.206   8.072   5.840  1.00 20.00     0.315 HD
ENDROOT
TORSDOF 0
