REMARK  2 active torsions:
REMARK  status: ('A' for Active; 'I' for Inactive)
REMARK    1  A    between atoms: C2_2  and  C9_9 
REMARK    2  A    between atoms: C6_6  and  C9_9 
ROOT
HETATM    1  C3  UNL     1     -33.618   4.676   2.884  1.00 20.00     0.002 C 
HETATM    2  C4  UNL     1     -32.763   5.880   2.476  1.00 20.00     0.006 C 
HETATM    3  C5  UNL     1     -34.912   5.248   3.465  1.00 20.00     0.020 C 
HETATM    4  C6  UNL     1     -33.630   7.112   2.752  1.00 20.00     0.008 C 
HETATM    5  C7  UNL     1     -34.556   6.670   3.891  1.00 20.00     0.086 C 
HETATM    6 CL10 UNL     1     -33.756   6.640   5.491  1.00 20.00    -0.125 Cl
ENDROOT
BRANCH   4   7
HETATM    7  C9  UNL     1     -32.841   8.361   2.998  1.00 20.00     0.039 C 
BRANCH   7   8
HETATM    8  C2  UNL     1     -32.340   8.997   1.724  1.00 20.00    -0.093 C 
HETATM    9  C1  UNL     1     -31.498   8.350   0.902  1.00 20.00     0.014 C 
HETATM   10  C8  UNL     1     -32.796  10.397   1.433  1.00 20.00     0.042 C 
ENDBRANCH   7   8
ENDBRANCH   4   7
TORSDOF 2
