REMARK  2 active torsions:
REMARK  status: ('A' for Active; 'I' for Inactive)
REMARK    1  A    between atoms: C5_5  and  C6_6 
REMARK    2  A    between atoms: C6_6  and  C7_7 
ROOT
HETATM    1  C1  UNL     1     -32.345  10.661   1.568  1.00 20.00     0.012 C 
HETATM    2  C2  UNL     1     -32.631   9.503   1.703  1.00 20.00    -0.117 C 
HETATM    3  C5  UNL     1     -32.982   8.082   1.861  1.00 20.00     0.098 C 
ENDROOT
BRANCH   3   4
HETATM    4  C6  UNL     1     -33.447   7.752   3.297  1.00 20.00     0.011 C 
HETATM    5  C3  UNL     1     -32.247   7.666   4.253  1.00 20.00     0.012 C 
BRANCH   4   6
HETATM    6  C7  UNL     1     -34.339   6.482   3.315  1.00 20.00     0.082 C 
HETATM    7  C4  UNL     1     -34.946   6.192   4.685  1.00 20.00     0.027 C 
HETATM    8 CL8  UNL     1     -33.467   5.023   2.748  1.00 20.00    -0.125 Cl
ENDBRANCH   4   6
ENDBRANCH   3   4
TORSDOF 2
