REMARK  2 active torsions:
REMARK  status: ('A' for Active; 'I' for Inactive)
REMARK    1  A    between atoms: C2_2  and  C7_7 
REMARK    2  A    between atoms: C7_7  and  C8_8 
ROOT
HETATM    1  C7  UNL     1     -33.325   8.058   2.009  1.00 20.00     0.035 C 
ENDROOT
BRANCH   1   2
HETATM    2  C2  UNL     1     -31.974   8.571   1.589  1.00 20.00    -0.030 C 
HETATM    3  C1  UNL     1     -31.791   9.487   0.627  1.00 20.00    -0.035 C 
HETATM    4  C3  UNL     1     -32.903  10.113  -0.147  1.00 20.00     0.035 C 
ENDBRANCH   1   2
BRANCH   1   5
HETATM    5  C8  UNL     1     -33.319   7.061   3.200  1.00 20.00    -0.048 C 
HETATM    6  C4  UNL     1     -32.570   5.766   2.842  1.00 20.00     0.014 C 
HETATM    7  C5  UNL     1     -34.754   6.714   3.634  1.00 20.00     0.014 C 
HETATM    8  C6  UNL     1     -32.597   7.730   4.386  1.00 20.00     0.014 C 
ENDBRANCH   1   5
TORSDOF 2
