REMARK  3 active torsions:
REMARK  status: ('A' for Active; 'I' for Inactive)
REMARK    1  A    between atoms: C2_2  and  C6_6 
REMARK    2  A    between atoms: C6_6  and  C7_7 
REMARK    3  A    between atoms: C7_7  and  C8_8 
ROOT
HETATM    1  C4  UNL     1     -31.371   8.330   3.296  1.00 20.00     0.011 C 
HETATM    2  C7  UNL     1     -32.743   8.112   2.640  1.00 20.00    -0.001 C 
ENDROOT
BRANCH   2   3
HETATM    3  C6  UNL     1     -33.064   6.607   2.467  1.00 20.00     0.038 C 
BRANCH   3   4
HETATM    4  C2  UNL     1     -33.477   5.899   3.740  1.00 20.00    -0.093 C 
HETATM    5  C1  UNL     1     -33.504   6.538   4.921  1.00 20.00     0.014 C 
HETATM    6  C3  UNL     1     -33.896   4.462   3.621  1.00 20.00     0.042 C 
ENDBRANCH   3   4
ENDBRANCH   2   3
BRANCH   2   7
HETATM    7  C8  UNL     1     -32.883   8.931   1.335  1.00 20.00     0.057 C 
HETATM    8  C5  UNL     1     -33.195  10.405   1.562  1.00 20.00     0.022 C 
HETATM    9 BR9  UNL     1     -31.288   8.813   0.200  1.00 20.00    -0.091 Br
ENDBRANCH   2   7
TORSDOF 3
