REMARK  3 active torsions:
REMARK  status: ('A' for Active; 'I' for Inactive)
REMARK    1  A    between atoms: C1_1  and  C5_5 
REMARK    2  A    between atoms: C1_1  and  C8_8 
REMARK    3  A    between atoms: C8_8  and  C9_9 
ROOT
HETATM    1  C1  UNL     1     -32.435   7.851   2.973  1.00 20.00     0.133 C 
HETATM    2  O10 UNL     1     -31.316   7.954   3.474  1.00 20.00    -0.297 OA
ENDROOT
BRANCH   1   3
HETATM    3  C5  UNL     1     -33.610   7.456   3.798  1.00 20.00     0.081 C 
HETATM    4  C2  UNL     1     -34.221   6.129   3.397  1.00 20.00     0.040 C 
HETATM    5  C3  UNL     1     -34.988   5.750   4.644  1.00 20.00     0.168 C 
HETATM    6  O11 UNL     1     -34.231   6.250   5.753  1.00 20.00    -0.390 OA
HETATM    7  C4  UNL     1     -33.281   7.209   5.263  1.00 20.00     0.179 C 
ENDBRANCH   1   3
BRANCH   1   8
HETATM    8  C8  UNL     1     -32.700   8.069   1.491  1.00 20.00     0.082 C 
BRANCH   8   9
HETATM    9  C9  UNL     1     -32.403   9.498   1.012  1.00 20.00    -0.016 C 
HETATM   10  C6  UNL     1     -33.260  10.526   1.754  1.00 20.00     0.010 C 
HETATM   11  C7  UNL     1     -32.654   9.607  -0.494  1.00 20.00     0.010 C 
ENDBRANCH   8   9
ENDBRANCH   1   8
TORSDOF 3
