REMARK  0 active torsions:
REMARK  status: ('A' for Active; 'I' for Inactive)
ROOT
HETATM    1  C1  UNL     1     -32.352   8.097   5.771  1.00 20.00     0.002 A 
HETATM    2  C2  UNL     1     -33.394   7.169   5.830  1.00 20.00     0.009 A 
HETATM    3  C3  UNL     1     -31.800   8.476   4.537  1.00 20.00     0.019 A 
HETATM    4  C4  UNL     1     -33.871   6.640   4.642  1.00 20.00    -0.032 A 
HETATM    5  C5  UNL     1     -33.324   7.025   3.410  1.00 20.00    -0.033 A 
HETATM    6  C6  UNL     1     -32.283   7.935   3.344  1.00 20.00     0.017 A 
HETATM    7  C7  UNL     1     -33.981   6.294   2.282  1.00 20.00     0.042 C 
HETATM    8  C8  UNL     1     -35.276   5.813   2.958  1.00 20.00     0.030 C 
HETATM    9  C9  UNL     1     -34.952   5.621   4.451  1.00 20.00     0.116 C 
HETATM   10 CL10 UNL     1     -34.321   3.991   4.772  1.00 20.00    -0.120 Cl
HETATM   11 BR11 UNL     1     -31.499   8.450   1.704  1.00 20.00    -0.051 Br
ENDROOT
TORSDOF 0
