REMARK  2 active torsions:
REMARK  status: ('A' for Active; 'I' for Inactive)
REMARK    1  A    between atoms: C5_5  and  N8_8 
REMARK    2  A    between atoms: C6_6  and  N8_8 
ROOT
HETATM    1  N8  UNL     1     -33.594   7.796   3.169  1.00 20.00     0.097 N 
HETATM    2  H22 UNL     1     -33.397   8.700   3.592  1.00 20.00     0.317 HD
ENDROOT
BRANCH   1   3
HETATM    3  C5  UNL     1     -32.902   7.720   1.879  1.00 20.00     0.225 A 
HETATM    4  C1  UNL     1     -31.509   8.277   1.738  1.00 20.00     0.042 A 
HETATM    5  C4  UNL     1     -32.658   8.950   1.039  1.00 20.00     0.016 A 
HETATM    6  C7  UNL     1     -33.105  10.305   1.470  1.00 20.00     0.012 C 
ENDBRANCH   1   3
BRANCH   1   7
HETATM    7  C6  UNL     1     -33.145   6.735   4.054  1.00 20.00     0.268 C 
HETATM    8  C2  UNL     1     -33.866   5.443   3.675  1.00 20.00     0.205 C 
HETATM    9  O9  UNL     1     -34.829   5.621   4.746  1.00 20.00    -0.387 OA
HETATM   10  C3  UNL     1     -34.045   6.713   5.289  1.00 20.00     0.205 C 
ENDBRANCH   1   7
TORSDOF 2
