REMARK  2 active torsions:
REMARK  status: ('A' for Active; 'I' for Inactive)
REMARK    1  A    between atoms: C5_5  and  N8_8 
REMARK    2  A    between atoms: C6_6  and  N8_8 
ROOT
HETATM    1  N8  UNL     1     -33.338   7.114   3.803  1.00 20.00     0.097 N 
HETATM    2  H22 UNL     1     -32.786   6.970   4.645  1.00 20.00     0.317 HD
ENDROOT
BRANCH   1   3
HETATM    3  C5  UNL     1     -34.400   6.104   3.758  1.00 20.00     0.225 A 
HETATM    4  C1  UNL     1     -34.120   4.683   4.173  1.00 20.00     0.042 A 
HETATM    5  C4  UNL     1     -35.032   5.541   5.007  1.00 20.00     0.016 A 
HETATM    6  C7  UNL     1     -34.617   5.965   6.374  1.00 20.00     0.012 C 
ENDBRANCH   1   3
BRANCH   1   7
HETATM    7  C6  UNL     1     -32.482   7.010   2.634  1.00 20.00     0.268 C 
HETATM    8  C2  UNL     1     -31.393   8.077   2.727  1.00 20.00     0.205 C 
HETATM    9  O9  UNL     1     -32.124   8.957   1.835  1.00 20.00    -0.387 OA
HETATM   10  C3  UNL     1     -33.058   7.891   1.525  1.00 20.00     0.205 C 
ENDBRANCH   1   7
TORSDOF 2
