REMARK  2 active torsions:
REMARK  status: ('A' for Active; 'I' for Inactive)
REMARK    1  A    between atoms: C1_1  and  C6_6 
REMARK    2  A    between atoms: C1_1  and  C8_8 
ROOT
HETATM    1  C2  UNL     1     -34.621   6.098   5.737  1.00 20.00     0.027 C 
HETATM    2  C3  UNL     1     -33.661   7.061   5.045  1.00 20.00     0.016 C 
HETATM    3  C4  UNL     1     -34.379   4.668   5.272  1.00 20.00     0.167 C 
HETATM    4  C5  UNL     1     -33.502   5.376   3.188  1.00 20.00     0.179 C 
HETATM    5  C6  UNL     1     -33.689   6.851   3.531  1.00 20.00     0.079 C 
HETATM    6  O10 UNL     1     -34.480   4.574   3.852  1.00 20.00    -0.390 OA
ENDROOT
BRANCH   5   7
HETATM    7  C1  UNL     1     -32.621   7.675   2.885  1.00 20.00     0.132 C 
HETATM    8  O9  UNL     1     -31.566   7.917   3.470  1.00 20.00    -0.298 OA
BRANCH   7   9
HETATM    9  C8  UNL     1     -32.922   8.182   1.487  1.00 20.00     0.074 C 
HETATM   10  C7  UNL     1     -31.800   9.032   0.919  1.00 20.00     0.013 C 
ENDBRANCH   7   9
ENDBRANCH   5   7
TORSDOF 2
