REMARK  2 active torsions:
REMARK  status: ('A' for Active; 'I' for Inactive)
REMARK    1  A    between atoms: C8_8  and  C9_9 
REMARK    2  A    between atoms: C8_8  and  N10_10 
ROOT
HETATM    1  C1  UNL     1     -33.487   7.682   5.079  1.00 20.00     0.032 C 
HETATM    2  C2  UNL     1     -33.992   6.243   5.082  1.00 20.00     0.024 C 
HETATM    3  C3  UNL     1     -32.211   7.810   4.246  1.00 20.00     0.272 C 
HETATM    4  C4  UNL     1     -32.904   5.973   2.802  1.00 20.00     0.292 C 
HETATM    5  C5  UNL     1     -34.143   5.687   3.666  1.00 20.00     0.110 C 
HETATM    6  N10 UNL     1     -32.350   7.332   2.868  1.00 20.00     0.090 N 
HETATM    7 CL11 UNL     1     -35.637   6.304   2.898  1.00 20.00    -0.123 Cl
ENDROOT
BRANCH   6   8
HETATM    8  C8  UNL     1     -33.035   8.291   2.010  1.00 20.00     0.276 C 
BRANCH   8   9
HETATM    9  C9  UNL     1     -32.080   9.375   1.494  1.00 20.00     0.006 C 
HETATM   10  C6  UNL     1     -30.928   8.792   0.674  1.00 20.00     0.011 C 
HETATM   11  C7  UNL     1     -32.815  10.455   0.698  1.00 20.00     0.011 C 
ENDBRANCH   8   9
ENDBRANCH   6   8
TORSDOF 2
