REMARK  6 active torsions:
REMARK  status: ('A' for Active; 'I' for Inactive)
REMARK    1  A    between atoms: C4_4  and  C6_6 
REMARK    2  A    between atoms: C5_5  and  C7_7 
REMARK    3  A    between atoms: C6_6  and  C8_8 
REMARK    4  A    between atoms: C7_7  and  C9_9 
REMARK    5  A    between atoms: C8_8  and  C9_9 
REMARK    6  A    between atoms: C9_9  and  O10_10 
ROOT
HETATM    1  C1  UNL     1     -33.132  10.894   0.941  1.00 20.00     0.012 C 
HETATM    2  C2  UNL     1     -32.524   9.859   0.975  1.00 20.00    -0.117 C 
HETATM    3  C4  UNL     1     -31.777   8.594   1.014  1.00 20.00     0.093 C 
ENDROOT
BRANCH   3   4
HETATM    4  C6  UNL     1     -32.359   7.606   2.027  1.00 20.00     0.014 C 
BRANCH   4   5
HETATM    5  C8  UNL     1     -32.360   8.157   3.462  1.00 20.00     0.032 C 
BRANCH   5   6
HETATM    6  C9  UNL     1     -32.991   7.173   4.457  1.00 20.00     0.118 C 
BRANCH   6   7
HETATM    7  C7  UNL     1     -34.470   6.880   4.174  1.00 20.00     0.031 C 
BRANCH   7   8
HETATM    8  C5  UNL     1     -35.121   5.956   5.201  1.00 20.00    -0.002 C 
HETATM    9  C3  UNL     1     -34.445   4.594   5.229  1.00 20.00     0.005 C 
ENDBRANCH   7   8
ENDBRANCH   6   7
BRANCH   6  10
HETATM   10  O10 UNL     1     -32.896   7.712   5.777  1.00 20.00    -0.396 OA
HETATM   11  H26 UNL     1     -31.956   7.888   5.933  1.00 20.00     0.210 HD
ENDBRANCH   6  10
ENDBRANCH   5   6
ENDBRANCH   4   5
ENDBRANCH   3   4
TORSDOF 6
