REMARK  3 active torsions:
REMARK  status: ('A' for Active; 'I' for Inactive)
REMARK    1  A    between atoms: C4_4  and  C9_9 
REMARK    2  A    between atoms: C5_5  and  C10_10 
REMARK    3  A    between atoms: C9_9  and  C11_11 
ROOT
HETATM    1  C1  UNL     1     -31.742   7.534   3.314  1.00 20.00     0.006 C 
HETATM    2  C2  UNL     1     -32.553   7.802   4.579  1.00 20.00     0.021 C 
HETATM    3  C3  UNL     1     -33.591   6.058   2.437  1.00 20.00     0.010 C 
HETATM    4  C4  UNL     1     -32.620   7.199   2.103  1.00 20.00    -0.014 C 
HETATM    5  C5  UNL     1     -34.425   6.309   3.707  1.00 20.00     0.004 C 
HETATM    6  C6  UNL     1     -33.506   6.647   4.897  1.00 20.00     0.086 C 
HETATM    7 CL12 UNL     1     -34.456   7.077   6.355  1.00 20.00    -0.125 Cl
ENDROOT
BRANCH   4   8
HETATM    8  C9  UNL     1     -33.354   8.433   1.573  1.00 20.00     0.004 C 
BRANCH   8   9
HETATM    9  C11 UNL     1     -32.373   9.529   1.173  1.00 20.00    -0.004 C 
HETATM   10  C8  UNL     1     -31.412   9.042   0.101  1.00 20.00     0.005 C 
ENDBRANCH   8   9
ENDBRANCH   4   8
BRANCH   5  11
HETATM   11  C10 UNL     1     -35.305   5.082   3.980  1.00 20.00     0.001 C 
HETATM   12  C7  UNL     1     -34.481   3.874   4.269  1.00 20.00     0.005 C 
ENDBRANCH   5  11
TORSDOF 3
