REMARK  4 active torsions:
REMARK  status: ('A' for Active; 'I' for Inactive)
REMARK    1  A    between atoms: C4_4  and  C8_8 
REMARK    2  A    between atoms: C8_8  and  C11_11 
REMARK    3  A    between atoms: C9_9  and  C10_10 
REMARK    4  A    between atoms: C10_10  and  C11_11 
ROOT
HETATM    1  C1  UNL     1     -35.362   4.629   5.129  1.00 20.00     0.002 C 
HETATM    2  C2  UNL     1     -35.062   6.091   4.785  1.00 20.00     0.006 C 
HETATM    3  C3  UNL     1     -34.366   3.787   4.332  1.00 20.00     0.020 C 
HETATM    4  C4  UNL     1     -33.776   6.064   3.954  1.00 20.00     0.004 C 
HETATM    5  C5  UNL     1     -33.880   4.721   3.232  1.00 20.00     0.086 C 
HETATM    6 CL12 UNL     1     -32.339   4.184   2.542  1.00 20.00    -0.125 Cl
ENDROOT
BRANCH   4   7
HETATM    7  C8  UNL     1     -33.653   7.261   3.023  1.00 20.00     0.010 C 
BRANCH   7   8
HETATM    8  C11 UNL     1     -32.201   7.593   2.631  1.00 20.00    -0.018 C 
HETATM    9  C7  UNL     1     -31.494   8.281   3.803  1.00 20.00     0.010 C 
BRANCH   8  10
HETATM   10  C10 UNL     1     -32.060   8.412   1.331  1.00 20.00     0.004 C 
BRANCH  10  11
HETATM   11  C9  UNL     1     -32.969   9.639   1.231  1.00 20.00    -0.004 C 
HETATM   12  C6  UNL     1     -32.702  10.420  -0.048  1.00 20.00     0.005 C 
ENDBRANCH  10  11
ENDBRANCH   8  10
ENDBRANCH   7   8
ENDBRANCH   4   7
TORSDOF 4
