REMARK  2 active torsions:
REMARK  status: ('A' for Active; 'I' for Inactive)
REMARK    1  A    between atoms: C7_7  and  C9_9 
REMARK    2  A    between atoms: C8_8  and  C9_9 
ROOT
HETATM    1  C1  UNL     1     -33.140  10.228   0.536  1.00 20.00     0.012 C 
HETATM    2  C2  UNL     1     -32.882   9.202   1.104  1.00 20.00    -0.117 C 
HETATM    3  C8  UNL     1     -32.562   7.947   1.796  1.00 20.00     0.093 C 
ENDROOT
BRANCH   3   4
HETATM    4  C9  UNL     1     -33.490   7.738   2.983  1.00 20.00     0.024 C 
BRANCH   4   5
HETATM    5  C7  UNL     1     -33.176   6.442   3.703  1.00 20.00     0.056 C 
HETATM    6  C3  UNL     1     -34.108   6.171   4.866  1.00 20.00     0.131 C 
HETATM    7  C4  UNL     1     -34.582   4.740   4.889  1.00 20.00     0.079 C 
HETATM    8  O10 UNL     1     -34.444   7.008   5.694  1.00 20.00    -0.298 OA
HETATM    9  C5  UNL     1     -33.683   4.093   3.842  1.00 20.00     0.008 C 
HETATM   10  C6  UNL     1     -33.412   5.204   2.836  1.00 20.00     0.013 C 
ENDBRANCH   4   5
ENDBRANCH   3   4
TORSDOF 2
