REMARK  3 active torsions:
REMARK  status: ('A' for Active; 'I' for Inactive)
REMARK    1  A    between atoms: C6_6  and  C9_9 
REMARK    2  A    between atoms: C7_7  and  O10_10 
REMARK    3  A    between atoms: C8_8  and  C9_9 
ROOT
HETATM    1  C1  UNL     1     -33.454  10.621   1.254  1.00 20.00     0.012 C 
HETATM    2  C2  UNL     1     -32.817   9.604   1.207  1.00 20.00    -0.117 C 
HETATM    3  C8  UNL     1     -32.036   8.361   1.145  1.00 20.00     0.093 C 
ENDROOT
BRANCH   3   4
HETATM    4  C9  UNL     1     -31.794   7.818   2.543  1.00 20.00     0.019 C 
BRANCH   4   5
HETATM    5  C6  UNL     1     -33.108   7.518   3.247  1.00 20.00     0.015 C 
HETATM    6  C4  UNL     1     -33.939   6.451   2.539  1.00 20.00     0.007 C 
HETATM    7  C3  UNL     1     -34.886   5.916   3.615  1.00 20.00     0.003 C 
HETATM    8  C5  UNL     1     -34.306   6.359   4.958  1.00 20.00     0.032 C 
HETATM    9  C7  UNL     1     -32.925   6.919   4.639  1.00 20.00     0.122 C 
BRANCH   9  10
HETATM   10  O10 UNL     1     -32.537   7.907   5.574  1.00 20.00    -0.395 OA
HETATM   11  H24 UNL     1     -32.524   7.483   6.450  1.00 20.00     0.210 HD
ENDBRANCH   9  10
ENDBRANCH   4   5
ENDBRANCH   3   4
TORSDOF 3
