REMARK  4 active torsions:
REMARK  status: ('A' for Active; 'I' for Inactive)
REMARK    1  A    between atoms: C5_5  and  C9_9 
REMARK    2  A    between atoms: C7_7  and  C8_8 
REMARK    3  A    between atoms: C8_8  and  C9_9 
REMARK    4  A    between atoms: C9_9  and  O10_10 
ROOT
HETATM    1  C1  UNL     1     -31.760   9.530   0.626  1.00 20.00     0.012 C 
HETATM    2  C2  UNL     1     -31.991   8.628   1.384  1.00 20.00    -0.117 C 
HETATM    3  C7  UNL     1     -32.271   7.522   2.313  1.00 20.00     0.096 C 
ENDROOT
BRANCH   3   4
HETATM    4  C8  UNL     1     -33.780   7.362   2.536  1.00 20.00     0.050 C 
BRANCH   4   5
HETATM    5  C9  UNL     1     -34.170   6.206   3.483  1.00 20.00     0.059 C 
HETATM    6  C6  UNL     1     -35.667   6.058   3.611  1.00 20.00     0.046 C 
BRANCH   5   7
HETATM    7  C5  UNL     1     -33.546   6.447   4.863  1.00 20.00     0.019 A 
HETATM    8  C3  UNL     1     -33.856   7.705   5.626  1.00 20.00     0.008 A 
HETATM    9  C4  UNL     1     -34.398   6.386   6.101  1.00 20.00     0.008 A 
ENDBRANCH   5   7
BRANCH   5  10
HETATM   10  O10 UNL     1     -33.625   4.991   2.962  1.00 20.00    -0.390 OA
HETATM   11  H24 UNL     1     -33.864   4.295   3.591  1.00 20.00     0.210 HD
ENDBRANCH   5  10
ENDBRANCH   4   5
ENDBRANCH   3   4
TORSDOF 4
