REMARK  0 active torsions:
REMARK  status: ('A' for Active; 'I' for Inactive)
ROOT
HETATM    1  C1  UNL     1     -31.173   7.950   3.404  1.00 20.00     0.101 C 
HETATM    2  C2  UNL     1     -34.611   6.979   4.785  1.00 20.00     0.005 C 
HETATM    3  C3  UNL     1     -34.636   5.610   4.117  1.00 20.00     0.030 C 
HETATM    4  C4  UNL     1     -33.205   7.576   4.733  1.00 20.00     0.057 C 
HETATM    5  C5  UNL     1     -34.037   5.665   2.715  1.00 20.00     0.272 C 
HETATM    6  C6  UNL     1     -32.603   7.572   3.309  1.00 20.00     0.240 C 
HETATM    7  C7  UNL     1     -33.294   8.611   2.404  1.00 20.00     0.066 C 
HETATM    8  N8  UNL     1     -30.053   8.246   3.478  1.00 20.00    -0.195 NA
HETATM    9  N9  UNL     1     -32.682   6.224   2.716  1.00 20.00     0.106 N 
HETATM   10  H21 UNL     1     -32.044   5.589   3.195  1.00 20.00     0.318 HD
ENDROOT
TORSDOF 0
