REMARK  2 active torsions:
REMARK  status: ('A' for Active; 'I' for Inactive)
REMARK    1  A    between atoms: C6_6  and  C7_7 
REMARK    2  A    between atoms: C7_7  and  N9_9 
ROOT
HETATM    1  C1  UNL     1     -32.064   9.292   0.875  1.00 20.00     0.012 C 
HETATM    2  C2  UNL     1     -32.315   8.543   1.779  1.00 20.00    -0.116 C 
HETATM    3  C6  UNL     1     -32.619   7.626   2.888  1.00 20.00     0.113 C 
ENDROOT
BRANCH   3   4
HETATM    4  C7  UNL     1     -33.807   6.714   2.578  1.00 20.00     0.141 C 
BRANCH   4   5
HETATM    5  N9  UNL     1     -34.141   5.802   3.668  1.00 20.00    -0.349 N 
HETATM    6  C4  UNL     1     -34.798   6.127   4.822  1.00 20.00     0.111 A 
HETATM    7  C3  UNL     1     -34.875   4.948   5.526  1.00 20.00     0.135 A 
HETATM    8  N8  UNL     1     -34.286   3.919   4.836  1.00 20.00    -0.255 NA
HETATM    9  C5  UNL     1     -33.855   4.466   3.721  1.00 20.00     0.209 A 
ENDBRANCH   4   5
ENDBRANCH   3   4
TORSDOF 2
