REMARK  2 active torsions:
REMARK  status: ('A' for Active; 'I' for Inactive)
REMARK    1  A    between atoms: C1_1  and  C7_7 
REMARK    2  A    between atoms: C7_7  and  S10_10 
ROOT
HETATM    1  C1  UNL     1     -33.287   7.050   2.807  1.00 20.00     0.061 A 
HETATM    2  C2  UNL     1     -32.971   7.666   3.999  1.00 20.00     0.006 A 
HETATM    3  C3  UNL     1     -32.367   8.871   2.003  1.00 20.00     0.072 A 
HETATM    4  C4  UNL     1     -33.194   7.220   5.389  1.00 20.00     0.058 C 
HETATM    5  C5  UNL     1     -31.864   9.878   1.043  1.00 20.00     0.078 C 
HETATM    6  N8  UNL     1     -32.943   7.740   1.661  1.00 20.00    -0.249 NA
HETATM    7  S9  UNL     1     -32.208   9.170   3.685  1.00 20.00    -0.078 SA
ENDROOT
BRANCH   1   8
HETATM    8  C7  UNL     1     -33.972   5.707   2.651  1.00 20.00     0.093 C 
HETATM    9  C6  UNL     1     -33.175   4.562   3.275  1.00 20.00     0.028 C 
BRANCH   8  10
HETATM   10  S10 UNL     1     -35.665   5.750   3.343  1.00 20.00    -0.172 SA
HETATM   11  H21 UNL     1     -35.955   4.476   3.051  1.00 20.00     0.102 HD
ENDBRANCH   8  10
ENDBRANCH   1   8
TORSDOF 2
