REMARK  2 active torsions:
REMARK  status: ('A' for Active; 'I' for Inactive)
REMARK    1  A    between atoms: C4_4  and  C5_5 
REMARK    2  A    between atoms: C5_5  and  C7_7 
ROOT
HETATM    1  C1  UNL     1     -33.702   6.326   5.347  1.00 20.00     0.033 A 
HETATM    2  C2  UNL     1     -34.651   5.738   6.155  1.00 20.00     0.088 A 
HETATM    3  C3  UNL     1     -35.253   5.361   4.031  1.00 20.00     0.102 A 
HETATM    4  C4  UNL     1     -34.083   6.087   4.004  1.00 20.00     0.027 A 
HETATM    5  N10 UNL     1     -35.589   5.155   5.344  1.00 20.00    -0.374 N 
HETATM    6  H22 UNL     1     -36.404   4.650   5.664  1.00 20.00     0.164 HD
ENDROOT
BRANCH   4   7
HETATM    7  C5  UNL     1     -33.395   6.511   2.782  1.00 20.00     0.165 C 
HETATM    8  O11 UNL     1     -32.969   5.747   1.922  1.00 20.00    -0.292 OA
BRANCH   7   9
HETATM    9  C7  UNL     1     -33.213   7.954   2.583  1.00 20.00     0.065 A 
HETATM   10  C6  UNL     1     -31.820   8.529   2.586  1.00 20.00     0.018 A 
HETATM   11  C8  UNL     1     -32.591   8.446   1.300  1.00 20.00    -0.006 A 
HETATM   12  C9  UNL     1     -33.099   9.686   0.649  1.00 20.00     0.011 C 
ENDBRANCH   7   9
ENDBRANCH   4   7
TORSDOF 2
