REMARK  2 active torsions:
REMARK  status: ('A' for Active; 'I' for Inactive)
REMARK    1  A    between atoms: C1_1  and  C7_7 
REMARK    2  A    between atoms: C7_7  and  S10_10 
ROOT
HETATM    1  C1  UNL     1     -33.522   7.134   3.199  1.00 20.00     0.061 A 
HETATM    2  C2  UNL     1     -33.087   7.642   4.405  1.00 20.00     0.006 A 
HETATM    3  C3  UNL     1     -32.496   8.922   2.451  1.00 20.00     0.072 A 
HETATM    4  C4  UNL     1     -33.269   7.126   5.776  1.00 20.00     0.058 C 
HETATM    5  C5  UNL     1     -31.962   9.943   1.524  1.00 20.00     0.078 C 
HETATM    6  N8  UNL     1     -33.185   7.866   2.078  1.00 20.00    -0.249 NA
HETATM    7  S9  UNL     1     -32.217   9.095   4.135  1.00 20.00    -0.078 SA
ENDROOT
BRANCH   1   8
HETATM    8  C7  UNL     1     -34.329   5.865   3.005  1.00 20.00     0.093 C 
HETATM    9  C6  UNL     1     -35.679   5.907   3.719  1.00 20.00     0.028 C 
BRANCH   8  10
HETATM   10  S10 UNL     1     -33.386   4.395   3.549  1.00 20.00    -0.172 SA
HETATM   11  H21 UNL     1     -34.345   3.510   3.251  1.00 20.00     0.102 HD
ENDBRANCH   8  10
ENDBRANCH   1   8
TORSDOF 2
