REMARK  3 active torsions:
REMARK  status: ('A' for Active; 'I' for Inactive)
REMARK    1  A    between atoms: C4_4  and  C8_8 
REMARK    2  A    between atoms: C8_8  and  N11_11 
REMARK    3  A    between atoms: C9_9  and  N11_11 
ROOT
HETATM    1  C1  UNL     1     -33.750   6.905   5.077  1.00 20.00     0.095 C 
HETATM    2  C6  UNL     1     -34.319   6.026   2.845  1.00 20.00     0.059 C 
HETATM    3  C9  UNL     1     -33.659   7.150   3.632  1.00 20.00     0.324 C 
HETATM    4  N10 UNL     1     -33.824   6.713   6.219  1.00 20.00    -0.195 NA
ENDROOT
BRANCH   3   5
HETATM    5  N11 UNL     1     -32.250   7.304   3.238  1.00 20.00     0.102 N 
HETATM    6  C7  UNL     1     -31.660   8.441   3.961  1.00 20.00     0.311 C 
BRANCH   5   7
HETATM    7  C8  UNL     1     -32.118   7.463   1.815  1.00 20.00     0.278 C 
BRANCH   7   8
HETATM    8  C4  UNL     1     -32.803   8.699   1.346  1.00 20.00     0.018 A 
HETATM    9  C2  UNL     1     -32.431   9.315   0.023  1.00 20.00     0.011 A 
HETATM   10  C3  UNL     1     -32.057  10.008   1.306  1.00 20.00    -0.012 A 
HETATM   11  C5  UNL     1     -32.742  11.271   1.702  1.00 20.00     0.010 C 
ENDBRANCH   7   8
ENDBRANCH   5   7
ENDBRANCH   3   5
TORSDOF 3
