REMARK  4 active torsions:
REMARK  status: ('A' for Active; 'I' for Inactive)
REMARK    1  A    between atoms: C8_8  and  C11_11 
REMARK    2  A    between atoms: C9_9  and  C10_10 
REMARK    3  A    between atoms: C10_10  and  C11_11 
REMARK    4  A    between atoms: C11_11  and  O12_12 
ROOT
HETATM    1  C1  UNL     1     -33.366  11.929   1.793  1.00 20.00     0.012 C 
HETATM    2  C2  UNL     1     -32.711  10.994   1.418  1.00 20.00    -0.117 C 
HETATM    3  C9  UNL     1     -31.907   9.854   0.957  1.00 20.00     0.095 C 
ENDROOT
BRANCH   3   4
HETATM    4  C10 UNL     1     -32.465   8.514   1.448  1.00 20.00     0.044 C 
BRANCH   4   5
HETATM    5  C11 UNL     1     -32.532   8.397   2.975  1.00 20.00     0.123 C 
BRANCH   5   6
HETATM    6  C8  UNL     1     -33.507   7.299   3.397  1.00 20.00     0.018 C 
HETATM    7  C6  UNL     1     -33.531   7.150   4.929  1.00 20.00     0.034 C 
HETATM    8  C4  UNL     1     -34.231   5.906   5.388  1.00 20.00    -0.030 C 
HETATM    9  C3  UNL     1     -34.525   4.886   4.570  1.00 20.00    -0.031 C 
HETATM   10  C5  UNL     1     -34.157   4.869   3.117  1.00 20.00     0.027 C 
HETATM   11  C7  UNL     1     -33.154   5.962   2.733  1.00 20.00     0.011 C 
ENDBRANCH   5   6
BRANCH   5  12
HETATM   12  O12 UNL     1     -31.240   8.077   3.480  1.00 20.00    -0.395 OA
HETATM   13  H28 UNL     1     -30.995   7.221   3.093  1.00 20.00     0.210 HD
ENDBRANCH   5  12
ENDBRANCH   4   5
ENDBRANCH   3   4
TORSDOF 4
