REMARK  4 active torsions:
REMARK  status: ('A' for Active; 'I' for Inactive)
REMARK    1  A    between atoms: C4_4  and  C8_8 
REMARK    2  A    between atoms: C5_5  and  C9_9 
REMARK    3  A    between atoms: C8_8  and  N10_10 
REMARK    4  A    between atoms: C9_9  and  N10_10 
ROOT
HETATM    1  C7  UNL     1     -31.486   7.936   3.625  1.00 20.00     0.310 C 
HETATM    2  N10 UNL     1     -32.273   7.476   2.470  1.00 20.00     0.087 N 
ENDROOT
BRANCH   2   3
HETATM    3  C8  UNL     1     -33.155   6.401   2.832  1.00 20.00     0.277 C 
BRANCH   3   4
HETATM    4  C4  UNL     1     -34.114   6.825   3.891  1.00 20.00     0.018 A 
HETATM    5  C1  UNL     1     -33.685   6.861   5.335  1.00 20.00     0.011 A 
HETATM    6  C3  UNL     1     -34.708   5.852   4.884  1.00 20.00    -0.012 A 
HETATM    7  C6  UNL     1     -34.378   4.399   4.875  1.00 20.00     0.010 C 
ENDBRANCH   3   4
ENDBRANCH   2   3
BRANCH   2   8
HETATM    8  C9  UNL     1     -33.016   8.612   1.900  1.00 20.00     0.305 C 
BRANCH   8   9
HETATM    9  C5  UNL     1     -32.139   9.447   1.031  1.00 20.00     0.173 A 
HETATM   10  C2  UNL     1     -32.719  10.368  -0.005  1.00 20.00     0.201 A 
HETATM   11  O11 UNL     1     -32.162   9.091  -0.355  1.00 20.00    -0.379 OA
ENDBRANCH   8   9
ENDBRANCH   2   8
TORSDOF 4
