REMARK  3 active torsions:
REMARK  status: ('A' for Active; 'I' for Inactive)
REMARK    1  A    between atoms: C5_5  and  C6_6 
REMARK    2  A    between atoms: C5_5  and  C7_7 
REMARK    3  A    between atoms: C7_7  and  C8_8 
ROOT
HETATM    1  C1  UNL     1     -33.309   4.845   2.479  1.00 20.00     0.011 C 
HETATM    2  C7  UNL     1     -33.380   5.928   3.570  1.00 20.00    -0.010 C 
ENDROOT
BRANCH   2   3
HETATM    3  C5  UNL     1     -33.543   7.331   2.922  1.00 20.00     0.020 C 
BRANCH   3   4
HETATM    4  C6  UNL     1     -32.407   7.793   2.006  1.00 20.00     0.115 C 
HETATM    5 CL9  UNL     1     -32.735   9.380   1.274  1.00 20.00    -0.130 Cl
ENDBRANCH   3   4
ENDBRANCH   2   3
BRANCH   2   6
HETATM    6  C8  UNL     1     -34.472   5.622   4.670  1.00 20.00    -0.048 C 
HETATM    7  C2  UNL     1     -34.432   6.695   5.781  1.00 20.00     0.015 C 
HETATM    8  C3  UNL     1     -34.275   4.243   5.329  1.00 20.00     0.015 C 
HETATM    9  C4  UNL     1     -35.890   5.665   4.057  1.00 20.00     0.015 C 
ENDBRANCH   2   6
TORSDOF 3
