REMARK  2 active torsions:
REMARK  status: ('A' for Active; 'I' for Inactive)
REMARK    1  A    between atoms: C6_6  and  C8_8 
REMARK    2  A    between atoms: C8_8  and  N9_9 
ROOT
HETATM    1  C1  UNL     1     -32.268   8.464   2.352  1.00 20.00     0.332 C 
HETATM    2  N9  UNL     1     -31.810   7.679   3.101  1.00 20.00    -0.247 NA
HETATM    3  O10 UNL     1     -32.722   9.251   1.605  1.00 20.00    -0.260 OA
ENDROOT
BRANCH   2   4
HETATM    4  C8  UNL     1     -32.369   6.339   2.997  1.00 20.00     0.162 C 
BRANCH   4   5
HETATM    5  C6  UNL     1     -33.575   6.249   3.934  1.00 20.00    -0.026 C 
HETATM    6  C4  UNL     1     -33.315   6.977   5.260  1.00 20.00     0.011 C 
HETATM    7  C2  UNL     1     -34.280   6.341   6.258  1.00 20.00     0.001 C 
HETATM    8  C3  UNL     1     -34.599   4.949   5.714  1.00 20.00     0.001 C 
HETATM    9  C5  UNL     1     -33.813   4.810   4.412  1.00 20.00     0.011 C 
HETATM   10  C7  UNL     1     -34.814   6.814   3.221  1.00 20.00     0.017 C 
ENDBRANCH   4   5
ENDBRANCH   2   4
TORSDOF 2
