REMARK  2 active torsions:
REMARK  status: ('A' for Active; 'I' for Inactive)
REMARK    1  A    between atoms: C3_3  and  C8_8 
REMARK    2  A    between atoms: C10_10  and  N11_11 
ROOT
HETATM    1  C1  UNL     1     -33.626   9.321   0.040  1.00 20.00     0.013 C 
HETATM    2  C2  UNL     1     -32.693   8.781   0.568  1.00 20.00    -0.087 C 
HETATM    3  C10 UNL     1     -31.551   8.124   1.208  1.00 20.00     0.364 C 
ENDROOT
BRANCH   3   4
HETATM    4  N11 UNL     1     -31.881   7.737   2.580  1.00 20.00     0.100 N 
HETATM    5  C6  UNL     1     -32.240   8.919   3.375  1.00 20.00     0.273 C 
HETATM    6  C4  UNL     1     -32.534   8.538   4.827  1.00 20.00     0.031 C 
HETATM    7  C5  UNL     1     -33.626   7.477   4.911  1.00 20.00     0.015 C 
HETATM    8  C8  UNL     1     -33.283   6.288   4.016  1.00 20.00     0.083 C 
HETATM    9  C7  UNL     1     -32.964   6.742   2.588  1.00 20.00     0.285 C 
BRANCH   8  10
HETATM   10  C3  UNL     1     -34.430   5.325   3.985  1.00 20.00     0.129 C 
HETATM   11  C9  UNL     1     -34.088   3.871   3.807  1.00 20.00     0.091 C 
HETATM   12  O12 UNL     1     -35.594   5.705   4.102  1.00 20.00    -0.298 OA
ENDBRANCH   8  10
ENDBRANCH   3   4
TORSDOF 2
