REMARK  3 active torsions:
REMARK  status: ('A' for Active; 'I' for Inactive)
REMARK    1  A    between atoms: C4_4  and  C8_8 
REMARK    2  A    between atoms: C7_7  and  N10_10 
REMARK    3  A    between atoms: C8_8  and  N10_10 
ROOT
HETATM    1  C1  UNL     1     -34.450   4.828   4.409  1.00 20.00     0.089 C 
HETATM    2  C7  UNL     1     -35.098   6.120   4.190  1.00 20.00     0.394 C 
HETATM    3  N9  UNL     1     -33.939   3.801   4.585  1.00 20.00    -0.195 NA
ENDROOT
BRANCH   2   4
HETATM    4  N10 UNL     1     -34.100   7.167   3.922  1.00 20.00     0.097 N 
HETATM    5  C6  UNL     1     -33.190   7.283   5.072  1.00 20.00     0.311 C 
BRANCH   4   6
HETATM    6  C8  UNL     1     -33.378   6.905   2.707  1.00 20.00     0.278 C 
BRANCH   6   7
HETATM    7  C4  UNL     1     -32.787   8.154   2.150  1.00 20.00     0.018 A 
HETATM    8  C2  UNL     1     -31.511   8.709   2.725  1.00 20.00     0.011 A 
HETATM    9  C3  UNL     1     -31.513   8.096   1.349  1.00 20.00    -0.012 A 
HETATM   10  C5  UNL     1     -31.347   8.958   0.145  1.00 20.00     0.010 C 
ENDBRANCH   6   7
ENDBRANCH   4   6
ENDBRANCH   2   4
TORSDOF 3
