REMARK  3 active torsions:
REMARK  status: ('A' for Active; 'I' for Inactive)
REMARK    1  A    between atoms: C5_5  and  C9_9 
REMARK    2  A    between atoms: C8_8  and  N10_10 
REMARK    3  A    between atoms: C9_9  and  N10_10 
ROOT
HETATM    1  C1  UNL     1     -32.777   9.242  -0.635  1.00 20.00     0.013 C 
HETATM    2  C2  UNL     1     -32.447   9.326   0.516  1.00 20.00    -0.087 C 
HETATM    3  C8  UNL     1     -32.044   9.434   1.921  1.00 20.00     0.364 C 
ENDROOT
BRANCH   3   4
HETATM    4  N10 UNL     1     -32.100   8.120   2.580  1.00 20.00     0.095 N 
HETATM    5  C7  UNL     1     -31.691   8.259   3.986  1.00 20.00     0.310 C 
BRANCH   4   6
HETATM    6  C9  UNL     1     -33.407   7.534   2.470  1.00 20.00     0.278 C 
BRANCH   6   7
HETATM    7  C5  UNL     1     -33.592   6.439   3.463  1.00 20.00     0.018 A 
HETATM    8  C3  UNL     1     -34.897   5.690   3.530  1.00 20.00     0.011 A 
HETATM    9  C4  UNL     1     -34.513   6.633   4.640  1.00 20.00    -0.012 A 
HETATM   10  C6  UNL     1     -34.137   6.100   5.979  1.00 20.00     0.010 C 
ENDBRANCH   6   7
ENDBRANCH   4   6
ENDBRANCH   3   4
TORSDOF 3
