REMARK  2 active torsions:
REMARK  status: ('A' for Active; 'I' for Inactive)
REMARK    1  A    between atoms: C6_6  and  C8_8 
REMARK    2  A    between atoms: C8_8  and  N9_9 
ROOT
HETATM    1  C1  UNL     1     -32.489   8.250   1.694  1.00 20.00     0.157 C 
HETATM    2  N9  UNL     1     -32.433   7.191   2.209  1.00 20.00    -0.275 NA
HETATM    3  S10 UNL     1     -32.563   9.673   0.983  1.00 20.00    -0.055 SA
ENDROOT
BRANCH   2   4
HETATM    4  C8  UNL     1     -32.588   7.194   3.656  1.00 20.00     0.159 C 
BRANCH   4   5
HETATM    5  C6  UNL     1     -33.801   6.330   4.009  1.00 20.00    -0.026 C 
HETATM    6  C4  UNL     1     -34.040   6.284   5.524  1.00 20.00     0.011 C 
HETATM    7  C2  UNL     1     -34.837   5.003   5.761  1.00 20.00     0.001 C 
HETATM    8  C3  UNL     1     -34.522   4.081   4.583  1.00 20.00     0.001 C 
HETATM    9  C5  UNL     1     -33.552   4.849   3.688  1.00 20.00     0.011 C 
HETATM   10  C7  UNL     1     -35.036   6.862   3.264  1.00 20.00     0.017 C 
ENDBRANCH   4   5
ENDBRANCH   2   4
TORSDOF 2
