REMARK  4 active torsions:
REMARK  status: ('A' for Active; 'I' for Inactive)
REMARK    1  A    between atoms: C2_2  and  C10_10 
REMARK    2  A    between atoms: C7_7  and  C11_11 
REMARK    3  A    between atoms: C10_10  and  N12_12 
REMARK    4  A    between atoms: C11_11  and  N12_12 
ROOT
HETATM    1  C1  UNL     1     -32.996   9.573   0.813  1.00 20.00    -0.109 C 
HETATM    2  C2  UNL     1     -32.361   8.922   1.598  1.00 20.00    -0.077 C 
HETATM    3  C8  UNL     1     -33.769  10.365  -0.142  1.00 20.00     0.112 C 
ENDROOT
BRANCH   2   4
HETATM    4  C10 UNL     1     -31.581   8.133   2.555  1.00 20.00     0.362 C 
BRANCH   4   5
HETATM    5  N12 UNL     1     -32.306   6.916   2.947  1.00 20.00     0.095 N 
HETATM    6  H31 UNL     1     -32.762   6.540   2.101  1.00 20.00     0.317 HD
BRANCH   5   7
HETATM    7  C11 UNL     1     -33.257   7.163   3.973  1.00 20.00     0.279 C 
BRANCH   7   8
HETATM    8  C7  UNL     1     -34.289   6.029   3.995  1.00 20.00    -0.018 C 
HETATM    9  C5  UNL     1     -35.015   5.967   5.360  1.00 20.00     0.011 C 
HETATM   10  C3  UNL     1     -34.515   4.696   6.036  1.00 20.00     0.001 C 
HETATM   11  C4  UNL     1     -34.259   3.756   4.873  1.00 20.00     0.001 C 
HETATM   12  C6  UNL     1     -33.590   4.658   3.846  1.00 20.00     0.011 C 
HETATM   13  C9  UNL     1     -35.300   6.248   2.862  1.00 20.00     0.017 C 
ENDBRANCH   7   8
ENDBRANCH   5   7
ENDBRANCH   4   5
ENDBRANCH   2   4
TORSDOF 4
