REMARK  3 active torsions:
REMARK  status: ('A' for Active; 'I' for Inactive)
REMARK    1  A    between atoms: C5_5  and  C9_9 
REMARK    2  A    between atoms: C8_8  and  N10_10 
REMARK    3  A    between atoms: C9_9  and  N10_10 
ROOT
HETATM    1  C1  UNL     1     -33.103   9.631   1.021  1.00 20.00     0.013 C 
HETATM    2  C2  UNL     1     -32.724   8.590   1.486  1.00 20.00    -0.087 C 
HETATM    3  C8  UNL     1     -32.261   7.319   2.048  1.00 20.00     0.364 C 
ENDROOT
BRANCH   3   4
HETATM    4  N10 UNL     1     -32.211   7.388   3.517  1.00 20.00     0.095 N 
HETATM    5  C7  UNL     1     -31.284   8.455   3.926  1.00 20.00     0.310 C 
BRANCH   4   6
HETATM    6  C9  UNL     1     -33.519   7.588   4.077  1.00 20.00     0.278 C 
BRANCH   6   7
HETATM    7  C5  UNL     1     -34.454   6.505   3.660  1.00 20.00     0.018 A 
HETATM    8  C3  UNL     1     -33.980   5.078   3.586  1.00 20.00     0.011 A 
HETATM    9  C4  UNL     1     -34.989   5.478   4.631  1.00 20.00    -0.012 A 
HETATM   10  C6  UNL     1     -34.619   5.472   6.074  1.00 20.00     0.010 C 
ENDBRANCH   6   7
ENDBRANCH   4   6
ENDBRANCH   3   4
TORSDOF 3
