REMARK  4 active torsions:
REMARK  status: ('A' for Active; 'I' for Inactive)
REMARK    1  A    between atoms: C6_6  and  C10_10 
REMARK    2  A    between atoms: C8_8  and  C9_9 
REMARK    3  A    between atoms: C9_9  and  C10_10 
REMARK    4  A    between atoms: C10_10  and  O11_11 
ROOT
HETATM    1  C1  UNL     1     -34.219   4.635   4.840  1.00 20.00    -0.031 C 
HETATM    2  C2  UNL     1     -34.455   5.828   5.402  1.00 20.00    -0.030 C 
HETATM    3  C3  UNL     1     -33.472   4.469   3.551  1.00 20.00     0.027 C 
HETATM    4  C4  UNL     1     -34.024   7.125   4.784  1.00 20.00     0.034 C 
HETATM    5  C5  UNL     1     -32.741   5.740   3.107  1.00 20.00     0.011 C 
HETATM    6  C6  UNL     1     -33.617   6.984   3.306  1.00 20.00     0.018 C 
ENDROOT
BRANCH   6   7
HETATM    7  C10 UNL     1     -32.903   8.243   2.819  1.00 20.00     0.122 C 
BRANCH   7   8
HETATM    8  C9  UNL     1     -32.894   8.324   1.291  1.00 20.00     0.032 C 
BRANCH   8   9
HETATM    9  C8  UNL     1     -32.146   9.561   0.787  1.00 20.00    -0.002 C 
HETATM   10  C7  UNL     1     -32.809  10.844   1.266  1.00 20.00     0.005 C 
ENDBRANCH   8   9
ENDBRANCH   7   8
BRANCH   7  11
HETATM   11  O11 UNL     1     -31.570   8.231   3.320  1.00 20.00    -0.395 OA
HETATM   12  H29 UNL     1     -31.638   8.216   4.288  1.00 20.00     0.210 HD
ENDBRANCH   7  11
ENDBRANCH   6   7
TORSDOF 4
