REMARK  3 active torsions:
REMARK  status: ('A' for Active; 'I' for Inactive)
REMARK    1  A    between atoms: C4_4  and  C8_8 
REMARK    2  A    between atoms: C7_7  and  N10_10 
REMARK    3  A    between atoms: C8_8  and  N10_10 
ROOT
HETATM    1  C1  UNL     1     -34.528   5.272   4.409  1.00 20.00     0.089 C 
HETATM    2  C7  UNL     1     -34.228   6.664   4.078  1.00 20.00     0.394 C 
HETATM    3  N9  UNL     1     -34.769   4.168   4.675  1.00 20.00    -0.195 NA
ENDROOT
BRANCH   2   4
HETATM    4  N10 UNL     1     -33.464   6.751   2.824  1.00 20.00     0.097 N 
HETATM    5  C6  UNL     1     -32.471   5.666   2.778  1.00 20.00     0.311 C 
BRANCH   4   6
HETATM    6  C8  UNL     1     -32.840   8.038   2.678  1.00 20.00     0.278 C 
BRANCH   6   7
HETATM    7  C4  UNL     1     -32.541   8.333   1.250  1.00 20.00     0.018 A 
HETATM    8  C2  UNL     1     -31.521   9.381   0.891  1.00 20.00     0.011 A 
HETATM    9  C3  UNL     1     -32.983   9.638   0.639  1.00 20.00    -0.012 A 
HETATM   10  C5  UNL     1     -33.508   9.671  -0.755  1.00 20.00     0.010 C 
ENDBRANCH   6   7
ENDBRANCH   4   6
ENDBRANCH   2   4
TORSDOF 3
