REMARK  3 active torsions:
REMARK  status: ('A' for Active; 'I' for Inactive)
REMARK    1  A    between atoms: C1_1  and  C6_6 
REMARK    2  A    between atoms: C6_6  and  C7_7 
REMARK    3  A    between atoms: C7_7  and  C8_8 
ROOT
HETATM    1  C2  UNL     1     -32.814   4.319   2.824  1.00 20.00     0.011 C 
HETATM    2  C7  UNL     1     -32.840   5.775   3.328  1.00 20.00    -0.003 C 
ENDROOT
BRANCH   2   3
HETATM    3  C6  UNL     1     -32.500   6.718   2.148  1.00 20.00     0.101 C 
BRANCH   3   4
HETATM    4  C1  UNL     1     -31.913   8.053   2.589  1.00 20.00     0.219 C 
HETATM    5  O9  UNL     1     -31.215   8.175   3.591  1.00 20.00    -0.280 OA
HETATM    6 CL10 UNL     1     -32.308   9.332   1.473  1.00 20.00    -0.044 Cl
ENDBRANCH   3   4
ENDBRANCH   2   3
BRANCH   2   7
HETATM    7  C8  UNL     1     -34.184   6.160   4.055  1.00 20.00    -0.048 C 
HETATM    8  C3  UNL     1     -34.113   7.603   4.603  1.00 20.00     0.015 C 
HETATM    9  C4  UNL     1     -34.420   5.229   5.266  1.00 20.00     0.015 C 
HETATM   10  C5  UNL     1     -35.406   6.059   3.123  1.00 20.00     0.015 C 
ENDBRANCH   2   7
TORSDOF 3
