REMARK  1 active torsions:
REMARK  status: ('A' for Active; 'I' for Inactive)
REMARK    1  A    between atoms: C6_6  and  N8_8 
ROOT
HETATM    1  C1  UNL     1     -32.198   7.317   2.871  1.00 20.00     0.158 C 
HETATM    2  N8  UNL     1     -32.329   6.162   3.023  1.00 20.00    -0.265 NA
HETATM    3  S9  UNL     1     -31.987   8.880   2.651  1.00 20.00    -0.055 SA
ENDROOT
BRANCH   2   4
HETATM    4  C6  UNL     1     -33.605   5.766   3.622  1.00 20.00     0.051 C 
HETATM    5  C4  UNL     1     -33.765   6.401   5.003  1.00 20.00     0.033 C 
HETATM    6  C2  UNL     1     -34.728   5.478   5.746  1.00 20.00     0.002 C 
HETATM    7  C3  UNL     1     -34.624   4.113   5.065  1.00 20.00     0.002 C 
HETATM    8  C5  UNL     1     -33.601   4.272   3.943  1.00 20.00     0.033 C 
HETATM    9  C7  UNL     1     -34.728   6.158   2.663  1.00 20.00     0.041 C 
ENDBRANCH   2   4
TORSDOF 1
