REMARK  0 active torsions:
REMARK  status: ('A' for Active; 'I' for Inactive)
ROOT
HETATM    1  C1  UNL     1     -33.745   4.996   3.389  1.00 20.00    -0.066 C 
HETATM    2  C2  UNL     1     -32.900   4.393   2.541  1.00 20.00     0.016 C 
HETATM    3  C3  UNL     1     -34.343   4.296   4.578  1.00 20.00     0.037 C 
HETATM    4  C4  UNL     1     -34.152   6.437   3.246  1.00 20.00     0.201 C 
HETATM    5  C5  UNL     1     -34.163   5.155   5.829  1.00 20.00     0.030 C 
HETATM    6  C6  UNL     1     -34.606   6.594   5.574  1.00 20.00     0.168 C 
HETATM    7  O7  UNL     1     -33.894   7.145   4.463  1.00 20.00    -0.387 OA
ENDROOT
TORSDOF 0
