REMARK  0 active torsions:
REMARK  status: ('A' for Active; 'I' for Inactive)
ROOT
HETATM    1  C1  UNL     1     -33.086   7.342   5.494  1.00 20.00    -0.088 C 
HETATM    2  C2  UNL     1     -33.381   8.106   6.555  1.00 20.00     0.014 C 
HETATM    3  C3  UNL     1     -32.529   7.910   4.215  1.00 20.00     0.037 C 
HETATM    4  C4  UNL     1     -33.300   5.849   5.484  1.00 20.00     0.042 C 
HETATM    5  C5  UNL     1     -33.605   5.978   2.969  1.00 20.00     0.013 C 
HETATM    6  C6  UNL     1     -33.393   7.504   3.011  1.00 20.00    -0.014 C 
HETATM    7  C7  UNL     1     -34.173   5.395   4.289  1.00 20.00    -0.044 C 
HETATM    8  C8  UNL     1     -32.756   7.991   1.709  1.00 20.00     0.010 C 
HETATM    9  C9  UNL     1     -35.637   5.836   4.491  1.00 20.00     0.015 C 
HETATM   10  C10 UNL     1     -34.147   3.857   4.207  1.00 20.00     0.015 C 
ENDROOT
TORSDOF 0
