REMARK  4 active torsions:
REMARK  status: ('A' for Active; 'I' for Inactive)
REMARK    1  A    between atoms: C4_4  and  C5_5 
REMARK    2  A    between atoms: C5_5  and  C6_6 
REMARK    3  A    between atoms: C6_6  and  C8_8 
REMARK    4  A    between atoms: C7_7  and  C8_8 
ROOT
HETATM    1  C1  UNL     1     -32.996   9.210  -0.518  1.00 20.00     0.012 C 
HETATM    2  C2  UNL     1     -32.588   9.389   0.597  1.00 20.00    -0.117 C 
HETATM    3  C4  UNL     1     -32.090   9.612   1.961  1.00 20.00     0.093 C 
ENDROOT
BRANCH   3   4
HETATM    4  C5  UNL     1     -31.962   8.307   2.752  1.00 20.00     0.012 C 
BRANCH   4   5
HETATM    5  C6  UNL     1     -33.301   7.575   2.909  1.00 20.00     0.006 C 
BRANCH   5   6
HETATM    6  C8  UNL     1     -33.177   6.213   3.624  1.00 20.00    -0.005 C 
HETATM    7  C3  UNL     1     -32.598   5.173   2.657  1.00 20.00     0.011 C 
BRANCH   6   8
HETATM    8  C7  UNL     1     -34.477   5.709   4.272  1.00 20.00     0.119 C 
HETATM    9 CL9  UNL     1     -34.264   4.232   5.241  1.00 20.00    -0.130 Cl
ENDBRANCH   6   8
ENDBRANCH   5   6
ENDBRANCH   4   5
ENDBRANCH   3   4
TORSDOF 4
