REMARK  2 active torsions:
REMARK  status: ('A' for Active; 'I' for Inactive)
REMARK    1  A    between atoms: C7_7  and  C8_8 
REMARK    2  A    between atoms: C7_7  and  N9_9 
ROOT
HETATM    1  C1  UNL     1     -33.535   4.605   3.453  1.00 20.00     0.038 C 
HETATM    2  C2  UNL     1     -33.002   5.606   2.438  1.00 20.00     0.235 C 
HETATM    3  C3  UNL     1     -33.517   6.696   4.565  1.00 20.00     0.243 C 
HETATM    4  C4  UNL     1     -34.369   5.434   4.433  1.00 20.00    -0.022 C 
HETATM    5  C5  UNL     1     -35.761   5.748   3.859  1.00 20.00     0.016 C 
HETATM    6  C6  UNL     1     -34.528   4.726   5.780  1.00 20.00     0.016 C 
HETATM    7  N9  UNL     1     -33.009   6.940   3.159  1.00 20.00    -0.069 N 
HETATM    8  H27 UNL     1     -33.707   7.532   2.687  1.00 20.00     0.280 HD
ENDROOT
BRANCH   7   9
HETATM    9  C7  UNL     1     -31.709   7.676   3.106  1.00 20.00     0.250 C 
BRANCH   9  10
HETATM   10  C8  UNL     1     -31.560   8.376   1.769  1.00 20.00     0.142 C 
HETATM   11 CL10 UNL     1     -32.888   9.527   1.481  1.00 20.00    -0.129 Cl
ENDBRANCH   9  10
ENDBRANCH   7   9
TORSDOF 2
