REMARK  2 active torsions:
REMARK  status: ('A' for Active; 'I' for Inactive)
REMARK    1  A    between atoms: C5_5  and  C7_7 
REMARK    2  A    between atoms: C6_6  and  C7_7 
ROOT
HETATM    1  C3  UNL     1     -33.123   5.452   2.782  1.00 20.00     0.016 C 
HETATM    2  C4  UNL     1     -35.450   6.161   3.326  1.00 20.00     0.016 C 
HETATM    3  C7  UNL     1     -33.972   6.291   3.766  1.00 20.00    -0.032 C 
ENDROOT
BRANCH   3   4
HETATM    4  C5  UNL     1     -33.527   7.771   3.589  1.00 20.00     0.123 C 
HETATM    5 CL8  UNL     1     -31.804   8.063   3.940  1.00 20.00    -0.130 Cl
ENDBRANCH   3   4
BRANCH   3   6
HETATM    6  C6  UNL     1     -33.805   5.787   5.249  1.00 20.00    -0.014 C 
HETATM    7  C1  UNL     1     -34.185   4.313   5.453  1.00 20.00     0.010 C 
HETATM    8  C2  UNL     1     -34.571   6.628   6.284  1.00 20.00     0.010 C 
ENDBRANCH   3   6
TORSDOF 2
