REMARK  4 active torsions:
REMARK  status: ('A' for Active; 'I' for Inactive)
REMARK    1  A    between atoms: C2_2  and  C5_5 
REMARK    2  A    between atoms: C5_5  and  C6_6 
REMARK    3  A    between atoms: C6_6  and  C8_8 
REMARK    4  A    between atoms: C7_7  and  C8_8 
ROOT
HETATM    1  C1  UNL     1     -32.525   9.300   1.150  1.00 20.00    -0.111 C 
HETATM    2  C2  UNL     1     -32.080   8.704   2.093  1.00 20.00    -0.107 C 
HETATM    3  C3  UNL     1     -33.068  10.023   0.001  1.00 20.00     0.112 C 
ENDROOT
BRANCH   2   4
HETATM    4  C5  UNL     1     -31.534   7.975   3.246  1.00 20.00     0.094 C 
BRANCH   4   5
HETATM    5  C6  UNL     1     -32.630   7.469   4.189  1.00 20.00     0.017 C 
BRANCH   5   6
HETATM    6  C8  UNL     1     -33.699   6.561   3.540  1.00 20.00    -0.004 C 
HETATM    7  C4  UNL     1     -33.036   5.283   3.010  1.00 20.00     0.011 C 
BRANCH   6   8
HETATM    8  C7  UNL     1     -34.894   6.235   4.450  1.00 20.00     0.119 C 
HETATM    9 CL9  UNL     1     -34.452   5.300   5.899  1.00 20.00    -0.130 Cl
ENDBRANCH   6   8
ENDBRANCH   5   6
ENDBRANCH   4   5
ENDBRANCH   2   4
TORSDOF 4
