REMARK  4 active torsions:
REMARK  status: ('A' for Active; 'I' for Inactive)
REMARK    1  A    between atoms: C1_1  and  C12_12 
REMARK    2  A    between atoms: C6_6  and  C10_10 
REMARK    3  A    between atoms: C7_7  and  C11_11 
REMARK    4  A    between atoms: C11_11  and  C12_12 
ROOT
HETATM    1  C2  UNL     1     -33.527   4.068   4.114  1.00 20.00     0.001 C 
HETATM    2  C3  UNL     1     -34.751   4.792   4.670  1.00 20.00     0.005 C 
HETATM    3  C4  UNL     1     -33.091   4.648   2.771  1.00 20.00     0.005 C 
HETATM    4  C5  UNL     1     -34.086   6.882   3.411  1.00 20.00     0.009 C 
HETATM    5  C6  UNL     1     -34.562   6.313   4.756  1.00 20.00    -0.014 C 
HETATM    6  C7  UNL     1     -32.850   6.160   2.852  1.00 20.00    -0.013 C 
ENDROOT
BRANCH   6   7
HETATM    7  C11 UNL     1     -32.479   6.718   1.478  1.00 20.00     0.015 C 
BRANCH   7   8
HETATM    8  C12 UNL     1     -31.788   8.082   1.569  1.00 20.00     0.043 C 
HETATM    9  C9  UNL     1     -30.986   8.361   0.301  1.00 20.00     0.017 C 
BRANCH   8  10
HETATM   10  C1  UNL     1     -32.763   9.231   1.762  1.00 20.00     0.235 C 
HETATM   11  O13 UNL     1     -32.757  10.006   2.713  1.00 20.00    -0.306 OA
ENDBRANCH   8  10
ENDBRANCH   7   8
ENDBRANCH   6   7
BRANCH   5  12
HETATM   12  C10 UNL     1     -33.623   6.702   5.902  1.00 20.00     0.000 C 
HETATM   13  C8  UNL     1     -33.491   8.184   6.025  1.00 20.00     0.005 C 
ENDBRANCH   5  12
TORSDOF 4
