REMARK  1 active torsions:
REMARK  status: ('A' for Active; 'I' for Inactive)
REMARK    1  A    between atoms: C6_6  and  C9_9 
ROOT
HETATM    1  C1  UNL     1     -34.081   6.089   5.006  1.00 20.00    -0.085 C 
HETATM    2  C2  UNL     1     -34.337   5.977   6.316  1.00 20.00     0.014 C 
HETATM    3  C3  UNL     1     -34.492   5.051   3.997  1.00 20.00     0.059 C 
HETATM    4  C4  UNL     1     -33.327   7.249   4.411  1.00 20.00     0.065 C 
HETATM    5  C5  UNL     1     -33.283   4.656   3.154  1.00 20.00     0.172 C 
HETATM    6  C6  UNL     1     -32.177   6.719   3.547  1.00 20.00     0.128 C 
HETATM    7  O10 UNL     1     -32.680   5.809   2.557  1.00 20.00    -0.385 OA
ENDROOT
BRANCH   6   8
HETATM    8  C9  UNL     1     -31.475   7.855   2.816  1.00 20.00     0.007 C 
HETATM    9  C7  UNL     1     -30.064   7.442   2.400  1.00 20.00     0.012 C 
HETATM   10  C8  UNL     1     -32.284   8.294   1.595  1.00 20.00     0.012 C 
ENDBRANCH   6   8
TORSDOF 1
