REMARK  5 active torsions:
REMARK  status: ('A' for Active; 'I' for Inactive)
REMARK    1  A    between atoms: C4_4  and  C5_5 
REMARK    2  A    between atoms: C4_4  and  C6_6 
REMARK    3  A    between atoms: C5_5  and  C8_8 
REMARK    4  A    between atoms: C6_6  and  C9_9 
REMARK    5  A    between atoms: C7_7  and  C9_9 
ROOT
HETATM    1  C4  UNL     1     -32.065   7.532   3.008  1.00 20.00     0.001 C 
ENDROOT
BRANCH   1   2
HETATM    2  C5  UNL     1     -33.451   7.320   3.626  1.00 20.00     0.004 C 
BRANCH   2   3
HETATM    3  C8  UNL     1     -33.786   5.839   3.888  1.00 20.00    -0.023 C 
HETATM    4  C1  UNL     1     -33.768   5.001   2.609  1.00 20.00     0.009 C 
HETATM    5  C2  UNL     1     -35.157   5.729   4.559  1.00 20.00     0.009 C 
ENDBRANCH   2   3
ENDBRANCH   1   2
BRANCH   1   6
HETATM    6  C6  UNL     1     -31.800   9.019   2.746  1.00 20.00     0.005 C 
BRANCH   6   7
HETATM    7  C9  UNL     1     -32.804   9.661   1.767  1.00 20.00    -0.005 C 
HETATM    8  C3  UNL     1     -32.753   8.932   0.419  1.00 20.00     0.011 C 
BRANCH   7   9
HETATM    9  C7  UNL     1     -32.635  11.179   1.589  1.00 20.00     0.119 C 
HETATM   10 CL10 UNL     1     -33.894  11.923   0.576  1.00 20.00    -0.130 Cl
ENDBRANCH   7   9
ENDBRANCH   6   7
ENDBRANCH   1   6
TORSDOF 5
