REMARK  1 active torsions:
REMARK  status: ('A' for Active; 'I' for Inactive)
REMARK    1  A    between atoms: C2_2  and  C6_6 
ROOT
HETATM    1  C1  UNL     1     -35.012   6.040   3.448  1.00 20.00     0.015 A 
HETATM    2  C2  UNL     1     -33.533   6.267   3.605  1.00 20.00     0.008 A 
HETATM    3  C3  UNL     1     -34.278   5.400   4.608  1.00 20.00    -0.043 A 
HETATM    4  C4  UNL     1     -34.028   3.916   4.551  1.00 20.00     0.015 C 
HETATM    5  C5  UNL     1     -34.556   5.919   5.994  1.00 20.00     0.015 C 
ENDROOT
BRANCH   2   6
HETATM    6  C6  UNL     1     -33.011   7.622   3.943  1.00 20.00     0.120 C 
HETATM    7 CL7  UNL     1     -32.930   8.662   2.495  1.00 20.00    -0.130 Cl
ENDBRANCH   2   6
TORSDOF 1
