REMARK  2 active torsions:
REMARK  status: ('A' for Active; 'I' for Inactive)
REMARK    1  A    between atoms: C1_1  and  C5_5 
REMARK    2  A    between atoms: C1_1  and  C6_6 
ROOT
HETATM    1  C2  UNL     1     -32.756   5.750   2.610  1.00 20.00     0.023 C 
HETATM    2  C3  UNL     1     -33.906   4.842   3.011  1.00 20.00     0.075 C 
HETATM    3  C4  UNL     1     -33.850   7.255   4.190  1.00 20.00     0.086 C 
HETATM    4  C5  UNL     1     -33.250   7.180   2.793  1.00 20.00     0.066 C 
HETATM    5  S8  UNL     1     -34.666   5.654   4.442  1.00 20.00    -0.168 SA
ENDROOT
BRANCH   4   6
HETATM    6  C1  UNL     1     -32.118   8.145   2.641  1.00 20.00     0.145 C 
HETATM    7  O7  UNL     1     -31.439   8.471   3.614  1.00 20.00    -0.296 OA
BRANCH   6   8
HETATM    8  C6  UNL     1     -31.886   8.671   1.244  1.00 20.00     0.193 C 
HETATM    9 CL9  UNL     1     -32.835  10.138   0.961  1.00 20.00    -0.123 Cl
ENDBRANCH   6   8
ENDBRANCH   4   6
TORSDOF 2
