REMARK  4 active torsions:
REMARK  status: ('A' for Active; 'I' for Inactive)
REMARK    1  A    between atoms: C1_1  and  C5_5 
REMARK    2  A    between atoms: C2_2  and  C6_6 
REMARK    3  A    between atoms: C5_5  and  N8_8 
REMARK    4  A    between atoms: C7_7  and  N8_8 
ROOT
HETATM    1  C5  UNL     1     -33.332   6.776   3.708  1.00 20.00     0.299 C 
ENDROOT
BRANCH   1   2
HETATM    2  C1  UNL     1     -32.666   7.255   2.460  1.00 20.00     0.000 C 
HETATM    3  C2  UNL     1     -32.720   8.524   2.029  1.00 20.00    -0.014 C 
BRANCH   3   4
HETATM    4  C6  UNL     1     -32.039   9.008   0.791  1.00 20.00     0.141 C 
HETATM    5 CL9  UNL     1     -33.235   9.688  -0.331  1.00 20.00    -0.126 Cl
ENDBRANCH   3   4
ENDBRANCH   1   2
BRANCH   1   6
HETATM    6  N8  UNL     1     -34.253   5.727   3.375  1.00 20.00     0.087 N 
HETATM    7  C4  UNL     1     -33.560   4.441   3.192  1.00 20.00     0.310 C 
BRANCH   6   8
HETATM    8  C7  UNL     1     -35.295   5.578   4.404  1.00 20.00     0.268 C 
HETATM    9  C3  UNL     1     -34.707   5.163   5.709  1.00 20.00     0.037 C 
ENDBRANCH   6   8
ENDBRANCH   1   6
TORSDOF 4
