REMARK  4 active torsions:
REMARK  status: ('A' for Active; 'I' for Inactive)
REMARK    1  A    between atoms: C1_1  and  C6_6 
REMARK    2  A    between atoms: C2_2  and  C7_7 
REMARK    3  A    between atoms: C6_6  and  S9_9 
REMARK    4  A    between atoms: C8_8  and  S9_9 
ROOT
HETATM    1  C6  UNL     1     -32.566   7.011   2.166  1.00 20.00     0.101 C 
ENDROOT
BRANCH   1   2
HETATM    2  C1  UNL     1     -33.136   6.146   3.245  1.00 20.00    -0.020 C 
HETATM    3  C2  UNL     1     -33.624   4.915   3.032  1.00 20.00    -0.015 C 
BRANCH   3   4
HETATM    4  C7  UNL     1     -34.186   4.049   4.110  1.00 20.00     0.141 C 
HETATM    5 CL10 UNL     1     -34.875   5.058   5.399  1.00 20.00    -0.126 Cl
ENDBRANCH   3   4
ENDBRANCH   1   2
BRANCH   1   6
HETATM    6  S9  UNL     1     -33.864   8.031   1.437  1.00 20.00    -0.156 SA
BRANCH   6   7
HETATM    7  C8  UNL     1     -32.783   9.315   0.696  1.00 20.00    -0.003 C 
HETATM    8  C3  UNL     1     -31.441   8.674   0.329  1.00 20.00     0.026 C 
HETATM    9  C4  UNL     1     -33.472   9.861  -0.558  1.00 20.00     0.026 C 
HETATM   10  C5  UNL     1     -32.577  10.435   1.720  1.00 20.00     0.026 C 
ENDBRANCH   6   7
ENDBRANCH   1   6
TORSDOF 4
