REMARK  3 active torsions:
REMARK  status: ('A' for Active; 'I' for Inactive)
REMARK    1  A    between atoms: C3_3  and  C5_5 
REMARK    2  A    between atoms: C5_5  and  C7_7 
REMARK    3  A    between atoms: C6_6  and  C7_7 
ROOT
HETATM    1  C5  UNL     1     -32.424   8.691   2.626  1.00 20.00     0.010 C 
ENDROOT
BRANCH   1   2
HETATM    2  C3  UNL     1     -32.857   9.474   1.422  1.00 20.00    -0.014 A 
HETATM    3  C1  UNL     1     -31.833  10.055   0.487  1.00 20.00     0.005 A 
HETATM    4  C2  UNL     1     -32.684   8.899   0.043  1.00 20.00     0.005 A 
ENDBRANCH   1   2
BRANCH   1   5
HETATM    5  C7  UNL     1     -33.536   7.783   3.189  1.00 20.00    -0.004 C 
HETATM    6  C4  UNL     1     -33.711   6.510   2.354  1.00 20.00     0.011 C 
BRANCH   5   7
HETATM    7  C6  UNL     1     -33.303   7.453   4.673  1.00 20.00     0.119 C 
HETATM    8 CL8  UNL     1     -34.647   6.560   5.426  1.00 20.00    -0.130 Cl
ENDBRANCH   5   7
ENDBRANCH   1   5
TORSDOF 3
