REMARK  4 active torsions:
REMARK  status: ('A' for Active; 'I' for Inactive)
REMARK    1  A    between atoms: C2_2  and  C6_6 
REMARK    2  A    between atoms: C6_6  and  C8_8 
REMARK    3  A    between atoms: C7_7  and  C8_8 
REMARK    4  A    between atoms: C7_7  and  C9_9 
ROOT
HETATM    1  C1  UNL     1     -32.081   9.618   1.363  1.00 20.00    -0.111 C 
HETATM    2  C2  UNL     1     -31.921   8.715   2.137  1.00 20.00    -0.107 C 
HETATM    3  C3  UNL     1     -32.278  10.719   0.421  1.00 20.00     0.112 C 
ENDROOT
BRANCH   2   4
HETATM    4  C6  UNL     1     -31.727   7.603   3.080  1.00 20.00     0.098 C 
BRANCH   4   5
HETATM    5  C8  UNL     1     -32.499   7.773   4.403  1.00 20.00    -0.006 C 
HETATM    6  C4  UNL     1     -32.354   9.201   4.948  1.00 20.00     0.011 C 
BRANCH   5   7
HETATM    7  C7  UNL     1     -33.999   7.396   4.328  1.00 20.00     0.020 C 
BRANCH   7   8
HETATM    8  C9  UNL     1     -34.317   5.897   4.329  1.00 20.00     0.054 C 
HETATM    9  C5  UNL     1     -35.732   5.630   3.831  1.00 20.00     0.022 C 
HETATM   10 BR10 UNL     1     -34.176   5.174   6.146  1.00 20.00    -0.092 Br
ENDBRANCH   7   8
ENDBRANCH   5   7
ENDBRANCH   4   5
ENDBRANCH   2   4
TORSDOF 4
