REMARK  3 active torsions:
REMARK  status: ('A' for Active; 'I' for Inactive)
REMARK    1  A    between atoms: C6_6  and  C7_7 
REMARK    2  A    between atoms: C6_6  and  C8_8 
REMARK    3  A    between atoms: C7_7  and  C9_9 
ROOT
HETATM    1  C1  UNL     1     -32.869   4.481   2.413  1.00 20.00     0.011 C 
HETATM    2  C7  UNL     1     -32.996   5.756   3.264  1.00 20.00    -0.010 C 
ENDROOT
BRANCH   2   3
HETATM    3  C6  UNL     1     -33.268   6.987   2.352  1.00 20.00     0.024 C 
BRANCH   3   4
HETATM    4  C8  UNL     1     -32.907   8.366   2.934  1.00 20.00     0.078 C 
HETATM    5  C2  UNL     1     -31.437   8.416   3.341  1.00 20.00     0.026 C 
HETATM    6 CL10 UNL     1     -33.219   9.670   1.751  1.00 20.00    -0.125 Cl
ENDBRANCH   3   4
ENDBRANCH   2   3
BRANCH   2   7
HETATM    7  C9  UNL     1     -34.046   5.609   4.436  1.00 20.00    -0.048 C 
HETATM    8  C3  UNL     1     -33.643   6.403   5.693  1.00 20.00     0.015 C 
HETATM    9  C4  UNL     1     -35.436   6.108   3.978  1.00 20.00     0.015 C 
HETATM   10  C5  UNL     1     -34.214   4.126   4.836  1.00 20.00     0.015 C 
ENDBRANCH   2   7
TORSDOF 3
