REMARK  1 active torsions:
REMARK  status: ('A' for Active; 'I' for Inactive)
REMARK    1  A    between atoms: C7_7  and  C8_8 
ROOT
HETATM    1  C1  UNL     1     -32.594   9.090   0.862  1.00 20.00     0.064 C 
HETATM    2  C2  UNL     1     -31.962   8.438   4.584  1.00 20.00     0.002 C 
HETATM    3  C3  UNL     1     -31.673   8.865   3.143  1.00 20.00     0.019 C 
HETATM    4  C4  UNL     1     -32.908   7.239   4.691  1.00 20.00     0.013 C 
HETATM    5  C5  UNL     1     -33.201   7.084   2.181  1.00 20.00     0.032 C 
HETATM    6  C6  UNL     1     -32.859   8.585   2.220  1.00 20.00     0.093 C 
HETATM    7  C7  UNL     1     -32.810   6.328   3.466  1.00 20.00     0.095 C 
HETATM    8  N9  UNL     1     -32.386   9.488  -0.208  1.00 20.00    -0.197 NA
ENDROOT
BRANCH   7   9
HETATM    9  C8  UNL     1     -33.665   5.074   3.638  1.00 20.00     0.391 C 
HETATM   10  F10 UNL     1     -33.274   4.403   4.731  1.00 20.00    -0.171 F 
HETATM   11  F11 UNL     1     -34.954   5.416   3.771  1.00 20.00    -0.171 F 
HETATM   12  F12 UNL     1     -33.530   4.280   2.566  1.00 20.00    -0.171 F 
ENDBRANCH   7   9
TORSDOF 1
