REMARK  2 active torsions:
REMARK  status: ('A' for Active; 'I' for Inactive)
REMARK    1  A    between atoms: C8_8  and  C11_11 
REMARK    2  A    between atoms: C8_8  and  O12_12 
ROOT
HETATM    1  C1  UNL     1     -32.731  10.542   1.412  1.00 20.00     0.012 C 
HETATM    2  C2  UNL     1     -33.150   9.417   1.389  1.00 20.00    -0.115 C 
HETATM    3  C11 UNL     1     -33.665   8.047   1.347  1.00 20.00     0.131 C 
ENDROOT
BRANCH   3   4
HETATM    4  C8  UNL     1     -33.414   7.329   2.676  1.00 20.00     0.069 C 
HETATM    5  C4  UNL     1     -34.114   8.074   3.827  1.00 20.00     0.043 C 
HETATM    6  C6  UNL     1     -34.080   7.342   5.180  1.00 20.00    -0.015 C 
HETATM    7  C3  UNL     1     -34.526   5.881   5.032  1.00 20.00     0.008 C 
HETATM    8  C9  UNL     1     -32.725   7.454   5.883  1.00 20.00     0.010 C 
HETATM    9  C7  UNL     1     -33.772   5.129   3.927  1.00 20.00    -0.015 C 
HETATM   10  C5  UNL     1     -33.892   5.872   2.586  1.00 20.00     0.043 C 
HETATM   11  C10 UNL     1     -34.304   3.701   3.794  1.00 20.00     0.010 C 
BRANCH   4  12
HETATM   12  O12 UNL     1     -32.002   7.321   2.891  1.00 20.00    -0.389 OA
HETATM   13  H30 UNL     1     -31.615   6.843   2.143  1.00 20.00     0.210 HD
ENDBRANCH   4  12
ENDBRANCH   3   4
TORSDOF 2
