REMARK  5 active torsions:
REMARK  status: ('A' for Active; 'I' for Inactive)
REMARK    1  A    between atoms: C6_6  and  C7_7 
REMARK    2  A    between atoms: C7_7  and  C10_10 
REMARK    3  A    between atoms: C8_8  and  C9_9 
REMARK    4  A    between atoms: C8_8  and  C10_10 
REMARK    5  A    between atoms: C9_9  and  O11_11 
ROOT
HETATM    1  C1  UNL     1     -33.150   8.931   0.846  1.00 20.00     0.012 C 
HETATM    2  C2  UNL     1     -32.380   8.531   1.676  1.00 20.00    -0.117 C 
HETATM    3  C6  UNL     1     -31.433   8.039   2.690  1.00 20.00     0.093 C 
ENDROOT
BRANCH   3   4
HETATM    4  C7  UNL     1     -31.952   8.325   4.105  1.00 20.00     0.021 C 
BRANCH   4   5
HETATM    5  C10 UNL     1     -33.287   7.626   4.493  1.00 20.00    -0.045 C 
HETATM    6  C4  UNL     1     -34.492   8.427   3.948  1.00 20.00     0.015 C 
HETATM    7  C5  UNL     1     -33.427   7.541   6.024  1.00 20.00     0.015 C 
BRANCH   5   8
HETATM    8  C8  UNL     1     -33.356   6.207   3.838  1.00 20.00     0.040 C 
BRANCH   8   9
HETATM    9  C9  UNL     1     -34.290   5.171   4.483  1.00 20.00     0.114 C 
HETATM   10  C3  UNL     1     -34.188   3.830   3.760  1.00 20.00     0.039 C 
BRANCH   9  11
HETATM   11  O11 UNL     1     -35.639   5.615   4.397  1.00 20.00    -0.396 OA
HETATM   12  H29 UNL     1     -36.184   4.937   4.827  1.00 20.00     0.210 HD
ENDBRANCH   9  11
ENDBRANCH   8   9
ENDBRANCH   5   8
ENDBRANCH   4   5
ENDBRANCH   3   4
TORSDOF 5
