REMARK  3 active torsions:
REMARK  status: ('A' for Active; 'I' for Inactive)
REMARK    1  A    between atoms: C6_6  and  C7_7 
REMARK    2  A    between atoms: C6_6  and  C8_8 
REMARK    3  A    between atoms: C7_7  and  C9_9 
ROOT
HETATM    1  C1  UNL     1     -32.994   5.499   2.472  1.00 20.00     0.011 C 
HETATM    2  C7  UNL     1     -33.270   6.472   3.632  1.00 20.00    -0.010 C 
ENDROOT
BRANCH   2   3
HETATM    3  C6  UNL     1     -33.585   7.892   3.079  1.00 20.00     0.024 C 
BRANCH   3   4
HETATM    4  C8  UNL     1     -32.503   8.541   2.196  1.00 20.00     0.078 C 
HETATM    5  C2  UNL     1     -31.219   8.766   2.989  1.00 20.00     0.026 C 
HETATM    6 CL10 UNL     1     -33.057  10.111   1.543  1.00 20.00    -0.125 Cl
ENDBRANCH   3   4
ENDBRANCH   2   3
BRANCH   2   7
HETATM    7  C9  UNL     1     -34.371   5.937   4.632  1.00 20.00    -0.048 C 
HETATM    8  C3  UNL     1     -34.578   6.874   5.837  1.00 20.00     0.015 C 
HETATM    9  C4  UNL     1     -35.727   5.783   3.904  1.00 20.00     0.015 C 
HETATM   10  C5  UNL     1     -33.989   4.539   5.167  1.00 20.00     0.015 C 
ENDBRANCH   2   7
TORSDOF 3
