REMARK  1 active torsions:
REMARK  status: ('A' for Active; 'I' for Inactive)
REMARK    1  A    between atoms: C7_7  and  C8_8 
ROOT
HETATM    1  C1  UNL     1     -34.126   4.399   5.154  1.00 20.00     0.064 C 
HETATM    2  C2  UNL     1     -35.374   5.767   3.504  1.00 20.00     0.020 C 
HETATM    3  C3  UNL     1     -33.345   4.427   2.800  1.00 20.00     0.020 C 
HETATM    4  C4  UNL     1     -34.526   7.041   3.516  1.00 20.00     0.015 C 
HETATM    5  C5  UNL     1     -32.501   5.704   2.813  1.00 20.00     0.015 C 
HETATM    6  C6  UNL     1     -34.551   4.496   3.744  1.00 20.00     0.093 C 
HETATM    7  C7  UNL     1     -33.351   6.950   2.534  1.00 20.00     0.093 C 
HETATM    8  N9  UNL     1     -33.791   4.323   6.262  1.00 20.00    -0.197 NA
ENDROOT
BRANCH   7   9
HETATM    9  C8  UNL     1     -32.494   8.212   2.600  1.00 20.00     0.391 C 
HETATM   10  F10 UNL     1     -33.242   9.290   2.319  1.00 20.00    -0.171 F 
HETATM   11  F11 UNL     1     -31.975   8.352   3.829  1.00 20.00    -0.171 F 
HETATM   12  F12 UNL     1     -31.493   8.134   1.711  1.00 20.00    -0.171 F 
ENDBRANCH   7   9
TORSDOF 1
