REMARK  4 active torsions:
REMARK  status: ('A' for Active; 'I' for Inactive)
REMARK    1  A    between atoms: C5_5  and  C8_8 
REMARK    2  A    between atoms: C6_6  and  C9_9 
REMARK    3  A    between atoms: C9_9  and  C10_10 
REMARK    4  A    between atoms: C10_10  and  O11_11 
ROOT
HETATM    1  C1  UNL     1     -31.887   8.666   2.962  1.00 20.00     0.005 C 
HETATM    2  C2  UNL     1     -33.648   7.213   1.883  1.00 20.00     0.005 C 
HETATM    3  C3  UNL     1     -31.935   7.794   4.215  1.00 20.00     0.005 C 
HETATM    4  C4  UNL     1     -33.696   6.341   3.136  1.00 20.00     0.005 C 
HETATM    5  C5  UNL     1     -32.276   7.876   1.706  1.00 20.00    -0.015 C 
HETATM    6  C6  UNL     1     -33.307   7.131   4.392  1.00 20.00    -0.013 C 
ENDROOT
BRANCH   6   7
HETATM    7  C9  UNL     1     -33.314   6.226   5.623  1.00 20.00     0.030 C 
BRANCH   7   8
HETATM    8  C10 UNL     1     -34.728   5.914   6.075  1.00 20.00     0.164 C 
BRANCH   8   9
HETATM    9  O11 UNL     1     -35.401   5.240   5.021  1.00 20.00    -0.401 OA
HETATM   10  H31 UNL     1     -36.300   5.053   5.336  1.00 20.00     0.209 HD
ENDBRANCH   8   9
ENDBRANCH   7   8
ENDBRANCH   6   7
BRANCH   5  11
HETATM   11  C8  UNL     1     -32.270   8.782   0.476  1.00 20.00     0.000 C 
HETATM   12  C7  UNL     1     -33.262   9.891   0.602  1.00 20.00     0.005 C 
ENDBRANCH   5  11
TORSDOF 4
