REMARK  2 active torsions:
REMARK  status: ('A' for Active; 'I' for Inactive)
REMARK    1  A    between atoms: C4_4  and  C9_9 
REMARK    2  A    between atoms: C9_9  and  C10_10 
ROOT
HETATM    1  C1  UNL     1     -34.314   6.822   2.177  1.00 20.00     0.005 C 
HETATM    2  C2  UNL     1     -34.292   5.407   2.740  1.00 20.00     0.005 C 
HETATM    3  C3  UNL     1     -33.223   7.360   4.432  1.00 20.00     0.009 C 
HETATM    4  C4  UNL     1     -33.375   7.762   2.953  1.00 20.00    -0.013 C 
HETATM    5  C5  UNL     1     -34.767   5.351   4.208  1.00 20.00    -0.015 C 
HETATM    6  C6  UNL     1     -34.493   6.682   4.963  1.00 20.00    -0.015 C 
HETATM    7  C7  UNL     1     -34.175   4.104   4.874  1.00 20.00     0.010 C 
HETATM    8  C8  UNL     1     -34.442   6.543   6.485  1.00 20.00     0.010 C 
ENDROOT
BRANCH   4   9
HETATM    9  C9  UNL     1     -32.000   7.855   2.289  1.00 20.00     0.020 C 
BRANCH   9  10
HETATM   10  C10 UNL     1     -31.991   8.734   1.046  1.00 20.00     0.115 C 
HETATM   11 CL11 UNL     1     -32.452  10.413   1.411  1.00 20.00    -0.130 Cl
ENDBRANCH   9  10
ENDBRANCH   4   9
TORSDOF 2
