REMARK  1 active torsions:
REMARK  status: ('A' for Active; 'I' for Inactive)
REMARK    1  A    between atoms: C5_5  and  C7_7 
ROOT
HETATM    1  C1  UNL     1     -33.589   4.874   3.104  1.00 20.00     0.002 C 
HETATM    2  C2  UNL     1     -32.651   5.949   2.576  1.00 20.00     0.013 C 
HETATM    3  C3  UNL     1     -34.231   5.243   4.444  1.00 20.00     0.020 C 
HETATM    4  C4  UNL     1     -34.464   7.562   3.427  1.00 20.00     0.033 C 
HETATM    5  C5  UNL     1     -33.387   7.280   2.359  1.00 20.00     0.095 C 
HETATM    6  C6  UNL     1     -34.322   6.749   4.715  1.00 20.00     0.083 C 
HETATM    7 CL11 UNL     1     -32.904   7.308   5.660  1.00 20.00    -0.125 Cl
ENDROOT
BRANCH   5   8
HETATM    8  C7  UNL     1     -32.389   8.432   2.230  1.00 20.00     0.391 C 
HETATM    9  F8  UNL     1     -33.038   9.572   1.949  1.00 20.00    -0.171 F 
HETATM   10  F9  UNL     1     -31.714   8.587   3.378  1.00 20.00    -0.171 F 
HETATM   11  F10 UNL     1     -31.516   8.174   1.244  1.00 20.00    -0.171 F 
ENDBRANCH   5   8
TORSDOF 1
