REMARK  0 active torsions:
REMARK  status: ('A' for Active; 'I' for Inactive)
ROOT
HETATM    1  C1  UNL     1     -32.627   8.927   0.617  1.00 20.00     0.088 C 
HETATM    2  C2  UNL     1     -32.710   7.220   2.314  1.00 20.00    -0.070 C 
HETATM    3  C3  UNL     1     -32.938   7.616   1.054  1.00 20.00     0.096 C 
HETATM    4  C4  UNL     1     -32.110   8.140   3.346  1.00 20.00     0.035 C 
HETATM    5  C5  UNL     1     -33.074   5.850   2.811  1.00 20.00     0.039 C 
HETATM    6  C6  UNL     1     -32.527   7.764   4.775  1.00 20.00     0.009 C 
HETATM    7  C7  UNL     1     -34.093   5.911   3.974  1.00 20.00    -0.011 C 
HETATM    8  C8  UNL     1     -33.961   7.214   4.820  1.00 20.00    -0.014 C 
HETATM    9  C9  UNL     1     -33.992   4.611   4.781  1.00 20.00     0.010 C 
HETATM   10  C10 UNL     1     -34.450   7.089   6.262  1.00 20.00     0.010 C 
HETATM   11  N11 UNL     1     -32.375  10.000   0.253  1.00 20.00    -0.192 NA
ENDROOT
TORSDOF 0
