REMARK  5 active torsions:
REMARK  status: ('A' for Active; 'I' for Inactive)
REMARK    1  A    between atoms: C6_6  and  C7_7 
REMARK    2  A    between atoms: C6_6  and  C9_9 
REMARK    3  A    between atoms: C7_7  and  C11_11 
REMARK    4  A    between atoms: C8_8  and  C10_10 
REMARK    5  A    between atoms: C8_8  and  C11_11 
ROOT
HETATM    1  C4  UNL     1     -32.462   7.597   1.304  1.00 20.00     0.015 C 
HETATM    2  C5  UNL     1     -31.193   9.268   2.628  1.00 20.00     0.015 C 
HETATM    3  C11 UNL     1     -32.558   8.560   2.511  1.00 20.00    -0.046 C 
ENDROOT
BRANCH   3   4
HETATM    4  C7  UNL     1     -32.783   7.743   3.817  1.00 20.00     0.009 C 
BRANCH   4   5
HETATM    5  C6  UNL     1     -34.208   7.210   4.032  1.00 20.00     0.004 C 
BRANCH   5   6
HETATM    6  C9  UNL     1     -34.345   6.335   5.295  1.00 20.00    -0.023 C 
HETATM    7  C1  UNL     1     -33.984   7.091   6.574  1.00 20.00     0.009 C 
HETATM    8  C2  UNL     1     -33.459   5.093   5.163  1.00 20.00     0.009 C 
ENDBRANCH   5   6
ENDBRANCH   4   5
ENDBRANCH   3   4
BRANCH   3   9
HETATM    9  C8  UNL     1     -33.705   9.573   2.208  1.00 20.00     0.028 C 
BRANCH   9  10
HETATM   10  C10 UNL     1     -33.375  10.827   1.375  1.00 20.00     0.079 C 
HETATM   11  C3  UNL     1     -32.973  10.436  -0.046  1.00 20.00     0.026 C 
HETATM   12 CL12 UNL     1     -34.770  11.939   1.265  1.00 20.00    -0.125 Cl
ENDBRANCH   9  10
ENDBRANCH   3   9
TORSDOF 5
