REMARK  0 active torsions:
REMARK  status: ('A' for Active; 'I' for Inactive)
ROOT
HETATM    1  C1  UNL     1     -32.217   8.870   0.710  1.00 20.00     0.088 C 
HETATM    2  C2  UNL     1     -32.441   7.285   2.509  1.00 20.00    -0.070 C 
HETATM    3  C3  UNL     1     -32.543   7.584   1.206  1.00 20.00     0.096 C 
HETATM    4  C4  UNL     1     -31.974   8.297   3.524  1.00 20.00     0.035 C 
HETATM    5  C5  UNL     1     -32.822   5.940   3.062  1.00 20.00     0.039 C 
HETATM    6  C6  UNL     1     -32.407   7.936   4.951  1.00 20.00     0.009 C 
HETATM    7  C7  UNL     1     -33.929   6.052   4.131  1.00 20.00    -0.011 C 
HETATM    8  C8  UNL     1     -33.828   7.355   4.976  1.00 20.00    -0.014 C 
HETATM    9  C9  UNL     1     -35.318   5.943   3.490  1.00 20.00     0.010 C 
HETATM   10  C10 UNL     1     -34.282   7.112   6.418  1.00 20.00     0.010 C 
HETATM   11  N11 UNL     1     -31.951   9.922   0.297  1.00 20.00    -0.192 NA
ENDROOT
TORSDOF 0
