REMARK  2 active torsions:
REMARK  status: ('A' for Active; 'I' for Inactive)
REMARK    1  A    between atoms: C5_5  and  C7_7 
REMARK    2  A    between atoms: C6_6  and  S11_11 
ROOT
HETATM    1  C1  UNL     1     -31.596   8.656   3.974  1.00 20.00     0.002 C 
HETATM    2  C2  UNL     1     -32.399   7.410   4.335  1.00 20.00     0.013 C 
HETATM    3  C3  UNL     1     -31.224   8.679   2.492  1.00 20.00     0.015 C 
HETATM    4  C4  UNL     1     -33.268   7.278   1.963  1.00 20.00     0.028 C 
HETATM    5  C5  UNL     1     -33.646   7.259   3.454  1.00 20.00     0.094 C 
HETATM    6  C6  UNL     1     -32.426   8.495   1.558  1.00 20.00     0.045 C 
ENDROOT
BRANCH   5   7
HETATM    7  C7  UNL     1     -34.394   5.971   3.800  1.00 20.00     0.391 C 
HETATM    8  F8  UNL     1     -35.503   5.871   3.053  1.00 20.00    -0.171 F 
HETATM    9  F9  UNL     1     -33.611   4.908   3.563  1.00 20.00    -0.171 F 
HETATM   10  F10 UNL     1     -34.741   5.977   5.095  1.00 20.00    -0.171 F 
ENDBRANCH   5   7
BRANCH   6  11
HETATM   11  S11 UNL     1     -33.454  10.010   1.504  1.00 20.00    -0.177 SA
HETATM   12  H22 UNL     1     -32.482  10.806   1.042  1.00 20.00     0.102 HD
ENDBRANCH   6  11
TORSDOF 2
