REMARK  3 active torsions:
REMARK  status: ('A' for Active; 'I' for Inactive)
REMARK    1  A    between atoms: C1_1  and  C12_12 
REMARK    2  A    between atoms: C5_5  and  C11_11 
REMARK    3  A    between atoms: C11_11  and  C12_12 
ROOT
HETATM    1  C2  UNL     1     -32.938   5.612   2.847  1.00 20.00     0.005 C 
HETATM    2  C3  UNL     1     -33.072   4.813   4.142  1.00 20.00     0.005 C 
HETATM    3  C4  UNL     1     -34.153   7.554   3.923  1.00 20.00     0.009 C 
HETATM    4  C5  UNL     1     -32.928   7.123   3.104  1.00 20.00    -0.013 C 
HETATM    5  C6  UNL     1     -34.285   5.232   4.989  1.00 20.00    -0.015 C 
HETATM    6  C7  UNL     1     -34.320   6.760   5.231  1.00 20.00    -0.015 C 
HETATM    7  C8  UNL     1     -35.593   4.742   4.353  1.00 20.00     0.010 C 
HETATM    8  C9  UNL     1     -33.271   7.181   6.268  1.00 20.00     0.010 C 
ENDROOT
BRANCH   4   9
HETATM    9  C11 UNL     1     -32.869   7.891   1.783  1.00 20.00     0.015 C 
BRANCH   9  10
HETATM   10  C12 UNL     1     -32.396   9.335   1.968  1.00 20.00     0.043 C 
HETATM   11  C10 UNL     1     -30.877   9.384   2.125  1.00 20.00     0.017 C 
BRANCH  10  12
HETATM   12  C1  UNL     1     -32.770  10.238   0.806  1.00 20.00     0.235 C 
HETATM   13  O13 UNL     1     -33.400   9.883  -0.185  1.00 20.00    -0.306 OA
ENDBRANCH  10  12
ENDBRANCH   9  10
ENDBRANCH   4   9
TORSDOF 3
