REMARK  3 active torsions:
REMARK  status: ('A' for Active; 'I' for Inactive)
REMARK    1  A    between atoms: C5_5  and  C7_7 
REMARK    2  A    between atoms: C6_6  and  C7_7 
REMARK    3  A    between atoms: C6_6  and  C8_8 
ROOT
HETATM    1  C1  UNL     1     -32.367   9.579   0.864  1.00 20.00     0.012 C 
HETATM    2  C2  UNL     1     -32.228   8.544   1.457  1.00 20.00    -0.117 C 
HETATM    3  C5  UNL     1     -32.050   7.275   2.178  1.00 20.00     0.097 C 
ENDROOT
BRANCH   3   4
HETATM    4  C7  UNL     1     -33.208   6.941   3.138  1.00 20.00    -0.006 C 
HETATM    5  C3  UNL     1     -33.139   7.796   4.412  1.00 20.00     0.011 C 
BRANCH   4   6
HETATM    6  C6  UNL     1     -33.306   5.445   3.521  1.00 20.00     0.025 C 
BRANCH   6   7
HETATM    7  C8  UNL     1     -34.560   5.034   4.308  1.00 20.00     0.078 C 
HETATM    8  C4  UNL     1     -35.784   5.804   3.824  1.00 20.00     0.026 C 
HETATM    9 CL9  UNL     1     -34.349   5.332   6.059  1.00 20.00    -0.125 Cl
ENDBRANCH   6   7
ENDBRANCH   4   6
ENDBRANCH   3   4
TORSDOF 3
