REMARK  2 active torsions:
REMARK  status: ('A' for Active; 'I' for Inactive)
REMARK    1  A    between atoms: C1_1  and  C5_5 
REMARK    2  A    between atoms: C1_1  and  C11_11 
ROOT
HETATM    1  C2  UNL     1     -32.881   5.690   2.678  1.00 20.00     0.012 C 
HETATM    2  C3  UNL     1     -34.287   5.279   3.107  1.00 20.00     0.005 C 
HETATM    3  C4  UNL     1     -33.409   7.707   4.171  1.00 20.00     0.016 C 
HETATM    4  C5  UNL     1     -32.598   7.165   2.987  1.00 20.00     0.056 C 
HETATM    5  C6  UNL     1     -34.520   5.464   4.620  1.00 20.00    -0.015 C 
HETATM    6  C7  UNL     1     -33.674   6.618   5.218  1.00 20.00    -0.014 C 
HETATM    7  C8  UNL     1     -34.252   4.153   5.368  1.00 20.00     0.010 C 
HETATM    8  C9  UNL     1     -34.349   7.222   6.452  1.00 20.00     0.010 C 
ENDROOT
BRANCH   4   9
HETATM    9  C1  UNL     1     -32.881   8.009   1.780  1.00 20.00     0.130 C 
HETATM   10  O12 UNL     1     -33.314   7.508   0.743  1.00 20.00    -0.298 OA
BRANCH   9  11
HETATM   11  C11 UNL     1     -32.603   9.494   1.922  1.00 20.00     0.074 C 
HETATM   12  C10 UNL     1     -32.888  10.267   0.648  1.00 20.00     0.013 C 
ENDBRANCH   9  11
ENDBRANCH   4   9
TORSDOF 2
