REMARK  1 active torsions:
REMARK  status: ('A' for Active; 'I' for Inactive)
REMARK    1  A    between atoms: C6_6  and  C8_8 
ROOT
HETATM    1  C1  UNL     1     -34.350   7.575   3.463  1.00 20.00     0.016 C 
HETATM    2  C2  UNL     1     -32.474   6.081   2.644  1.00 20.00     0.016 C 
HETATM    3  C3  UNL     1     -35.186   6.342   3.807  1.00 20.00     0.041 C 
HETATM    4  C4  UNL     1     -33.306   4.844   2.985  1.00 20.00     0.041 C 
HETATM    5  C5  UNL     1     -34.051   4.691   5.482  1.00 20.00     0.207 A 
HETATM    6  C6  UNL     1     -33.369   7.289   2.312  1.00 20.00     0.093 C 
HETATM    7  C7  UNL     1     -34.289   5.169   4.069  1.00 20.00     0.082 A 
HETATM    8  O9  UNL     1     -34.968   4.024   4.602  1.00 20.00    -0.375 OA
ENDROOT
BRANCH   6   9
HETATM    9  C8  UNL     1     -32.518   8.521   2.012  1.00 20.00     0.391 C 
HETATM   10  F10 UNL     1     -33.308   9.557   1.692  1.00 20.00    -0.171 F 
HETATM   11  F11 UNL     1     -31.787   8.848   3.089  1.00 20.00    -0.171 F 
HETATM   12  F12 UNL     1     -31.692   8.270   0.985  1.00 20.00    -0.171 F 
ENDBRANCH   6   9
TORSDOF 1
