REMARK  0 active torsions:
REMARK  status: ('A' for Active; 'I' for Inactive)
ROOT
HETATM    1  C1  UNL     1     -32.719   9.690   1.543  1.00 20.00     0.088 C 
HETATM    2  C2  UNL     1     -33.040   7.912   3.137  1.00 20.00    -0.070 C 
HETATM    3  C3  UNL     1     -32.710   9.184   2.867  1.00 20.00     0.096 C 
HETATM    4  C4  UNL     1     -33.442   6.940   2.061  1.00 20.00     0.035 C 
HETATM    5  C5  UNL     1     -33.062   7.367   4.542  1.00 20.00     0.039 C 
HETATM    6  C6  UNL     1     -34.791   6.296   2.388  1.00 20.00     0.009 C 
HETATM    7  C7  UNL     1     -34.423   6.721   4.859  1.00 20.00    -0.011 C 
HETATM    8  C8  UNL     1     -34.835   5.668   3.796  1.00 20.00    -0.014 C 
HETATM    9  C9  UNL     1     -34.429   6.161   6.283  1.00 20.00     0.010 C 
HETATM   10  C10 UNL     1     -34.007   4.379   3.844  1.00 20.00     0.010 C 
HETATM   11  N11 UNL     1     -32.724  10.111   0.462  1.00 20.00    -0.192 NA
ENDROOT
TORSDOF 0
