REMARK  3 active torsions:
REMARK  status: ('A' for Active; 'I' for Inactive)
REMARK    1  A    between atoms: C2_2  and  C3_3 
REMARK    2  A    between atoms: C2_2  and  S8_8 
REMARK    3  A    between atoms: C3_3  and  C4_4 
ROOT
HETATM    1  C3  UNL     1     -33.285   6.070   3.671  1.00 20.00     0.174 C 
HETATM    2 BR9  UNL     1     -33.187   4.579   2.382  1.00 20.00    -0.081 Br
ENDROOT
BRANCH   1   3
HETATM    3  C2  UNL     1     -33.436   7.362   2.868  1.00 20.00     0.098 C 
BRANCH   3   4
HETATM    4  S8  UNL     1     -31.853   7.978   2.218  1.00 20.00    -0.172 SA
HETATM    5  C1  UNL     1     -32.481   9.424   1.335  1.00 20.00     0.089 C 
ENDBRANCH   3   4
ENDBRANCH   1   3
BRANCH   1   6
HETATM    6  C4  UNL     1     -34.424   5.773   4.631  1.00 20.00     0.401 C 
HETATM    7  F5  UNL     1     -34.478   6.667   5.641  1.00 20.00    -0.170 F 
HETATM    8  F6  UNL     1     -34.299   4.541   5.175  1.00 20.00    -0.170 F 
HETATM    9  F7  UNL     1     -35.620   5.800   4.001  1.00 20.00    -0.170 F 
ENDBRANCH   1   6
TORSDOF 3
