REMARK  2 active torsions:
REMARK  status: ('A' for Active; 'I' for Inactive)
REMARK    1  A    between atoms: C5_5  and  C6_6 
REMARK    2  A    between atoms: C6_6  and  C7_7 
ROOT
HETATM    1  C1  UNL     1     -34.104   4.431   5.054  1.00 20.00     0.027 C 
HETATM    2  C2  UNL     1     -33.955   5.052   3.668  1.00 20.00     0.009 C 
HETATM    3  C3  UNL     1     -34.842   5.377   5.991  1.00 20.00     0.167 C 
HETATM    4  C4  UNL     1     -34.144   7.293   4.784  1.00 20.00     0.172 C 
HETATM    5  C5  UNL     1     -33.356   6.459   3.770  1.00 20.00     0.010 C 
HETATM    6  O8  UNL     1     -34.182   6.640   6.054  1.00 20.00    -0.391 OA
ENDROOT
BRANCH   5   7
HETATM    7  C6  UNL     1     -33.318   7.141   2.407  1.00 20.00     0.017 C 
BRANCH   7   8
HETATM    8  C7  UNL     1     -32.352   8.310   2.410  1.00 20.00     0.085 C 
HETATM    9 BR9  UNL     1     -32.291   9.114   0.638  1.00 20.00    -0.096 Br
ENDBRANCH   7   8
ENDBRANCH   5   7
TORSDOF 2
