REMARK  4 active torsions:
REMARK  status: ('A' for Active; 'I' for Inactive)
REMARK    1  A    between atoms: C5_5  and  C7_7 
REMARK    2  A    between atoms: C6_6  and  C8_8 
REMARK    3  A    between atoms: C7_7  and  C8_8 
REMARK    4  A    between atoms: C8_8  and  O9_9 
ROOT
HETATM    1  C8  UNL     1     -32.882   6.840   3.829  1.00 20.00     0.122 C 
ENDROOT
BRANCH   1   2
HETATM    2  C6  UNL     1     -34.398   6.923   3.945  1.00 20.00     0.014 A 
HETATM    3  C3  UNL     1     -35.270   5.976   3.168  1.00 20.00     0.007 A 
HETATM    4  C4  UNL     1     -35.163   5.845   4.661  1.00 20.00     0.007 A 
ENDBRANCH   1   2
BRANCH   1   5
HETATM    5  C7  UNL     1     -32.420   7.109   2.396  1.00 20.00     0.036 C 
BRANCH   5   6
HETATM    6  C5  UNL     1     -32.866   8.476   1.893  1.00 20.00    -0.012 A 
HETATM    7  C1  UNL     1     -31.992   9.682   2.103  1.00 20.00     0.005 A 
HETATM    8  C2  UNL     1     -32.172   9.115   0.722  1.00 20.00     0.005 A 
ENDBRANCH   5   6
ENDBRANCH   1   5
BRANCH   1   9
HETATM    9  O9  UNL     1     -32.301   7.809   4.698  1.00 20.00    -0.395 OA
HETATM   10  H23 UNL     1     -32.597   7.589   5.595  1.00 20.00     0.210 HD
ENDBRANCH   1   9
TORSDOF 4
