REMARK  4 active torsions:
REMARK  status: ('A' for Active; 'I' for Inactive)
REMARK    1  A    between atoms: C1_1  and  C8_8 
REMARK    2  A    between atoms: C1_1  and  C9_9 
REMARK    3  A    between atoms: C4_4  and  C8_8 
REMARK    4  A    between atoms: C9_9  and  C10_10 
ROOT
HETATM    1  C1  UNL     1     -31.868   7.683   2.790  1.00 20.00     0.128 C 
HETATM    2  O11 UNL     1     -31.408   8.349   3.717  1.00 20.00    -0.298 OA
ENDROOT
BRANCH   1   3
HETATM    3  C8  UNL     1     -31.959   8.221   1.373  1.00 20.00     0.082 C 
BRANCH   3   4
HETATM    4  C4  UNL     1     -32.089   9.710   1.303  1.00 20.00    -0.008 A 
HETATM    5  C2  UNL     1     -32.623  10.366   0.060  1.00 20.00     0.005 A 
HETATM    6  C3  UNL     1     -33.448  10.352   1.316  1.00 20.00     0.005 A 
ENDBRANCH   3   4
ENDBRANCH   1   3
BRANCH   1   7
HETATM    7  C9  UNL     1     -32.396   6.275   3.019  1.00 20.00     0.086 C 
BRANCH   7   8
HETATM    8  C10 UNL     1     -33.871   6.193   3.473  1.00 20.00    -0.045 C 
HETATM    9  C5  UNL     1     -34.304   4.737   3.709  1.00 20.00     0.015 C 
HETATM   10  C6  UNL     1     -34.808   6.841   2.441  1.00 20.00     0.015 C 
HETATM   11  C7  UNL     1     -34.004   6.960   4.803  1.00 20.00     0.015 C 
ENDBRANCH   7   8
ENDBRANCH   1   7
TORSDOF 4
