REMARK  2 active torsions:
REMARK  status: ('A' for Active; 'I' for Inactive)
REMARK    1  A    between atoms: C5_5  and  C6_6 
REMARK    2  A    between atoms: C6_6  and  C7_7 
ROOT
HETATM    1  C1  UNL     1     -34.105   4.401   4.599  1.00 20.00     0.027 C 
HETATM    2  C2  UNL     1     -33.938   5.269   3.356  1.00 20.00     0.009 C 
HETATM    3  C3  UNL     1     -34.733   5.200   5.733  1.00 20.00     0.167 C 
HETATM    4  C4  UNL     1     -33.904   7.254   4.892  1.00 20.00     0.172 C 
HETATM    5  C5  UNL     1     -33.217   6.577   3.703  1.00 20.00     0.010 C 
HETATM    6  O8  UNL     1     -33.965   6.370   6.012  1.00 20.00    -0.391 OA
ENDROOT
BRANCH   5   7
HETATM    7  C6  UNL     1     -33.155   7.509   2.498  1.00 20.00     0.021 C 
BRANCH   7   8
HETATM    8  C7  UNL     1     -32.130   8.625   2.651  1.00 20.00     0.115 C 
HETATM    9 CL9  UNL     1     -32.103   9.706   1.238  1.00 20.00    -0.130 Cl
ENDBRANCH   7   8
ENDBRANCH   5   7
TORSDOF 2
