REMARK  4 active torsions:
REMARK  status: ('A' for Active; 'I' for Inactive)
REMARK    1  A    between atoms: C3_3  and  C4_4 
REMARK    2  A    between atoms: C4_4  and  C5_5 
REMARK    3  A    between atoms: C5_5  and  C6_6 
REMARK    4  A    between atoms: C5_5  and  O7_7 
ROOT
HETATM    1  C5  UNL     1     -33.195   6.301   2.947  1.00 20.00     0.226 C 
ENDROOT
BRANCH   1   2
HETATM    2  C4  UNL     1     -33.283   7.826   2.851  1.00 20.00     0.045 C 
BRANCH   2   3
HETATM    3  C3  UNL     1     -32.086   8.418   2.165  1.00 20.00    -0.012 A 
HETATM    4  C1  UNL     1     -32.083   8.602   0.672  1.00 20.00     0.005 A 
HETATM    5  C2  UNL     1     -32.158   9.800   1.577  1.00 20.00     0.005 A 
ENDBRANCH   2   3
ENDBRANCH   1   2
BRANCH   1   6
HETATM    6  C6  UNL     1     -34.150   5.752   3.989  1.00 20.00     0.413 C 
HETATM    7  F8  UNL     1     -33.849   6.202   5.226  1.00 20.00    -0.168 F 
HETATM    8  F9  UNL     1     -34.112   4.402   4.019  1.00 20.00    -0.168 F 
HETATM    9  F10 UNL     1     -35.422   6.116   3.715  1.00 20.00    -0.168 F 
ENDBRANCH   1   6
BRANCH   1  10
HETATM   10  O7  UNL     1     -33.537   5.742   1.681  1.00 20.00    -0.387 OA
HETATM   11  H19 UNL     1     -32.896   6.091   1.043  1.00 20.00     0.210 HD
ENDBRANCH   1  10
TORSDOF 4
