REMARK  2 active torsions:
REMARK  status: ('A' for Active; 'I' for Inactive)
REMARK    1  A    between atoms: C4_4  and  C5_5 
REMARK    2  A    between atoms: C5_5  and  C7_7 
ROOT
HETATM    1  C3  UNL     1     -34.337   5.978   2.229  1.00 20.00     0.207 A 
HETATM    2  C5  UNL     1     -33.501   6.391   3.417  1.00 20.00     0.085 A 
HETATM    3  O8  UNL     1     -33.730   5.011   3.100  1.00 20.00    -0.375 OA
ENDROOT
BRANCH   2   4
HETATM    4  C4  UNL     1     -34.132   6.864   4.720  1.00 20.00     0.022 A 
HETATM    5  C1  UNL     1     -34.148   6.021   5.965  1.00 20.00     0.008 A 
HETATM    6  C2  UNL     1     -33.316   7.272   5.915  1.00 20.00     0.008 A 
ENDBRANCH   2   4
BRANCH   2   7
HETATM    7  C7  UNL     1     -32.087   6.822   3.165  1.00 20.00     0.036 C 
HETATM    8  C6  UNL     1     -31.981   8.275   2.792  1.00 20.00     0.008 C 
ENDBRANCH   2   7
TORSDOF 2
