REMARK  2 active torsions:
REMARK  status: ('A' for Active; 'I' for Inactive)
REMARK    1  A    between atoms: C7_7  and  C10_10 
REMARK    2  A    between atoms: C9_9  and  C10_10 
ROOT
HETATM    1  C1  UNL     1     -32.408   9.879   0.904  1.00 20.00     0.012 C 
HETATM    2  C2  UNL     1     -32.058   9.315   1.904  1.00 20.00    -0.117 C 
HETATM    3  C9  UNL     1     -31.628   8.629   3.130  1.00 20.00     0.093 C 
ENDROOT
BRANCH   3   4
HETATM    4  C10 UNL     1     -31.889   7.140   3.013  1.00 20.00     0.017 C 
BRANCH   4   5
HETATM    5  C7  UNL     1     -33.378   6.869   2.785  1.00 20.00    -0.002 C 
HETATM    6  C5  UNL     1     -34.231   7.447   3.921  1.00 20.00     0.013 C 
HETATM    7  C4  UNL     1     -34.189   6.401   5.030  1.00 20.00     0.079 C 
HETATM    8  C3  UNL     1     -34.037   5.121   4.249  1.00 20.00     0.131 C 
HETATM    9  C6  UNL     1     -33.773   5.378   2.777  1.00 20.00     0.055 C 
HETATM   10  O11 UNL     1     -34.124   4.008   4.753  1.00 20.00    -0.298 OA
HETATM   11  C8  UNL     1     -32.758   4.420   2.183  1.00 20.00     0.018 C 
ENDBRANCH   4   5
ENDBRANCH   3   4
TORSDOF 2
