REMARK  1 active torsions:
REMARK  status: ('A' for Active; 'I' for Inactive)
REMARK    1  A    between atoms: C7_7  and  C9_9 
ROOT
HETATM    1  C1  UNL     1     -32.739   9.095   0.493  1.00 20.00     0.012 C 
HETATM    2  C2  UNL     1     -32.430   8.736   1.597  1.00 20.00    -0.117 C 
HETATM    3  C9  UNL     1     -32.046   8.299   2.944  1.00 20.00     0.098 C 
ENDROOT
BRANCH   3   4
HETATM    4  C7  UNL     1     -33.209   7.626   3.657  1.00 20.00     0.008 C 
HETATM    5  C5  UNL     1     -33.018   7.594   5.176  1.00 20.00     0.013 C 
HETATM    6  C4  UNL     1     -34.038   6.573   5.663  1.00 20.00     0.079 C 
HETATM    7  C3  UNL     1     -34.091   5.607   4.507  1.00 20.00     0.131 C 
HETATM    8  C6  UNL     1     -33.375   6.144   3.282  1.00 20.00     0.056 C 
HETATM    9  O10 UNL     1     -34.651   4.520   4.559  1.00 20.00    -0.298 OA
HETATM   10  C8  UNL     1     -34.170   5.933   2.007  1.00 20.00     0.018 C 
ENDBRANCH   3   4
TORSDOF 1
