REMARK  1 active torsions:
REMARK  status: ('A' for Active; 'I' for Inactive)
REMARK    1  A    between atoms: C5_5  and  C8_8 
ROOT
HETATM    1  C1  UNL     1     -33.304   6.933   5.935  1.00 20.00     0.018 A 
HETATM    2  C2  UNL     1     -33.000   7.753   4.853  1.00 20.00     0.010 A 
HETATM    3  C3  UNL     1     -34.287   5.966   5.785  1.00 20.00     0.087 A 
HETATM    4  C4  UNL     1     -34.653   6.608   3.557  1.00 20.00     0.095 A 
HETATM    5  C5  UNL     1     -33.679   7.593   3.649  1.00 20.00    -0.038 A 
HETATM    6  N12 UNL     1     -34.926   5.832   4.615  1.00 20.00    -0.375 N 
HETATM    7  H28 UNL     1     -35.645   5.115   4.526  1.00 20.00     0.164 HD
ENDROOT
BRANCH   5   8
HETATM    8  C8  UNL     1     -33.362   8.475   2.459  1.00 20.00     0.025 C 
HETATM    9  C6  UNL     1     -33.558   9.993   2.619  1.00 20.00     0.011 C 
HETATM   10  C7  UNL     1     -32.686  10.656   1.546  1.00 20.00     0.021 C 
HETATM   11  C10 UNL     1     -31.879   9.537   0.885  1.00 20.00     0.086 C 
HETATM   12  C9  UNL     1     -31.924   8.373   1.889  1.00 20.00     0.008 C 
HETATM   13 CL13 UNL     1     -32.646   9.061  -0.664  1.00 20.00    -0.125 Cl
HETATM   14  C11 UNL     1     -30.825   8.535   2.948  1.00 20.00     0.012 C 
ENDBRANCH   5   8
TORSDOF 1
