REMARK  1 active torsions:
REMARK  status: ('A' for Active; 'I' for Inactive)
REMARK    1  A    between atoms: C6_6  and  N9_9 
ROOT
HETATM    1  C1  UNL     1     -32.327   8.570   1.596  1.00 20.00     0.158 C 
HETATM    2  N9  UNL     1     -32.975   8.452   2.568  1.00 20.00    -0.270 NA
HETATM    3  S10 UNL     1     -31.466   8.752   0.269  1.00 20.00    -0.055 SA
ENDROOT
BRANCH   2   4
HETATM    4  C6  UNL     1     -32.538   7.387   3.475  1.00 20.00     0.113 C 
HETATM    5  C3  UNL     1     -32.602   6.038   2.753  1.00 20.00     0.028 C 
HETATM    6  C2  UNL     1     -33.784   5.301   3.372  1.00 20.00     0.007 C 
HETATM    7  C4  UNL     1     -33.779   5.788   4.819  1.00 20.00    -0.013 C 
HETATM    8  C5  UNL     1     -33.522   7.294   4.657  1.00 20.00     0.010 C 
HETATM    9  C7  UNL     1     -35.073   5.461   5.548  1.00 20.00     0.010 C 
HETATM   10  C8  UNL     1     -32.977   7.950   5.919  1.00 20.00     0.012 C 
ENDBRANCH   2   4
TORSDOF 1
