REMARK  1 active torsions:
REMARK  status: ('A' for Active; 'I' for Inactive)
REMARK    1  A    between atoms: C5_5  and  C9_9 
ROOT
HETATM    1  C1  UNL     1     -33.113   8.815   0.603  1.00 20.00     0.012 C 
HETATM    2  C2  UNL     1     -32.886   8.620   1.765  1.00 20.00    -0.117 C 
HETATM    3  C9  UNL     1     -32.602   8.386   3.186  1.00 20.00     0.098 C 
ENDROOT
BRANCH   3   4
HETATM    4  C5  UNL     1     -33.690   7.543   3.834  1.00 20.00     0.002 C 
HETATM    5  C3  UNL     1     -33.716   7.688   5.364  1.00 20.00     0.007 C 
HETATM    6  C4  UNL     1     -33.990   6.291   5.926  1.00 20.00     0.021 C 
HETATM    7  C7  UNL     1     -34.381   5.447   4.719  1.00 20.00     0.086 C 
HETATM    8  C6  UNL     1     -33.529   6.033   3.591  1.00 20.00     0.005 C 
HETATM    9 CL10 UNL     1     -34.080   3.722   4.994  1.00 20.00    -0.125 Cl
HETATM   10  C8  UNL     1     -33.978   5.595   2.202  1.00 20.00     0.012 C 
ENDBRANCH   3   4
TORSDOF 1
