REMARK  2 active torsions:
REMARK  status: ('A' for Active; 'I' for Inactive)
REMARK    1  A    between atoms: C4_4  and  C9_9 
REMARK    2  A    between atoms: C6_6  and  N10_10 
ROOT
HETATM    1  C1  UNL     1     -35.467   5.028   4.502  1.00 20.00     0.158 C 
HETATM    2  N10 UNL     1     -34.420   5.486   4.772  1.00 20.00    -0.270 NA
HETATM    3  S11 UNL     1     -36.877   4.379   4.149  1.00 20.00    -0.055 SA
ENDROOT
BRANCH   2   4
HETATM    4  C6  UNL     1     -34.248   6.885   4.391  1.00 20.00     0.113 C 
HETATM    5  C3  UNL     1     -33.278   7.596   5.332  1.00 20.00     0.028 C 
HETATM    6  C2  UNL     1     -32.540   8.625   4.472  1.00 20.00     0.007 C 
HETATM    7  C4  UNL     1     -33.141   8.503   3.066  1.00 20.00    -0.009 C 
HETATM    8  C5  UNL     1     -33.635   7.045   2.992  1.00 20.00     0.010 C 
HETATM    9  C7  UNL     1     -32.532   6.030   2.676  1.00 20.00     0.012 C 
BRANCH   7  10
HETATM   10  C9  UNL     1     -32.182   8.943   1.971  1.00 20.00     0.000 C 
HETATM   11  C8  UNL     1     -32.799   8.825   0.615  1.00 20.00     0.005 C 
ENDBRANCH   7  10
ENDBRANCH   2   4
TORSDOF 2
