REMARK  2 active torsions:
REMARK  status: ('A' for Active; 'I' for Inactive)
REMARK    1  A    between atoms: C5_5  and  C9_9 
REMARK    2  A    between atoms: C9_9  and  C10_10 
ROOT
HETATM    1  C1  UNL     1     -34.162   5.466   4.817  1.00 20.00     0.131 C 
HETATM    2  C2  UNL     1     -33.472   4.846   3.629  1.00 20.00     0.079 C 
HETATM    3  C3  UNL     1     -33.363   6.029   2.675  1.00 20.00     0.013 C 
HETATM    4  C4  UNL     1     -34.218   6.978   4.720  1.00 20.00     0.055 C 
HETATM    5  C5  UNL     1     -33.207   7.244   3.593  1.00 20.00    -0.003 C 
HETATM    6  C6  UNL     1     -33.853   7.656   6.028  1.00 20.00     0.018 C 
HETATM    7  O11 UNL     1     -34.619   4.815   5.748  1.00 20.00    -0.298 OA
ENDROOT
BRANCH   5   8
HETATM    8  C9  UNL     1     -33.455   8.555   2.862  1.00 20.00     0.009 C 
BRANCH   8   9
HETATM    9  C10 UNL     1     -32.225   9.076   2.096  1.00 20.00    -0.022 C 
HETATM   10  C7  UNL     1     -31.743   8.091   1.030  1.00 20.00     0.009 C 
HETATM   11  C8  UNL     1     -32.550  10.423   1.447  1.00 20.00     0.009 C 
ENDBRANCH   8   9
ENDBRANCH   5   8
TORSDOF 2
