REMARK  2 active torsions:
REMARK  status: ('A' for Active; 'I' for Inactive)
REMARK    1  A    between atoms: C3_3  and  C8_8 
REMARK    2  A    between atoms: C8_8  and  C9_9 
ROOT
HETATM    1  C1  UNL     1     -32.664   5.659   2.365  1.00 20.00     0.006 C 
HETATM    2  C2  UNL     1     -33.369   4.638   3.252  1.00 20.00     0.021 C 
HETATM    3  C3  UNL     1     -32.364   6.879   3.262  1.00 20.00    -0.009 C 
HETATM    4  C4  UNL     1     -32.965   6.525   4.645  1.00 20.00     0.004 C 
HETATM    5  C5  UNL     1     -34.047   5.495   4.310  1.00 20.00     0.086 C 
HETATM    6  C6  UNL     1     -33.470   7.696   5.478  1.00 20.00     0.012 C 
HETATM    7 CL10 UNL     1     -34.550   4.532   5.710  1.00 20.00    -0.125 Cl
ENDROOT
BRANCH   3   8
HETATM    8  C8  UNL     1     -32.897   8.160   2.623  1.00 20.00     0.005 C 
BRANCH   8   9
HETATM    9  C9  UNL     1     -32.227   8.427   1.280  1.00 20.00    -0.004 C 
HETATM   10  C7  UNL     1     -32.776   9.688   0.631  1.00 20.00     0.005 C 
ENDBRANCH   8   9
ENDBRANCH   3   8
TORSDOF 2
