REMARK  2 active torsions:
REMARK  status: ('A' for Active; 'I' for Inactive)
REMARK    1  A    between atoms: C2_2  and  C10_10 
REMARK    2  A    between atoms: C7_7  and  C10_10 
ROOT
HETATM    1  C1  UNL     1     -32.381  10.554   1.659  1.00 20.00    -0.111 C 
HETATM    2  C2  UNL     1     -32.643   9.405   1.887  1.00 20.00    -0.107 C 
HETATM    3  C8  UNL     1     -32.063  11.954   1.381  1.00 20.00     0.112 C 
ENDROOT
BRANCH   2   4
HETATM    4  C10 UNL     1     -32.956   7.999   2.153  1.00 20.00     0.099 C 
BRANCH   4   5
HETATM    5  C7  UNL     1     -33.653   7.844   3.497  1.00 20.00     0.008 C 
HETATM    6  C5  UNL     1     -32.674   7.890   4.673  1.00 20.00     0.013 C 
HETATM    7  C4  UNL     1     -33.489   7.396   5.860  1.00 20.00     0.079 C 
HETATM    8  C3  UNL     1     -34.429   6.414   5.210  1.00 20.00     0.131 C 
HETATM    9  C6  UNL     1     -34.434   6.530   3.697  1.00 20.00     0.056 C 
HETATM   10  O11 UNL     1     -35.115   5.617   5.837  1.00 20.00    -0.298 OA
HETATM   11  C9  UNL     1     -33.810   5.283   3.088  1.00 20.00     0.018 C 
ENDBRANCH   4   5
ENDBRANCH   2   4
TORSDOF 2
