REMARK  1 active torsions:
REMARK  status: ('A' for Active; 'I' for Inactive)
REMARK    1  A    between atoms: C4_4  and  C7_7 
ROOT
HETATM    1  C5  UNL     1     -32.299   7.717   4.573  1.00 20.00     0.011 C 
HETATM    2  C6  UNL     1     -33.687   7.205   4.977  1.00 20.00     0.021 C 
HETATM    3  C7  UNL     1     -32.152   7.477   3.056  1.00 20.00     0.025 C 
HETATM    4  C8  UNL     1     -33.217   6.398   2.735  1.00 20.00     0.008 C 
HETATM    5  C9  UNL     1     -34.366   6.788   3.676  1.00 20.00     0.086 C 
HETATM    6  C10 UNL     1     -32.645   4.995   2.968  1.00 20.00     0.012 C 
HETATM    7 CL12 UNL     1     -35.591   5.532   3.930  1.00 20.00    -0.125 Cl
ENDROOT
BRANCH   3   8
HETATM    8  C4  UNL     1     -32.310   8.703   2.171  1.00 20.00    -0.029 A 
HETATM    9  C1  UNL     1     -33.085   9.856   2.442  1.00 20.00     0.034 A 
HETATM   10  C2  UNL     1     -32.921  10.690   1.360  1.00 20.00     0.142 A 
HETATM   11  O11 UNL     1     -32.095  10.124   0.442  1.00 20.00    -0.334 OA
HETATM   12  C3  UNL     1     -31.728   8.915   0.943  1.00 20.00     0.148 A 
ENDBRANCH   3   8
TORSDOF 1
