REMARK  1 active torsions:
REMARK  status: ('A' for Active; 'I' for Inactive)
REMARK    1  A    between atoms: C7_7  and  C9_9 
ROOT
HETATM    1  C1  UNL     1     -32.638  10.123   1.303  1.00 20.00     0.012 C 
HETATM    2  C2  UNL     1     -32.360   8.969   1.484  1.00 20.00    -0.117 C 
HETATM    3  C9  UNL     1     -32.009   7.564   1.697  1.00 20.00     0.098 C 
ENDROOT
BRANCH   3   4
HETATM    4  C7  UNL     1     -33.101   6.843   2.472  1.00 20.00     0.008 C 
HETATM    5  C5  UNL     1     -32.781   5.363   2.697  1.00 20.00     0.013 C 
HETATM    6  C4  UNL     1     -33.792   4.913   3.743  1.00 20.00     0.079 C 
HETATM    7  C3  UNL     1     -33.979   6.166   4.559  1.00 20.00     0.131 C 
HETATM    8  C6  UNL     1     -33.394   7.392   3.883  1.00 20.00     0.056 C 
HETATM    9  O10 UNL     1     -34.547   6.189   5.644  1.00 20.00    -0.298 OA
HETATM   10  C8  UNL     1     -32.188   7.883   4.670  1.00 20.00     0.018 C 
ENDBRANCH   3   4
TORSDOF 1
