REMARK  2 active torsions:
REMARK  status: ('A' for Active; 'I' for Inactive)
REMARK    1  A    between atoms: C3_3  and  C9_9 
REMARK    2  A    between atoms: C9_9  and  C10_10 
ROOT
HETATM    1  C1  UNL     1     -32.131   7.743   4.051  1.00 20.00     0.006 C 
HETATM    2  C2  UNL     1     -33.461   7.747   4.802  1.00 20.00     0.016 C 
HETATM    3  C3  UNL     1     -32.454   7.134   2.684  1.00 20.00    -0.009 C 
HETATM    4  C4  UNL     1     -33.426   6.004   3.072  1.00 20.00    -0.000 C 
HETATM    5  C5  UNL     1     -34.287   6.616   4.185  1.00 20.00     0.062 C 
HETATM    6  C6  UNL     1     -34.250   5.435   1.923  1.00 20.00     0.011 C 
HETATM    7 BR11 UNL     1     -34.724   5.274   5.529  1.00 20.00    -0.091 Br
ENDROOT
BRANCH   3   8
HETATM    8  C9  UNL     1     -33.028   8.177   1.724  1.00 20.00     0.009 C 
BRANCH   8   9
HETATM    9  C10 UNL     1     -32.105   9.388   1.520  1.00 20.00    -0.022 C 
HETATM   10  C7  UNL     1     -30.744   8.996   0.944  1.00 20.00     0.009 C 
HETATM   11  C8  UNL     1     -32.785  10.401   0.596  1.00 20.00     0.009 C 
ENDBRANCH   8   9
ENDBRANCH   3   8
TORSDOF 2
