REMARK  1 active torsions:
REMARK  status: ('A' for Active; 'I' for Inactive)
REMARK    1  A    between atoms: C5_5  and  C9_9 
ROOT
HETATM    1  C1  UNL     1     -32.102   9.165   1.589  1.00 20.00     0.012 C 
HETATM    2  C2  UNL     1     -32.160   8.350   2.469  1.00 20.00    -0.117 C 
HETATM    3  C9  UNL     1     -32.221   7.352   3.542  1.00 20.00     0.098 C 
ENDROOT
BRANCH   3   4
HETATM    4  C5  UNL     1     -33.617   7.289   4.155  1.00 20.00     0.002 C 
HETATM    5  C3  UNL     1     -33.580   6.681   5.570  1.00 20.00     0.007 C 
HETATM    6  C4  UNL     1     -34.754   5.708   5.635  1.00 20.00     0.021 C 
HETATM    7  C7  UNL     1     -34.885   5.186   4.208  1.00 20.00     0.086 C 
HETATM    8  C6  UNL     1     -34.671   6.462   3.377  1.00 20.00     0.005 C 
HETATM    9 CL10 UNL     1     -33.663   3.921   3.896  1.00 20.00    -0.125 Cl
HETATM   10  C8  UNL     1     -34.421   6.249   1.890  1.00 20.00     0.012 C 
ENDBRANCH   3   4
TORSDOF 1
