REMARK  1 active torsions:
REMARK  status: ('A' for Active; 'I' for Inactive)
REMARK    1  A    between atoms: C1_1  and  N8_8 
ROOT
HETATM    1  C2  UNL     1     -33.851   4.058   4.733  1.00 20.00     0.008 C 
HETATM    2  C3  UNL     1     -33.469   4.193   3.243  1.00 20.00     0.026 C 
HETATM    3  C4  UNL     1     -35.422   5.477   3.651  1.00 20.00     0.031 C 
HETATM    4  C5  UNL     1     -33.765   6.554   4.963  1.00 20.00     0.130 C 
HETATM    5  C6  UNL     1     -34.692   5.326   4.993  1.00 20.00     0.006 C 
HETATM    6  C7  UNL     1     -34.120   5.529   2.851  1.00 20.00     0.087 C 
HETATM    7  N8  UNL     1     -33.389   6.584   3.556  1.00 20.00    -0.354 N 
ENDROOT
BRANCH   7   8
HETATM    8  C1  UNL     1     -32.454   7.418   3.003  1.00 20.00     0.351 C 
HETATM    9  O9  UNL     1     -31.785   8.264   3.583  1.00 20.00    -0.284 OA
ENDBRANCH   7   8
TORSDOF 1
