REMARK  1 active torsions:
REMARK  status: ('A' for Active; 'I' for Inactive)
REMARK    1  A    between atoms: C1_1  and  N8_8 
ROOT
HETATM    1  C2  UNL     1     -34.151   7.308   6.260  1.00 20.00     0.022 C 
HETATM    2  C3  UNL     1     -34.253   5.805   6.020  1.00 20.00     0.032 C 
HETATM    3  C4  UNL     1     -33.310   7.777   5.087  1.00 20.00     0.126 C 
HETATM    4  C5  UNL     1     -34.377   5.682   4.484  1.00 20.00     0.027 C 
HETATM    5  C6  UNL     1     -33.707   4.389   4.006  1.00 20.00     0.038 C 
HETATM    6  C7  UNL     1     -35.850   5.703   4.052  1.00 20.00     0.038 C 
HETATM    7  N8  UNL     1     -33.678   6.886   3.998  1.00 20.00    -0.351 N 
ENDROOT
BRANCH   7   8
HETATM    8  C1  UNL     1     -33.421   7.188   2.679  1.00 20.00     0.351 C 
HETATM    9  O9  UNL     1     -32.874   8.196   2.246  1.00 20.00    -0.284 OA
ENDBRANCH   7   8
TORSDOF 1
