REMARK  1 active torsions:
REMARK  status: ('A' for Active; 'I' for Inactive)
REMARK    1  A    between atoms: C6_6  and  C7_7 
ROOT
HETATM    1  C1  UNL     1     -31.913   8.012   2.985  1.00 20.00     0.065 C 
HETATM    2  C7  UNL     1     -32.913   7.868   4.053  1.00 20.00     0.186 C 
HETATM    3  N8  UNL     1     -31.123   8.127   2.143  1.00 20.00    -0.197 NA
ENDROOT
BRANCH   2   4
HETATM    4  C6  UNL     1     -33.438   6.471   4.096  1.00 20.00     0.085 A 
HETATM    5  C4  UNL     1     -34.171   6.052   5.194  1.00 20.00     0.143 A 
HETATM    6  C2  UNL     1     -34.644   4.744   5.200  1.00 20.00     0.069 A 
HETATM    7  F10 UNL     1     -34.423   6.872   6.221  1.00 20.00    -0.204 F 
HETATM    8  C5  UNL     1     -34.372   3.908   4.123  1.00 20.00     0.054 A 
HETATM    9  C3  UNL     1     -33.630   4.423   3.072  1.00 20.00     0.141 A 
HETATM   10 CL11 UNL     1     -34.939   2.290   4.095  1.00 20.00    -0.083 Cl
HETATM   11  N9  UNL     1     -33.154   5.688   3.031  1.00 20.00    -0.260 NA
ENDBRANCH   2   4
TORSDOF 1
