REMARK  3 active torsions:
REMARK  status: ('A' for Active; 'I' for Inactive)
REMARK    1  A    between atoms: C1_1  and  C2_2 
REMARK    2  A    between atoms: C1_1  and  C3_3 
REMARK    3  A    between atoms: C2_2  and  C4_4 
ROOT
HETATM    1  C2  UNL     1     -32.594   6.164   3.039  1.00 20.00     0.196 C 
ENDROOT
BRANCH   1   2
HETATM    2  C1  UNL     1     -32.233   7.634   2.893  1.00 20.00     0.148 C 
HETATM    3  O5  UNL     1     -31.641   8.249   3.778  1.00 20.00    -0.296 OA
BRANCH   2   4
HETATM    4  C3  UNL     1     -32.648   8.270   1.583  1.00 20.00     0.193 C 
HETATM    5 CL9  UNL     1     -32.161   9.971   1.528  1.00 20.00    -0.123 Cl
ENDBRANCH   2   4
ENDBRANCH   1   2
BRANCH   1   6
HETATM    6  C4  UNL     1     -33.942   5.943   3.684  1.00 20.00     0.394 C 
HETATM    7  F6  UNL     1     -34.223   4.629   3.808  1.00 20.00    -0.171 F 
HETATM    8  F7  UNL     1     -34.919   6.500   2.933  1.00 20.00    -0.171 F 
HETATM    9  F8  UNL     1     -34.002   6.505   4.910  1.00 20.00    -0.171 F 
ENDBRANCH   1   6
TORSDOF 3
