REMARK  0 active torsions:
REMARK  status: ('A' for Active; 'I' for Inactive)
ROOT
HETATM    1  C1  UNL     1     -33.621   6.853   4.048  1.00 20.00    -0.074 C 
HETATM    2  C2  UNL     1     -32.917   7.930   3.690  1.00 20.00    -0.085 C 
HETATM    3  C3  UNL     1     -33.960   6.439   5.458  1.00 20.00     0.039 C 
HETATM    4  C4  UNL     1     -33.477   4.539   3.228  1.00 20.00     0.009 C 
HETATM    5  C5  UNL     1     -33.809   4.053   4.652  1.00 20.00     0.005 C 
HETATM    6  C6  UNL     1     -35.532   5.522   3.915  1.00 20.00     0.014 C 
HETATM    7  C7  UNL     1     -34.269   5.851   3.118  1.00 20.00     0.015 C 
HETATM    8  C8  UNL     1     -34.758   5.148   5.182  1.00 20.00    -0.010 C 
HETATM    9  C9  UNL     1     -32.632   8.256   2.251  1.00 20.00     0.043 C 
HETATM   10  C10 UNL     1     -32.357   8.891   4.701  1.00 20.00     0.043 C 
ENDROOT
TORSDOF 0
