REMARK  4 active torsions:
REMARK  status: ('A' for Active; 'I' for Inactive)
REMARK    1  A    between atoms: C3_3  and  C7_7 
REMARK    2  A    between atoms: C6_6  and  C7_7 
REMARK    3  A    between atoms: C6_6  and  N9_9 
REMARK    4  A    between atoms: C8_8  and  N9_9 
ROOT
HETATM    1  C6  UNL     1     -31.979   7.201   2.683  1.00 20.00     0.290 C 
ENDROOT
BRANCH   1   2
HETATM    2  C7  UNL     1     -33.269   6.381   2.754  1.00 20.00     0.114 C 
HETATM    3 CL10 UNL     1     -32.897   4.630   2.784  1.00 20.00    -0.123 Cl
BRANCH   2   4
HETATM    4  C3  UNL     1     -34.146   6.740   3.948  1.00 20.00     0.006 A 
HETATM    5  C1  UNL     1     -35.182   5.771   4.445  1.00 20.00     0.006 A 
HETATM    6  C2  UNL     1     -33.953   6.043   5.266  1.00 20.00     0.006 A 
ENDBRANCH   2   4
ENDBRANCH   1   2
BRANCH   1   7
HETATM    7  N9  UNL     1     -32.244   8.615   2.553  1.00 20.00     0.088 N 
HETATM    8  H26 UNL     1     -31.419   9.151   2.837  1.00 20.00     0.316 HD
BRANCH   7   9
HETATM    9  C8  UNL     1     -32.581   8.971   1.177  1.00 20.00     0.212 C 
HETATM   10  C4  UNL     1     -31.298   9.113   0.370  1.00 20.00     0.042 C 
HETATM   11  C5  UNL     1     -33.387  10.261   1.184  1.00 20.00     0.042 C 
ENDBRANCH   7   9
ENDBRANCH   1   7
TORSDOF 4
