REMARK  0 active torsions:
REMARK  status: ('A' for Active; 'I' for Inactive)
ROOT
HETATM    1  C1  UNL     1     -33.141   7.534   2.324  1.00 20.00     0.102 C 
HETATM    2  C2  UNL     1     -33.450   5.110   2.537  1.00 20.00     0.075 A 
HETATM    3  C3  UNL     1     -33.448   6.369   3.095  1.00 20.00     0.075 A 
HETATM    4  C4  UNL     1     -33.778   6.340   4.481  1.00 20.00     0.084 A 
HETATM    5  C5  UNL     1     -34.022   5.060   4.928  1.00 20.00     0.097 A 
HETATM    6  N6  UNL     1     -32.892   8.479   1.699  1.00 20.00    -0.191 NA
HETATM    7  S7  UNL     1     -33.851   3.900   3.680  1.00 20.00    -0.086 SA
HETATM    8 CL8  UNL     1     -33.859   7.751   5.458  1.00 20.00    -0.080 Cl
HETATM    9 CL9  UNL     1     -34.451   4.534   6.506  1.00 20.00    -0.074 Cl
ENDROOT
TORSDOF 0
