REMARK  1 active torsions:
REMARK  status: ('A' for Active; 'I' for Inactive)
REMARK    1  A    between atoms: C1_1  and  C4_4 
ROOT
HETATM    1  C2  UNL     1     -33.483   4.769   3.275  1.00 20.00     0.042 C 
HETATM    2  C3  UNL     1     -35.663   6.048   3.285  1.00 20.00     0.042 C 
HETATM    3  C4  UNL     1     -34.349   5.785   4.021  1.00 20.00     0.105 C 
HETATM    4 CL7  UNL     1     -34.761   5.070   5.628  1.00 20.00    -0.110 Cl
ENDROOT
BRANCH   3   5
HETATM    5  C1  UNL     1     -33.580   7.093   4.283  1.00 20.00     0.241 C 
HETATM    6  O5  UNL     1     -33.371   7.531   5.412  1.00 20.00    -0.278 OA
HETATM    7 CL6  UNL     1     -33.037   7.889   2.822  1.00 20.00    -0.042 Cl
ENDBRANCH   3   5
TORSDOF 1
