REMARK  1 active torsions:
REMARK  status: ('A' for Active; 'I' for Inactive)
REMARK    1  A    between atoms: C2_2  and  C3_3 
ROOT
HETATM    1  C1  UNL     1     -33.177   7.426   3.883  1.00 20.00     0.112 C 
HETATM    2  C2  UNL     1     -33.694   6.316   4.420  1.00 20.00     0.090 C 
HETATM    3 CL6  UNL     1     -32.351   7.512   2.379  1.00 20.00    -0.095 Cl
HETATM    4 CL7  UNL     1     -34.513   6.317   5.946  1.00 20.00    -0.080 Cl
ENDROOT
BRANCH   2   5
HETATM    5  C3  UNL     1     -33.598   4.987   3.735  1.00 20.00     0.167 C 
HETATM    6  C4  UNL     1     -34.202   3.772   4.394  1.00 20.00     0.097 C 
HETATM    7  O5  UNL     1     -33.035   4.883   2.645  1.00 20.00    -0.292 OA
ENDBRANCH   2   5
TORSDOF 1
