REMARK  2 active torsions:
REMARK  status: ('A' for Active; 'I' for Inactive)
REMARK    1  A    between atoms: C1_1  and  C3_3 
REMARK    2  A    between atoms: C2_2  and  C5_5 
ROOT
HETATM    1  C1  UNL     1     -32.976   6.831   3.017  1.00 20.00     0.004 C 
HETATM    2  C2  UNL     1     -33.599   7.176   4.152  1.00 20.00     0.049 C 
ENDROOT
BRANCH   1   3
HETATM    3  C3  UNL     1     -32.408   7.804   2.111  1.00 20.00     0.007 C 
HETATM    4  C4  UNL     1     -33.008   8.963   1.821  1.00 20.00     0.056 C 
HETATM    5 BR8  UNL     1     -32.312  10.236   0.664  1.00 20.00    -0.064 Br
ENDBRANCH   1   3
BRANCH   2   6
HETATM    6  C5  UNL     1     -34.166   6.133   5.052  1.00 20.00     0.145 C 
HETATM    7  C6  UNL     1     -34.640   4.863   4.397  1.00 20.00     0.096 C 
HETATM    8  O7  UNL     1     -34.271   6.301   6.264  1.00 20.00    -0.294 OA
ENDBRANCH   2   6
TORSDOF 2
