REMARK  1 active torsions:
REMARK  status: ('A' for Active; 'I' for Inactive)
REMARK    1  A    between atoms: C5_5  and  C8_8 
ROOT
HETATM    1  C1  UNL     1     -33.878   6.661   5.172  1.00 20.00     0.047 C 
HETATM    2  C2  UNL     1     -32.954   7.569   4.833  1.00 20.00    -0.009 C 
HETATM    3  C3  UNL     1     -34.519   5.820   4.132  1.00 20.00     0.149 C 
HETATM    4  C6  UNL     1     -34.158   6.064   2.685  1.00 20.00     0.084 C 
HETATM    5  C7  UNL     1     -32.719   6.552   2.555  1.00 20.00     0.025 C 
HETATM    6  C8  UNL     1     -32.434   7.796   3.428  1.00 20.00    -0.003 C 
HETATM    7  C11 UNL     1     -30.914   8.027   3.475  1.00 20.00     0.024 C 
HETATM    8  O12 UNL     1     -35.367   4.991   4.456  1.00 20.00    -0.293 OA
ENDROOT
BRANCH   6   9
HETATM    9  C5  UNL     1     -33.079   9.024   2.835  1.00 20.00    -0.076 C 
HETATM   10  C4  UNL     1     -32.778   9.436   1.588  1.00 20.00    -0.027 C 
HETATM   11  C9  UNL     1     -31.836   8.817   0.636  1.00 20.00     0.036 C 
HETATM   12  C10 UNL     1     -34.058   9.726   3.733  1.00 20.00     0.044 C 
ENDBRANCH   6   9
TORSDOF 1
