REMARK  0 active torsions:
REMARK  status: ('A' for Active; 'I' for Inactive)
ROOT
HETATM    1  C1  UNL     1     -33.633   6.388   3.784  1.00 20.00     0.001 C 
HETATM    2  C2  UNL     1     -33.936   6.252   5.085  1.00 20.00     0.076 C 
HETATM    3  C3  UNL     1     -33.715   5.348   2.712  1.00 20.00     0.038 C 
HETATM    4 CL4  UNL     1     -34.504   4.762   5.758  1.00 20.00    -0.076 Cl
HETATM    5 BR5  UNL     1     -33.766   7.683   6.281  1.00 20.00    -0.038 Br
ENDROOT
TORSDOF 0
