REMARK  3 active torsions:
REMARK  status: ('A' for Active; 'I' for Inactive)
REMARK    1  A    between atoms: C2_2  and  C8_8 
REMARK    2  A    between atoms: C4_4  and  C7_7 
REMARK    3  A    between atoms: C7_7  and  C8_8 
ROOT
HETATM    1  C7  UNL     1     -32.658   7.530   3.380  1.00 20.00     0.034 C 
ENDROOT
BRANCH   1   2
HETATM    2  C4  UNL     1     -32.994   7.542   1.914  1.00 20.00    -0.030 C 
HETATM    3  C3  UNL     1     -32.845   8.615   1.124  1.00 20.00    -0.035 C 
HETATM    4  C5  UNL     1     -32.327   9.932   1.599  1.00 20.00     0.035 C 
ENDBRANCH   1   2
BRANCH   1   5
HETATM    5  C8  UNL     1     -33.878   7.211   4.267  1.00 20.00     0.007 C 
HETATM    6  C6  UNL     1     -33.631   7.707   5.694  1.00 20.00     0.014 C 
BRANCH   5   7
HETATM    7  C2  UNL     1     -34.170   5.730   4.295  1.00 20.00    -0.032 C 
HETATM    8  C1  UNL     1     -34.156   4.987   5.408  1.00 20.00     0.007 C 
ENDBRANCH   5   7
ENDBRANCH   1   5
TORSDOF 3
