REMARK  2 active torsions:
REMARK  status: ('A' for Active; 'I' for Inactive)
REMARK    1  A    between atoms: C1_1  and  C4_4 
REMARK    2  A    between atoms: C4_4  and  C6_6 
ROOT
HETATM    1  C2  UNL     1     -35.473   6.053   3.516  1.00 20.00     0.062 A 
HETATM    2  C3  UNL     1     -34.749   5.184   4.493  1.00 20.00     0.190 A 
HETATM    3  C4  UNL     1     -34.086   6.444   3.993  1.00 20.00     0.081 A 
HETATM    4  F9  UNL     1     -34.275   3.967   4.034  1.00 20.00    -0.248 F 
ENDROOT
BRANCH   3   5
HETATM    5  C1  UNL     1     -34.019   7.553   4.938  1.00 20.00     0.184 C 
HETATM    6  O7  UNL     1     -33.903   8.698   4.419  1.00 20.00    -0.647 OA
HETATM    7  O8  UNL     1     -34.086   7.217   6.154  1.00 20.00    -0.647 OA
ENDBRANCH   3   5
BRANCH   3   8
HETATM    8  C6  UNL     1     -32.953   6.296   3.012  1.00 20.00     0.019 C 
HETATM    9  C5  UNL     1     -32.798   7.501   2.129  1.00 20.00     0.006 C 
ENDBRANCH   3   8
TORSDOF 2
