REMARK  2 active torsions:
REMARK  status: ('A' for Active; 'I' for Inactive)
REMARK    1  A    between atoms: C7_7  and  C10_10 
REMARK    2  A    between atoms: C10_10  and  C11_11 
ROOT
HETATM    1  C1  UNL     1     -33.392   7.697   5.561  1.00 20.00     0.004 C 
HETATM    2  C2  UNL     1     -32.314   7.725   4.478  1.00 20.00     0.005 C 
HETATM    3  C3  UNL     1     -33.687   6.719   2.536  1.00 20.00     0.007 C 
HETATM    4  C4  UNL     1     -33.968   6.312   5.835  1.00 20.00     0.040 C 
HETATM    5  C5  UNL     1     -34.883   6.329   3.405  1.00 20.00     0.040 C 
HETATM    6  C6  UNL     1     -34.107   4.094   4.481  1.00 20.00     0.207 A 
HETATM    7  C7  UNL     1     -32.877   7.916   3.059  1.00 20.00    -0.014 C 
HETATM    8  C8  UNL     1     -34.458   5.564   4.626  1.00 20.00     0.082 A 
HETATM    9  O12 UNL     1     -35.381   4.512   4.975  1.00 20.00    -0.375 OA
ENDROOT
BRANCH   7  10
HETATM   10  C10 UNL     1     -31.728   8.211   2.087  1.00 20.00     0.004 C 
BRANCH  10  11
HETATM   11  C11 UNL     1     -32.244   8.369   0.663  1.00 20.00    -0.004 C 
HETATM   12  C9  UNL     1     -33.260   9.497   0.572  1.00 20.00     0.005 C 
ENDBRANCH  10  11
ENDBRANCH   7  10
TORSDOF 2
