REMARK  2 active torsions:
REMARK  status: ('A' for Active; 'I' for Inactive)
REMARK    1  A    between atoms: C8_8  and  C10_10 
REMARK    2  A    between atoms: C10_10  and  C11_11 
ROOT
HETATM    1  C1  UNL     1     -36.044   4.809   4.200  1.00 20.00     0.064 C 
HETATM    2  C2  UNL     1     -33.799   7.859   4.774  1.00 20.00     0.002 C 
HETATM    3  C3  UNL     1     -34.385   6.482   5.082  1.00 20.00     0.019 C 
HETATM    4  C4  UNL     1     -33.825   4.982   3.063  1.00 20.00     0.019 C 
HETATM    5  C5  UNL     1     -32.417   7.856   4.127  1.00 20.00     0.005 C 
HETATM    6  C6  UNL     1     -32.412   5.565   2.997  1.00 20.00     0.006 C 
HETATM    7  C7  UNL     1     -34.901   5.764   3.830  1.00 20.00     0.093 C 
HETATM    8  C8  UNL     1     -32.257   7.077   2.816  1.00 20.00    -0.014 C 
HETATM    9  N12 UNL     1     -36.908   4.086   4.479  1.00 20.00    -0.197 NA
ENDROOT
BRANCH   8  10
HETATM   10  C10 UNL     1     -33.096   7.613   1.733  1.00 20.00     0.004 C 
BRANCH  10  11
HETATM   11  C11 UNL     1     -32.474   8.864   1.128  1.00 20.00    -0.004 C 
HETATM   12  C9  UNL     1     -33.329   9.403  -0.007  1.00 20.00     0.005 C 
ENDBRANCH  10  11
ENDBRANCH   8  10
TORSDOF 2
