REMARK  3 active torsions:
REMARK  status: ('A' for Active; 'I' for Inactive)
REMARK    1  A    between atoms: C4_4  and  C9_9 
REMARK    2  A    between atoms: C8_8  and  C9_9 
REMARK    3  A    between atoms: C9_9  and  O10_10 
ROOT
HETATM    1  C9  UNL     1     -32.492   7.423   3.511  1.00 20.00     0.155 C 
ENDROOT
BRANCH   1   2
HETATM    2  C4  UNL     1     -32.472   8.372   2.333  1.00 20.00    -0.022 A 
HETATM    3  C1  UNL     1     -31.592   8.238   1.220  1.00 20.00     0.017 A 
HETATM    4  C2  UNL     1     -31.781   9.236   0.289  1.00 20.00     0.050 A 
HETATM    5  S11 UNL     1     -33.013  10.328   0.757  1.00 20.00    -0.113 SA
HETATM    6  C3  UNL     1     -33.298   9.467   2.210  1.00 20.00     0.059 A 
ENDBRANCH   1   2
BRANCH   1   7
HETATM    7  C8  UNL     1     -33.852   6.792   3.728  1.00 20.00     0.019 C 
HETATM    8  C6  UNL     1     -33.924   5.633   4.756  1.00 20.00     0.007 C 
HETATM    9  C5  UNL     1     -34.957   4.968   3.823  1.00 20.00     0.001 C 
HETATM   10  C7  UNL     1     -34.317   5.762   2.665  1.00 20.00     0.007 C 
ENDBRANCH   1   7
BRANCH   1  11
HETATM   11  O10 UNL     1     -32.124   8.158   4.679  1.00 20.00    -0.391 OA
HETATM   12  H23 UNL     1     -32.781   8.863   4.776  1.00 20.00     0.210 HD
ENDBRANCH   1  11
TORSDOF 3
