REMARK  1 active torsions:
REMARK  status: ('A' for Active; 'I' for Inactive)
REMARK    1  A    between atoms: C4_4  and  C8_8 
ROOT
HETATM    1  C5  UNL     1     -31.847   8.481   3.629  1.00 20.00     0.011 C 
HETATM    2  C6  UNL     1     -31.728   9.514   2.504  1.00 20.00     0.021 C 
HETATM    3  C7  UNL     1     -33.019   7.685   1.676  1.00 20.00     0.029 C 
HETATM    4  C8  UNL     1     -32.396   7.187   2.989  1.00 20.00     0.020 C 
HETATM    5  C9  UNL     1     -32.026   8.745   1.225  1.00 20.00     0.083 C 
HETATM    6 CL11 UNL     1     -32.678   9.781  -0.052  1.00 20.00    -0.125 Cl
ENDROOT
BRANCH   4   7
HETATM    7  C4  UNL     1     -33.276   6.364   3.905  1.00 20.00    -0.047 A 
HETATM    8  C1  UNL     1     -33.848   5.110   3.542  1.00 20.00     0.015 A 
HETATM    9  C2  UNL     1     -34.606   4.574   4.559  1.00 20.00     0.050 A 
HETATM   10  S10 UNL     1     -34.626   5.580   5.945  1.00 20.00    -0.113 SA
HETATM   11  C3  UNL     1     -33.619   6.738   5.186  1.00 20.00     0.057 A 
ENDBRANCH   4   7
TORSDOF 1
