REMARK  0 active torsions:
REMARK  status: ('A' for Active; 'I' for Inactive)
ROOT
HETATM    1  C1  UNL     1     -31.897   8.674   1.901  1.00 20.00     0.064 C 
HETATM    2  C2  UNL     1     -33.627   8.138   4.661  1.00 20.00     0.002 C 
HETATM    3  C3  UNL     1     -32.152   8.038   4.273  1.00 20.00     0.019 C 
HETATM    4  C4  UNL     1     -32.813   6.437   2.331  1.00 20.00     0.020 C 
HETATM    5  C5  UNL     1     -34.171   6.832   5.244  1.00 20.00     0.008 C 
HETATM    6  C6  UNL     1     -33.194   5.363   3.353  1.00 20.00     0.010 C 
HETATM    7  C7  UNL     1     -31.881   7.539   2.849  1.00 20.00     0.093 C 
HETATM    8  C8  UNL     1     -34.418   5.671   4.253  1.00 20.00    -0.048 C 
HETATM    9  C9  UNL     1     -35.679   5.958   3.411  1.00 20.00     0.015 C 
HETATM   10  C10 UNL     1     -34.710   4.402   5.089  1.00 20.00     0.015 C 
HETATM   11  N11 UNL     1     -31.909   9.565   1.158  1.00 20.00    -0.197 NA
ENDROOT
TORSDOF 0
