REMARK  2 active torsions:
REMARK  status: ('A' for Active; 'I' for Inactive)
REMARK    1  A    between atoms: C8_8  and  C10_10 
REMARK    2  A    between atoms: C10_10  and  C11_11 
ROOT
HETATM    1  C1  UNL     1     -35.931   5.448   4.142  1.00 20.00     0.064 C 
HETATM    2  C2  UNL     1     -33.807   7.559   5.352  1.00 20.00     0.002 C 
HETATM    3  C3  UNL     1     -34.072   6.082   5.654  1.00 20.00     0.019 C 
HETATM    4  C4  UNL     1     -33.620   5.310   3.221  1.00 20.00     0.019 C 
HETATM    5  C5  UNL     1     -32.517   7.773   4.563  1.00 20.00     0.005 C 
HETATM    6  C6  UNL     1     -33.650   6.662   2.504  1.00 20.00     0.006 C 
HETATM    7  C7  UNL     1     -34.510   5.210   4.471  1.00 20.00     0.093 C 
HETATM    8  C8  UNL     1     -32.659   7.707   3.036  1.00 20.00    -0.014 C 
HETATM    9  N12 UNL     1     -37.046   5.635   3.884  1.00 20.00    -0.197 NA
ENDROOT
BRANCH   8  10
HETATM   10  C10 UNL     1     -33.017   9.084   2.464  1.00 20.00     0.004 C 
BRANCH  10  11
HETATM   11  C11 UNL     1     -32.651   9.175   0.989  1.00 20.00    -0.004 C 
HETATM   12  C9  UNL     1     -33.029  10.532   0.416  1.00 20.00     0.005 C 
ENDBRANCH  10  11
ENDBRANCH   8  10
TORSDOF 2
