REMARK  1 active torsions:
REMARK  status: ('A' for Active; 'I' for Inactive)
REMARK    1  A    between atoms: C4_4  and  C10_10 
ROOT
HETATM    1  C5  UNL     1     -32.839   6.760   5.775  1.00 20.00     0.001 C 
HETATM    2  C6  UNL     1     -34.206   6.086   5.594  1.00 20.00     0.001 C 
HETATM    3  C7  UNL     1     -32.509   7.845   4.751  1.00 20.00     0.009 C 
HETATM    4  C8  UNL     1     -34.917   6.325   4.262  1.00 20.00     0.020 C 
HETATM    5  C9  UNL     1     -32.690   5.928   2.970  1.00 20.00     0.029 C 
HETATM    6  C10 UNL     1     -32.092   7.298   3.365  1.00 20.00     0.020 C 
HETATM    7  C11 UNL     1     -34.208   5.732   3.045  1.00 20.00     0.083 C 
HETATM    8 CL13 UNL     1     -35.003   6.326   1.551  1.00 20.00    -0.125 Cl
ENDROOT
BRANCH   6   9
HETATM    9  C4  UNL     1     -32.163   8.315   2.235  1.00 20.00    -0.047 A 
HETATM   10  C1  UNL     1     -31.226   8.379   1.164  1.00 20.00     0.015 A 
HETATM   11  C2  UNL     1     -31.521   9.392   0.278  1.00 20.00     0.050 A 
HETATM   12  S12 UNL     1     -32.923  10.261   0.739  1.00 20.00    -0.113 SA
HETATM   13  C3  UNL     1     -33.138   9.282   2.128  1.00 20.00     0.057 A 
ENDBRANCH   6   9
TORSDOF 1
