REMARK  1 active torsions:
REMARK  status: ('A' for Active; 'I' for Inactive)
REMARK    1  A    between atoms: C4_4  and  C10_10 
ROOT
HETATM    1  C5  UNL     1     -32.997   7.467   4.282  1.00 20.00     0.135 C 
HETATM    2  C6  UNL     1     -34.475   7.162   4.200  1.00 20.00     0.079 C 
HETATM    3  C7  UNL     1     -34.684   5.711   3.800  1.00 20.00     0.007 C 
HETATM    4  C8  UNL     1     -33.945   5.378   2.509  1.00 20.00     0.001 C 
HETATM    5  C9  UNL     1     -32.452   5.699   2.622  1.00 20.00     0.017 C 
HETATM    6  C10 UNL     1     -32.154   7.150   3.049  1.00 20.00     0.088 C 
HETATM    7  O11 UNL     1     -32.512   8.013   5.273  1.00 20.00    -0.297 OA
ENDROOT
BRANCH   6   8
HETATM    8  C4  UNL     1     -32.276   8.245   1.998  1.00 20.00    -0.040 A 
HETATM    9  C1  UNL     1     -31.488   8.300   0.812  1.00 20.00     0.015 A 
HETATM   10  C2  UNL     1     -31.800   9.392   0.034  1.00 20.00     0.050 A 
HETATM   11  S12 UNL     1     -33.038  10.347   0.733  1.00 20.00    -0.113 SA
HETATM   12  C3  UNL     1     -33.160   9.298   2.081  1.00 20.00     0.057 A 
ENDBRANCH   6   8
TORSDOF 1
