REMARK  4 active torsions:
REMARK  status: ('A' for Active; 'I' for Inactive)
REMARK    1  A    between atoms: C5_5  and  C7_7 
REMARK    2  A    between atoms: C5_5  and  O10_10 
REMARK    3  A    between atoms: C6_6  and  C7_7 
REMARK    4  A    between atoms: C7_7  and  N8_8 
ROOT
HETATM    1  C1  UNL     1     -34.083   4.902   3.471  1.00 20.00     0.332 C 
HETATM    2  N8  UNL     1     -33.873   5.952   2.997  1.00 20.00    -0.240 NA
HETATM    3  O9  UNL     1     -34.301   3.845   3.939  1.00 20.00    -0.260 OA
ENDROOT
BRANCH   2   4
HETATM    4  C7  UNL     1     -32.799   6.706   3.664  1.00 20.00     0.139 C 
BRANCH   4   5
HETATM    5  C5  UNL     1     -32.085   7.548   2.607  1.00 20.00     0.194 C 
BRANCH   5   6
HETATM    6  O10 UNL     1     -33.021   8.444   2.016  1.00 20.00    -0.394 OA
HETATM    7  C4  UNL     1     -32.407   9.258   1.028  1.00 20.00     0.201 C 
ENDBRANCH   5   6
ENDBRANCH   4   5
BRANCH   4   8
HETATM    8  C6  UNL     1     -33.388   7.554   4.813  1.00 20.00     0.004 C 
HETATM    9  C2  UNL     1     -32.286   8.314   5.559  1.00 20.00     0.012 C 
HETATM   10  C3  UNL     1     -34.226   6.744   5.807  1.00 20.00     0.012 C 
ENDBRANCH   4   8
ENDBRANCH   2   4
TORSDOF 4
