REMARK  0 active torsions:
REMARK  status: ('A' for Active; 'I' for Inactive)
ROOT
HETATM    1  C1  UNL     1     -33.037   7.973   5.031  1.00 20.00     0.004 C 
HETATM    2  C2  UNL     1     -31.992   7.701   3.950  1.00 20.00     0.040 C 
HETATM    3  C3  UNL     1     -33.374   6.296   2.250  1.00 20.00     0.041 C 
HETATM    4  C4  UNL     1     -34.410   7.331   4.821  1.00 20.00     0.009 C 
HETATM    5  C5  UNL     1     -33.532   5.319   3.419  1.00 20.00     0.012 C 
HETATM    6  C6  UNL     1     -32.828   8.789   1.743  1.00 20.00     0.207 A 
HETATM    7  C7  UNL     1     -32.592   7.548   2.581  1.00 20.00     0.082 A 
HETATM    8  C8  UNL     1     -34.449   5.803   4.575  1.00 20.00    -0.048 C 
HETATM    9  C9  UNL     1     -34.051   5.054   5.863  1.00 20.00     0.015 C 
HETATM   10  C10 UNL     1     -35.910   5.425   4.243  1.00 20.00     0.015 C 
HETATM   11  O11 UNL     1     -31.695   7.943   1.526  1.00 20.00    -0.375 OA
ENDROOT
TORSDOF 0
