REMARK  5 active torsions:
REMARK  status: ('A' for Active; 'I' for Inactive)
REMARK    1  A    between atoms: C5_5  and  C7_7 
REMARK    2  A    between atoms: C6_6  and  C8_8 
REMARK    3  A    between atoms: C7_7  and  C9_9 
REMARK    4  A    between atoms: C8_8  and  C9_9 
REMARK    5  A    between atoms: C9_9  and  S11_11 
ROOT
HETATM    1  C1  UNL     1     -32.954   7.472   4.673  1.00 20.00     0.080 C 
HETATM    2  C9  UNL     1     -33.293   6.616   3.515  1.00 20.00     0.096 C 
HETATM    3  N10 UNL     1     -32.689   8.146   5.581  1.00 20.00    -0.196 NA
ENDROOT
BRANCH   2   4
HETATM    4  C7  UNL     1     -32.800   7.288   2.203  1.00 20.00     0.035 C 
BRANCH   4   5
HETATM    5  C5  UNL     1     -33.038   8.804   2.115  1.00 20.00    -0.002 C 
HETATM    6  C2  UNL     1     -32.586   9.356   0.770  1.00 20.00     0.005 C 
ENDBRANCH   4   5
ENDBRANCH   2   4
BRANCH   2   7
HETATM    7  C8  UNL     1     -34.818   6.338   3.473  1.00 20.00     0.035 C 
BRANCH   7   8
HETATM    8  C6  UNL     1     -35.347   5.296   4.473  1.00 20.00    -0.002 C 
HETATM    9  C3  UNL     1     -34.982   5.674   5.903  1.00 20.00     0.005 C 
ENDBRANCH   7   8
ENDBRANCH   2   7
BRANCH   2  10
HETATM   10  S11 UNL     1     -32.350   5.030   3.663  1.00 20.00    -0.148 SA
HETATM   11  C4  UNL     1     -32.971   4.256   2.157  1.00 20.00     0.091 C 
ENDBRANCH   2  10
TORSDOF 5
