REMARK  1 active torsions:
REMARK  status: ('A' for Active; 'I' for Inactive)
REMARK    1  A    between atoms: C3_3  and  C8_8 
ROOT
HETATM    1  C1  UNL     1     -33.506   5.899   3.411  1.00 20.00     0.022 A 
HETATM    2  C2  UNL     1     -33.323   7.764   4.786  1.00 20.00     0.057 A 
HETATM    3  C3  UNL     1     -33.289   7.305   3.487  1.00 20.00    -0.046 A 
HETATM    4  C4  UNL     1     -33.697   5.337   4.654  1.00 20.00    -0.021 A 
HETATM    5  C10 UNL     1     -33.949   3.920   4.995  1.00 20.00     0.056 C 
HETATM    6  S11 UNL     1     -33.615   6.502   5.906  1.00 20.00    -0.106 SA
ENDROOT
BRANCH   3   7
HETATM    7  C8  UNL     1     -33.050   8.190   2.281  1.00 20.00     0.020 C 
HETATM    8  C5  UNL     1     -32.871   9.678   2.622  1.00 20.00     0.010 C 
HETATM    9  C6  UNL     1     -32.132  10.306   1.436  1.00 20.00     0.016 C 
HETATM   10  C9  UNL     1     -31.617   9.148   0.590  1.00 20.00     0.058 C 
HETATM   11  C7  UNL     1     -31.790   7.904   1.448  1.00 20.00     0.025 C 
HETATM   12 BR12 UNL     1     -32.671   8.987  -1.050  1.00 20.00    -0.091 Br
ENDBRANCH   3   7
TORSDOF 1
