REMARK  1 active torsions:
REMARK  status: ('A' for Active; 'I' for Inactive)
REMARK    1  A    between atoms: C3_3  and  C8_8 
ROOT
HETATM    1  C1  UNL     1     -33.731   8.583   1.434  1.00 20.00     0.022 A 
HETATM    2  C2  UNL     1     -31.868   7.357   2.087  1.00 20.00     0.057 A 
HETATM    3  C3  UNL     1     -33.206   7.595   2.316  1.00 20.00    -0.045 A 
HETATM    4  C4  UNL     1     -32.776   9.061   0.565  1.00 20.00    -0.021 A 
HETATM    5  C10 UNL     1     -32.924  10.084  -0.493  1.00 20.00     0.056 C 
HETATM    6  S11 UNL     1     -31.252   8.321   0.814  1.00 20.00    -0.106 SA
ENDROOT
BRANCH   3   7
HETATM    7  C8  UNL     1     -34.021   6.893   3.378  1.00 20.00     0.033 C 
HETATM    8  C6  UNL     1     -34.047   7.639   4.717  1.00 20.00     0.010 C 
HETATM    9  C5  UNL     1     -34.466   6.590   5.747  1.00 20.00     0.002 C 
HETATM   10  C7  UNL     1     -34.250   5.225   5.092  1.00 20.00     0.016 C 
HETATM   11  C9  UNL     1     -33.511   5.512   3.792  1.00 20.00     0.066 C 
HETATM   12 BR12 UNL     1     -33.916   4.166   2.454  1.00 20.00    -0.090 Br
ENDBRANCH   3   7
TORSDOF 1
