REMARK  1 active torsions:
REMARK  status: ('A' for Active; 'I' for Inactive)
REMARK    1  A    between atoms: C7_7  and  C11_11 
ROOT
HETATM    1  C1  UNL     1     -32.374   7.723   4.450  1.00 20.00     0.004 C 
HETATM    2  C2  UNL     1     -31.858   8.005   3.034  1.00 20.00     0.005 C 
HETATM    3  C3  UNL     1     -33.411   6.731   1.392  1.00 20.00     0.008 C 
HETATM    4  C4  UNL     1     -32.845   6.293   4.692  1.00 20.00     0.040 C 
HETATM    5  C5  UNL     1     -33.421   5.527   2.330  1.00 20.00     0.041 C 
HETATM    6  C6  UNL     1     -35.353   6.153   3.971  1.00 20.00     0.207 A 
HETATM    7  C7  UNL     1     -32.984   8.087   1.987  1.00 20.00    -0.011 C 
HETATM    8  C8  UNL     1     -33.894   5.851   3.714  1.00 20.00     0.082 A 
HETATM    9  O12 UNL     1     -34.790   4.865   4.255  1.00 20.00    -0.375 OA
ENDROOT
BRANCH   7  10
HETATM   10  C11 UNL     1     -32.577   9.025   0.844  1.00 20.00    -0.019 C 
HETATM   11  C9  UNL     1     -32.817  10.478   1.241  1.00 20.00     0.010 C 
HETATM   12  C10 UNL     1     -31.118   8.799   0.467  1.00 20.00     0.010 C 
ENDBRANCH   7  10
TORSDOF 1
