REMARK  1 active torsions:
REMARK  status: ('A' for Active; 'I' for Inactive)
REMARK    1  A    between atoms: C4_4  and  C9_9 
ROOT
HETATM    1  C5  UNL     1     -34.266   4.808   3.436  1.00 20.00     0.002 C 
HETATM    2  C6  UNL     1     -34.180   5.981   2.455  1.00 20.00     0.009 C 
HETATM    3  C7  UNL     1     -34.062   5.213   4.899  1.00 20.00     0.020 C 
HETATM    4  C8  UNL     1     -33.562   7.624   4.303  1.00 20.00     0.029 C 
HETATM    5  C9  UNL     1     -33.172   7.039   2.927  1.00 20.00     0.020 C 
HETATM    6  C10 UNL     1     -34.434   6.673   5.134  1.00 20.00     0.083 C 
HETATM    7 CL12 UNL     1     -34.303   7.080   6.868  1.00 20.00    -0.125 Cl
ENDROOT
BRANCH   5   8
HETATM    8  C4  UNL     1     -32.944   8.132   1.900  1.00 20.00    -0.047 A 
HETATM    9  C1  UNL     1     -33.961   9.021   1.447  1.00 20.00     0.015 A 
HETATM   10  C2  UNL     1     -33.487   9.916   0.513  1.00 20.00     0.050 A 
HETATM   11  S11 UNL     1     -31.823   9.683   0.185  1.00 20.00    -0.113 SA
HETATM   12  C3  UNL     1     -31.732   8.381   1.294  1.00 20.00     0.057 A 
ENDBRANCH   5   8
TORSDOF 1
