REMARK  0 active torsions:
REMARK  status: ('A' for Active; 'I' for Inactive)
ROOT
HETATM    1  C1  UNL     1     -32.348   9.097   2.161  1.00 20.00     0.085 C 
HETATM    2  C2  UNL     1     -32.901   5.935   1.935  1.00 20.00     0.004 C 
HETATM    3  C3  UNL     1     -31.603   6.734   2.091  1.00 20.00     0.041 C 
HETATM    4  C4  UNL     1     -32.343   7.845   4.316  1.00 20.00     0.042 C 
HETATM    5  C5  UNL     1     -33.285   5.198   3.219  1.00 20.00     0.009 C 
HETATM    6  C6  UNL     1     -33.837   7.493   4.297  1.00 20.00     0.011 C 
HETATM    7  C7  UNL     1     -31.696   8.018   2.929  1.00 20.00     0.125 C 
HETATM    8  C8  UNL     1     -34.183   5.988   4.198  1.00 20.00    -0.048 C 
HETATM    9  C9  UNL     1     -34.064   5.336   5.593  1.00 20.00     0.015 C 
HETATM   10  C10 UNL     1     -35.657   5.867   3.754  1.00 20.00     0.015 C 
HETATM   11  N11 UNL     1     -32.861   9.945   1.558  1.00 20.00    -0.195 NA
HETATM   12 CL12 UNL     1     -30.001   8.611   3.188  1.00 20.00    -0.103 Cl
ENDROOT
TORSDOF 0
