REMARK  2 active torsions:
REMARK  status: ('A' for Active; 'I' for Inactive)
REMARK    1  A    between atoms: C8_8  and  C10_10 
REMARK    2  A    between atoms: C10_10  and  C11_11 
ROOT
HETATM    1  C1  UNL     1     -35.880   4.303   4.948  1.00 20.00     0.064 C 
HETATM    2  C2  UNL     1     -34.189   6.858   6.174  1.00 20.00     0.002 C 
HETATM    3  C3  UNL     1     -33.946   5.353   6.071  1.00 20.00     0.019 C 
HETATM    4  C4  UNL     1     -34.310   5.516   3.501  1.00 20.00     0.019 C 
HETATM    5  C5  UNL     1     -33.071   7.682   5.533  1.00 20.00     0.005 C 
HETATM    6  C6  UNL     1     -32.991   6.277   3.370  1.00 20.00     0.006 C 
HETATM    7  C7  UNL     1     -34.463   4.693   4.786  1.00 20.00     0.093 C 
HETATM    8  C8  UNL     1     -33.042   7.680   3.999  1.00 20.00    -0.014 C 
HETATM    9  N12 UNL     1     -36.992   3.998   5.075  1.00 20.00    -0.197 NA
ENDROOT
BRANCH   8  10
HETATM   10  C10 UNL     1     -31.840   8.503   3.518  1.00 20.00     0.004 C 
BRANCH  10  11
HETATM   11  C11 UNL     1     -32.007   8.912   2.061  1.00 20.00    -0.004 C 
HETATM   12  C9  UNL     1     -33.270   9.736   1.867  1.00 20.00     0.005 C 
ENDBRANCH  10  11
ENDBRANCH   8  10
TORSDOF 2
