REMARK  1 active torsions:
REMARK  status: ('A' for Active; 'I' for Inactive)
REMARK    1  A    between atoms: C4_4  and  C8_8 
ROOT
HETATM    1  C5  UNL     1     -34.105   7.138   4.595  1.00 20.00     0.002 C 
HETATM    2  C6  UNL     1     -32.641   7.509   4.340  1.00 20.00     0.011 C 
HETATM    3  C7  UNL     1     -34.655   6.608   3.273  1.00 20.00     0.021 C 
HETATM    4  C8  UNL     1     -32.380   7.275   2.841  1.00 20.00     0.037 C 
HETATM    5  C9  UNL     1     -33.430   6.223   2.450  1.00 20.00     0.090 C 
HETATM    6 CL11 UNL     1     -32.874   4.582   2.909  1.00 20.00    -0.124 Cl
ENDROOT
BRANCH   4   7
HETATM    7  C4  UNL     1     -32.469   8.502   1.946  1.00 20.00    -0.046 A 
HETATM    8  C1  UNL     1     -32.903   8.466   0.590  1.00 20.00     0.015 A 
HETATM    9  C2  UNL     1     -32.889   9.715   0.009  1.00 20.00     0.050 A 
HETATM   10  S10 UNL     1     -32.355  10.924   1.097  1.00 20.00    -0.113 SA
HETATM   11  C3  UNL     1     -32.140   9.778   2.351  1.00 20.00     0.057 A 
ENDBRANCH   4   7
TORSDOF 1
