REMARK  2 active torsions:
REMARK  status: ('A' for Active; 'I' for Inactive)
REMARK    1  A    between atoms: C6_6  and  C9_9 
REMARK    2  A    between atoms: C9_9  and  C10_10 
ROOT
HETATM    1  C1  UNL     1     -33.702   5.152   2.678  1.00 20.00     0.002 C 
HETATM    2  C2  UNL     1     -32.454   5.983   2.962  1.00 20.00     0.005 C 
HETATM    3  C3  UNL     1     -33.611   7.978   4.183  1.00 20.00     0.006 C 
HETATM    4  C4  UNL     1     -34.961   5.514   3.463  1.00 20.00     0.020 C 
HETATM    5  C5  UNL     1     -33.825   6.970   5.312  1.00 20.00     0.020 C 
HETATM    6  C6  UNL     1     -32.642   7.505   3.078  1.00 20.00    -0.014 C 
HETATM    7  C7  UNL     1     -34.785   5.823   4.954  1.00 20.00     0.082 C 
HETATM    8 CL11 UNL     1     -34.323   4.344   5.853  1.00 20.00    -0.125 Cl
ENDROOT
BRANCH   6   9
HETATM    9  C9  UNL     1     -33.019   8.131   1.733  1.00 20.00     0.004 C 
BRANCH   9  10
HETATM   10  C10 UNL     1     -32.764   9.632   1.739  1.00 20.00    -0.004 C 
HETATM   11  C8  UNL     1     -33.115  10.250   0.395  1.00 20.00     0.005 C 
ENDBRANCH   9  10
ENDBRANCH   6   9
TORSDOF 2
