REMARK  2 active torsions:
REMARK  status: ('A' for Active; 'I' for Inactive)
REMARK    1  A    between atoms: C4_4  and  C9_9 
REMARK    2  A    between atoms: C5_5  and  S11_11 
ROOT
HETATM    1  C1  UNL     1     -33.185   7.223   4.770  1.00 20.00     0.080 C 
HETATM    2  C2  UNL     1     -31.420   7.916   3.070  1.00 20.00     0.041 C 
HETATM    3  C3  UNL     1     -33.393   7.646   2.268  1.00 20.00     0.041 C 
HETATM    4  C4  UNL     1     -32.424   8.855   2.349  1.00 20.00    -0.006 C 
HETATM    5  C5  UNL     1     -32.622   7.016   3.455  1.00 20.00     0.097 C 
HETATM    6  N10 UNL     1     -33.638   7.389   5.825  1.00 20.00    -0.196 NA
ENDROOT
BRANCH   5   7
HETATM    7  S11 UNL     1     -32.272   5.241   3.194  1.00 20.00    -0.148 SA
HETATM    8  C8  UNL     1     -33.956   4.622   3.399  1.00 20.00     0.091 C 
ENDBRANCH   5   7
BRANCH   4   9
HETATM    9  C9  UNL     1     -31.969   9.448   1.031  1.00 20.00    -0.019 C 
HETATM   10  C6  UNL     1     -31.624   8.347   0.024  1.00 20.00     0.010 C 
HETATM   11  C7  UNL     1     -33.038  10.377   0.450  1.00 20.00     0.010 C 
ENDBRANCH   4   9
TORSDOF 2
