REMARK  1 active torsions:
REMARK  status: ('A' for Active; 'I' for Inactive)
REMARK    1  A    between atoms: C4_4  and  C8_8 
ROOT
HETATM    1  C5  UNL     1     -34.331   5.856   5.438  1.00 20.00     0.002 C 
HETATM    2  C6  UNL     1     -33.527   7.008   4.829  1.00 20.00     0.011 C 
HETATM    3  C7  UNL     1     -35.224   5.318   4.321  1.00 20.00     0.021 C 
HETATM    4  C8  UNL     1     -34.158   7.273   3.450  1.00 20.00     0.037 C 
HETATM    5  C9  UNL     1     -34.631   5.867   3.026  1.00 20.00     0.090 C 
HETATM    6 CL11 UNL     1     -33.281   4.822   2.482  1.00 20.00    -0.124 Cl
ENDROOT
BRANCH   4   7
HETATM    7  C4  UNL     1     -33.331   8.040   2.439  1.00 20.00    -0.046 A 
HETATM    8  C1  UNL     1     -32.068   7.600   1.948  1.00 20.00     0.015 A 
HETATM    9  C2  UNL     1     -31.528   8.484   1.040  1.00 20.00     0.050 A 
HETATM   10  S10 UNL     1     -32.544   9.838   0.782  1.00 20.00    -0.113 SA
HETATM   11  C3  UNL     1     -33.709   9.244   1.887  1.00 20.00     0.057 A 
ENDBRANCH   4   7
TORSDOF 1
