REMARK  1 active torsions:
REMARK  status: ('A' for Active; 'I' for Inactive)
REMARK    1  A    between atoms: C7_7  and  C10_10 
ROOT
HETATM    1  C1  UNL     1     -32.797   7.799   5.044  1.00 20.00     0.004 C 
HETATM    2  C2  UNL     1     -33.166   8.754   3.909  1.00 20.00     0.005 C 
HETATM    3  C3  UNL     1     -33.276   7.041   1.980  1.00 20.00     0.007 C 
HETATM    4  C4  UNL     1     -33.791   6.661   5.253  1.00 20.00     0.040 C 
HETATM    5  C5  UNL     1     -33.155   5.814   2.882  1.00 20.00     0.040 C 
HETATM    6  C6  UNL     1     -35.582   5.507   3.761  1.00 20.00     0.207 A 
HETATM    7  C7  UNL     1     -32.621   8.315   2.539  1.00 20.00    -0.015 C 
HETATM    8  C8  UNL     1     -34.131   5.864   4.024  1.00 20.00     0.082 A 
HETATM    9  O11 UNL     1     -34.679   4.571   4.349  1.00 20.00    -0.375 OA
ENDROOT
BRANCH   7  10
HETATM   10  C10 UNL     1     -32.793   9.455   1.529  1.00 20.00     0.000 C 
HETATM   11  C9  UNL     1     -32.220   9.098   0.199  1.00 20.00     0.005 C 
ENDBRANCH   7  10
TORSDOF 1
