REMARK  2 active torsions:
REMARK  status: ('A' for Active; 'I' for Inactive)
REMARK    1  A    between atoms: C2_2  and  C9_9 
REMARK    2  A    between atoms: C4_4  and  C9_9 
ROOT
HETATM    1  C1  UNL     1     -33.279   6.311   2.713  1.00 20.00    -0.004 C 
HETATM    2  C2  UNL     1     -32.882   7.400   3.399  1.00 20.00    -0.079 C 
HETATM    3  C5  UNL     1     -33.446   7.707   4.770  1.00 20.00     0.034 C 
HETATM    4  C6  UNL     1     -34.190   6.537   5.418  1.00 20.00     0.006 C 
HETATM    5  C7  UNL     1     -35.100   5.844   4.407  1.00 20.00     0.024 C 
HETATM    6  C8  UNL     1     -34.314   5.336   3.195  1.00 20.00     0.105 C 
HETATM    7 CL10 UNL     1     -33.486   3.796   3.590  1.00 20.00    -0.121 Cl
ENDROOT
BRANCH   2   8
HETATM    8  C9  UNL     1     -31.868   8.358   2.895  1.00 20.00     0.060 C 
BRANCH   8   9
HETATM    9  C4  UNL     1     -32.488   9.455   2.090  1.00 20.00    -0.033 C 
HETATM   10  C3  UNL     1     -32.198   9.695   0.806  1.00 20.00     0.007 C 
ENDBRANCH   8   9
ENDBRANCH   2   8
TORSDOF 2
