REMARK  0 active torsions:
REMARK  status: ('A' for Active; 'I' for Inactive)
ROOT
HETATM    1  C1  UNL     1     -33.241   5.758   2.671  1.00 20.00     0.067 C 
HETATM    2  C2  UNL     1     -33.687   7.146   2.892  1.00 20.00     0.127 C 
HETATM    3  C3  UNL     1     -32.596   8.132   2.474  1.00 20.00     0.030 C 
HETATM    4  C4  UNL     1     -33.873   7.491   4.368  1.00 20.00     0.136 C 
HETATM    5  C5  UNL     1     -31.790   8.353   3.765  1.00 20.00     0.123 C 
HETATM    6  C6  UNL     1     -33.198   9.448   1.972  1.00 20.00     0.014 C 
HETATM    7  C7  UNL     1     -34.486   6.417   5.250  1.00 20.00     0.041 C 
HETATM    8  C8  UNL     1     -30.452   7.626   3.765  1.00 20.00     0.040 C 
HETATM    9  N9  UNL     1     -32.889   4.666   2.497  1.00 20.00    -0.197 NA
HETATM   10  O10 UNL     1     -32.571   7.840   4.859  1.00 20.00    -0.380 OA
ENDROOT
TORSDOF 0
