REMARK  1 active torsions:
REMARK  status: ('A' for Active; 'I' for Inactive)
REMARK    1  A    between atoms: C2_2  and  C10_10 
ROOT
HETATM    1  C1  UNL     1     -33.466   7.952   1.354  1.00 20.00    -0.004 C 
HETATM    2  C2  UNL     1     -33.264   7.780   2.666  1.00 20.00    -0.078 C 
HETATM    3  C3  UNL     1     -32.027   8.484   3.129  1.00 20.00     0.036 C 
HETATM    4  C4  UNL     1     -31.314   8.799   1.812  1.00 20.00     0.028 C 
HETATM    5  C9  UNL     1     -32.400   8.793   0.734  1.00 20.00     0.105 C 
HETATM    6 CL12 UNL     1     -33.029  10.427   0.427  1.00 20.00    -0.121 Cl
ENDROOT
BRANCH   2   7
HETATM    7  C10 UNL     1     -34.147   7.017   3.634  1.00 20.00     0.018 C 
HETATM    8  C5  UNL     1     -34.235   5.571   3.162  1.00 20.00     0.035 C 
HETATM    9  C7  UNL     1     -34.904   4.707   4.224  1.00 20.00     0.168 C 
HETATM   10  O11 UNL     1     -34.216   4.813   5.471  1.00 20.00    -0.391 OA
HETATM   11  C8  UNL     1     -34.225   6.148   5.979  1.00 20.00     0.168 C 
HETATM   12  C6  UNL     1     -33.516   7.095   5.019  1.00 20.00     0.035 C 
ENDBRANCH   2   7
TORSDOF 1
