REMARK  4 active torsions:
REMARK  status: ('A' for Active; 'I' for Inactive)
REMARK    1  A    between atoms: C2_2  and  C8_8 
REMARK    2  A    between atoms: C8_8  and  C11_11 
REMARK    3  A    between atoms: C9_9  and  C10_10 
REMARK    4  A    between atoms: C10_10  and  C11_11 
ROOT
HETATM    1  C1  UNL     1     -34.976   6.206   3.615  1.00 20.00    -0.004 C 
HETATM    2  C2  UNL     1     -34.156   7.138   4.117  1.00 20.00    -0.082 C 
HETATM    3  C3  UNL     1     -33.643   6.748   5.469  1.00 20.00     0.036 C 
HETATM    4  C4  UNL     1     -34.579   5.603   5.860  1.00 20.00     0.028 C 
HETATM    5  C5  UNL     1     -35.141   5.051   4.548  1.00 20.00     0.105 C 
HETATM    6 CL12 UNL     1     -34.195   3.667   3.959  1.00 20.00    -0.121 Cl
ENDROOT
BRANCH   2   7
HETATM    7  C8  UNL     1     -33.732   8.403   3.465  1.00 20.00     0.038 C 
BRANCH   7   8
HETATM    8  C11 UNL     1     -32.405   8.316   2.685  1.00 20.00    -0.015 C 
HETATM    9  C7  UNL     1     -31.201   8.317   3.636  1.00 20.00     0.010 C 
BRANCH   8  10
HETATM   10  C10 UNL     1     -32.226   9.418   1.620  1.00 20.00     0.004 C 
BRANCH  10  11
HETATM   11  C9  UNL     1     -33.069   9.194   0.362  1.00 20.00    -0.004 C 
HETATM   12  C6  UNL     1     -32.842  10.297  -0.660  1.00 20.00     0.005 C 
ENDBRANCH  10  11
ENDBRANCH   8  10
ENDBRANCH   7   8
ENDBRANCH   2   7
TORSDOF 4
