REMARK  2 active torsions:
REMARK  status: ('A' for Active; 'I' for Inactive)
REMARK    1  A    between atoms: C4_4  and  C10_10 
REMARK    2  A    between atoms: C9_9  and  C10_10 
ROOT
HETATM    1  C1  UNL     1     -32.699  11.403   1.595  1.00 20.00     0.012 C 
HETATM    2  C2  UNL     1     -32.557  10.314   1.109  1.00 20.00    -0.117 C 
HETATM    3  C9  UNL     1     -32.385   8.982   0.511  1.00 20.00     0.097 C 
ENDROOT
BRANCH   3   4
HETATM    4  C10 UNL     1     -31.525   8.073   1.378  1.00 20.00     0.046 C 
BRANCH   4   5
HETATM    5  C4  UNL     1     -32.152   7.866   2.706  1.00 20.00    -0.081 C 
HETATM    6  C3  UNL     1     -33.393   7.368   2.871  1.00 20.00    -0.004 C 
HETATM    7  C8  UNL     1     -34.041   7.153   4.208  1.00 20.00     0.105 C 
HETATM    8  C7  UNL     1     -33.060   7.244   5.380  1.00 20.00     0.024 C 
HETATM    9 CL11 UNL     1     -34.853   5.562   4.238  1.00 20.00    -0.121 Cl
HETATM   10  C6  UNL     1     -32.118   8.429   5.195  1.00 20.00     0.006 C 
HETATM   11  C5  UNL     1     -31.318   8.287   3.898  1.00 20.00     0.034 C 
ENDBRANCH   4   5
ENDBRANCH   3   4
TORSDOF 2
