REMARK  1 active torsions:
REMARK  status: ('A' for Active; 'I' for Inactive)
REMARK    1  A    between atoms: C2_2  and  C10_10 
ROOT
HETATM    1  C1  UNL     1     -32.575   7.414   4.195  1.00 20.00    -0.003 C 
HETATM    2  C2  UNL     1     -33.398   6.537   3.587  1.00 20.00    -0.075 C 
HETATM    3  C3  UNL     1     -33.560   6.535   2.082  1.00 20.00     0.034 C 
HETATM    4  C4  UNL     1     -32.487   7.330   1.334  1.00 20.00     0.006 C 
HETATM    5  C5  UNL     1     -32.219   8.665   2.023  1.00 20.00     0.024 C 
HETATM    6  C6  UNL     1     -31.784   8.470   3.479  1.00 20.00     0.105 C 
HETATM    7 CL11 UNL     1     -30.052   8.019   3.557  1.00 20.00    -0.121 Cl
ENDROOT
BRANCH   2   8
HETATM    8  C10 UNL     1     -34.181   5.510   4.317  1.00 20.00    -0.028 C 
HETATM    9  C7  UNL     1     -33.758   4.113   3.837  1.00 20.00     0.019 C 
HETATM   10  C8  UNL     1     -35.681   5.710   4.048  1.00 20.00     0.019 C 
HETATM   11  C9  UNL     1     -33.920   5.632   5.827  1.00 20.00     0.019 C 
ENDBRANCH   2   8
TORSDOF 1
