REMARK  0 active torsions:
REMARK  status: ('A' for Active; 'I' for Inactive)
ROOT
HETATM    1  C1  UNL     1     -31.665   7.927   1.563  1.00 20.00     0.019 A 
HETATM    2  C2  UNL     1     -31.466   8.962   0.675  1.00 20.00     0.050 A 
HETATM    3  C3  UNL     1     -33.755   8.944   1.573  1.00 20.00     0.061 A 
HETATM    4  C4  UNL     1     -32.991   7.917   2.083  1.00 20.00    -0.023 A 
HETATM    5  C5  UNL     1     -33.474   7.055   4.347  1.00 20.00     0.058 A 
HETATM    6  C6  UNL     1     -33.489   6.981   3.010  1.00 20.00    -0.043 A 
HETATM    7  C7  UNL     1     -34.114   5.830   4.844  1.00 20.00     0.150 A 
HETATM    8  C8  UNL     1     -34.131   5.722   2.489  1.00 20.00     0.047 A 
HETATM    9  C9  UNL     1     -34.553   4.938   3.726  1.00 20.00     0.087 A 
HETATM   10  O10 UNL     1     -34.261   5.587   6.033  1.00 20.00    -0.293 OA
HETATM   11  S11 UNL     1     -32.874   9.915   0.472  1.00 20.00    -0.113 SA
ENDROOT
TORSDOF 0
