REMARK  2 active torsions:
REMARK  status: ('A' for Active; 'I' for Inactive)
REMARK    1  A    between atoms: C3_3  and  C8_8 
REMARK    2  A    between atoms: C8_8  and  C9_9 
ROOT
HETATM    1  C1  UNL     1     -33.991   6.477   4.911  1.00 20.00     0.044 A 
HETATM    2  C2  UNL     1     -34.007   5.250   4.281  1.00 20.00     0.005 A 
HETATM    3  C3  UNL     1     -32.821   7.003   3.131  1.00 20.00     0.081 A 
HETATM    4  C4  UNL     1     -34.624   6.798   6.206  1.00 20.00     0.071 C 
HETATM    5  C5  UNL     1     -34.628   3.976   4.697  1.00 20.00     0.058 C 
HETATM    6  N10 UNL     1     -33.311   7.483   4.253  1.00 20.00    -0.249 NA
HETATM    7  S11 UNL     1     -33.141   5.349   2.805  1.00 20.00    -0.077 SA
ENDROOT
BRANCH   3   8
HETATM    8  C8  UNL     1     -32.005   7.812   2.131  1.00 20.00     0.059 C 
HETATM    9  C6  UNL     1     -30.689   8.248   2.795  1.00 20.00     0.018 C 
BRANCH   8  10
HETATM   10  C9  UNL     1     -32.802   9.008   1.547  1.00 20.00     0.088 C 
HETATM   11  C7  UNL     1     -32.189   9.564   0.261  1.00 20.00     0.027 C 
HETATM   12 CL12 UNL     1     -32.885  10.357   2.734  1.00 20.00    -0.125 Cl
ENDBRANCH   8  10
ENDBRANCH   3   8
TORSDOF 2
