REMARK  2 active torsions:
REMARK  status: ('A' for Active; 'I' for Inactive)
REMARK    1  A    between atoms: C4_4  and  C9_9 
REMARK    2  A    between atoms: C8_8  and  O10_10 
ROOT
HETATM    1  C1  UNL     1     -32.739   9.357   1.206  1.00 20.00     0.012 C 
HETATM    2  C2  UNL     1     -32.351   8.627   2.077  1.00 20.00    -0.113 C 
HETATM    3  C9  UNL     1     -31.862   7.752   3.140  1.00 20.00     0.127 C 
ENDROOT
BRANCH   3   4
HETATM    4  C4  UNL     1     -32.789   6.583   3.296  1.00 20.00    -0.070 C 
HETATM    5  C3  UNL     1     -33.823   6.606   4.156  1.00 20.00     0.008 C 
HETATM    6  C8  UNL     1     -34.754   5.446   4.364  1.00 20.00     0.141 C 
HETATM    7  C7  UNL     1     -34.221   4.137   3.776  1.00 20.00     0.036 C 
HETATM    8  C6  UNL     1     -33.633   4.360   2.390  1.00 20.00     0.007 C 
HETATM    9  C5  UNL     1     -32.493   5.380   2.434  1.00 20.00     0.035 C 
BRANCH   6  10
HETATM   10  O10 UNL     1     -34.962   5.275   5.763  1.00 20.00    -0.392 OA
HETATM   11  H22 UNL     1     -35.565   4.521   5.863  1.00 20.00     0.210 HD
ENDBRANCH   6  10
ENDBRANCH   3   4
TORSDOF 2
