REMARK  1 active torsions:
REMARK  status: ('A' for Active; 'I' for Inactive)
REMARK    1  A    between atoms: C3_3  and  C5_5 
ROOT
HETATM    1  C1  UNL     1     -31.992   9.642   0.799  1.00 20.00     0.109 A 
HETATM    2  C2  UNL     1     -33.314   9.826   0.506  1.00 20.00     0.107 A 
HETATM    3  C3  UNL     1     -33.185   8.526   2.293  1.00 20.00     0.113 A 
HETATM    4  C10 UNL     1     -30.723   8.390   2.557  1.00 20.00     0.157 C 
HETATM    5  N11 UNL     1     -31.942   8.834   1.909  1.00 20.00    -0.346 N 
HETATM    6  N12 UNL     1     -34.029   9.125   1.446  1.00 20.00    -0.350 N 
HETATM    7  H27 UNL     1     -35.043   9.070   1.490  1.00 20.00     0.166 HD
ENDROOT
BRANCH   3   8
HETATM    8  C5  UNL     1     -33.583   7.679   3.444  1.00 20.00    -0.016 C 
HETATM    9  C4  UNL     1     -34.306   6.557   3.259  1.00 20.00     0.004 C 
HETATM   10  C9  UNL     1     -34.758   5.658   4.376  1.00 20.00     0.105 C 
HETATM   11  C8  UNL     1     -34.582   6.280   5.765  1.00 20.00     0.024 C 
HETATM   12 CL13 UNL     1     -33.834   4.127   4.260  1.00 20.00    -0.121 Cl
HETATM   13  C7  UNL     1     -33.257   7.027   5.883  1.00 20.00     0.006 C 
HETATM   14  C6  UNL     1     -33.157   8.128   4.823  1.00 20.00     0.042 C 
ENDBRANCH   3   8
TORSDOF 1
