REMARK  2 active torsions:
REMARK  status: ('A' for Active; 'I' for Inactive)
REMARK    1  A    between atoms: C4_4  and  C12_12 
REMARK    2  A    between atoms: C11_11  and  C12_12 
ROOT
HETATM    1  C1  UNL     1     -32.776  11.017   1.054  1.00 20.00     0.012 C 
HETATM    2  C2  UNL     1     -32.415   9.933   0.686  1.00 20.00    -0.117 C 
HETATM    3  C11 UNL     1     -31.974   8.606   0.231  1.00 20.00     0.097 C 
ENDROOT
BRANCH   3   4
HETATM    4  C12 UNL     1     -31.243   7.841   1.325  1.00 20.00     0.046 C 
BRANCH   4   5
HETATM    5  C4  UNL     1     -32.140   7.620   2.508  1.00 20.00    -0.075 C 
HETATM    6  C3  UNL     1     -31.795   8.048   3.731  1.00 20.00     0.053 C 
HETATM    7  C5  UNL     1     -32.716   7.874   4.880  1.00 20.00     0.150 C 
HETATM    8  C7  UNL     1     -34.086   7.280   4.632  1.00 20.00     0.092 C 
HETATM    9  O13 UNL     1     -32.377   8.266   5.996  1.00 20.00    -0.293 OA
HETATM   10  C8  UNL     1     -34.090   6.270   3.473  1.00 20.00    -0.037 C 
HETATM   11  C6  UNL     1     -33.439   6.907   2.225  1.00 20.00     0.043 C 
HETATM   12  C9  UNL     1     -35.543   5.884   3.142  1.00 20.00     0.015 C 
HETATM   13  C10 UNL     1     -33.336   4.986   3.881  1.00 20.00     0.015 C 
ENDBRANCH   4   5
ENDBRANCH   3   4
TORSDOF 2
