REMARK  1 active torsions:
REMARK  status: ('A' for Active; 'I' for Inactive)
REMARK    1  A    between atoms: C2_2  and  C8_8 
ROOT
HETATM    1  C1  UNL     1     -32.869   8.503   3.770  1.00 20.00     0.053 C 
HETATM    2  C2  UNL     1     -32.603   8.088   2.522  1.00 20.00    -0.072 C 
HETATM    3  C3  UNL     1     -33.143   7.524   4.849  1.00 20.00     0.150 C 
HETATM    4  C4  UNL     1     -32.605   6.633   2.124  1.00 20.00     0.043 C 
HETATM    5  C5  UNL     1     -33.033   6.047   4.537  1.00 20.00     0.092 C 
HETATM    6  C9  UNL     1     -33.405   5.721   3.081  1.00 20.00    -0.037 C 
HETATM    7  C10 UNL     1     -34.922   5.907   2.863  1.00 20.00     0.015 C 
HETATM    8  C11 UNL     1     -33.058   4.251   2.786  1.00 20.00     0.015 C 
HETATM    9  O12 UNL     1     -33.394   7.925   5.984  1.00 20.00    -0.293 OA
ENDROOT
BRANCH   2  10
HETATM   10  C8  UNL     1     -32.268   9.064   1.432  1.00 20.00     0.014 A 
HETATM   11  C6  UNL     1     -33.088   9.031   0.190  1.00 20.00     0.010 A 
HETATM   12  C7  UNL     1     -33.234  10.164   1.160  1.00 20.00     0.010 A 
ENDBRANCH   2  10
TORSDOF 1
