REMARK  1 active torsions:
REMARK  status: ('A' for Active; 'I' for Inactive)
REMARK    1  A    between atoms: C2_2  and  C10_10 
ROOT
HETATM    1  C1  UNL     1     -33.828   7.774   1.467  1.00 20.00    -0.004 C 
HETATM    2  C2  UNL     1     -33.390   7.059   2.522  1.00 20.00    -0.076 C 
HETATM    3  C3  UNL     1     -31.959   7.173   3.002  1.00 20.00     0.034 C 
HETATM    4  C4  UNL     1     -31.203   8.378   2.437  1.00 20.00     0.006 C 
HETATM    5  C5  UNL     1     -31.473   8.541   0.945  1.00 20.00     0.024 C 
HETATM    6  C9  UNL     1     -32.969   8.700   0.656  1.00 20.00     0.105 C 
HETATM    7 CL12 UNL     1     -33.493  10.381   0.991  1.00 20.00    -0.121 Cl
ENDROOT
BRANCH   2   8
HETATM    8  C10 UNL     1     -34.258   6.134   3.303  1.00 20.00     0.040 C 
HETATM    9  C6  UNL     1     -33.748   4.708   3.347  1.00 20.00     0.037 C 
HETATM   10  C7  UNL     1     -34.469   4.157   4.557  1.00 20.00     0.168 C 
HETATM   11  O11 UNL     1     -34.594   5.243   5.484  1.00 20.00    -0.390 OA
HETATM   12  C8  UNL     1     -34.344   6.472   4.785  1.00 20.00     0.176 C 
ENDBRANCH   2   8
TORSDOF 1
