REMARK  1 active torsions:
REMARK  status: ('A' for Active; 'I' for Inactive)
REMARK    1  A    between atoms: C2_2  and  C8_8 
ROOT
HETATM    1  C1  UNL     1     -33.567   7.610   4.065  1.00 20.00     0.018 C 
HETATM    2  C2  UNL     1     -33.662   7.056   2.639  1.00 20.00     0.034 C 
HETATM    3  C3  UNL     1     -34.439   6.594   4.807  1.00 20.00     0.122 C 
HETATM    4  C4  UNL     1     -33.768   5.536   2.838  1.00 20.00     0.123 C 
HETATM    5  C5  UNL     1     -32.142   7.725   4.607  1.00 20.00     0.013 C 
HETATM    6  C6  UNL     1     -34.262   6.510   6.312  1.00 20.00     0.040 C 
HETATM    7  C7  UNL     1     -32.524   4.710   2.546  1.00 20.00     0.040 C 
HETATM    8  O9  UNL     1     -34.135   5.322   4.215  1.00 20.00    -0.381 OA
ENDROOT
BRANCH   2   9
HETATM    9  C8  UNL     1     -32.618   7.542   1.646  1.00 20.00     0.122 C 
HETATM   10 CL10 UNL     1     -32.723   9.301   1.466  1.00 20.00    -0.130 Cl
ENDBRANCH   2   9
TORSDOF 1
