REMARK  1 active torsions:
REMARK  status: ('A' for Active; 'I' for Inactive)
REMARK    1  A    between atoms: C4_4  and  C8_8 
ROOT
HETATM    1  C1  UNL     1     -32.055   9.136   0.865  1.00 20.00     0.012 C 
HETATM    2  C2  UNL     1     -31.907   8.610   1.934  1.00 20.00    -0.113 C 
HETATM    3  C8  UNL     1     -31.719   7.972   3.240  1.00 20.00     0.126 C 
ENDROOT
BRANCH   3   4
HETATM    4  C4  UNL     1     -32.887   7.112   3.563  1.00 20.00    -0.071 C 
HETATM    5  C3  UNL     1     -33.693   7.212   4.628  1.00 20.00    -0.003 C 
HETATM    6  C7  UNL     1     -34.739   6.147   4.634  1.00 20.00     0.105 C 
HETATM    7  C6  UNL     1     -34.667   5.604   3.205  1.00 20.00     0.028 C 
HETATM    8 CL9  UNL     1     -34.320   4.902   5.831  1.00 20.00    -0.121 Cl
HETATM    9  C5  UNL     1     -33.270   5.959   2.689  1.00 20.00     0.036 C 
ENDBRANCH   3   4
TORSDOF 1
