REMARK  0 active torsions:
REMARK  status: ('A' for Active; 'I' for Inactive)
ROOT
HETATM    1  C1  UNL     1     -32.373   7.670   2.204  1.00 20.00     0.067 C 
HETATM    2  C2  UNL     1     -33.605   7.087   2.741  1.00 20.00     0.127 C 
HETATM    3  C3  UNL     1     -33.888   7.393   4.215  1.00 20.00     0.030 C 
HETATM    4  C4  UNL     1     -33.714   5.558   2.650  1.00 20.00     0.136 C 
HETATM    5  C5  UNL     1     -34.895   6.283   4.527  1.00 20.00     0.123 C 
HETATM    6  C6  UNL     1     -32.652   7.372   5.120  1.00 20.00     0.014 C 
HETATM    7  C7  UNL     1     -32.416   4.770   2.540  1.00 20.00     0.041 C 
HETATM    8  C8  UNL     1     -35.121   5.955   5.991  1.00 20.00     0.040 C 
HETATM    9  N9  UNL     1     -31.398   8.131   1.778  1.00 20.00    -0.197 NA
HETATM   10  O10 UNL     1     -34.397   5.122   3.844  1.00 20.00    -0.380 OA
ENDROOT
TORSDOF 0
