REMARK  2 active torsions:
REMARK  status: ('A' for Active; 'I' for Inactive)
REMARK    1  A    between atoms: C2_2  and  C8_8 
REMARK    2  A    between atoms: C4_4  and  C8_8 
ROOT
HETATM    1  C1  UNL     1     -33.793   6.392   2.525  1.00 20.00    -0.004 C 
HETATM    2  C2  UNL     1     -32.798   7.218   2.873  1.00 20.00    -0.079 C 
HETATM    3  C5  UNL     1     -32.679   7.339   4.361  1.00 20.00     0.036 C 
HETATM    4  C6  UNL     1     -34.002   6.744   4.848  1.00 20.00     0.028 C 
HETATM    5  C7  UNL     1     -34.495   5.835   3.719  1.00 20.00     0.105 C 
HETATM    6 CL9  UNL     1     -33.998   4.147   3.972  1.00 20.00    -0.121 Cl
ENDROOT
BRANCH   2   7
HETATM    7  C8  UNL     1     -31.865   7.929   1.963  1.00 20.00     0.060 C 
BRANCH   7   8
HETATM    8  C4  UNL     1     -32.388   9.273   1.547  1.00 20.00    -0.033 C 
HETATM    9  C3  UNL     1     -32.644   9.620   0.280  1.00 20.00     0.007 C 
ENDBRANCH   7   8
ENDBRANCH   2   7
TORSDOF 2
