REMARK  1 active torsions:
REMARK  status: ('A' for Active; 'I' for Inactive)
REMARK    1  A    between atoms: C2_2  and  C9_9 
ROOT
HETATM    1  C1  UNL     1     -34.315   5.916   2.684  1.00 20.00    -0.004 C 
HETATM    2  C2  UNL     1     -33.564   7.011   2.857  1.00 20.00    -0.076 C 
HETATM    3  C3  UNL     1     -33.481   7.398   4.300  1.00 20.00     0.036 C 
HETATM    4  C4  UNL     1     -34.607   6.574   4.929  1.00 20.00     0.028 C 
HETATM    5  C8  UNL     1     -34.850   5.400   3.978  1.00 20.00     0.105 C 
HETATM    6 CL11 UNL     1     -33.937   3.957   4.471  1.00 20.00    -0.121 Cl
ENDROOT
BRANCH   2   7
HETATM    7  C9  UNL     1     -32.843   7.781   1.805  1.00 20.00     0.040 C 
HETATM    8  C5  UNL     1     -33.756   8.396   0.763  1.00 20.00     0.037 C 
HETATM    9  C6  UNL     1     -32.877   9.481   0.181  1.00 20.00     0.168 C 
HETATM   10  O10 UNL     1     -32.060   9.961   1.256  1.00 20.00    -0.390 OA
HETATM   11  C7  UNL     1     -32.112   9.009   2.330  1.00 20.00     0.176 C 
ENDBRANCH   2   7
TORSDOF 1
