REMARK  1 active torsions:
REMARK  status: ('A' for Active; 'I' for Inactive)
REMARK    1  A    between atoms: C2_2  and  C10_10 
ROOT
HETATM    1  C1  UNL     1     -33.557   7.278   2.502  1.00 20.00    -0.003 C 
HETATM    2  C2  UNL     1     -33.551   6.811   3.763  1.00 20.00    -0.075 C 
HETATM    3  C3  UNL     1     -32.824   7.522   4.877  1.00 20.00     0.034 C 
HETATM    4  C4  UNL     1     -31.860   8.609   4.395  1.00 20.00     0.006 C 
HETATM    5  C5  UNL     1     -32.475   9.432   3.266  1.00 20.00     0.024 C 
HETATM    6  C6  UNL     1     -32.886   8.553   2.080  1.00 20.00     0.105 C 
HETATM    7 CL11 UNL     1     -31.455   8.130   1.089  1.00 20.00    -0.121 Cl
ENDROOT
BRANCH   2   8
HETATM    8  C10 UNL     1     -34.273   5.552   4.145  1.00 20.00    -0.028 C 
HETATM    9  C7  UNL     1     -34.081   5.294   5.647  1.00 20.00     0.019 C 
HETATM   10  C8  UNL     1     -33.710   4.367   3.345  1.00 20.00     0.019 C 
HETATM   11  C9  UNL     1     -35.772   5.700   3.838  1.00 20.00     0.019 C 
ENDBRANCH   2   8
TORSDOF 1
