REMARK  1 active torsions:
REMARK  status: ('A' for Active; 'I' for Inactive)
REMARK    1  A    between atoms: C2_2  and  C8_8 
ROOT
HETATM    1  C1  UNL     1     -33.393   6.826   4.872  1.00 20.00    -0.004 C 
HETATM    2  C2  UNL     1     -33.299   6.801   3.537  1.00 20.00    -0.079 C 
HETATM    3  C3  UNL     1     -34.445   6.062   2.919  1.00 20.00     0.036 C 
HETATM    4  C4  UNL     1     -35.440   5.965   4.078  1.00 20.00     0.028 C 
HETATM    5  C5  UNL     1     -34.612   6.112   5.357  1.00 20.00     0.105 C 
HETATM    6 CL9  UNL     1     -34.152   4.531   6.026  1.00 20.00    -0.121 Cl
ENDROOT
BRANCH   2   7
HETATM    7  C8  UNL     1     -32.212   7.376   2.705  1.00 20.00     0.006 C 
HETATM    8  C6  UNL     1     -32.769   8.407   1.721  1.00 20.00     0.014 C 
HETATM    9  C7  UNL     1     -31.120   8.006   3.575  1.00 20.00     0.014 C 
ENDBRANCH   2   7
TORSDOF 1
