REMARK  3 active torsions:
REMARK  status: ('A' for Active; 'I' for Inactive)
REMARK    1  A    between atoms: C4_4  and  C10_10 
REMARK    2  A    between atoms: C8_8  and  O11_11 
REMARK    3  A    between atoms: C9_9  and  C10_10 
ROOT
HETATM    1  C1  UNL     1     -32.047   9.962   0.667  1.00 20.00     0.012 C 
HETATM    2  C2  UNL     1     -32.244   9.113   1.493  1.00 20.00    -0.117 C 
HETATM    3  C9  UNL     1     -32.482   8.073   2.506  1.00 20.00     0.097 C 
ENDROOT
BRANCH   3   4
HETATM    4  C10 UNL     1     -33.944   8.010   2.927  1.00 20.00     0.046 C 
BRANCH   4   5
HETATM    5  C4  UNL     1     -34.149   6.956   3.975  1.00 20.00    -0.080 C 
HETATM    6  C3  UNL     1     -34.506   5.699   3.658  1.00 20.00     0.007 C 
HETATM    7  C8  UNL     1     -34.689   4.608   4.673  1.00 20.00     0.141 C 
HETATM    8  C7  UNL     1     -34.105   4.960   6.043  1.00 20.00     0.036 C 
HETATM    9  C6  UNL     1     -34.457   6.389   6.436  1.00 20.00     0.007 C 
HETATM   10  C5  UNL     1     -33.929   7.389   5.404  1.00 20.00     0.034 C 
BRANCH   7  11
HETATM   11  O11 UNL     1     -34.057   3.426   4.190  1.00 20.00    -0.392 OA
HETATM   12  H25 UNL     1     -34.193   2.744   4.866  1.00 20.00     0.210 HD
ENDBRANCH   7  11
ENDBRANCH   4   5
ENDBRANCH   3   4
TORSDOF 3
