REMARK  4 active torsions:
REMARK  status: ('A' for Active; 'I' for Inactive)
REMARK    1  A    between atoms: C2_2  and  C7_7 
REMARK    2  A    between atoms: C7_7  and  C8_8 
REMARK    3  A    between atoms: C8_8  and  C9_9 
REMARK    4  A    between atoms: C9_9  and  O10_10 
ROOT
HETATM    1  C1  UNL     1     -33.201   6.361   3.101  1.00 20.00    -0.004 C 
HETATM    2  C2  UNL     1     -32.538   7.290   3.801  1.00 20.00    -0.082 C 
HETATM    3  C3  UNL     1     -33.164   7.518   5.142  1.00 20.00     0.036 C 
HETATM    4  C4  UNL     1     -34.529   6.844   4.989  1.00 20.00     0.028 C 
HETATM    5  C5  UNL     1     -34.371   5.824   3.858  1.00 20.00     0.105 C 
HETATM    6 CL11 UNL     1     -33.986   4.205   4.484  1.00 20.00    -0.121 Cl
ENDROOT
BRANCH   2   7
HETATM    7  C7  UNL     1     -31.313   8.018   3.387  1.00 20.00     0.036 C 
BRANCH   7   8
HETATM    8  C8  UNL     1     -31.288   8.243   1.878  1.00 20.00     0.030 C 
BRANCH   8   9
HETATM    9  C9  UNL     1     -32.508   9.006   1.376  1.00 20.00     0.167 C 
BRANCH   9  10
HETATM   10  O10 UNL     1     -32.391   9.182  -0.030  1.00 20.00    -0.396 OA
HETATM   11  C6  UNL     1     -33.515   9.868  -0.565  1.00 20.00     0.201 C 
ENDBRANCH   9  10
ENDBRANCH   8   9
ENDBRANCH   7   8
ENDBRANCH   2   7
TORSDOF 4
