REMARK  1 active torsions:
REMARK  status: ('A' for Active; 'I' for Inactive)
REMARK    1  A    between atoms: C4_4  and  C6_6 
ROOT
HETATM    1  C5  UNL     1     -34.349   7.579   3.702  1.00 20.00     0.001 C 
HETATM    2  C6  UNL     1     -33.366   7.414   2.801  1.00 20.00    -0.048 C 
HETATM    3  C7  UNL     1     -32.811   6.019   2.882  1.00 20.00     0.041 C 
HETATM    4  C8  UNL     1     -33.883   5.272   3.677  1.00 20.00     0.028 C 
HETATM    5  C9  UNL     1     -34.604   6.340   4.497  1.00 20.00     0.106 C 
HETATM    6 CL11 UNL     1     -33.899   6.514   6.119  1.00 20.00    -0.121 Cl
ENDROOT
BRANCH   2   7
HETATM    7  C4  UNL     1     -32.835   8.427   1.872  1.00 20.00    -0.006 A 
HETATM    8  C1  UNL     1     -31.804   8.283   0.914  1.00 20.00     0.038 A 
HETATM    9  C2  UNL     1     -31.679   9.508   0.301  1.00 20.00     0.142 A 
HETATM   10  O10 UNL     1     -32.568  10.395   0.820  1.00 20.00    -0.334 OA
HETATM   11  C3  UNL     1     -33.268   9.729   1.776  1.00 20.00     0.153 A 
ENDBRANCH   2   7
TORSDOF 1
