REMARK  1 active torsions:
REMARK  status: ('A' for Active; 'I' for Inactive)
REMARK    1  A    between atoms: C2_2  and  C9_9 
ROOT
HETATM    1  C1  UNL     1     -33.454   6.726   2.099  1.00 20.00    -0.004 C 
HETATM    2  C2  UNL     1     -32.723   7.812   2.414  1.00 20.00    -0.078 C 
HETATM    3  C3  UNL     1     -32.614   8.291   3.847  1.00 20.00     0.034 C 
HETATM    4  C4  UNL     1     -33.086   7.271   4.886  1.00 20.00     0.006 C 
HETATM    5  C5  UNL     1     -34.390   6.610   4.448  1.00 20.00     0.024 C 
HETATM    6  C8  UNL     1     -34.244   5.919   3.089  1.00 20.00     0.105 C 
HETATM    7 CL10 UNL     1     -33.439   4.330   3.281  1.00 20.00    -0.121 Cl
ENDROOT
BRANCH   2   8
HETATM    8  C9  UNL     1     -31.962   8.603   1.416  1.00 20.00     0.014 A 
HETATM    9  C6  UNL     1     -32.701   9.144   0.240  1.00 20.00     0.010 A 
HETATM   10  C7  UNL     1     -32.234  10.066   1.326  1.00 20.00     0.010 A 
ENDBRANCH   2   8
TORSDOF 1
