REMARK  1 active torsions:
REMARK  status: ('A' for Active; 'I' for Inactive)
REMARK    1  A    between atoms: C2_2  and  C11_11 
ROOT
HETATM    1  C1  UNL     1     -33.173   6.715   2.418  1.00 20.00     0.053 C 
HETATM    2  C2  UNL     1     -32.800   7.737   3.202  1.00 20.00    -0.072 C 
HETATM    3  C3  UNL     1     -33.779   5.493   3.005  1.00 20.00     0.149 C 
HETATM    4  C4  UNL     1     -33.024   7.750   4.693  1.00 20.00     0.035 C 
HETATM    5  C5  UNL     1     -33.878   5.390   4.509  1.00 20.00     0.083 C 
HETATM    6  C6  UNL     1     -34.097   6.758   5.133  1.00 20.00     0.012 C 
HETATM    7  O12 UNL     1     -34.127   4.571   2.270  1.00 20.00    -0.293 OA
ENDROOT
BRANCH   2   8
HETATM    8  C11 UNL     1     -32.115   8.963   2.626  1.00 20.00     0.014 C 
HETATM    9  C9  UNL     1     -33.175   9.975   2.194  1.00 20.00     0.009 C 
HETATM   10  C7  UNL     1     -32.941  10.210   0.705  1.00 20.00     0.001 C 
HETATM   11  C8  UNL     1     -32.303   8.921   0.221  1.00 20.00     0.001 C 
HETATM   12  C10 UNL     1     -31.366   8.552   1.362  1.00 20.00     0.009 C 
ENDBRANCH   2   8
TORSDOF 1
