REMARK  2 active torsions:
REMARK  status: ('A' for Active; 'I' for Inactive)
REMARK    1  A    between atoms: C5_5  and  C6_6 
REMARK    2  A    between atoms: C5_5  and  C7_7 
ROOT
HETATM    1  C1  UNL     1     -33.833   6.863   4.914  1.00 20.00     0.068 C 
HETATM    2  C3  UNL     1     -32.996   5.381   3.165  1.00 20.00     0.031 C 
HETATM    3  C4  UNL     1     -35.410   6.022   3.221  1.00 20.00     0.031 C 
HETATM    4  C7  UNL     1     -33.982   6.526   3.480  1.00 20.00     0.043 C 
HETATM    5  N8  UNL     1     -33.711   7.113   6.041  1.00 20.00    -0.196 NA
ENDROOT
BRANCH   4   6
HETATM    6  C5  UNL     1     -33.618   7.740   2.576  1.00 20.00     0.043 C 
BRANCH   6   7
HETATM    7  C6  UNL     1     -32.128   8.024   2.297  1.00 20.00     0.080 C 
HETATM    8  C2  UNL     1     -31.384   8.312   3.599  1.00 20.00     0.026 C 
HETATM    9 CL9  UNL     1     -31.895   9.413   1.199  1.00 20.00    -0.125 Cl
ENDBRANCH   6   7
ENDBRANCH   4   6
TORSDOF 2
