REMARK  0 active torsions:
REMARK  status: ('A' for Active; 'I' for Inactive)
ROOT
HETATM    1  C1  UNL     1     -32.923   7.825   2.465  1.00 20.00     0.064 C 
HETATM    2  C2  UNL     1     -33.083   7.182   4.865  1.00 20.00     0.020 C 
HETATM    3  C3  UNL     1     -34.470   6.958   5.464  1.00 20.00     0.017 C 
HETATM    4  C4  UNL     1     -34.579   6.136   3.223  1.00 20.00     0.035 C 
HETATM    5  C5  UNL     1     -33.170   6.721   3.402  1.00 20.00     0.094 C 
HETATM    6  C6  UNL     1     -35.080   5.847   4.629  1.00 20.00     0.059 C 
HETATM    7  N7  UNL     1     -32.728   8.696   1.724  1.00 20.00    -0.197 NA
HETATM    8 BR8  UNL     1     -34.459   4.101   5.238  1.00 20.00    -0.091 Br
ENDROOT
TORSDOF 0
