REMARK  0 active torsions:
REMARK  status: ('A' for Active; 'I' for Inactive)
ROOT
HETATM    1  C1  UNL     1     -33.294   8.134   2.638  1.00 20.00     0.095 C 
HETATM    2  C2  UNL     1     -34.595   6.252   3.456  1.00 20.00     0.011 C 
HETATM    3  C3  UNL     1     -33.679   7.211   3.638  1.00 20.00     0.020 C 
HETATM    4  C4  UNL     1     -33.105   7.174   5.019  1.00 20.00     0.051 C 
HETATM    5  C5  UNL     1     -34.102   6.282   5.762  1.00 20.00     0.029 C 
HETATM    6  C6  UNL     1     -34.781   5.427   4.688  1.00 20.00     0.106 C 
HETATM    7  N7  UNL     1     -32.978   8.891   1.818  1.00 20.00    -0.192 NA
HETATM    8 CL8  UNL     1     -33.971   3.858   4.487  1.00 20.00    -0.121 Cl
ENDROOT
TORSDOF 0
