REMARK  3 active torsions:
REMARK  status: ('A' for Active; 'I' for Inactive)
REMARK    1  A    between atoms: C4_4  and  C5_5 
REMARK    2  A    between atoms: C5_5  and  C7_7 
REMARK    3  A    between atoms: C6_6  and  C7_7 
ROOT
HETATM    1  C1  UNL     1     -32.657   9.257   1.651  1.00 20.00     0.059 C 
HETATM    2  C4  UNL     1     -32.404   7.903   2.165  1.00 20.00     0.125 C 
HETATM    3  N8  UNL     1     -32.855  10.325   1.245  1.00 20.00    -0.197 NA
ENDROOT
BRANCH   2   4
HETATM    4  C5  UNL     1     -33.476   7.494   3.181  1.00 20.00     0.034 C 
BRANCH   4   5
HETATM    5  C7  UNL     1     -33.249   6.090   3.771  1.00 20.00     0.086 C 
HETATM    6 CL9  UNL     1     -33.123   4.877   2.454  1.00 20.00    -0.125 Cl
BRANCH   5   7
HETATM    7  C6  UNL     1     -34.336   5.696   4.804  1.00 20.00    -0.004 C 
HETATM    8  C2  UNL     1     -34.090   4.299   5.385  1.00 20.00     0.011 C 
HETATM    9  C3  UNL     1     -34.516   6.706   5.942  1.00 20.00     0.011 C 
ENDBRANCH   5   7
ENDBRANCH   4   5
ENDBRANCH   2   4
TORSDOF 3
