REMARK  0 active torsions:
REMARK  status: ('A' for Active; 'I' for Inactive)
ROOT
HETATM    1  C1  UNL     1     -32.668   8.197   3.334  1.00 20.00     0.064 C 
HETATM    2  C2  UNL     1     -34.063   7.557   5.296  1.00 20.00     0.021 C 
HETATM    3  C3  UNL     1     -33.881   6.133   5.813  1.00 20.00     0.021 C 
HETATM    4  C4  UNL     1     -33.774   5.977   3.442  1.00 20.00     0.039 C 
HETATM    5  C5  UNL     1     -33.870   7.474   3.772  1.00 20.00     0.094 C 
HETATM    6  C6  UNL     1     -34.382   5.286   4.655  1.00 20.00     0.083 C 
HETATM    7  N7  UNL     1     -31.719   8.768   2.988  1.00 20.00    -0.197 NA
HETATM    8 CL8  UNL     1     -33.881   3.595   4.792  1.00 20.00    -0.125 Cl
ENDROOT
TORSDOF 0
