REMARK  0 active torsions:
REMARK  status: ('A' for Active; 'I' for Inactive)
ROOT
HETATM    1  C1  UNL     1     -32.619   8.054   1.985  1.00 20.00     0.064 C 
HETATM    2  C2  UNL     1     -33.135   7.206   4.272  1.00 20.00     0.021 C 
HETATM    3  C3  UNL     1     -34.548   6.713   4.585  1.00 20.00     0.021 C 
HETATM    4  C4  UNL     1     -34.144   6.122   2.320  1.00 20.00     0.039 C 
HETATM    5  C5  UNL     1     -32.883   6.858   2.796  1.00 20.00     0.094 C 
HETATM    6  C6  UNL     1     -34.795   5.587   3.591  1.00 20.00     0.083 C 
HETATM    7  N7  UNL     1     -32.411   8.999   1.345  1.00 20.00    -0.197 NA
HETATM    8 CL8  UNL     1     -34.004   4.077   4.126  1.00 20.00    -0.125 Cl
ENDROOT
TORSDOF 0
