REMARK  1 active torsions:
REMARK  status: ('A' for Active; 'I' for Inactive)
REMARK    1  A    between atoms: C4_4  and  C7_7 
ROOT
HETATM    1  C1  UNL     1     -33.431   6.453   4.544  1.00 20.00     0.034 A 
HETATM    2  C2  UNL     1     -32.952   7.545   3.764  1.00 20.00     0.026 A 
HETATM    3  C3  UNL     1     -34.041   5.491   3.770  1.00 20.00    -0.019 A 
HETATM    4  C4  UNL     1     -33.215   7.376   2.422  1.00 20.00     0.018 A 
HETATM    5  C5  UNL     1     -34.660   4.219   4.200  1.00 20.00     0.056 C 
HETATM    6  S8  UNL     1     -34.035   5.905   2.108  1.00 20.00    -0.097 SA
HETATM    7 BR10 UNL     1     -32.071   9.017   4.543  1.00 20.00    -0.050 Br
ENDROOT
BRANCH   4   8
HETATM    8  C7  UNL     1     -32.888   8.267   1.286  1.00 20.00     0.119 C 
HETATM    9  C6  UNL     1     -31.389   8.562   1.108  1.00 20.00     0.032 C 
HETATM   10 CL9  UNL     1     -33.771   9.828   1.435  1.00 20.00    -0.120 Cl
ENDBRANCH   4   8
TORSDOF 1
