REMARK  1 active torsions:
REMARK  status: ('A' for Active; 'I' for Inactive)
REMARK    1  A    between atoms: C6_6  and  O11_11 
ROOT
HETATM    1  C1  UNL     1     -32.518   8.237   1.446  1.00 20.00     0.095 C 
HETATM    2  C2  UNL     1     -33.324   8.299   3.693  1.00 20.00     0.022 C 
HETATM    3  C3  UNL     1     -33.014   7.572   2.605  1.00 20.00     0.021 C 
HETATM    4  C4  UNL     1     -33.184   6.071   2.569  1.00 20.00     0.058 C 
HETATM    5  C5  UNL     1     -33.740   6.177   5.019  1.00 20.00     0.045 C 
HETATM    6  C6  UNL     1     -33.853   7.705   4.966  1.00 20.00     0.143 C 
HETATM    7  C7  UNL     1     -34.103   5.502   3.681  1.00 20.00    -0.041 C 
HETATM    8  C8  UNL     1     -35.586   5.739   3.331  1.00 20.00     0.015 C 
HETATM    9  C9  UNL     1     -33.876   3.984   3.798  1.00 20.00     0.015 C 
HETATM   10  N10 UNL     1     -32.115   8.778   0.502  1.00 20.00    -0.192 NA
ENDROOT
BRANCH   6  11
HETATM   11  O11 UNL     1     -33.130   8.262   6.061  1.00 20.00    -0.392 OA
HETATM   12  H24 UNL     1     -33.494   7.860   6.865  1.00 20.00     0.210 HD
ENDBRANCH   6  11
TORSDOF 1
