REMARK  3 active torsions:
REMARK  status: ('A' for Active; 'I' for Inactive)
REMARK    1  A    between atoms: C1_1  and  C7_7 
REMARK    2  A    between atoms: C1_1  and  C8_8 
REMARK    3  A    between atoms: C9_9  and  C11_11 
ROOT
HETATM    1  C4  UNL     1     -32.245   7.707   4.048  1.00 20.00     0.013 C 
HETATM    2  C5  UNL     1     -31.718   8.510   2.863  1.00 20.00     0.005 C 
HETATM    3  C6  UNL     1     -33.961   7.929   2.315  1.00 20.00     0.016 C 
HETATM    4  C8  UNL     1     -33.708   7.402   3.725  1.00 20.00     0.056 C 
HETATM    5  C9  UNL     1     -32.569   8.037   1.691  1.00 20.00    -0.014 C 
ENDROOT
BRANCH   4   6
HETATM    6  C1  UNL     1     -33.919   5.899   3.729  1.00 20.00     0.135 C 
HETATM    7  O12 UNL     1     -33.265   5.155   3.000  1.00 20.00    -0.297 OA
BRANCH   6   8
HETATM    8  C7  UNL     1     -34.964   5.365   4.670  1.00 20.00     0.056 A 
HETATM    9  C2  UNL     1     -34.559   4.318   5.646  1.00 20.00     0.013 A 
HETATM   10  C3  UNL     1     -34.851   5.713   6.111  1.00 20.00     0.013 A 
ENDBRANCH   6   8
ENDBRANCH   4   6
BRANCH   5  11
HETATM   11  C11 UNL     1     -32.521   8.975   0.498  1.00 20.00     0.000 C 
HETATM   12  C10 UNL     1     -32.967  10.358   0.854  1.00 20.00     0.005 C 
ENDBRANCH   5  11
TORSDOF 3
