REMARK  2 active torsions:
REMARK  status: ('A' for Active; 'I' for Inactive)
REMARK    1  A    between atoms: C5_5  and  C9_9 
REMARK    2  A    between atoms: C6_6  and  C10_10 
ROOT
HETATM    1  C1  UNL     1     -33.953   6.464   4.771  1.00 20.00     0.069 C 
HETATM    2  C2  UNL     1     -31.716   8.032   2.246  1.00 20.00     0.006 C 
HETATM    3  C3  UNL     1     -31.969   7.067   3.407  1.00 20.00     0.025 C 
HETATM    4  C4  UNL     1     -34.039   8.167   2.972  1.00 20.00     0.029 C 
HETATM    5  C5  UNL     1     -33.078   8.634   1.875  1.00 20.00    -0.013 C 
HETATM    6  C6  UNL     1     -33.482   6.808   3.418  1.00 20.00     0.049 C 
HETATM    7  N11 UNL     1     -34.324   6.193   5.836  1.00 20.00    -0.196 NA
ENDROOT
BRANCH   6   8
HETATM    8  C10 UNL     1     -33.865   5.684   2.445  1.00 20.00     0.020 C 
HETATM    9  C8  UNL     1     -33.252   4.382   2.842  1.00 20.00     0.007 C 
ENDBRANCH   6   8
BRANCH   5  10
HETATM   10  C9  UNL     1     -33.041  10.148   1.732  1.00 20.00     0.000 C 
HETATM   11  C7  UNL     1     -32.092  10.586   0.660  1.00 20.00     0.005 C 
ENDBRANCH   5  10
TORSDOF 2
