REMARK  3 active torsions:
REMARK  status: ('A' for Active; 'I' for Inactive)
REMARK    1  A    between atoms: C6_6  and  C11_11 
REMARK    2  A    between atoms: C7_7  and  C12_12 
REMARK    3  A    between atoms: C12_12  and  C13_13 
ROOT
HETATM    1  C1  UNL     1     -32.290   6.651   2.842  1.00 20.00     0.069 C 
HETATM    2  C2  UNL     1     -32.407   7.821   5.739  1.00 20.00     0.002 C 
HETATM    3  C3  UNL     1     -33.746   7.286   6.236  1.00 20.00     0.005 C 
HETATM    4  C4  UNL     1     -32.558   8.553   4.406  1.00 20.00     0.024 C 
HETATM    5  C5  UNL     1     -34.536   7.062   3.834  1.00 20.00     0.029 C 
HETATM    6  C6  UNL     1     -34.447   6.383   5.215  1.00 20.00    -0.013 C 
HETATM    7  C7  UNL     1     -33.226   7.697   3.310  1.00 20.00     0.050 C 
HETATM    8  N14 UNL     1     -31.556   5.831   2.476  1.00 20.00    -0.196 NA
ENDROOT
BRANCH   7   9
HETATM    9  C12 UNL     1     -33.553   8.595   2.102  1.00 20.00     0.028 C 
BRANCH   9  10
HETATM   10  C13 UNL     1     -32.496   9.677   1.858  1.00 20.00    -0.021 C 
HETATM   11  C9  UNL     1     -31.109   9.095   1.586  1.00 20.00     0.009 C 
HETATM   12  C10 UNL     1     -32.932  10.550   0.679  1.00 20.00     0.009 C 
ENDBRANCH   9  10
ENDBRANCH   7   9
BRANCH   6  13
HETATM   13  C11 UNL     1     -33.812   4.992   5.159  1.00 20.00     0.000 C 
HETATM   14  C8  UNL     1     -34.555   4.084   4.235  1.00 20.00     0.005 C 
ENDBRANCH   6  13
TORSDOF 3
