REMARK  3 active torsions:
REMARK  status: ('A' for Active; 'I' for Inactive)
REMARK    1  A    between atoms: C6_6  and  C9_9 
REMARK    2  A    between atoms: C9_9  and  C11_11 
REMARK    3  A    between atoms: C10_10  and  C11_11 
ROOT
HETATM    1  C1  UNL     1     -31.206   7.604   3.595  1.00 20.00     0.069 C 
HETATM    2  C2  UNL     1     -34.454   7.090   5.332  1.00 20.00     0.006 C 
HETATM    3  C3  UNL     1     -33.064   7.723   5.235  1.00 20.00     0.025 C 
HETATM    4  C4  UNL     1     -33.309   6.322   3.323  1.00 20.00     0.029 C 
HETATM    5  C5  UNL     1     -34.666   6.300   4.034  1.00 20.00    -0.017 C 
HETATM    6  C6  UNL     1     -32.670   7.649   3.753  1.00 20.00     0.049 C 
HETATM    7  C7  UNL     1     -35.182   4.889   4.271  1.00 20.00     0.010 C 
HETATM    8  N12 UNL     1     -30.053   7.569   3.469  1.00 20.00    -0.196 NA
ENDROOT
BRANCH   6   9
HETATM    9  C9  UNL     1     -33.232   8.839   2.964  1.00 20.00     0.024 C 
BRANCH   9  10
HETATM   10  C11 UNL     1     -32.872   8.738   1.485  1.00 20.00     0.001 C 
BRANCH  10  11
HETATM   11  C10 UNL     1     -33.406   9.941   0.707  1.00 20.00    -0.004 C 
HETATM   12  C8  UNL     1     -33.025   9.868  -0.763  1.00 20.00     0.005 C 
ENDBRANCH  10  11
ENDBRANCH   9  10
ENDBRANCH   6   9
TORSDOF 3
