REMARK  3 active torsions:
REMARK  status: ('A' for Active; 'I' for Inactive)
REMARK    1  A    between atoms: C5_5  and  C9_9 
REMARK    2  A    between atoms: C6_6  and  C10_10 
REMARK    3  A    between atoms: C10_10  and  C11_11 
ROOT
HETATM    1  C1  UNL     1     -33.007   5.697   2.901  1.00 20.00     0.069 C 
HETATM    2  C2  UNL     1     -31.588   8.405   3.602  1.00 20.00     0.006 C 
HETATM    3  C3  UNL     1     -32.562   7.581   4.451  1.00 20.00     0.025 C 
HETATM    4  C4  UNL     1     -33.666   8.035   2.385  1.00 20.00     0.029 C 
HETATM    5  C5  UNL     1     -32.229   8.543   2.214  1.00 20.00    -0.013 C 
HETATM    6  C6  UNL     1     -33.555   6.951   3.464  1.00 20.00     0.049 C 
HETATM    7  N12 UNL     1     -32.578   4.714   2.459  1.00 20.00    -0.196 NA
ENDROOT
BRANCH   6   8
HETATM    8  C10 UNL     1     -34.904   6.659   4.119  1.00 20.00     0.024 C 
BRANCH   8   9
HETATM    9  C11 UNL     1     -34.725   6.017   5.490  1.00 20.00    -0.003 C 
HETATM   10  C8  UNL     1     -33.990   4.690   5.384  1.00 20.00     0.005 C 
ENDBRANCH   8   9
ENDBRANCH   6   8
BRANCH   5  11
HETATM   11  C9  UNL     1     -32.166   9.960   1.666  1.00 20.00     0.000 C 
HETATM   12  C7  UNL     1     -32.804  10.065   0.316  1.00 20.00     0.005 C 
ENDBRANCH   5  11
TORSDOF 3
