REMARK  3 active torsions:
REMARK  status: ('A' for Active; 'I' for Inactive)
REMARK    1  A    between atoms: C3_3  and  C7_7 
REMARK    2  A    between atoms: C3_3  and  C10_10 
REMARK    3  A    between atoms: C8_8  and  C11_11 
ROOT
HETATM    1  C1  UNL     1     -32.964  10.042  -0.065  1.00 20.00     0.012 C 
HETATM    2  C2  UNL     1     -32.446   9.124   0.510  1.00 20.00    -0.110 C 
HETATM    3  C10 UNL     1     -31.808   8.001   1.207  1.00 20.00     0.171 C 
ENDROOT
BRANCH   3   4
HETATM    4  C3  UNL     1     -32.545   7.609   2.472  1.00 20.00     0.142 C 
HETATM    5  O12 UNL     1     -32.313   8.115   3.569  1.00 20.00    -0.297 OA
BRANCH   4   6
HETATM    6  C7  UNL     1     -33.606   6.537   2.319  1.00 20.00     0.057 C 
HETATM    7  C4  UNL     1     -32.983   5.164   2.549  1.00 20.00     0.013 C 
HETATM    8  C5  UNL     1     -33.962   4.433   3.459  1.00 20.00     0.005 C 
HETATM    9  C8  UNL     1     -34.544   5.530   4.347  1.00 20.00    -0.014 C 
HETATM   10  C6  UNL     1     -34.687   6.716   3.387  1.00 20.00     0.016 C 
BRANCH   9  11
HETATM   11  C11 UNL     1     -33.644   5.851   5.538  1.00 20.00     0.000 C 
HETATM   12  C9  UNL     1     -34.196   6.963   6.373  1.00 20.00     0.005 C 
ENDBRANCH   9  11
ENDBRANCH   4   6
ENDBRANCH   3   4
TORSDOF 3
