REMARK  2 active torsions:
REMARK  status: ('A' for Active; 'I' for Inactive)
REMARK    1  A    between atoms: C3_3  and  C8_8 
REMARK    2  A    between atoms: C3_3  and  C9_9 
ROOT
HETATM    1  C1  UNL     1     -32.908   9.758   1.239  1.00 20.00     0.012 C 
HETATM    2  C2  UNL     1     -32.474   8.907   1.966  1.00 20.00    -0.110 C 
HETATM    3  C9  UNL     1     -31.936   7.866   2.850  1.00 20.00     0.171 C 
ENDROOT
BRANCH   3   4
HETATM    4  C3  UNL     1     -32.958   7.372   3.854  1.00 20.00     0.142 C 
HETATM    5  O10 UNL     1     -32.810   7.477   5.071  1.00 20.00    -0.297 OA
BRANCH   4   6
HETATM    6  C8  UNL     1     -34.206   6.726   3.274  1.00 20.00     0.060 C 
HETATM    7  C4  UNL     1     -33.804   5.532   2.417  1.00 20.00     0.038 C 
HETATM    8  C6  UNL     1     -33.446   4.306   3.250  1.00 20.00     0.168 C 
HETATM    9  O11 UNL     1     -34.486   4.000   4.176  1.00 20.00    -0.391 OA
HETATM   10  C7  UNL     1     -34.688   5.052   5.117  1.00 20.00     0.168 C 
HETATM   11  C5  UNL     1     -35.136   6.330   4.415  1.00 20.00     0.038 C 
ENDBRANCH   4   6
ENDBRANCH   3   4
TORSDOF 2
