REMARK  2 active torsions:
REMARK  status: ('A' for Active; 'I' for Inactive)
REMARK    1  A    between atoms: C9_9  and  C10_10 
REMARK    2  A    between atoms: C9_9  and  N11_11 
ROOT
HETATM    1  C1  UNL     1     -34.125   7.485   6.689  1.00 20.00     0.002 C 
HETATM    2  C2  UNL     1     -33.654   3.992   3.401  1.00 20.00     0.028 C 
HETATM    3  C3  UNL     1     -34.837   6.147   6.424  1.00 20.00     0.007 C 
HETATM    4  C4  UNL     1     -34.636   4.415   4.499  1.00 20.00     0.008 C 
HETATM    5  C5  UNL     1     -33.110   7.672   5.547  1.00 20.00     0.034 C 
HETATM    6  C6  UNL     1     -33.123   5.173   2.586  1.00 20.00     0.235 C 
HETATM    7  C7  UNL     1     -33.985   5.489   5.349  1.00 20.00     0.016 C 
HETATM    8  C8  UNL     1     -33.586   6.685   4.495  1.00 20.00     0.192 C 
HETATM    9  N11 UNL     1     -32.556   6.251   3.500  1.00 20.00    -0.065 N 
HETATM   10  H31 UNL     1     -31.770   5.831   4.015  1.00 20.00     0.280 HD
ENDROOT
BRANCH   9  11
HETATM   11  C9  UNL     1     -31.990   7.392   2.699  1.00 20.00     0.250 C 
BRANCH  11  12
HETATM   12  C10 UNL     1     -33.072   8.007   1.832  1.00 20.00     0.142 C 
HETATM   13 CL12 UNL     1     -32.451   9.384   0.889  1.00 20.00    -0.129 Cl
ENDBRANCH  11  12
ENDBRANCH   9  11
TORSDOF 2
