REMARK  2 active torsions:
REMARK  status: ('A' for Active; 'I' for Inactive)
REMARK    1  A    between atoms: C5_5  and  C8_8 
REMARK    2  A    between atoms: C8_8  and  C9_9 
ROOT
HETATM    1  C1  UNL     1     -33.472   4.964   2.954  1.00 20.00     0.068 C 
HETATM    2  C6  UNL     1     -34.205   4.801   5.299  1.00 20.00     0.031 C 
HETATM    3  C7  UNL     1     -35.576   6.032   3.614  1.00 20.00     0.031 C 
HETATM    4  C9  UNL     1     -34.136   5.702   4.055  1.00 20.00     0.046 C 
HETATM    5  N10 UNL     1     -32.957   4.384   2.092  1.00 20.00    -0.196 NA
ENDROOT
BRANCH   4   6
HETATM    6  C8  UNL     1     -33.401   7.040   4.347  1.00 20.00     0.062 C 
BRANCH   6   7
HETATM    7  C5  UNL     1     -32.848   7.780   3.149  1.00 20.00    -0.050 A 
HETATM    8  C2  UNL     1     -33.466   7.789   1.865  1.00 20.00     0.014 A 
HETATM    9  C3  UNL     1     -32.756   8.539   0.954  1.00 20.00     0.050 A 
HETATM   10  S11 UNL     1     -31.350   9.229   1.647  1.00 20.00    -0.113 SA
HETATM   11  C4  UNL     1     -31.689   8.525   3.171  1.00 20.00     0.056 A 
ENDBRANCH   6   7
ENDBRANCH   4   6
TORSDOF 2
