REMARK  5 active torsions:
REMARK  status: ('A' for Active; 'I' for Inactive)
REMARK    1  A    between atoms: C1_1  and  C6_6 
REMARK    2  A    between atoms: C1_1  and  C10_10 
REMARK    3  A    between atoms: C7_7  and  C11_11 
REMARK    4  A    between atoms: C10_10  and  C13_13 
REMARK    5  A    between atoms: C12_12  and  C13_13 
ROOT
HETATM    1  C2  UNL     1     -34.597   7.273   6.324  1.00 20.00     0.001 C 
HETATM    2  C3  UNL     1     -33.438   7.910   5.562  1.00 20.00     0.012 C 
HETATM    3  C4  UNL     1     -34.632   5.758   6.134  1.00 20.00     0.005 C 
HETATM    4  C5  UNL     1     -33.495   6.016   3.891  1.00 20.00     0.016 C 
HETATM    5  C6  UNL     1     -33.475   7.529   4.087  1.00 20.00     0.056 C 
HETATM    6  C7  UNL     1     -34.665   5.373   4.648  1.00 20.00    -0.014 C 
ENDROOT
BRANCH   5   7
HETATM    7  C1  UNL     1     -32.208   8.061   3.445  1.00 20.00     0.131 C 
HETATM    8  O14 UNL     1     -31.147   8.173   4.069  1.00 20.00    -0.298 OA
BRANCH   7   9
HETATM    9  C10 UNL     1     -32.307   8.451   1.977  1.00 20.00     0.079 C 
BRANCH   9  10
HETATM   10  C13 UNL     1     -32.671   9.920   1.777  1.00 20.00     0.007 C 
BRANCH  10  11
HETATM   11  C12 UNL     1     -32.723  10.283   0.294  1.00 20.00    -0.004 C 
HETATM   12  C9  UNL     1     -33.785   9.480  -0.439  1.00 20.00     0.005 C 
ENDBRANCH  10  11
ENDBRANCH   9  10
ENDBRANCH   7   9
ENDBRANCH   5   7
BRANCH   6  13
HETATM   13  C11 UNL     1     -34.645   3.854   4.484  1.00 20.00     0.000 C 
HETATM   14  C8  UNL     1     -33.398   3.255   5.048  1.00 20.00     0.005 C 
ENDBRANCH   6  13
TORSDOF 5
