REMARK  3 active torsions:
REMARK  status: ('A' for Active; 'I' for Inactive)
REMARK    1  A    between atoms: C3_3  and  C7_7 
REMARK    2  A    between atoms: C3_3  and  C10_10 
REMARK    3  A    between atoms: C8_8  and  C11_11 
ROOT
HETATM    1  C1  UNL     1     -33.842   3.987   4.626  1.00 20.00     0.012 C 
HETATM    2  C2  UNL     1     -34.095   5.146   4.812  1.00 20.00    -0.110 C 
HETATM    3  C10 UNL     1     -34.412   6.560   5.043  1.00 20.00     0.171 C 
ENDROOT
BRANCH   3   4
HETATM    4  C3  UNL     1     -33.417   7.493   4.383  1.00 20.00     0.142 C 
HETATM    5  O12 UNL     1     -32.719   8.287   5.013  1.00 20.00    -0.297 OA
BRANCH   4   6
HETATM    6  C7  UNL     1     -33.318   7.401   2.871  1.00 20.00     0.057 C 
HETATM    7  C4  UNL     1     -31.875   7.084   2.478  1.00 20.00     0.013 C 
HETATM    8  C5  UNL     1     -31.432   8.225   1.567  1.00 20.00     0.005 C 
HETATM    9  C8  UNL     1     -32.273   9.410   2.028  1.00 20.00    -0.014 C 
HETATM   10  C6  UNL     1     -33.640   8.770   2.276  1.00 20.00     0.016 C 
BRANCH   9  11
HETATM   11  C11 UNL     1     -32.318  10.542   1.016  1.00 20.00     0.000 C 
HETATM   12  C9  UNL     1     -32.855  10.091  -0.306  1.00 20.00     0.005 C 
ENDBRANCH   9  11
ENDBRANCH   4   6
ENDBRANCH   3   4
TORSDOF 3
