REMARK  3 active torsions:
REMARK  status: ('A' for Active; 'I' for Inactive)
REMARK    1  A    between atoms: C1_1  and  C7_7 
REMARK    2  A    between atoms: C1_1  and  C9_9 
REMARK    3  A    between atoms: C8_8  and  C9_9 
ROOT
HETATM    1  C1  UNL     1     -32.922   7.113   2.934  1.00 20.00     0.155 C 
HETATM    2  O10 UNL     1     -33.057   7.652   4.031  1.00 20.00    -0.295 OA
ENDROOT
BRANCH   1   3
HETATM    3  C7  UNL     1     -33.779   5.952   2.534  1.00 20.00     0.190 C 
HETATM    4  C3  UNL     1     -35.111   5.937   3.260  1.00 20.00     0.042 C 
HETATM    5  C2  UNL     1     -34.811   5.095   4.477  1.00 20.00     0.029 C 
HETATM    6  C6  UNL     1     -33.823   4.090   3.928  1.00 20.00     0.168 C 
HETATM    7  O11 UNL     1     -33.067   4.773   2.919  1.00 20.00    -0.378 OA
ENDBRANCH   1   3
BRANCH   1   8
HETATM    8  C9  UNL     1     -31.896   7.568   1.913  1.00 20.00     0.085 C 
BRANCH   8   9
HETATM    9  C8  UNL     1     -32.448   8.604   0.951  1.00 20.00    -0.007 A 
HETATM   10  C4  UNL     1     -32.352  10.069   1.278  1.00 20.00     0.005 A 
HETATM   11  C5  UNL     1     -31.513   9.489   0.174  1.00 20.00     0.005 A 
ENDBRANCH   8   9
ENDBRANCH   1   8
TORSDOF 3
