REMARK  0 active torsions:
REMARK  status: ('A' for Active; 'I' for Inactive)
ROOT
HETATM    1  C1  UNL     1     -32.322   7.958   3.762  1.00 20.00     0.071 C 
HETATM    2  C2  UNL     1     -34.165   5.262   5.194  1.00 20.00     0.034 C 
HETATM    3  C3  UNL     1     -34.599   6.728   5.227  1.00 20.00     0.036 C 
HETATM    4  C4  UNL     1     -32.906   5.632   3.046  1.00 20.00     0.058 C 
HETATM    5  C5  UNL     1     -34.129   4.976   3.695  1.00 20.00     0.123 C 
HETATM    6  C6  UNL     1     -34.676   7.075   3.736  1.00 20.00     0.144 C 
HETATM    7  C7  UNL     1     -33.298   7.126   3.041  1.00 20.00     0.074 C 
HETATM    8  C8  UNL     1     -33.437   7.643   1.602  1.00 20.00     0.034 C 
HETATM    9  N9  UNL     1     -31.552   8.615   4.330  1.00 20.00    -0.196 NA
HETATM   10  O10 UNL     1     -35.199   5.823   3.217  1.00 20.00    -0.379 OA
ENDROOT
TORSDOF 0
