REMARK  4 active torsions:
REMARK  status: ('A' for Active; 'I' for Inactive)
REMARK    1  A    between atoms: C5_5  and  C9_9 
REMARK    2  A    between atoms: C6_6  and  C10_10 
REMARK    3  A    between atoms: C10_10  and  C12_12 
REMARK    4  A    between atoms: C11_11  and  C12_12 
ROOT
HETATM    1  C1  UNL     1     -32.322   7.973   3.948  1.00 20.00     0.069 C 
HETATM    2  C2  UNL     1     -32.657   5.167   2.652  1.00 20.00     0.006 C 
HETATM    3  C3  UNL     1     -32.343   6.492   1.970  1.00 20.00     0.025 C 
HETATM    4  C4  UNL     1     -34.381   6.762   3.285  1.00 20.00     0.029 C 
HETATM    5  C5  UNL     1     -34.152   5.281   2.937  1.00 20.00    -0.013 C 
HETATM    6  C6  UNL     1     -33.130   7.527   2.790  1.00 20.00     0.049 C 
HETATM    7  N13 UNL     1     -31.688   8.323   4.855  1.00 20.00    -0.196 NA
ENDROOT
BRANCH   6   8
HETATM    8  C10 UNL     1     -33.502   8.746   1.944  1.00 20.00     0.024 C 
BRANCH   8   9
HETATM    9  C12 UNL     1     -32.257   9.482   1.462  1.00 20.00     0.001 C 
BRANCH   9  10
HETATM   10  C11 UNL     1     -32.634  10.717   0.643  1.00 20.00    -0.004 C 
HETATM   11  C8  UNL     1     -33.424  10.342  -0.600  1.00 20.00     0.005 C 
ENDBRANCH   9  10
ENDBRANCH   8   9
ENDBRANCH   6   8
BRANCH   5  12
HETATM   12  C9  UNL     1     -34.623   4.329   4.024  1.00 20.00     0.000 C 
HETATM   13  C7  UNL     1     -33.919   4.571   5.323  1.00 20.00     0.005 C 
ENDBRANCH   5  12
TORSDOF 4
