REMARK  1 active torsions:
REMARK  status: ('A' for Active; 'I' for Inactive)
REMARK    1  A    between atoms: C5_5  and  C9_9 
ROOT
HETATM    1  C1  UNL     1     -35.845   5.869   3.825  1.00 20.00     0.069 C 
HETATM    2  C2  UNL     1     -33.346   7.722   3.917  1.00 20.00     0.006 C 
HETATM    3  C3  UNL     1     -33.597   6.431   4.685  1.00 20.00     0.024 C 
HETATM    4  C4  UNL     1     -33.893   5.988   2.302  1.00 20.00     0.029 C 
HETATM    5  C5  UNL     1     -32.996   7.219   2.520  1.00 20.00    -0.013 C 
HETATM    6  C6  UNL     1     -34.402   5.564   3.701  1.00 20.00     0.046 C 
HETATM    7  C7  UNL     1     -34.184   4.073   3.961  1.00 20.00     0.031 C 
HETATM    8  N10 UNL     1     -36.976   6.108   3.923  1.00 20.00    -0.196 NA
ENDROOT
BRANCH   5   9
HETATM    9  C9  UNL     1     -33.166   8.283   1.447  1.00 20.00     0.000 C 
HETATM   10  C8  UNL     1     -32.286   9.468   1.691  1.00 20.00     0.005 C 
ENDBRANCH   5   9
TORSDOF 1
