REMARK  3 active torsions:
REMARK  status: ('A' for Active; 'I' for Inactive)
REMARK    1  A    between atoms: C6_6  and  C10_10 
REMARK    2  A    between atoms: C7_7  and  C11_11 
REMARK    3  A    between atoms: C11_11  and  C12_12 
ROOT
HETATM    1  C1  UNL     1     -32.324   8.063   3.740  1.00 20.00     0.069 C 
HETATM    2  C2  UNL     1     -34.890   6.324   3.752  1.00 20.00     0.006 C 
HETATM    3  C3  UNL     1     -32.768   5.022   3.333  1.00 20.00     0.006 C 
HETATM    4  C4  UNL     1     -34.464   7.361   2.710  1.00 20.00     0.025 C 
HETATM    5  C5  UNL     1     -32.335   6.055   2.290  1.00 20.00     0.025 C 
HETATM    6  C6  UNL     1     -34.294   4.943   3.455  1.00 20.00    -0.015 C 
HETATM    7  C7  UNL     1     -32.934   7.456   2.534  1.00 20.00     0.049 C 
HETATM    8  N13 UNL     1     -31.846   8.539   4.685  1.00 20.00    -0.196 NA
ENDROOT
BRANCH   7   9
HETATM    9  C11 UNL     1     -32.615   8.362   1.333  1.00 20.00     0.024 C 
BRANCH   9  10
HETATM   10  C12 UNL     1     -33.215   9.747   1.525  1.00 20.00    -0.003 C 
HETATM   11  C9  UNL     1     -32.880  10.650   0.349  1.00 20.00     0.005 C 
ENDBRANCH   9  10
ENDBRANCH   7   9
BRANCH   6  12
HETATM   12  C10 UNL     1     -34.698   3.938   4.532  1.00 20.00     0.000 C 
HETATM   13  C8  UNL     1     -34.188   4.337   5.878  1.00 20.00     0.005 C 
ENDBRANCH   6  12
TORSDOF 3
