REMARK  3 active torsions:
REMARK  status: ('A' for Active; 'I' for Inactive)
REMARK    1  A    between atoms: C5_5  and  C9_9 
REMARK    2  A    between atoms: C6_6  and  C10_10 
REMARK    3  A    between atoms: C10_10  and  O11_11 
ROOT
HETATM    1  C1  UNL     1     -32.171   8.470   4.673  1.00 20.00     0.001 C 
HETATM    2  C2  UNL     1     -31.701   8.081   3.274  1.00 20.00     0.005 C 
HETATM    3  C3  UNL     1     -33.028   7.377   5.304  1.00 20.00     0.007 C 
HETATM    4  C4  UNL     1     -33.737   6.607   3.003  1.00 20.00     0.011 C 
HETATM    5  C5  UNL     1     -32.879   7.710   2.365  1.00 20.00    -0.014 C 
HETATM    6  C6  UNL     1     -34.215   7.002   4.408  1.00 20.00     0.014 C 
ENDROOT
BRANCH   6   7
HETATM    7  C10 UNL     1     -35.029   5.872   5.036  1.00 20.00     0.118 C 
HETATM    8  C8  UNL     1     -34.201   4.610   5.204  1.00 20.00     0.040 C 
BRANCH   7   9
HETATM    9  O11 UNL     1     -36.152   5.595   4.208  1.00 20.00    -0.396 OA
HETATM   10  H31 UNL     1     -36.644   4.876   4.636  1.00 20.00     0.210 HD
ENDBRANCH   7   9
ENDBRANCH   6   7
BRANCH   5  11
HETATM   11  C9  UNL     1     -32.381   7.275   0.988  1.00 20.00     0.000 C 
HETATM   12  C7  UNL     1     -31.577   8.348   0.329  1.00 20.00     0.005 C 
ENDBRANCH   5  11
TORSDOF 3
