REMARK  4 active torsions:
REMARK  status: ('A' for Active; 'I' for Inactive)
REMARK    1  A    between atoms: C2_2  and  C8_8 
REMARK    2  A    between atoms: C6_6  and  C9_9 
REMARK    3  A    between atoms: C8_8  and  C9_9 
REMARK    4  A    between atoms: C9_9  and  O11_11 
ROOT
HETATM    1  C1  UNL     1     -32.267   9.822   1.927  1.00 20.00    -0.111 C 
HETATM    2  C2  UNL     1     -31.916   8.879   2.583  1.00 20.00    -0.104 C 
HETATM    3  C7  UNL     1     -32.696  10.969   1.129  1.00 20.00     0.112 C 
ENDROOT
BRANCH   2   4
HETATM    4  C8  UNL     1     -31.483   7.724   3.386  1.00 20.00     0.128 C 
BRANCH   4   5
HETATM    5  C9  UNL     1     -32.620   7.201   4.267  1.00 20.00     0.158 C 
BRANCH   5   6
HETATM    6  C6  UNL     1     -33.955   7.269   3.539  1.00 20.00     0.151 C 
HETATM    7  C4  UNL     1     -35.025   6.398   4.179  1.00 20.00     0.036 C 
HETATM    8  C3  UNL     1     -34.889   5.097   3.427  1.00 20.00     0.029 C 
HETATM    9  C5  UNL     1     -34.536   5.577   2.038  1.00 20.00     0.168 C 
HETATM   10  O10 UNL     1     -33.766   6.775   2.201  1.00 20.00    -0.383 OA
ENDBRANCH   5   6
BRANCH   5  11
HETATM   11  O11 UNL     1     -32.701   8.009   5.440  1.00 20.00    -0.392 OA
HETATM   12  H25 UNL     1     -31.839   7.943   5.879  1.00 20.00     0.210 HD
ENDBRANCH   5  11
ENDBRANCH   4   5
ENDBRANCH   2   4
TORSDOF 4
