REMARK  5 active torsions:
REMARK  status: ('A' for Active; 'I' for Inactive)
REMARK    1  A    between atoms: C6_6  and  C8_8 
REMARK    2  A    between atoms: C7_7  and  C11_11 
REMARK    3  A    between atoms: C8_8  and  C10_10 
REMARK    4  A    between atoms: C9_9  and  C10_10 
REMARK    5  A    between atoms: C9_9  and  C11_11 
ROOT
HETATM    1  C1  UNL     1     -33.262   5.007   2.611  1.00 20.00     0.069 C 
HETATM    2  C5  UNL     1     -34.918   6.612   1.759  1.00 20.00     0.031 C 
HETATM    3  C11 UNL     1     -34.058   6.205   2.971  1.00 20.00     0.045 C 
HETATM    4  N12 UNL     1     -32.644   4.064   2.333  1.00 20.00    -0.196 NA
ENDROOT
BRANCH   3   5
HETATM    5  C7  UNL     1     -35.035   5.814   4.123  1.00 20.00     0.020 C 
HETATM    6  C3  UNL     1     -34.375   5.314   5.406  1.00 20.00     0.007 C 
ENDBRANCH   3   5
BRANCH   3   7
HETATM    7  C9  UNL     1     -33.131   7.369   3.430  1.00 20.00     0.028 C 
BRANCH   7   8
HETATM    8  C10 UNL     1     -31.851   7.685   2.609  1.00 20.00    -0.017 C 
HETATM    9  C4  UNL     1     -30.949   8.597   3.456  1.00 20.00     0.010 C 
BRANCH   8  10
HETATM   10  C8  UNL     1     -32.158   8.316   1.235  1.00 20.00     0.004 C 
BRANCH  10  11
HETATM   11  C6  UNL     1     -32.876   9.667   1.314  1.00 20.00    -0.004 C 
HETATM   12  C2  UNL     1     -33.123  10.244  -0.072  1.00 20.00     0.005 C 
ENDBRANCH  10  11
ENDBRANCH   8  10
ENDBRANCH   7   8
ENDBRANCH   3   7
TORSDOF 5
