REMARK  2 active torsions:
REMARK  status: ('A' for Active; 'I' for Inactive)
REMARK    1  A    between atoms: C6_6  and  C10_10 
REMARK    2  A    between atoms: C7_7  and  C11_11 
ROOT
HETATM    1  C1  UNL     1     -36.005   5.873   3.580  1.00 20.00     0.069 C 
HETATM    2  C2  UNL     1     -33.166   7.194   5.796  1.00 20.00     0.002 C 
HETATM    3  C3  UNL     1     -32.442   7.979   4.707  1.00 20.00     0.005 C 
HETATM    4  C4  UNL     1     -34.571   6.785   5.358  1.00 20.00     0.024 C 
HETATM    5  C5  UNL     1     -33.818   6.804   2.941  1.00 20.00     0.029 C 
HETATM    6  C6  UNL     1     -32.402   7.211   3.381  1.00 20.00    -0.013 C 
HETATM    7  C7  UNL     1     -34.596   6.015   4.020  1.00 20.00     0.049 C 
HETATM    8  N12 UNL     1     -37.107   5.761   3.235  1.00 20.00    -0.196 NA
ENDROOT
BRANCH   7   9
HETATM    9  C11 UNL     1     -34.012   4.601   4.192  1.00 20.00     0.020 C 
HETATM   10  C9  UNL     1     -34.057   3.839   2.914  1.00 20.00     0.007 C 
ENDBRANCH   7   9
BRANCH   6  11
HETATM   11  C10 UNL     1     -31.724   8.050   2.297  1.00 20.00     0.000 C 
HETATM   12  C8  UNL     1     -32.474   9.313   2.031  1.00 20.00     0.005 C 
ENDBRANCH   6  11
TORSDOF 2
