REMARK  1 active torsions:
REMARK  status: ('A' for Active; 'I' for Inactive)
REMARK    1  A    between atoms: C6_6  and  C8_8 
ROOT
HETATM    1  C1  UNL     1     -34.284   4.709   4.439  1.00 20.00     0.069 C 
HETATM    2  C2  UNL     1     -33.547   6.535   2.841  1.00 20.00     0.051 C 
HETATM    3  C3  UNL     1     -34.490   7.152   5.088  1.00 20.00     0.051 C 
HETATM    4  C4  UNL     1     -32.167   6.836   3.419  1.00 20.00     0.169 C 
HETATM    5  C5  UNL     1     -33.056   7.417   5.536  1.00 20.00     0.169 C 
HETATM    6  C6  UNL     1     -34.564   6.135   3.930  1.00 20.00     0.052 C 
HETATM    7  N9  UNL     1     -34.073   3.635   4.823  1.00 20.00    -0.196 NA
HETATM    8  O10 UNL     1     -32.250   7.833   4.435  1.00 20.00    -0.391 OA
ENDROOT
BRANCH   6   9
HETATM    9  C8  UNL     1     -35.928   6.155   3.352  1.00 20.00     0.020 C 
HETATM   10  C7  UNL     1     -36.951   5.784   4.369  1.00 20.00     0.007 C 
ENDBRANCH   6   9
TORSDOF 1
