REMARK  2 active torsions:
REMARK  status: ('A' for Active; 'I' for Inactive)
REMARK    1  A    between atoms: C2_2  and  C3_3 
REMARK    2  A    between atoms: C3_3  and  C4_4 
ROOT
HETATM    1  C3  UNL     1     -33.418   6.906   3.867  1.00 20.00     0.402 C 
HETATM    2  F7  UNL     1     -34.308   7.922   3.698  1.00 20.00    -0.189 F 
HETATM    3  F8  UNL     1     -32.201   7.486   4.031  1.00 20.00    -0.189 F 
ENDROOT
BRANCH   1   4
HETATM    4  C2  UNL     1     -33.793   6.160   5.135  1.00 20.00     0.313 C 
HETATM    5  C1  UNL     1     -32.886   5.005   5.503  1.00 20.00     0.097 C 
HETATM    6  F5  UNL     1     -33.788   7.047   6.168  1.00 20.00    -0.200 F 
HETATM    7  F6  UNL     1     -35.068   5.703   5.032  1.00 20.00    -0.200 F 
ENDBRANCH   1   4
BRANCH   1   8
HETATM    8  C4  UNL     1     -33.401   6.084   2.602  1.00 20.00     0.460 C 
HETATM    9  F9  UNL     1     -34.606   5.541   2.337  1.00 20.00    -0.165 F 
HETATM   10  F10 UNL     1     -32.515   5.069   2.712  1.00 20.00    -0.165 F 
HETATM   11  F11 UNL     1     -33.038   6.830   1.537  1.00 20.00    -0.165 F 
ENDBRANCH   1   8
TORSDOF 2
