REMARK  4 active torsions:
REMARK  status: ('A' for Active; 'I' for Inactive)
REMARK    1  A    between atoms: C6_6  and  C10_10 
REMARK    2  A    between atoms: C7_7  and  C11_11 
REMARK    3  A    between atoms: C9_9  and  C11_11 
REMARK    4  A    between atoms: C11_11  and  O12_12 
ROOT
HETATM    1  C1  UNL     1     -33.955   3.510   4.522  1.00 20.00     0.012 C 
HETATM    2  C2  UNL     1     -34.406   4.568   4.175  1.00 20.00    -0.115 C 
HETATM    3  C9  UNL     1     -34.962   5.862   3.747  1.00 20.00     0.125 C 
ENDROOT
BRANCH   3   4
HETATM    4  C11 UNL     1     -34.117   7.033   4.258  1.00 20.00     0.133 C 
BRANCH   4   5
HETATM    5  C7  UNL     1     -32.670   6.922   3.779  1.00 20.00     0.015 C 
HETATM    6  C4  UNL     1     -31.799   8.051   4.337  1.00 20.00     0.007 C 
HETATM    7  C3  UNL     1     -31.745   9.138   3.260  1.00 20.00     0.005 C 
HETATM    8  C6  UNL     1     -32.534   8.601   2.062  1.00 20.00    -0.014 C 
HETATM    9  C5  UNL     1     -32.540   7.088   2.266  1.00 20.00     0.012 C 
BRANCH   8  10
HETATM   10  C10 UNL     1     -31.947   9.019   0.724  1.00 20.00     0.000 C 
HETATM   11  C8  UNL     1     -31.934  10.506   0.558  1.00 20.00     0.005 C 
ENDBRANCH   8  10
ENDBRANCH   4   5
BRANCH   4  12
HETATM   12  O12 UNL     1     -34.129   7.015   5.686  1.00 20.00    -0.394 OA
HETATM   13  H30 UNL     1     -33.733   6.172   5.952  1.00 20.00     0.210 HD
ENDBRANCH   4  12
ENDBRANCH   3   4
TORSDOF 4
