REMARK  3 active torsions:
REMARK  status: ('A' for Active; 'I' for Inactive)
REMARK    1  A    between atoms: C5_5  and  C7_7 
REMARK    2  A    between atoms: C6_6  and  C8_8 
REMARK    3  A    between atoms: C7_7  and  C8_8 
ROOT
HETATM    1  C1  UNL     1     -32.779   5.883   2.888  1.00 20.00     0.069 C 
HETATM    2  C4  UNL     1     -31.557   7.807   3.794  1.00 20.00     0.031 C 
HETATM    3  C8  UNL     1     -32.804   7.362   3.005  1.00 20.00     0.045 C 
HETATM    4  N9  UNL     1     -32.760   4.726   2.797  1.00 20.00    -0.196 NA
ENDROOT
BRANCH   3   5
HETATM    5  C6  UNL     1     -32.710   7.991   1.584  1.00 20.00     0.020 C 
HETATM    6  C3  UNL     1     -32.723   9.516   1.533  1.00 20.00     0.007 C 
ENDBRANCH   3   5
BRANCH   3   7
HETATM    7  C7  UNL     1     -34.108   7.815   3.716  1.00 20.00     0.024 C 
BRANCH   7   8
HETATM    8  C5  UNL     1     -34.086   7.735   5.250  1.00 20.00    -0.003 C 
HETATM    9  C2  UNL     1     -33.910   6.299   5.725  1.00 20.00     0.005 C 
ENDBRANCH   7   8
ENDBRANCH   3   7
TORSDOF 3
