REMARK  3 active torsions:
REMARK  status: ('A' for Active; 'I' for Inactive)
REMARK    1  A    between atoms: C3_3  and  C7_7 
REMARK    2  A    between atoms: C3_3  and  C9_9 
REMARK    3  A    between atoms: C8_8  and  C9_9 
ROOT
HETATM    1  C1  UNL     1     -33.263  10.173   0.919  1.00 20.00     0.012 C 
HETATM    2  C2  UNL     1     -32.503   9.262   1.108  1.00 20.00    -0.117 C 
HETATM    3  C8  UNL     1     -31.573   8.146   1.336  1.00 20.00     0.100 C 
ENDROOT
BRANCH   3   4
HETATM    4  C9  UNL     1     -31.326   7.905   2.823  1.00 20.00     0.091 C 
BRANCH   4   5
HETATM    5  C3  UNL     1     -32.581   7.547   3.604  1.00 20.00     0.134 C 
HETATM    6  O10 UNL     1     -32.744   7.848   4.785  1.00 20.00    -0.297 OA
BRANCH   5   7
HETATM    7  C7  UNL     1     -33.657   6.801   2.833  1.00 20.00     0.081 C 
HETATM    8  C4  UNL     1     -34.782   6.441   3.767  1.00 20.00     0.040 C 
HETATM    9  C5  UNL     1     -34.320   5.131   4.371  1.00 20.00     0.168 C 
HETATM   10  O11 UNL     1     -33.481   4.497   3.399  1.00 20.00    -0.390 OA
HETATM   11  C6  UNL     1     -33.129   5.455   2.389  1.00 20.00     0.179 C 
ENDBRANCH   5   7
ENDBRANCH   4   5
ENDBRANCH   3   4
TORSDOF 3
