REMARK  5 active torsions:
REMARK  status: ('A' for Active; 'I' for Inactive)
REMARK    1  A    between atoms: C1_1  and  C5_5 
REMARK    2  A    between atoms: C1_1  and  C9_9 
REMARK    3  A    between atoms: C6_6  and  C10_10 
REMARK    4  A    between atoms: C9_9  and  C12_12 
REMARK    5  A    between atoms: C11_11  and  C12_12 
ROOT
HETATM    1  C2  UNL     1     -33.966   7.399   5.012  1.00 20.00     0.012 C 
HETATM    2  C3  UNL     1     -34.952   6.248   5.163  1.00 20.00     0.005 C 
HETATM    3  C4  UNL     1     -34.709   6.607   2.810  1.00 20.00     0.016 C 
HETATM    4  C5  UNL     1     -33.990   7.757   3.525  1.00 20.00     0.056 C 
HETATM    5  C6  UNL     1     -34.857   5.487   3.844  1.00 20.00    -0.014 C 
ENDROOT
BRANCH   4   6
HETATM    6  C1  UNL     1     -32.605   7.933   2.982  1.00 20.00     0.131 C 
HETATM    7  O13 UNL     1     -31.956   6.994   2.508  1.00 20.00    -0.298 OA
BRANCH   6   8
HETATM    8  C9  UNL     1     -32.031   9.342   3.040  1.00 20.00     0.079 C 
BRANCH   8   9
HETATM    9  C12 UNL     1     -32.372  10.172   1.804  1.00 20.00     0.007 C 
BRANCH   9  10
HETATM   10  C11 UNL     1     -31.792   9.547   0.537  1.00 20.00    -0.004 C 
HETATM   11  C8  UNL     1     -32.096  10.391  -0.691  1.00 20.00     0.005 C 
ENDBRANCH   9  10
ENDBRANCH   8   9
ENDBRANCH   6   8
ENDBRANCH   4   6
BRANCH   5  12
HETATM   12  C10 UNL     1     -33.681   4.513   3.818  1.00 20.00     0.000 C 
HETATM   13  C7  UNL     1     -33.810   3.451   4.864  1.00 20.00     0.005 C 
ENDBRANCH   5  12
TORSDOF 5
