REMARK  0 active torsions:
REMARK  status: ('A' for Active; 'I' for Inactive)
ROOT
HETATM    1  C1  UNL     1     -33.576   7.173   3.320  1.00 20.00     0.071 C 
HETATM    2  C2  UNL     1     -33.979   5.922   5.418  1.00 20.00     0.052 C 
HETATM    3  C3  UNL     1     -34.136   4.443   5.705  1.00 20.00     0.169 C 
HETATM    4  C4  UNL     1     -33.662   4.697   3.435  1.00 20.00     0.192 C 
HETATM    5  C5  UNL     1     -34.254   6.016   3.925  1.00 20.00     0.069 C 
HETATM    6  C6  UNL     1     -35.759   6.088   3.636  1.00 20.00     0.033 C 
HETATM    7  N7  UNL     1     -33.042   8.086   2.843  1.00 20.00    -0.196 NA
HETATM    8  O8  UNL     1     -33.792   3.745   4.503  1.00 20.00    -0.389 OA
ENDROOT
TORSDOF 0
