REMARK  3 active torsions:
REMARK  status: ('A' for Active; 'I' for Inactive)
REMARK    1  A    between atoms: C1_1  and  C5_5 
REMARK    2  A    between atoms: C1_1  and  C9_9 
REMARK    3  A    between atoms: C6_6  and  C10_10 
ROOT
HETATM    1  C2  UNL     1     -34.287   6.951   2.126  1.00 20.00     0.012 C 
HETATM    2  C3  UNL     1     -34.980   6.369   3.356  1.00 20.00     0.005 C 
HETATM    3  C4  UNL     1     -32.645   6.300   3.823  1.00 20.00     0.016 C 
HETATM    4  C5  UNL     1     -32.788   6.836   2.400  1.00 20.00     0.056 C 
HETATM    5  C6  UNL     1     -33.986   6.614   4.486  1.00 20.00    -0.014 C 
ENDROOT
BRANCH   4   6
HETATM    6  C1  UNL     1     -32.160   8.216   2.336  1.00 20.00     0.130 C 
HETATM    7  O11 UNL     1     -31.624   8.716   3.324  1.00 20.00    -0.298 OA
BRANCH   6   8
HETATM    8  C9  UNL     1     -32.237   8.923   0.995  1.00 20.00     0.074 C 
HETATM    9  C7  UNL     1     -33.011  10.227   1.066  1.00 20.00     0.013 C 
ENDBRANCH   6   8
ENDBRANCH   4   6
BRANCH   5  10
HETATM   10  C10 UNL     1     -34.258   5.766   5.717  1.00 20.00     0.000 C 
HETATM   11  C8  UNL     1     -34.238   4.302   5.404  1.00 20.00     0.005 C 
ENDBRANCH   5  10
TORSDOF 3
