REMARK  4 active torsions:
REMARK  status: ('A' for Active; 'I' for Inactive)
REMARK    1  A    between atoms: C6_6  and  C10_10 
REMARK    2  A    between atoms: C7_7  and  C11_11 
REMARK    3  A    between atoms: C9_9  and  C11_11 
REMARK    4  A    between atoms: C11_11  and  O12_12 
ROOT
HETATM    1  C1  UNL     1     -33.125   9.827  -0.196  1.00 20.00     0.012 C 
HETATM    2  C2  UNL     1     -33.031   9.631   0.984  1.00 20.00    -0.115 C 
HETATM    3  C9  UNL     1     -32.919   9.395   2.433  1.00 20.00     0.125 C 
ENDROOT
BRANCH   3   4
HETATM    4  C11 UNL     1     -32.267   8.041   2.733  1.00 20.00     0.133 C 
BRANCH   4   5
HETATM    5  C7  UNL     1     -33.279   6.911   2.655  1.00 20.00     0.015 C 
HETATM    6  C4  UNL     1     -32.634   5.529   2.527  1.00 20.00     0.007 C 
HETATM    7  C3  UNL     1     -33.592   4.551   3.214  1.00 20.00     0.005 C 
HETATM    8  C6  UNL     1     -34.748   5.398   3.754  1.00 20.00    -0.014 C 
HETATM    9  C5  UNL     1     -34.142   6.790   3.908  1.00 20.00     0.012 C 
BRANCH   8  10
HETATM   10  C10 UNL     1     -35.337   4.856   5.045  1.00 20.00     0.000 C 
HETATM   11  C8  UNL     1     -34.315   4.772   6.135  1.00 20.00     0.005 C 
ENDBRANCH   8  10
ENDBRANCH   4   5
BRANCH   4  12
HETATM   12  O12 UNL     1     -31.724   8.080   4.054  1.00 20.00    -0.394 OA
HETATM   13  H30 UNL     1     -31.304   7.219   4.202  1.00 20.00     0.210 HD
ENDBRANCH   4  12
ENDBRANCH   3   4
TORSDOF 4
