REMARK  2 active torsions:
REMARK  status: ('A' for Active; 'I' for Inactive)
REMARK    1  A    between atoms: C3_3  and  C5_5 
REMARK    2  A    between atoms: C5_5  and  C7_7 
ROOT
HETATM    1  C1  UNL     1     -33.495   6.915   4.597  1.00 20.00     0.029 A 
HETATM    2  C2  UNL     1     -33.648   5.954   2.486  1.00 20.00     0.065 A 
HETATM    3  C3  UNL     1     -33.208   7.042   3.208  1.00 20.00     0.018 A 
HETATM    4  C4  UNL     1     -34.143   5.734   4.885  1.00 20.00    -0.021 A 
HETATM    5  C9  UNL     1     -34.605   5.234   6.199  1.00 20.00     0.056 C 
HETATM    6  S12 UNL     1     -34.403   4.785   3.484  1.00 20.00    -0.106 SA
ENDROOT
BRANCH   3   7
HETATM    7  C5  UNL     1     -32.528   8.179   2.582  1.00 20.00     0.164 C 
HETATM    8  O11 UNL     1     -31.684   8.876   3.135  1.00 20.00    -0.292 OA
BRANCH   7   9
HETATM    9  C7  UNL     1     -32.888   8.493   1.194  1.00 20.00     0.065 A 
HETATM   10  C6  UNL     1     -31.822   8.983   0.247  1.00 20.00     0.018 A 
HETATM   11  C8  UNL     1     -32.906   9.919   0.699  1.00 20.00    -0.006 A 
HETATM   12  C10 UNL     1     -32.575  11.071   1.585  1.00 20.00     0.011 C 
ENDBRANCH   7   9
ENDBRANCH   3   7
TORSDOF 2
