REMARK  3 active torsions:
REMARK  status: ('A' for Active; 'I' for Inactive)
REMARK    1  A    between atoms: C1_1  and  C3_3 
REMARK    2  A    between atoms: C1_1  and  C8_8 
REMARK    3  A    between atoms: C8_8  and  C9_9 
ROOT
HETATM    1  C1  UNL     1     -32.882   7.512   2.761  1.00 20.00     0.131 C 
HETATM    2  O10 UNL     1     -32.081   7.266   3.661  1.00 20.00    -0.298 OA
ENDROOT
BRANCH   1   3
HETATM    3  C3  UNL     1     -33.828   6.454   2.255  1.00 20.00     0.059 A 
HETATM    4  C2  UNL     1     -33.349   5.045   2.221  1.00 20.00     0.017 A 
HETATM    5  C4  UNL     1     -34.402   5.463   3.208  1.00 20.00    -0.007 A 
HETATM    6  C5  UNL     1     -34.101   5.457   4.668  1.00 20.00     0.011 C 
ENDBRANCH   1   3
BRANCH   1   7
HETATM    7  C8  UNL     1     -32.955   8.863   2.065  1.00 20.00     0.082 C 
BRANCH   7   8
HETATM    8  C9  UNL     1     -32.622   8.807   0.567  1.00 20.00    -0.016 C 
HETATM    9  C6  UNL     1     -31.205   8.281   0.327  1.00 20.00     0.010 C 
HETATM   10  C7  UNL     1     -32.768  10.199  -0.054  1.00 20.00     0.010 C 
ENDBRANCH   7   8
ENDBRANCH   1   7
TORSDOF 3
