REMARK  3 active torsions:
REMARK  status: ('A' for Active; 'I' for Inactive)
REMARK    1  A    between atoms: C3_3  and  C5_5 
REMARK    2  A    between atoms: C3_3  and  C9_9 
REMARK    3  A    between atoms: C8_8  and  C9_9 
ROOT
HETATM    1  C1  UNL     1     -34.874   4.977   5.567  1.00 20.00     0.012 C 
HETATM    2  C2  UNL     1     -34.376   4.865   4.480  1.00 20.00    -0.117 C 
HETATM    3  C8  UNL     1     -33.767   4.723   3.149  1.00 20.00     0.100 C 
ENDROOT
BRANCH   3   4
HETATM    4  C9  UNL     1     -32.698   5.783   2.896  1.00 20.00     0.090 C 
BRANCH   4   5
HETATM    5  C3  UNL     1     -33.216   7.211   2.984  1.00 20.00     0.132 C 
HETATM    6  O10 UNL     1     -33.703   7.685   4.009  1.00 20.00    -0.298 OA
BRANCH   5   7
HETATM    7  C5  UNL     1     -33.081   8.043   1.735  1.00 20.00     0.059 A 
HETATM    8  C4  UNL     1     -31.731   8.169   1.123  1.00 20.00     0.017 A 
HETATM    9  C6  UNL     1     -32.345   9.342   1.840  1.00 20.00    -0.007 A 
HETATM   10  C7  UNL     1     -32.838  10.518   1.069  1.00 20.00     0.011 C 
ENDBRANCH   5   7
ENDBRANCH   4   5
ENDBRANCH   3   4
TORSDOF 3
