REMARK  3 active torsions:
REMARK  status: ('A' for Active; 'I' for Inactive)
REMARK    1  A    between atoms: C3_3  and  C5_5 
REMARK    2  A    between atoms: C3_3  and  C9_9 
REMARK    3  A    between atoms: C8_8  and  C9_9 
ROOT
HETATM    1  C1  UNL     1     -33.381   9.882   1.070  1.00 20.00     0.012 C 
HETATM    2  C2  UNL     1     -32.631   9.278   1.787  1.00 20.00    -0.117 C 
HETATM    3  C8  UNL     1     -31.709   8.542   2.665  1.00 20.00     0.100 C 
ENDROOT
BRANCH   3   4
HETATM    4  C9  UNL     1     -32.132   7.086   2.843  1.00 20.00     0.090 C 
BRANCH   4   5
HETATM    5  C3  UNL     1     -33.522   6.919   3.439  1.00 20.00     0.132 C 
HETATM    6  O10 UNL     1     -34.029   7.744   4.197  1.00 20.00    -0.298 OA
BRANCH   5   7
HETATM    7  C5  UNL     1     -34.273   5.678   3.030  1.00 20.00     0.059 A 
HETATM    8  C4  UNL     1     -33.605   4.361   3.219  1.00 20.00     0.017 A 
HETATM    9  C6  UNL     1     -34.779   4.745   4.075  1.00 20.00    -0.007 A 
HETATM   10  C7  UNL     1     -34.594   4.970   5.537  1.00 20.00     0.011 C 
ENDBRANCH   5   7
ENDBRANCH   4   5
ENDBRANCH   3   4
TORSDOF 3
