REMARK  3 active torsions:
REMARK  status: ('A' for Active; 'I' for Inactive)
REMARK    1  A    between atoms: C1_1  and  C9_9 
REMARK    2  A    between atoms: C10_10  and  C11_11 
REMARK    3  A    between atoms: C11_11  and  N12_12 
ROOT
HETATM    1  C5  UNL     1     -34.067   6.984   5.882  1.00 20.00     0.039 C 
HETATM    2  C6  UNL     1     -35.372   6.178   3.869  1.00 20.00     0.039 C 
HETATM    3  C7  UNL     1     -32.879   7.282   4.975  1.00 20.00     0.235 C 
HETATM    4  C8  UNL     1     -34.170   6.484   2.984  1.00 20.00     0.235 C 
HETATM    5  C9  UNL     1     -34.983   5.895   5.321  1.00 20.00     0.050 C 
HETATM    6  N12 UNL     1     -33.374   7.614   3.589  1.00 20.00    -0.071 N 
HETATM    7  H33 UNL     1     -34.004   8.423   3.674  1.00 20.00     0.279 HD
ENDROOT
BRANCH   6   8
HETATM    8  C11 UNL     1     -32.250   8.045   2.688  1.00 20.00     0.239 C 
BRANCH   8   9
HETATM    9  C10 UNL     1     -32.801   8.336   1.307  1.00 20.00     0.011 C 
HETATM   10  C3  UNL     1     -31.951   9.263   0.400  1.00 20.00     0.006 C 
HETATM   11  C2  UNL     1     -33.279   9.851  -0.119  1.00 20.00     0.001 C 
HETATM   12  C4  UNL     1     -33.914   9.413   1.217  1.00 20.00     0.006 C 
ENDBRANCH   8   9
ENDBRANCH   6   8
BRANCH   5  13
HETATM   13  C1  UNL     1     -34.344   4.541   5.449  1.00 20.00     0.235 C 
HETATM   14  O13 UNL     1     -34.132   3.801   4.495  1.00 20.00    -0.306 OA
ENDBRANCH   5  13
TORSDOF 3
