REMARK  1 active torsions:
REMARK  status: ('A' for Active; 'I' for Inactive)
REMARK    1  A    between atoms: C3_3  and  C4_4 
ROOT
HETATM    1  C1  UNL     1     -33.589   6.829   3.394  1.00 20.00     0.064 C 
HETATM    2  C4  UNL     1     -32.993   7.165   2.094  1.00 20.00     0.175 C 
HETATM    3  N5  UNL     1     -34.061   6.560   4.419  1.00 20.00    -0.197 NA
ENDROOT
BRANCH   2   4
HETATM    4  C3  UNL     1     -32.196   8.436   2.193  1.00 20.00     0.035 C 
HETATM    5  C2  UNL     1     -31.962   9.316   1.212  1.00 20.00     0.105 C 
HETATM    6 CL6  UNL     1     -32.571   9.203  -0.385  1.00 20.00    -0.096 Cl
HETATM    7 CL7  UNL     1     -31.477   8.727   3.751  1.00 20.00    -0.087 Cl
ENDBRANCH   2   4
TORSDOF 1
