REMARK  2 active torsions:
REMARK  status: ('A' for Active; 'I' for Inactive)
REMARK    1  A    between atoms: C2_2  and  C9_9 
REMARK    2  A    between atoms: C9_9  and  N11_11 
ROOT
HETATM    1  C3  UNL     1     -33.184   4.779   2.636  1.00 20.00     0.300 C 
HETATM    2  C4  UNL     1     -32.353   6.061   2.550  1.00 20.00     0.303 C 
HETATM    3  C5  UNL     1     -33.600   6.996   4.388  1.00 20.00     0.308 C 
HETATM    4  C6  UNL     1     -34.443   5.713   4.499  1.00 20.00     0.244 C 
HETATM    5  C7  UNL     1     -35.810   5.851   3.822  1.00 20.00     0.044 C 
HETATM    6  N10 UNL     1     -33.706   4.547   3.985  1.00 20.00     0.091 N 
HETATM    7  N11 UNL     1     -33.128   7.218   3.014  1.00 20.00     0.100 N 
HETATM    8  H29 UNL     1     -34.339   3.739   3.959  1.00 20.00     0.316 HD
ENDROOT
BRANCH   7   9
HETATM    9  C9  UNL     1     -32.333   8.441   2.931  1.00 20.00     0.241 C 
HETATM   10  C8  UNL     1     -30.908   8.194   3.412  1.00 20.00     0.047 C 
BRANCH   9  11
HETATM   11  C2  UNL     1     -32.355   8.913   1.506  1.00 20.00    -0.002 C 
HETATM   12  C1  UNL     1     -32.894  10.074   1.113  1.00 20.00     0.009 C 
ENDBRANCH   9  11
ENDBRANCH   7   9
TORSDOF 2
