REMARK  2 active torsions:
REMARK  status: ('A' for Active; 'I' for Inactive)
REMARK    1  A    between atoms: C2_2  and  C9_9 
REMARK    2  A    between atoms: C9_9  and  N11_11 
ROOT
HETATM    1  C3  UNL     1     -33.887   5.267   2.919  1.00 20.00     0.300 C 
HETATM    2  C4  UNL     1     -32.798   6.239   2.460  1.00 20.00     0.302 C 
HETATM    3  C5  UNL     1     -33.155   7.567   4.443  1.00 20.00     0.307 C 
HETATM    4  C6  UNL     1     -34.254   6.593   4.900  1.00 20.00     0.244 C 
HETATM    5  C8  UNL     1     -34.319   6.531   6.425  1.00 20.00     0.044 C 
HETATM    6  N10 UNL     1     -34.000   5.247   4.376  1.00 20.00     0.091 N 
HETATM    7  N11 UNL     1     -33.054   7.589   2.977  1.00 20.00     0.096 N 
HETATM    8  H29 UNL     1     -34.757   4.621   4.651  1.00 20.00     0.316 HD
ENDROOT
BRANCH   7   9
HETATM    9  C9  UNL     1     -32.012   8.517   2.542  1.00 20.00     0.305 C 
BRANCH   9  10
HETATM   10  C2  UNL     1     -32.278   8.955   1.130  1.00 20.00    -0.065 C 
HETATM   11  C1  UNL     1     -31.400   8.712   0.144  1.00 20.00     0.015 C 
HETATM   12  C7  UNL     1     -33.551   9.712   0.877  1.00 20.00     0.044 C 
ENDBRANCH   9  10
ENDBRANCH   7   9
TORSDOF 2
