REMARK  2 active torsions:
REMARK  status: ('A' for Active; 'I' for Inactive)
REMARK    1  A    between atoms: C3_3  and  C5_5 
REMARK    2  A    between atoms: C3_3  and  C8_8 
ROOT
HETATM    1  C1  UNL     1     -32.411   9.745   1.291  1.00 20.00     0.012 C 
HETATM    2  C2  UNL     1     -32.212   8.731   1.901  1.00 20.00    -0.110 C 
HETATM    3  C8  UNL     1     -31.964   7.488   2.641  1.00 20.00     0.171 C 
ENDROOT
BRANCH   3   4
HETATM    4  C3  UNL     1     -32.896   7.321   3.825  1.00 20.00     0.142 C 
HETATM    5  O9  UNL     1     -32.645   7.761   4.946  1.00 20.00    -0.297 OA
BRANCH   4   6
HETATM    6  C5  UNL     1     -34.142   6.591   3.565  1.00 20.00     0.060 A 
HETATM    7  C4  UNL     1     -34.140   5.084   3.604  1.00 20.00     0.017 A 
HETATM    8  C6  UNL     1     -34.857   5.857   4.674  1.00 20.00    -0.007 A 
HETATM    9  C7  UNL     1     -34.347   5.843   6.074  1.00 20.00     0.011 C 
ENDBRANCH   4   6
ENDBRANCH   3   4
TORSDOF 2
