REMARK  3 active torsions:
REMARK  status: ('A' for Active; 'I' for Inactive)
REMARK    1  A    between atoms: C1_1  and  C3_3 
REMARK    2  A    between atoms: C1_1  and  C7_7 
REMARK    3  A    between atoms: C7_7  and  C8_8 
ROOT
HETATM    1  C1  UNL     1     -32.760   7.320   3.180  1.00 20.00     0.131 C 
HETATM    2  O9  UNL     1     -32.573   7.444   4.390  1.00 20.00    -0.298 OA
ENDROOT
BRANCH   1   3
HETATM    3  C3  UNL     1     -33.625   6.212   2.638  1.00 20.00     0.059 A 
HETATM    4  C2  UNL     1     -33.153   4.810   2.803  1.00 20.00     0.017 A 
HETATM    5  C4  UNL     1     -34.338   5.305   3.582  1.00 20.00    -0.007 A 
HETATM    6  C5  UNL     1     -34.256   5.433   5.064  1.00 20.00     0.011 C 
ENDBRANCH   1   3
BRANCH   1   7
HETATM    7  C7  UNL     1     -32.147   8.253   2.151  1.00 20.00     0.078 C 
BRANCH   7   8
HETATM    8  C8  UNL     1     -33.200   9.001   1.338  1.00 20.00     0.003 C 
HETATM    9  C6  UNL     1     -32.562   9.952   0.339  1.00 20.00     0.005 C 
ENDBRANCH   7   8
ENDBRANCH   1   7
TORSDOF 3
