REMARK  1 active torsions:
REMARK  status: ('A' for Active; 'I' for Inactive)
REMARK    1  A    between atoms: C3_3  and  C8_8 
ROOT
HETATM    1  C1  UNL     1     -33.073   7.298   4.239  1.00 20.00     0.285 C 
HETATM    2  C2  UNL     1     -33.008   6.034   3.384  1.00 20.00     0.073 C 
HETATM    3  C3  UNL     1     -33.368   8.337   2.147  1.00 20.00     0.289 C 
HETATM    4  C4  UNL     1     -33.821   4.890   3.962  1.00 20.00     0.023 C 
HETATM    5  N9  UNL     1     -32.610   8.404   3.399  1.00 20.00     0.099 N 
HETATM    6  S10 UNL     1     -33.657   6.577   1.778  1.00 20.00    -0.127 SA
HETATM    7  H27 UNL     1     -32.766   9.298   3.863  1.00 20.00     0.317 HD
ENDROOT
BRANCH   3   8
HETATM    8  C8  UNL     1     -32.596   9.010   1.024  1.00 20.00    -0.011 C 
HETATM    9  C5  UNL     1     -32.378  10.500   1.352  1.00 20.00     0.017 C 
HETATM   10  C6  UNL     1     -33.383   8.899  -0.296  1.00 20.00     0.017 C 
HETATM   11  C7  UNL     1     -31.225   8.332   0.847  1.00 20.00     0.017 C 
ENDBRANCH   3   8
TORSDOF 1
