REMARK  3 active torsions:
REMARK  status: ('A' for Active; 'I' for Inactive)
REMARK    1  A    between atoms: C4_4  and  C6_6 
REMARK    2  A    between atoms: C4_4  and  O7_7 
REMARK    3  A    between atoms: C5_5  and  C6_6 
ROOT
HETATM    1  C6  UNL     1     -33.274   7.685   3.353  1.00 20.00     0.109 C 
HETATM    2 CL8  UNL     1     -33.085   7.588   5.138  1.00 20.00    -0.122 Cl
ENDROOT
BRANCH   1   3
HETATM    3  C4  UNL     1     -31.915   7.990   2.720  1.00 20.00     0.187 C 
BRANCH   3   4
HETATM    4  O7  UNL     1     -32.075   8.190   1.319  1.00 20.00    -0.394 OA
HETATM    5  C3  UNL     1     -32.606   9.477   1.036  1.00 20.00     0.201 C 
ENDBRANCH   3   4
ENDBRANCH   1   3
BRANCH   1   6
HETATM    6  C5  UNL     1     -33.931   6.409   2.775  1.00 20.00    -0.002 C 
HETATM    7  C1  UNL     1     -35.286   6.064   3.401  1.00 20.00     0.011 C 
HETATM    8  C2  UNL     1     -32.996   5.198   2.859  1.00 20.00     0.011 C 
ENDBRANCH   1   6
TORSDOF 3
