REMARK  3 active torsions:
REMARK  status: ('A' for Active; 'I' for Inactive)
REMARK    1  A    between atoms: C1_1  and  C3_3 
REMARK    2  A    between atoms: C1_1  and  C8_8 
REMARK    3  A    between atoms: C8_8  and  C9_9 
ROOT
HETATM    1  C1  UNL     1     -32.616   8.095   2.820  1.00 20.00     0.131 C 
HETATM    2  O10 UNL     1     -31.558   8.498   3.301  1.00 20.00    -0.298 OA
ENDROOT
BRANCH   1   3
HETATM    3  C3  UNL     1     -32.873   8.174   1.338  1.00 20.00     0.059 A 
HETATM    4  C2  UNL     1     -31.746   8.578   0.453  1.00 20.00     0.017 A 
HETATM    5  C4  UNL     1     -32.911   9.503   0.665  1.00 20.00    -0.007 A 
HETATM    6  C5  UNL     1     -32.716  10.794   1.385  1.00 20.00     0.011 C 
ENDBRANCH   1   3
BRANCH   1   7
HETATM    7  C8  UNL     1     -33.749   7.536   3.667  1.00 20.00     0.082 C 
BRANCH   7   8
HETATM    8  C9  UNL     1     -33.708   6.009   3.827  1.00 20.00    -0.016 C 
HETATM    9  C6  UNL     1     -33.799   5.301   2.473  1.00 20.00     0.010 C 
HETATM   10  C7  UNL     1     -34.854   5.545   4.729  1.00 20.00     0.010 C 
ENDBRANCH   7   8
ENDBRANCH   1   7
TORSDOF 3
