REMARK  2 active torsions:
REMARK  status: ('A' for Active; 'I' for Inactive)
REMARK    1  A    between atoms: C1_1  and  C3_3 
REMARK    2  A    between atoms: C1_1  and  C9_9 
ROOT
HETATM    1  C1  UNL     1     -32.862   7.865   2.574  1.00 20.00     0.139 C 
HETATM    2  O10 UNL     1     -32.034   8.114   3.454  1.00 20.00    -0.297 OA
ENDROOT
BRANCH   1   3
HETATM    3  C3  UNL     1     -33.895   6.788   2.804  1.00 20.00     0.060 A 
HETATM    4  C2  UNL     1     -33.477   5.568   3.545  1.00 20.00     0.017 A 
HETATM    5  C4  UNL     1     -34.418   6.554   4.178  1.00 20.00    -0.007 A 
HETATM    6  C5  UNL     1     -33.985   7.339   5.369  1.00 20.00     0.011 C 
ENDBRANCH   1   3
BRANCH   1   7
HETATM    7  C9  UNL     1     -32.893   8.642   1.244  1.00 20.00     0.010 C 
HETATM    8  C6  UNL     1     -34.049   8.111   0.387  1.00 20.00     0.022 C 
HETATM    9  C7  UNL     1     -31.565   8.489   0.492  1.00 20.00     0.022 C 
HETATM   10  C8  UNL     1     -33.125  10.136   1.528  1.00 20.00     0.022 C 
ENDBRANCH   1   7
TORSDOF 2
