REMARK  4 active torsions:
REMARK  status: ('A' for Active; 'I' for Inactive)
REMARK    1  A    between atoms: C2_2  and  C8_8 
REMARK    2  A    between atoms: C5_5  and  C9_9 
REMARK    3  A    between atoms: C8_8  and  C9_9 
REMARK    4  A    between atoms: C9_9  and  O10_10 
ROOT
HETATM    1  C1  UNL     1     -34.091   5.288   4.579  1.00 20.00    -0.111 C 
HETATM    2  C2  UNL     1     -33.781   5.975   3.644  1.00 20.00    -0.104 C 
HETATM    3  C6  UNL     1     -34.470   4.453   5.717  1.00 20.00     0.112 C 
ENDROOT
BRANCH   2   4
HETATM    4  C8  UNL     1     -33.400   6.815   2.497  1.00 20.00     0.126 C 
BRANCH   4   5
HETATM    5  C9  UNL     1     -32.886   8.182   2.954  1.00 20.00     0.133 C 
BRANCH   5   6
HETATM    6  C5  UNL     1     -32.446   9.029   1.767  1.00 20.00     0.019 A 
HETATM    7  C3  UNL     1     -31.388   8.519   0.824  1.00 20.00     0.012 A 
HETATM    8  C4  UNL     1     -32.819   8.619   0.366  1.00 20.00    -0.012 A 
HETATM    9  C7  UNL     1     -33.214   9.650  -0.634  1.00 20.00     0.010 C 
ENDBRANCH   5   6
BRANCH   5  10
HETATM   10  O10 UNL     1     -31.764   7.988   3.813  1.00 20.00    -0.394 OA
HETATM   11  H24 UNL     1     -32.077   7.448   4.555  1.00 20.00     0.210 HD
ENDBRANCH   5  10
ENDBRANCH   4   5
ENDBRANCH   2   4
TORSDOF 4
