REMARK  2 active torsions:
REMARK  status: ('A' for Active; 'I' for Inactive)
REMARK    1  A    between atoms: C2_2  and  C9_9 
REMARK    2  A    between atoms: C9_9  and  N11_11 
ROOT
HETATM    1  C1  UNL     1     -33.074   9.339   1.907  1.00 20.00    -0.109 C 
HETATM    2  C2  UNL     1     -32.549   8.522   2.614  1.00 20.00    -0.077 C 
HETATM    3  C7  UNL     1     -33.714  10.333   1.046  1.00 20.00     0.112 C 
ENDROOT
BRANCH   2   4
HETATM    4  C9  UNL     1     -31.901   7.529   3.475  1.00 20.00     0.365 C 
BRANCH   4   5
HETATM    5  N11 UNL     1     -32.883   6.601   4.031  1.00 20.00     0.103 N 
HETATM    6  C4  UNL     1     -33.881   7.319   4.834  1.00 20.00     0.303 C 
HETATM    7  C3  UNL     1     -34.910   6.349   5.419  1.00 20.00     0.300 C 
HETATM    8  N10 UNL     1     -35.560   5.541   4.383  1.00 20.00     0.091 N 
HETATM    9  C6  UNL     1     -34.582   4.851   3.527  1.00 20.00     0.244 C 
HETATM   10  H27 UNL     1     -36.156   4.840   4.838  1.00 20.00     0.316 HD
HETATM   11  C5  UNL     1     -33.544   5.838   2.963  1.00 20.00     0.308 C 
HETATM   12  C8  UNL     1     -33.931   3.675   4.261  1.00 20.00     0.044 C 
ENDBRANCH   4   5
ENDBRANCH   2   4
TORSDOF 2
