REMARK  4 active torsions:
REMARK  status: ('A' for Active; 'I' for Inactive)
REMARK    1  A    between atoms: C5_5  and  C7_7 
REMARK    2  A    between atoms: C6_6  and  C7_7 
REMARK    3  A    between atoms: C6_6  and  C8_8 
REMARK    4  A    between atoms: C8_8  and  N9_9 
ROOT
HETATM    1  C1  UNL     1     -33.734   6.590   4.952  1.00 20.00     0.158 C 
HETATM    2  N9  UNL     1     -33.125   6.627   3.950  1.00 20.00    -0.271 NA
HETATM    3  S10 UNL     1     -34.559   6.506   6.312  1.00 20.00    -0.055 SA
ENDROOT
BRANCH   2   4
HETATM    4  C8  UNL     1     -32.836   7.978   3.456  1.00 20.00     0.106 C 
HETATM    5  C4  UNL     1     -31.535   8.444   4.099  1.00 20.00     0.034 C 
BRANCH   4   6
HETATM    6  C6  UNL     1     -32.713   7.946   1.926  1.00 20.00     0.031 C 
BRANCH   6   7
HETATM    7  C7  UNL     1     -31.974   9.151   1.300  1.00 20.00    -0.017 C 
HETATM    8  C3  UNL     1     -32.652  10.481   1.651  1.00 20.00     0.010 C 
BRANCH   7   9
HETATM    9  C5  UNL     1     -31.884   9.027  -0.236  1.00 20.00    -0.000 C 
HETATM   10  C2  UNL     1     -33.237   8.970  -0.931  1.00 20.00     0.005 C 
ENDBRANCH   7   9
ENDBRANCH   6   7
ENDBRANCH   4   6
ENDBRANCH   2   4
TORSDOF 4
