REMARK  2 active torsions:
REMARK  status: ('A' for Active; 'I' for Inactive)
REMARK    1  A    between atoms: C3_3  and  C7_7 
REMARK    2  A    between atoms: C8_8  and  C10_10 
ROOT
HETATM    1  C1  UNL     1     -34.660   5.490   6.046  1.00 20.00     0.021 C 
HETATM    2  C2  UNL     1     -34.247   5.701   4.939  1.00 20.00    -0.039 C 
HETATM    3  C3  UNL     1     -33.750   5.954   3.607  1.00 20.00     0.205 C 
HETATM    4  O11 UNL     1     -33.728   5.048   2.784  1.00 20.00    -0.283 OA
ENDROOT
BRANCH   3   5
HETATM    5  C7  UNL     1     -33.280   7.370   3.321  1.00 20.00     0.069 C 
HETATM    6  C4  UNL     1     -32.098   7.796   4.183  1.00 20.00     0.013 C 
HETATM    7  C5  UNL     1     -31.530   9.010   3.453  1.00 20.00     0.005 C 
HETATM    8  C8  UNL     1     -31.878   8.808   1.978  1.00 20.00    -0.014 C 
HETATM    9  C6  UNL     1     -32.738   7.549   1.902  1.00 20.00     0.017 C 
BRANCH   8  10
HETATM   10  C10 UNL     1     -32.698   9.988   1.491  1.00 20.00     0.000 C 
HETATM   11  C9  UNL     1     -33.117   9.829   0.063  1.00 20.00     0.005 C 
ENDBRANCH   8  10
ENDBRANCH   3   5
TORSDOF 2
