REMARK  1 active torsions:
REMARK  status: ('A' for Active; 'I' for Inactive)
REMARK    1  A    between atoms: C3_3  and  C5_5 
ROOT
HETATM    1  C1  UNL     1     -32.340   9.416   0.406  1.00 20.00     0.021 C 
HETATM    2  C2  UNL     1     -32.406   8.621   1.304  1.00 20.00    -0.039 C 
HETATM    3  C3  UNL     1     -32.484   7.666   2.383  1.00 20.00     0.206 C 
HETATM    4  O8  UNL     1     -31.695   7.736   3.316  1.00 20.00    -0.283 OA
ENDROOT
BRANCH   3   5
HETATM    5  C5  UNL     1     -33.538   6.650   2.278  1.00 20.00     0.073 A 
HETATM    6  C4  UNL     1     -33.267   5.249   2.766  1.00 20.00     0.018 A 
HETATM    7  C6  UNL     1     -34.236   6.124   3.509  1.00 20.00    -0.006 A 
HETATM    8  C7  UNL     1     -33.902   6.610   4.878  1.00 20.00     0.011 C 
ENDBRANCH   3   5
TORSDOF 1
