REMARK  1 active torsions:
REMARK  status: ('A' for Active; 'I' for Inactive)
REMARK    1  A    between atoms: C3_3  and  C7_7 
ROOT
HETATM    1  C1  UNL     1     -32.999   9.450   0.504  1.00 20.00     0.021 C 
HETATM    2  C2  UNL     1     -32.854   8.938   1.580  1.00 20.00    -0.039 C 
HETATM    3  C3  UNL     1     -32.679   8.323   2.875  1.00 20.00     0.208 C 
HETATM    4  O10 UNL     1     -31.584   8.353   3.420  1.00 20.00    -0.283 OA
ENDROOT
BRANCH   3   5
HETATM    5  C7  UNL     1     -33.891   7.674   3.470  1.00 20.00     0.100 C 
HETATM    6  C6  UNL     1     -33.803   7.648   5.000  1.00 20.00     0.047 C 
HETATM    7  C8  UNL     1     -33.860   6.149   5.294  1.00 20.00     0.122 C 
HETATM    8  C4  UNL     1     -35.255   5.591   5.010  1.00 20.00     0.034 C 
HETATM    9  O11 UNL     1     -33.111   5.616   4.179  1.00 20.00    -0.380 OA
HETATM   10  C5  UNL     1     -35.297   5.594   3.480  1.00 20.00     0.035 C 
HETATM   11  C9  UNL     1     -33.932   6.181   3.126  1.00 20.00     0.134 C 
ENDBRANCH   3   5
TORSDOF 1
