REMARK  2 active torsions:
REMARK  status: ('A' for Active; 'I' for Inactive)
REMARK    1  A    between atoms: C2_2  and  C3_3 
REMARK    2  A    between atoms: C3_3  and  C7_7 
ROOT
HETATM    1  C4  UNL     1     -34.323   5.600   6.165  1.00 20.00     0.002 C 
HETATM    2  C5  UNL     1     -34.104   4.913   4.800  1.00 20.00     0.012 C 
HETATM    3  C6  UNL     1     -33.639   6.845   5.562  1.00 20.00     0.012 C 
HETATM    4  C7  UNL     1     -34.095   6.331   4.173  1.00 20.00     0.059 C 
ENDROOT
BRANCH   4   5
HETATM    5  C3  UNL     1     -33.139   6.536   3.071  1.00 20.00     0.152 C 
HETATM    6  O8  UNL     1     -32.559   5.587   2.547  1.00 20.00    -0.293 OA
BRANCH   5   7
HETATM    7  C2  UNL     1     -32.938   7.937   2.612  1.00 20.00     0.040 C 
HETATM    8  C1  UNL     1     -32.090   8.215   1.618  1.00 20.00     0.015 C 
ENDBRANCH   5   7
ENDBRANCH   4   5
TORSDOF 2
