REMARK  2 active torsions:
REMARK  status: ('A' for Active; 'I' for Inactive)
REMARK    1  A    between atoms: C3_3  and  C8_8 
REMARK    2  A    between atoms: C9_9  and  C12_12 
ROOT
HETATM    1  C1  UNL     1     -34.271   2.310   4.948  1.00 20.00     0.021 C 
HETATM    2  C2  UNL     1     -34.204   3.506   4.873  1.00 20.00    -0.039 C 
HETATM    3  C3  UNL     1     -34.124   4.945   4.784  1.00 20.00     0.205 C 
HETATM    4  O13 UNL     1     -33.924   5.607   5.794  1.00 20.00    -0.283 OA
ENDROOT
BRANCH   3   5
HETATM    5  C8  UNL     1     -34.299   5.545   3.398  1.00 20.00     0.069 C 
HETATM    6  C4  UNL     1     -34.965   6.912   3.516  1.00 20.00     0.013 C 
HETATM    7  C6  UNL     1     -34.026   8.014   4.008  1.00 20.00     0.006 C 
HETATM    8  C9  UNL     1     -32.705   8.076   3.231  1.00 20.00    -0.011 C 
HETATM    9  C7  UNL     1     -32.027   6.701   3.211  1.00 20.00     0.006 C 
HETATM   10  C5  UNL     1     -32.941   5.584   2.704  1.00 20.00     0.013 C 
BRANCH   8  11
HETATM   11  C12 UNL     1     -32.903   8.632   1.818  1.00 20.00    -0.019 C 
HETATM   12  C10 UNL     1     -33.509  10.033   1.873  1.00 20.00     0.010 C 
HETATM   13  C11 UNL     1     -31.579   8.649   1.058  1.00 20.00     0.010 C 
ENDBRANCH   8  11
ENDBRANCH   3   5
TORSDOF 2
