REMARK  3 active torsions:
REMARK  status: ('A' for Active; 'I' for Inactive)
REMARK    1  A    between atoms: C2_2  and  C8_8 
REMARK    2  A    between atoms: C6_6  and  C8_8 
REMARK    3  A    between atoms: C8_8  and  N9_9 
ROOT
HETATM    1  C8  UNL     1     -32.391   7.079   3.330  1.00 20.00     0.248 C 
ENDROOT
BRANCH   1   2
HETATM    2  C2  UNL     1     -32.965   7.341   4.695  1.00 20.00    -0.002 C 
HETATM    3  C1  UNL     1     -34.268   7.533   4.934  1.00 20.00     0.009 C 
ENDBRANCH   1   2
BRANCH   1   4
HETATM    4  C6  UNL     1     -32.056   8.369   2.606  1.00 20.00     0.048 C 
HETATM    5  C3  UNL     1     -31.519   8.173   1.205  1.00 20.00     0.035 C 
HETATM    6  C4  UNL     1     -31.749   9.540   0.595  1.00 20.00     0.168 C 
HETATM    7  O10 UNL     1     -32.920  10.083   1.221  1.00 20.00    -0.391 OA
HETATM    8  C5  UNL     1     -33.262   9.255   2.343  1.00 20.00     0.174 C 
ENDBRANCH   1   4
BRANCH   1   9
HETATM    9  N9  UNL     1     -33.357   6.303   2.587  1.00 20.00     0.087 N 
HETATM   10  C7  UNL     1     -33.306   4.891   2.960  1.00 20.00     0.307 C 
HETATM   11  H25 UNL     1     -33.171   6.384   1.584  1.00 20.00     0.316 HD
ENDBRANCH   1   9
TORSDOF 3
