REMARK  1 active torsions:
REMARK  status: ('A' for Active; 'I' for Inactive)
REMARK    1  A    between atoms: C3_3  and  C5_5 
ROOT
HETATM    1  C1  UNL     1     -32.973   9.763   0.688  1.00 20.00     0.021 C 
HETATM    2  C2  UNL     1     -32.810   9.005   1.605  1.00 20.00    -0.039 C 
HETATM    3  C3  UNL     1     -32.613   8.093   2.707  1.00 20.00     0.206 C 
HETATM    4  O8  UNL     1     -31.514   8.009   3.239  1.00 20.00    -0.283 OA
ENDROOT
BRANCH   3   5
HETATM    5  C5  UNL     1     -33.784   7.310   3.120  1.00 20.00     0.073 A 
HETATM    6  C4  UNL     1     -34.108   6.030   2.394  1.00 20.00     0.018 A 
HETATM    7  C6  UNL     1     -33.576   5.979   3.798  1.00 20.00    -0.006 A 
HETATM    8  C7  UNL     1     -34.463   5.564   4.921  1.00 20.00     0.011 C 
ENDBRANCH   3   5
TORSDOF 1
