REMARK  3 active torsions:
REMARK  status: ('A' for Active; 'I' for Inactive)
REMARK    1  A    between atoms: C7_7  and  C9_9 
REMARK    2  A    between atoms: C9_9  and  C10_10 
REMARK    3  A    between atoms: C10_10  and  N11_11 
ROOT
HETATM    1  C1  UNL     1     -33.667   6.878   6.128  1.00 20.00     0.029 C 
HETATM    2  C4  UNL     1     -34.160   5.435   6.135  1.00 20.00     0.023 C 
HETATM    3  C5  UNL     1     -34.482   7.735   5.172  1.00 20.00     0.235 C 
HETATM    4  C6  UNL     1     -34.910   5.713   3.721  1.00 20.00     0.254 C 
HETATM    5  C8  UNL     1     -34.205   4.817   4.739  1.00 20.00     0.108 C 
HETATM    6  N11 UNL     1     -34.464   7.157   3.780  1.00 20.00    -0.070 N 
HETATM    7 CL12 UNL     1     -32.564   4.364   4.190  1.00 20.00    -0.123 Cl
HETATM    8  H31 UNL     1     -35.232   7.702   3.255  1.00 20.00     0.279 HD
ENDROOT
BRANCH   6   9
HETATM    9  C10 UNL     1     -33.206   7.469   3.017  1.00 20.00     0.235 C 
BRANCH   9  10
HETATM   10  C9  UNL     1     -33.284   8.893   2.490  1.00 20.00     0.032 C 
BRANCH  10  11
HETATM   11  C7  UNL     1     -32.053   9.243   1.670  1.00 20.00    -0.013 A 
HETATM   12  C2  UNL     1     -32.029   8.981   0.190  1.00 20.00     0.005 A 
HETATM   13  C3  UNL     1     -32.091  10.393   0.702  1.00 20.00     0.005 A 
ENDBRANCH  10  11
ENDBRANCH   9  10
ENDBRANCH   6   9
TORSDOF 3
