REMARK  2 active torsions:
REMARK  status: ('A' for Active; 'I' for Inactive)
REMARK    1  A    between atoms: C5_5  and  C8_8 
REMARK    2  A    between atoms: C8_8  and  N9_9 
ROOT
HETATM    1  C1  UNL     1     -33.508   5.492   2.225  1.00 20.00     0.014 C 
HETATM    2  C2  UNL     1     -33.271   6.669   2.227  1.00 20.00    -0.081 C 
HETATM    3  C8  UNL     1     -32.955   8.117   2.246  1.00 20.00     0.301 C 
ENDROOT
BRANCH   3   4
HETATM    4  C5  UNL     1     -32.909   8.703   0.877  1.00 20.00     0.035 A 
HETATM    5  C3  UNL     1     -31.585   9.003   0.223  1.00 20.00     0.012 A 
HETATM    6  C4  UNL     1     -32.498  10.134   0.621  1.00 20.00    -0.011 A 
HETATM    7  C6  UNL     1     -32.109  11.063   1.719  1.00 20.00     0.010 C 
ENDBRANCH   3   4
BRANCH   3   8
HETATM    8  N9  UNL     1     -31.702   8.309   2.957  1.00 20.00     0.095 N 
HETATM    9  C7  UNL     1     -31.910   8.289   4.400  1.00 20.00     0.308 C 
HETATM   10  H22 UNL     1     -31.051   7.566   2.703  1.00 20.00     0.317 HD
ENDBRANCH   3   8
TORSDOF 2
