REMARK  2 active torsions:
REMARK  status: ('A' for Active; 'I' for Inactive)
REMARK    1  A    between atoms: C2_2  and  C3_3 
REMARK    2  A    between atoms: C3_3  and  C8_8 
ROOT
HETATM    1  C4  UNL     1     -34.201   6.456   5.916  1.00 20.00     0.027 C 
HETATM    2  C5  UNL     1     -33.175   7.225   5.091  1.00 20.00     0.017 C 
HETATM    3  C6  UNL     1     -34.631   5.186   5.194  1.00 20.00     0.167 C 
HETATM    4  C7  UNL     1     -34.139   6.098   3.063  1.00 20.00     0.180 C 
HETATM    5  C8  UNL     1     -33.676   7.423   3.661  1.00 20.00     0.083 C 
HETATM    6  O10 UNL     1     -35.130   5.489   3.891  1.00 20.00    -0.390 OA
ENDROOT
BRANCH   5   7
HETATM    7  C3  UNL     1     -32.590   8.021   2.822  1.00 20.00     0.154 C 
HETATM    8  O9  UNL     1     -31.408   7.760   3.032  1.00 20.00    -0.293 OA
BRANCH   7   9
HETATM    9  C2  UNL     1     -33.019   8.915   1.714  1.00 20.00     0.040 C 
HETATM   10  C1  UNL     1     -32.118   9.493   0.915  1.00 20.00     0.015 C 
ENDBRANCH   7   9
ENDBRANCH   5   7
TORSDOF 2
