REMARK  3 active torsions:
REMARK  status: ('A' for Active; 'I' for Inactive)
REMARK    1  A    between atoms: C3_3  and  C7_7 
REMARK    2  A    between atoms: C6_6  and  O9_9 
REMARK    3  A    between atoms: C7_7  and  O9_9 
ROOT
HETATM    1  C1  UNL     1     -34.687   4.580   5.311  1.00 20.00     0.021 C 
HETATM    2  C2  UNL     1     -34.044   4.985   4.382  1.00 20.00    -0.037 C 
HETATM    3  C3  UNL     1     -33.269   5.472   3.262  1.00 20.00     0.230 C 
HETATM    4  O8  UNL     1     -33.176   4.780   2.256  1.00 20.00    -0.281 OA
ENDROOT
BRANCH   3   5
HETATM    5  C7  UNL     1     -32.588   6.815   3.441  1.00 20.00     0.200 C 
HETATM    6  C5  UNL     1     -32.914   7.443   4.787  1.00 20.00     0.049 C 
BRANCH   5   7
HETATM    7  O9  UNL     1     -33.019   7.682   2.403  1.00 20.00    -0.378 OA
BRANCH   7   8
HETATM    8  C6  UNL     1     -32.120   8.768   2.221  1.00 20.00     0.164 C 
HETATM    9  C4  UNL     1     -32.633   9.652   1.105  1.00 20.00     0.033 C 
ENDBRANCH   7   8
ENDBRANCH   5   7
ENDBRANCH   3   5
TORSDOF 3
