REMARK  2 active torsions:
REMARK  status: ('A' for Active; 'I' for Inactive)
REMARK    1  A    between atoms: C3_3  and  C7_7 
REMARK    2  A    between atoms: C8_8  and  C10_10 
ROOT
HETATM    1  C1  UNL     1     -34.234   3.652   4.780  1.00 20.00     0.021 C 
HETATM    2  C2  UNL     1     -34.210   4.850   4.851  1.00 20.00    -0.039 C 
HETATM    3  C3  UNL     1     -34.183   6.291   4.937  1.00 20.00     0.205 C 
HETATM    4  O11 UNL     1     -34.531   6.846   5.971  1.00 20.00    -0.283 OA
ENDROOT
BRANCH   3   5
HETATM    5  C7  UNL     1     -33.707   7.030   3.698  1.00 20.00     0.069 C 
HETATM    6  C4  UNL     1     -33.276   6.098   2.571  1.00 20.00     0.013 C 
HETATM    7  C5  UNL     1     -32.451   6.993   1.650  1.00 20.00     0.005 C 
HETATM    8  C8  UNL     1     -31.861   8.082   2.547  1.00 20.00    -0.014 C 
HETATM    9  C6  UNL     1     -32.447   7.863   3.940  1.00 20.00     0.017 C 
BRANCH   8  10
HETATM   10  C10 UNL     1     -32.305   9.442   2.042  1.00 20.00     0.000 C 
HETATM   11  C9  UNL     1     -31.807   9.715   0.657  1.00 20.00     0.005 C 
ENDBRANCH   8  10
ENDBRANCH   3   5
TORSDOF 2
