REMARK  2 active torsions:
REMARK  status: ('A' for Active; 'I' for Inactive)
REMARK    1  A    between atoms: C3_3  and  C7_7 
REMARK    2  A    between atoms: C7_7  and  C8_8 
ROOT
HETATM    1  C1  UNL     1     -32.598   4.591   2.564  1.00 20.00     0.021 C 
HETATM    2  C2  UNL     1     -32.616   5.790   2.625  1.00 20.00    -0.040 C 
HETATM    3  C3  UNL     1     -32.636   7.233   2.697  1.00 20.00     0.202 C 
HETATM    4  O9  UNL     1     -32.033   7.797   3.601  1.00 20.00    -0.283 OA
ENDROOT
BRANCH   3   5
HETATM    5  C7  UNL     1     -33.419   7.960   1.625  1.00 20.00     0.101 C 
BRANCH   5   6
HETATM    6  C8  UNL     1     -32.608   9.004   0.823  1.00 20.00    -0.044 C 
HETATM    7  C4  UNL     1     -33.189   9.199  -0.587  1.00 20.00     0.015 C 
HETATM    8  C5  UNL     1     -31.164   8.483   0.686  1.00 20.00     0.015 C 
HETATM    9  C6  UNL     1     -32.571  10.358   1.550  1.00 20.00     0.015 C 
ENDBRANCH   5   6
ENDBRANCH   3   5
TORSDOF 2
