REMARK  4 active torsions:
REMARK  status: ('A' for Active; 'I' for Inactive)
REMARK    1  A    between atoms: C1_1  and  C5_5 
REMARK    2  A    between atoms: C1_1  and  C9_9 
REMARK    3  A    between atoms: C6_6  and  C10_10 
REMARK    4  A    between atoms: C9_9  and  C10_10 
ROOT
HETATM    1  C1  UNL     1     -33.307   6.318   3.301  1.00 20.00     0.131 C 
HETATM    2  O11 UNL     1     -32.887   5.535   2.450  1.00 20.00    -0.298 OA
ENDROOT
BRANCH   1   3
HETATM    3  C5  UNL     1     -34.641   6.098   3.967  1.00 20.00     0.059 A 
HETATM    4  C4  UNL     1     -34.685   6.073   5.455  1.00 20.00     0.017 A 
HETATM    5  C7  UNL     1     -34.911   4.812   4.669  1.00 20.00    -0.007 A 
HETATM    6  C8  UNL     1     -33.926   3.696   4.750  1.00 20.00     0.011 C 
ENDBRANCH   1   3
BRANCH   1   7
HETATM    7  C9  UNL     1     -32.534   7.547   3.743  1.00 20.00     0.079 C 
BRANCH   7   8
HETATM    8  C10 UNL     1     -31.678   8.134   2.624  1.00 20.00     0.012 C 
BRANCH   8   9
HETATM    9  C6  UNL     1     -32.523   8.523   1.422  1.00 20.00    -0.014 A 
HETATM   10  C2  UNL     1     -33.114   9.902   1.326  1.00 20.00     0.005 A 
HETATM   11  C3  UNL     1     -31.994   9.499   0.409  1.00 20.00     0.005 A 
ENDBRANCH   8   9
ENDBRANCH   7   8
ENDBRANCH   1   7
TORSDOF 4
