REMARK  5 active torsions:
REMARK  status: ('A' for Active; 'I' for Inactive)
REMARK    1  A    between atoms: C3_3  and  C5_5 
REMARK    2  A    between atoms: C5_5  and  C6_6 
REMARK    3  A    between atoms: C6_6  and  N9_9 
REMARK    4  A    between atoms: C7_7  and  C8_8 
REMARK    5  A    between atoms: C7_7  and  N9_9 
ROOT
HETATM    1  C6  UNL     1     -32.562   7.381   2.862  1.00 20.00     0.272 C 
ENDROOT
BRANCH   1   2
HETATM    2  C5  UNL     1     -33.171   8.710   2.433  1.00 20.00     0.034 C 
BRANCH   2   3
HETATM    3  C3  UNL     1     -32.387   9.383   1.316  1.00 20.00    -0.013 A 
HETATM    4  C1  UNL     1     -32.717   9.094  -0.123  1.00 20.00     0.005 A 
HETATM    5  C2  UNL     1     -33.035  10.440   0.466  1.00 20.00     0.005 A 
ENDBRANCH   2   3
ENDBRANCH   1   2
BRANCH   1   6
HETATM    6  N9  UNL     1     -33.320   6.742   3.903  1.00 20.00     0.085 N 
HETATM    7  C4  UNL     1     -33.415   7.595   5.098  1.00 20.00     0.309 C 
BRANCH   6   8
HETATM    8  C7  UNL     1     -34.673   6.391   3.443  1.00 20.00     0.286 C 
BRANCH   8   9
HETATM    9  C8  UNL     1     -35.255   5.205   4.194  1.00 20.00     0.144 C 
HETATM   10 CL10 UNL     1     -34.243   3.753   3.995  1.00 20.00    -0.129 Cl
ENDBRANCH   8   9
ENDBRANCH   6   8
ENDBRANCH   1   6
TORSDOF 5
