REMARK  2 active torsions:
REMARK  status: ('A' for Active; 'I' for Inactive)
REMARK    1  A    between atoms: C3_3  and  C7_7 
REMARK    2  A    between atoms: C8_8  and  C10_10 
ROOT
HETATM    1  C1  UNL     1     -33.165   9.875   0.967  1.00 20.00     0.021 C 
HETATM    2  C2  UNL     1     -33.051   9.013   1.795  1.00 20.00    -0.039 C 
HETATM    3  C3  UNL     1     -32.914   7.976   2.790  1.00 20.00     0.205 C 
HETATM    4  O11 UNL     1     -31.882   7.320   2.848  1.00 20.00    -0.283 OA
ENDROOT
BRANCH   3   5
HETATM    5  C7  UNL     1     -34.082   7.776   3.706  1.00 20.00     0.069 C 
HETATM    6  C4  UNL     1     -33.638   7.249   5.072  1.00 20.00     0.013 C 
HETATM    7  C5  UNL     1     -34.602   6.116   5.398  1.00 20.00     0.005 C 
HETATM    8  C8  UNL     1     -34.950   5.509   4.042  1.00 20.00    -0.014 C 
HETATM    9  C6  UNL     1     -35.050   6.735   3.130  1.00 20.00     0.017 C 
BRANCH   8  10
HETATM   10  C10 UNL     1     -33.896   4.513   3.562  1.00 20.00     0.000 C 
HETATM   11  C9  UNL     1     -33.771   3.342   4.486  1.00 20.00     0.005 C 
ENDBRANCH   8  10
ENDBRANCH   3   5
TORSDOF 2
