REMARK  3 active torsions:
REMARK  status: ('A' for Active; 'I' for Inactive)
REMARK    1  A    between atoms: C6_6  and  C10_10 
REMARK    2  A    between atoms: C7_7  and  C11_11 
REMARK    3  A    between atoms: C11_11  and  N12_12 
ROOT
HETATM    1  C1  UNL     1     -32.732   4.388   2.291  1.00 20.00     0.014 C 
HETATM    2  C2  UNL     1     -33.223   5.317   2.872  1.00 20.00    -0.081 C 
HETATM    3  C11 UNL     1     -33.829   6.451   3.584  1.00 20.00     0.301 C 
ENDROOT
BRANCH   3   4
HETATM    4  C7  UNL     1     -33.125   7.754   3.243  1.00 20.00     0.031 C 
HETATM    5  C4  UNL     1     -31.640   7.742   3.601  1.00 20.00     0.008 C 
HETATM    6  C3  UNL     1     -31.069   8.837   2.716  1.00 20.00     0.005 C 
HETATM    7  C6  UNL     1     -31.764   8.592   1.378  1.00 20.00    -0.014 C 
HETATM    8  C5  UNL     1     -33.172   8.096   1.746  1.00 20.00     0.012 C 
BRANCH   7   9
HETATM    9  C10 UNL     1     -31.775   9.819   0.481  1.00 20.00     0.000 C 
HETATM   10  C8  UNL     1     -32.470   9.556  -0.818  1.00 20.00     0.005 C 
ENDBRANCH   7   9
ENDBRANCH   3   4
BRANCH   3  11
HETATM   11  N12 UNL     1     -33.794   6.211   5.006  1.00 20.00     0.095 N 
HETATM   12  C9  UNL     1     -34.868   5.312   5.423  1.00 20.00     0.308 C 
HETATM   13  H31 UNL     1     -33.895   7.096   5.513  1.00 20.00     0.317 HD
ENDBRANCH   3  11
TORSDOF 3
