REMARK  1 active torsions:
REMARK  status: ('A' for Active; 'I' for Inactive)
REMARK    1  A    between atoms: C3_3  and  C8_8 
ROOT
HETATM    1  C1  UNL     1     -33.916   7.542   4.779  1.00 20.00     0.016 A 
HETATM    2  C2  UNL     1     -34.576   6.316   5.084  1.00 20.00     0.015 A 
HETATM    3  C3  UNL     1     -33.018   7.402   3.744  1.00 20.00    -0.012 A 
HETATM    4  C4  UNL     1     -34.157   5.286   4.270  1.00 20.00    -0.021 A 
HETATM    5  C10 UNL     1     -34.598   3.875   4.270  1.00 20.00     0.056 C 
HETATM    6  S11 UNL     1     -32.972   5.799   3.145  1.00 20.00    -0.099 SA
ENDROOT
BRANCH   3   7
HETATM    7  C8  UNL     1     -32.125   8.455   3.124  1.00 20.00     0.040 C 
HETATM    8  C6  UNL     1     -30.627   8.137   3.281  1.00 20.00     0.011 C 
HETATM    9  C5  UNL     1     -29.982   8.836   2.095  1.00 20.00     0.002 C 
HETATM   10  C7  UNL     1     -30.955   8.552   0.960  1.00 20.00     0.016 C 
HETATM   11  C9  UNL     1     -32.337   8.635   1.606  1.00 20.00     0.067 C 
HETATM   12 BR12 UNL     1     -33.126  10.395   1.251  1.00 20.00    -0.090 Br
ENDBRANCH   3   7
TORSDOF 1
