REMARK  1 active torsions:
REMARK  status: ('A' for Active; 'I' for Inactive)
REMARK    1  A    between atoms: C3_3  and  C8_8 
ROOT
HETATM    1  C1  UNL     1     -32.238   7.815   3.047  1.00 20.00     0.016 A 
HETATM    2  C2  UNL     1     -31.842   8.823   2.122  1.00 20.00     0.015 A 
HETATM    3  C3  UNL     1     -33.390   7.173   2.651  1.00 20.00    -0.012 A 
HETATM    4  C4  UNL     1     -32.707   8.913   1.053  1.00 20.00    -0.021 A 
HETATM    5  C10 UNL     1     -32.643   9.826  -0.108  1.00 20.00     0.056 C 
HETATM    6  S11 UNL     1     -33.991   7.786   1.169  1.00 20.00    -0.099 SA
ENDROOT
BRANCH   3   7
HETATM    7  C8  UNL     1     -34.132   6.053   3.349  1.00 20.00     0.040 C 
HETATM    8  C6  UNL     1     -33.387   4.729   3.580  1.00 20.00     0.011 C 
HETATM    9  C5  UNL     1     -34.214   3.978   4.623  1.00 20.00     0.002 C 
HETATM   10  C7  UNL     1     -35.160   5.003   5.253  1.00 20.00     0.016 C 
HETATM   11  C9  UNL     1     -34.700   6.364   4.742  1.00 20.00     0.067 C 
HETATM   12 BR12 UNL     1     -33.347   7.088   5.960  1.00 20.00    -0.090 Br
ENDBRANCH   3   7
TORSDOF 1
