REMARK  4 active torsions:
REMARK  status: ('A' for Active; 'I' for Inactive)
REMARK    1  A    between atoms: C1_1  and  C5_5 
REMARK       I    between atoms: C1_1  and  N8_8 
REMARK    2  A    between atoms: C5_5  and  S10_10 
REMARK    3  A    between atoms: C6_6  and  N8_8 
REMARK    4  A    between atoms: C7_7  and  N8_8 
ROOT
HETATM    1  C1  UNL     1     -33.181   7.338   4.155  1.00 20.00     0.229 C 
HETATM    2  N8  UNL     1     -33.300   7.062   2.785  1.00 20.00    -0.348 N 
HETATM    3  O9  UNL     1     -32.207   7.922   4.637  1.00 20.00    -0.273 OA
ENDROOT
BRANCH   2   4
HETATM    4  C6  UNL     1     -34.027   5.900   2.280  1.00 20.00     0.121 C 
HETATM    5  C2  UNL     1     -33.127   4.719   2.144  1.00 20.00     0.026 C 
ENDBRANCH   2   4
BRANCH   2   6
HETATM    6  C7  UNL     1     -32.707   7.914   1.762  1.00 20.00     0.079 C 
HETATM    7  C3  UNL     1     -31.197   7.947   1.953  1.00 20.00     0.032 C 
HETATM    8  C4  UNL     1     -33.318   9.304   1.863  1.00 20.00     0.032 C 
ENDBRANCH   2   6
BRANCH   1   9
HETATM    9  C5  UNL     1     -34.337   6.868   5.021  1.00 20.00     0.173 C 
BRANCH   9  10
HETATM   10  S10 UNL     1     -34.081   5.187   5.643  1.00 20.00    -0.173 SA
HETATM   11  H25 UNL     1     -35.231   5.108   6.327  1.00 20.00     0.102 HD
ENDBRANCH   9  10
ENDBRANCH   1   9
TORSDOF 4
