REMARK  1 active torsions:
REMARK  status: ('A' for Active; 'I' for Inactive)
REMARK    1  A    between atoms: C3_3  and  C9_9 
ROOT
HETATM    1  C1  UNL     1     -32.735   6.356   1.750  1.00 20.00     0.016 A 
HETATM    2  C2  UNL     1     -33.604   5.568   2.559  1.00 20.00     0.015 A 
HETATM    3  C3  UNL     1     -32.744   7.682   2.120  1.00 20.00    -0.013 A 
HETATM    4  C4  UNL     1     -34.245   6.323   3.516  1.00 20.00    -0.021 A 
HETATM    5  C10 UNL     1     -35.216   5.880   4.540  1.00 20.00     0.056 C 
HETATM    6  S12 UNL     1     -33.798   7.975   3.438  1.00 20.00    -0.099 SA
ENDROOT
BRANCH   3   7
HETATM    7  C9  UNL     1     -31.964   8.839   1.515  1.00 20.00     0.033 C 
HETATM    8  C7  UNL     1     -31.697   8.772   0.004  1.00 20.00     0.088 C 
HETATM    9  C5  UNL     1     -32.856   9.549  -0.573  1.00 20.00     0.127 C 
HETATM   10  C6  UNL     1     -33.627  10.295   0.484  1.00 20.00     0.079 C 
HETATM   11  O11 UNL     1     -33.138   9.569  -1.764  1.00 20.00    -0.298 OA
HETATM   12  C8  UNL     1     -32.703  10.174   1.692  1.00 20.00     0.018 C 
ENDBRANCH   3   7
TORSDOF 1
