REMARK  4 active torsions:
REMARK  status: ('A' for Active; 'I' for Inactive)
REMARK    1  A    between atoms: C1_1  and  C8_8 
REMARK    2  A    between atoms: C1_1  and  O11_11 
REMARK    3  A    between atoms: C4_4  and  C8_8 
REMARK    4  A    between atoms: C8_8  and  N9_9 
ROOT
HETATM    1  C8  UNL     1     -33.405   7.767   2.606  1.00 20.00     0.324 C 
ENDROOT
BRANCH   1   2
HETATM    2  C1  UNL     1     -33.075   7.832   4.090  1.00 20.00     0.292 C 
HETATM    3  O10 UNL     1     -32.002   8.252   4.511  1.00 20.00    -0.263 OA
BRANCH   2   4
HETATM    4  O11 UNL     1     -34.100   7.383   4.867  1.00 20.00    -0.325 OA
HETATM    5  C7  UNL     1     -33.873   7.420   6.280  1.00 20.00     0.213 C 
ENDBRANCH   2   4
ENDBRANCH   1   2
BRANCH   1   6
HETATM    6  C4  UNL     1     -32.232   8.273   1.780  1.00 20.00     0.029 A 
HETATM    7  C2  UNL     1     -32.460   8.828   0.402  1.00 20.00     0.008 A 
HETATM    8  C3  UNL     1     -32.066   9.745   1.526  1.00 20.00     0.008 A 
ENDBRANCH   1   6
BRANCH   1   9
HETATM    9  N9  UNL     1     -33.769   6.435   2.195  1.00 20.00     0.094 N 
HETATM   10  C5  UNL     1     -35.165   6.133   2.542  1.00 20.00     0.310 C 
HETATM   11  C6  UNL     1     -32.882   5.430   2.800  1.00 20.00     0.310 C 
ENDBRANCH   1   9
TORSDOF 4
