REMARK  5 active torsions:
REMARK  status: ('A' for Active; 'I' for Inactive)
REMARK    1  A    between atoms: C3_3  and  C5_5 
REMARK    2  A    between atoms: C3_3  and  C7_7 
REMARK    3  A    between atoms: C4_4  and  C6_6 
REMARK    4  A    between atoms: C4_4  and  C7_7 
REMARK    5  A    between atoms: C5_5  and  S8_8 
ROOT
HETATM    1  C1  UNL     1     -32.638   7.353   4.472  1.00 20.00     0.010 C 
HETATM    2  C7  UNL     1     -33.606   7.157   3.299  1.00 20.00    -0.017 C 
ENDROOT
BRANCH   2   3
HETATM    3  C3  UNL     1     -32.991   7.652   1.972  1.00 20.00     0.014 C 
BRANCH   3   4
HETATM    4  C5  UNL     1     -32.665   9.145   1.934  1.00 20.00     0.073 C 
BRANCH   4   5
HETATM    5  S8  UNL     1     -31.942   9.596   0.328  1.00 20.00    -0.173 SA
HETATM    6  C2  UNL     1     -33.468   9.647  -0.639  1.00 20.00     0.089 C 
ENDBRANCH   4   5
ENDBRANCH   3   4
ENDBRANCH   2   3
BRANCH   2   7
HETATM    7  C4  UNL     1     -34.090   5.692   3.269  1.00 20.00     0.019 C 
BRANCH   7   8
HETATM    8  C6  UNL     1     -35.245   5.351   4.207  1.00 20.00     0.115 C 
HETATM    9 CL9  UNL     1     -34.849   5.683   5.908  1.00 20.00    -0.130 Cl
ENDBRANCH   7   8
ENDBRANCH   2   7
TORSDOF 5
