REMARK  1 active torsions:
REMARK  status: ('A' for Active; 'I' for Inactive)
REMARK    1  A    between atoms: C3_3  and  C8_8 
ROOT
HETATM    1  C1  UNL     1     -32.287   7.207   1.994  1.00 20.00     0.016 A 
HETATM    2  C2  UNL     1     -31.967   8.465   1.407  1.00 20.00     0.015 A 
HETATM    3  C3  UNL     1     -33.570   7.181   2.496  1.00 20.00    -0.013 A 
HETATM    4  C4  UNL     1     -33.018   9.353   1.481  1.00 20.00    -0.021 A 
HETATM    5  C10 UNL     1     -33.082  10.747   0.989  1.00 20.00     0.056 C 
HETATM    6  S11 UNL     1     -34.383   8.670   2.257  1.00 20.00    -0.099 SA
ENDROOT
BRANCH   3   7
HETATM    7  C8  UNL     1     -34.287   6.043   3.191  1.00 20.00     0.027 C 
HETATM    8  C5  UNL     1     -33.453   4.758   3.313  1.00 20.00     0.011 C 
HETATM    9  C6  UNL     1     -34.074   3.947   4.455  1.00 20.00     0.016 C 
HETATM   10  C9  UNL     1     -35.031   4.888   5.177  1.00 20.00     0.058 C 
HETATM   11  C7  UNL     1     -34.717   6.280   4.648  1.00 20.00     0.025 C 
HETATM   12 BR12 UNL     1     -36.884   4.414   4.766  1.00 20.00    -0.091 Br
ENDBRANCH   3   7
TORSDOF 1
