REMARK  1 active torsions:
REMARK  status: ('A' for Active; 'I' for Inactive)
REMARK    1  A    between atoms: C3_3  and  C6_6 
ROOT
HETATM    1  C1  UNL     1     -32.515   8.945   1.079  1.00 20.00     0.087 C 
HETATM    2  C5  UNL     1     -32.915   7.747   1.732  1.00 20.00     0.095 C 
HETATM    3  C6  UNL     1     -33.146   7.663   3.089  1.00 20.00     0.032 C 
HETATM    4  N8  UNL     1     -32.190   9.920   0.541  1.00 20.00    -0.192 NA
ENDROOT
BRANCH   3   5
HETATM    5  C3  UNL     1     -33.534   6.521   3.819  1.00 20.00     0.031 A 
HETATM    6  C4  UNL     1     -33.760   6.360   5.169  1.00 20.00     0.048 A 
HETATM    7  C7  UNL     1     -33.639   7.406   6.208  1.00 20.00     0.072 C 
HETATM    8  N9  UNL     1     -34.134   5.093   5.572  1.00 20.00    -0.258 NA
HETATM    9  C2  UNL     1     -34.186   4.310   4.517  1.00 20.00     0.167 A 
HETATM   10  S10 UNL     1     -33.796   5.032   3.010  1.00 20.00    -0.081 SA
ENDBRANCH   3   5
TORSDOF 1
