REMARK  3 active torsions:
REMARK  status: ('A' for Active; 'I' for Inactive)
REMARK    1  A    between atoms: C4_4  and  C9_9 
REMARK    2  A    between atoms: C7_7  and  C8_8 
REMARK    3  A    between atoms: C7_7  and  N10_10 
ROOT
HETATM    1  C1  UNL     1     -33.052   7.812   5.740  1.00 20.00     0.032 C 
HETATM    2  C2  UNL     1     -33.445   6.407   5.294  1.00 20.00     0.038 C 
HETATM    3  C3  UNL     1     -32.673   8.542   4.463  1.00 20.00     0.273 C 
HETATM    4  C4  UNL     1     -33.281   6.405   3.773  1.00 20.00     0.226 C 
HETATM    5  N10 UNL     1     -33.425   7.826   3.429  1.00 20.00     0.094 N 
ENDROOT
BRANCH   4   6
HETATM    6  C9  UNL     1     -34.311   5.511   3.095  1.00 20.00     0.011 C 
HETATM    7  C5  UNL     1     -34.152   4.061   3.551  1.00 20.00     0.011 C 
HETATM    8  C6  UNL     1     -35.728   6.008   3.378  1.00 20.00     0.011 C 
ENDBRANCH   4   6
BRANCH   5   9
HETATM    9  C7  UNL     1     -32.938   8.150   2.094  1.00 20.00     0.287 C 
BRANCH   9  10
HETATM   10  C8  UNL     1     -33.126   9.616   1.743  1.00 20.00     0.144 C 
HETATM   11 CL11 UNL     1     -32.526   9.972   0.105  1.00 20.00    -0.129 Cl
ENDBRANCH   9  10
ENDBRANCH   5   9
TORSDOF 3
