REMARK  0 active torsions:
REMARK  status: ('A' for Active; 'I' for Inactive)
ROOT
HETATM    1  C1  UNL     1     -32.534   8.637   1.402  1.00 20.00     0.002 C 
HETATM    2  C2  UNL     1     -31.886   7.557   2.304  1.00 20.00     0.015 C 
HETATM    3  C3  UNL     1     -33.340   9.104   2.641  1.00 20.00     0.015 C 
HETATM    4  C4  UNL     1     -34.351   5.194   4.902  1.00 20.00     0.036 C 
HETATM    5  C5  UNL     1     -33.605   4.551   3.738  1.00 20.00     0.168 C 
HETATM    6  C6  UNL     1     -34.318   6.694   4.623  1.00 20.00     0.050 C 
HETATM    7  C7  UNL     1     -32.944   7.436   4.690  1.00 20.00     0.178 C 
HETATM    8  C8  UNL     1     -34.227   6.712   3.073  1.00 20.00     0.139 C 
HETATM    9  C9  UNL     1     -33.091   7.717   3.212  1.00 20.00     0.016 C 
HETATM   10  O10 UNL     1     -32.989   8.555   5.535  1.00 20.00    -0.234 OA
HETATM   11  O11 UNL     1     -33.916   5.375   2.609  1.00 20.00    -0.385 OA
ENDROOT
TORSDOF 0
