REMARK  2 active torsions:
REMARK  status: ('A' for Active; 'I' for Inactive)
REMARK    1  A    between atoms: C6_6  and  C7_7 
REMARK    2  A    between atoms: C7_7  and  N8_8 
ROOT
HETATM    1  C1  UNL     1     -32.333   9.234   1.400  1.00 20.00     0.157 C 
HETATM    2  N8  UNL     1     -32.169   8.710   2.441  1.00 20.00    -0.274 NA
HETATM    3  S9  UNL     1     -32.554   9.964   0.002  1.00 20.00    -0.055 SA
ENDROOT
BRANCH   2   4
HETATM    4  C7  UNL     1     -32.172   7.251   2.407  1.00 20.00     0.165 C 
BRANCH   4   5
HETATM    5  C6  UNL     1     -33.296   6.744   3.306  1.00 20.00     0.067 C 
HETATM    6  C4  UNL     1     -33.099   7.218   4.749  1.00 20.00     0.017 C 
HETATM    7  C2  UNL     1     -34.223   6.777   5.684  1.00 20.00     0.002 C 
HETATM    8  C3  UNL     1     -34.366   5.260   5.767  1.00 20.00     0.010 C 
HETATM    9  C5  UNL     1     -34.667   4.615   4.421  1.00 20.00     0.074 C 
HETATM   10  S10 UNL     1     -33.344   4.920   3.217  1.00 20.00    -0.163 SA
ENDBRANCH   4   5
ENDBRANCH   2   4
TORSDOF 2
