REMARK  2 active torsions:
REMARK  status: ('A' for Active; 'I' for Inactive)
REMARK    1  A    between atoms: C6_6  and  C7_7 
REMARK    2  A    between atoms: C7_7  and  N8_8 
ROOT
HETATM    1  C1  UNL     1     -32.322   9.268   2.079  1.00 20.00     0.157 C 
HETATM    2  N8  UNL     1     -31.899   8.555   2.914  1.00 20.00    -0.274 NA
HETATM    3  S9  UNL     1     -32.880  10.250   0.956  1.00 20.00    -0.055 SA
ENDROOT
BRANCH   2   4
HETATM    4  C7  UNL     1     -32.450   7.204   2.911  1.00 20.00     0.165 C 
BRANCH   4   5
HETATM    5  C6  UNL     1     -33.686   7.177   3.811  1.00 20.00     0.067 C 
HETATM    6  C4  UNL     1     -34.588   5.975   3.494  1.00 20.00     0.017 C 
HETATM    7  C2  UNL     1     -34.137   4.675   4.152  1.00 20.00     0.002 C 
HETATM    8  C3  UNL     1     -34.234   4.705   5.679  1.00 20.00     0.010 C 
HETATM    9  C5  UNL     1     -34.299   6.093   6.305  1.00 20.00     0.074 C 
HETATM   10  S10 UNL     1     -33.115   7.241   5.553  1.00 20.00    -0.163 SA
ENDBRANCH   4   5
ENDBRANCH   2   4
TORSDOF 2
