REMARK  2 active torsions:
REMARK  status: ('A' for Active; 'I' for Inactive)
REMARK    1  A    between atoms: C1_1  and  C7_7 
REMARK    2  A    between atoms: C3_3  and  C7_7 
ROOT
HETATM    1  C2  UNL     1     -34.774   6.611   2.688  1.00 20.00     0.015 A 
HETATM    2  C3  UNL     1     -33.301   6.826   2.467  1.00 20.00     0.004 A 
HETATM    3  C4  UNL     1     -33.775   5.904   3.579  1.00 20.00    -0.043 A 
HETATM    4  C5  UNL     1     -33.575   4.424   3.376  1.00 20.00     0.015 C 
HETATM    5  C6  UNL     1     -33.675   6.342   5.016  1.00 20.00     0.015 C 
ENDROOT
BRANCH   2   6
HETATM    6  C7  UNL     1     -32.686   8.157   2.733  1.00 20.00     0.118 C 
BRANCH   6   7
HETATM    7  C1  UNL     1     -32.388   9.029   1.496  1.00 20.00     0.172 C 
HETATM    8  O8  UNL     1     -31.541   8.561   0.686  1.00 20.00    -0.648 OA
HETATM    9  O9  UNL     1     -33.033  10.116   1.441  1.00 20.00    -0.648 OA
ENDBRANCH   6   7
ENDBRANCH   2   6
TORSDOF 2
