REMARK  2 active torsions:
REMARK  status: ('A' for Active; 'I' for Inactive)
REMARK    1  A    between atoms: C4_4  and  C7_7 
REMARK    2  A    between atoms: C5_5  and  C8_8 
ROOT
HETATM    1  C1  UNL     1     -32.605   7.546   4.680  1.00 20.00     0.005 C 
HETATM    2  C2  UNL     1     -31.622   8.277   3.780  1.00 20.00     0.006 C 
HETATM    3  C3  UNL     1     -33.365   7.316   2.382  1.00 20.00     0.010 C 
HETATM    4  C4  UNL     1     -33.281   6.568   3.721  1.00 20.00    -0.014 C 
HETATM    5  C5  UNL     1     -32.444   8.539   2.519  1.00 20.00    -0.000 C 
ENDROOT
BRANCH   4   6
HETATM    6  C7  UNL     1     -34.630   6.081   4.224  1.00 20.00     0.000 C 
HETATM    7  C6  UNL     1     -34.515   5.363   5.531  1.00 20.00     0.005 C 
ENDBRANCH   4   6
BRANCH   5   8
HETATM    8  C8  UNL     1     -31.583   8.784   1.290  1.00 20.00     0.119 C 
HETATM    9 CL9  UNL     1     -32.606   9.068  -0.132  1.00 20.00    -0.130 Cl
ENDBRANCH   5   8
TORSDOF 2
