REMARK  0 active torsions:
REMARK  status: ('A' for Active; 'I' for Inactive)
ROOT
HETATM    1  C1  UNL     1     -32.553   7.877   3.943  1.00 20.00     0.066 C 
HETATM    2  C2  UNL     1     -33.342   5.416   2.417  1.00 20.00     0.038 C 
HETATM    3  C3  UNL     1     -33.366   4.385   3.545  1.00 20.00     0.273 C 
HETATM    4  C4  UNL     1     -33.796   6.090   5.192  1.00 20.00     0.292 C 
HETATM    5  C5  UNL     1     -35.377   5.533   3.577  1.00 20.00     0.278 C 
HETATM    6  C6  UNL     1     -33.841   7.208   4.142  1.00 20.00     0.127 C 
HETATM    7  C7  UNL     1     -34.360   6.449   2.913  1.00 20.00     0.035 C 
HETATM    8  N8  UNL     1     -31.533   8.407   3.784  1.00 20.00    -0.197 NA
HETATM    9  N9  UNL     1     -34.386   4.907   4.496  1.00 20.00     0.090 N 
ENDROOT
TORSDOF 0
