REMARK  2 active torsions:
REMARK  status: ('A' for Active; 'I' for Inactive)
REMARK    1  A    between atoms: C1_1  and  C7_7 
REMARK    2  A    between atoms: C8_8  and  C10_10 
ROOT
HETATM    1  C2  UNL     1     -31.961   7.672   4.008  1.00 20.00     0.001 C 
HETATM    2  C3  UNL     1     -33.357   7.326   4.514  1.00 20.00     0.011 C 
HETATM    3  C4  UNL     1     -34.304   6.098   2.451  1.00 20.00     0.012 C 
HETATM    4  C5  UNL     1     -31.913   8.453   2.697  1.00 20.00     0.004 C 
HETATM    5  C6  UNL     1     -33.227   6.600   1.488  1.00 20.00     0.005 C 
HETATM    6  C7  UNL     1     -33.887   6.018   3.919  1.00 20.00     0.047 C 
HETATM    7  C8  UNL     1     -32.958   8.105   1.627  1.00 20.00    -0.015 C 
ENDROOT
BRANCH   6   8
HETATM    8  C1  UNL     1     -35.081   5.576   4.715  1.00 20.00     0.235 C 
HETATM    9  O11 UNL     1     -35.051   5.380   5.926  1.00 20.00    -0.306 OA
ENDBRANCH   6   8
BRANCH   7  10
HETATM   10  C10 UNL     1     -32.508   8.690   0.282  1.00 20.00     0.000 C 
HETATM   11  C9  UNL     1     -32.287  10.162   0.374  1.00 20.00     0.005 C 
ENDBRANCH   7  10
TORSDOF 2
