REMARK  2 active torsions:
REMARK  status: ('A' for Active; 'I' for Inactive)
REMARK    1  A    between atoms: C1_1  and  C7_7 
REMARK    2  A    between atoms: C8_8  and  C10_10 
ROOT
HETATM    1  C2  UNL     1     -32.556   7.728   4.906  1.00 20.00     0.001 C 
HETATM    2  C3  UNL     1     -34.057   7.439   4.913  1.00 20.00     0.011 C 
HETATM    3  C4  UNL     1     -33.549   6.181   2.684  1.00 20.00     0.012 C 
HETATM    4  C5  UNL     1     -32.072   8.645   3.776  1.00 20.00     0.004 C 
HETATM    5  C6  UNL     1     -33.130   7.360   1.808  1.00 20.00     0.005 C 
HETATM    6  C7  UNL     1     -34.557   6.512   3.788  1.00 20.00     0.047 C 
HETATM    7  C8  UNL     1     -32.944   8.710   2.514  1.00 20.00    -0.015 C 
ENDROOT
BRANCH   6   8
HETATM    8  C1  UNL     1     -35.009   5.220   4.404  1.00 20.00     0.235 C 
HETATM    9  O11 UNL     1     -34.551   4.125   4.093  1.00 20.00    -0.306 OA
ENDBRANCH   6   8
BRANCH   7  10
HETATM   10  C10 UNL     1     -32.351   9.725   1.527  1.00 20.00     0.000 C 
HETATM   11  C9  UNL     1     -33.210   9.874   0.317  1.00 20.00     0.005 C 
ENDBRANCH   7  10
TORSDOF 2
