REMARK  2 active torsions:
REMARK  status: ('A' for Active; 'I' for Inactive)
REMARK    1  A    between atoms: C4_4  and  C8_8 
REMARK    2  A    between atoms: C5_5  and  C9_9 
ROOT
HETATM    1  C1  UNL     1     -32.051   8.271   3.244  1.00 20.00     0.032 C 
HETATM    2  C2  UNL     1     -33.640   6.639   2.207  1.00 20.00     0.043 C 
HETATM    3  C3  UNL     1     -32.484   7.743   4.603  1.00 20.00     0.169 C 
HETATM    4  C4  UNL     1     -33.168   8.099   2.213  1.00 20.00     0.004 C 
HETATM    5  C5  UNL     1     -33.986   6.126   3.619  1.00 20.00     0.057 C 
HETATM    6  C6  UNL     1     -35.295   6.728   4.150  1.00 20.00     0.046 C 
HETATM    7  O10 UNL     1     -32.903   6.382   4.525  1.00 20.00    -0.381 OA
ENDROOT
BRANCH   5   8
HETATM    8  C9  UNL     1     -34.144   4.600   3.574  1.00 20.00     0.033 C 
HETATM    9  C7  UNL     1     -34.480   4.048   4.917  1.00 20.00     0.008 C 
ENDBRANCH   5   8
BRANCH   4  10
HETATM   10  C8  UNL     1     -32.701   8.528   0.823  1.00 20.00     0.119 C 
HETATM   11 CL11 UNL     1     -32.226  10.236   0.840  1.00 20.00    -0.130 Cl
ENDBRANCH   4  10
TORSDOF 2
