REMARK  2 active torsions:
REMARK  status: ('A' for Active; 'I' for Inactive)
REMARK    1  A    between atoms: C1_1  and  C7_7 
REMARK    2  A    between atoms: C8_8  and  C11_11 
ROOT
HETATM    1  C2  UNL     1     -33.222   5.278   2.432  1.00 20.00     0.001 C 
HETATM    2  C3  UNL     1     -34.394   5.687   3.323  1.00 20.00     0.011 C 
HETATM    3  C4  UNL     1     -32.703   7.423   4.289  1.00 20.00     0.012 C 
HETATM    4  C5  UNL     1     -32.771   6.336   1.418  1.00 20.00     0.005 C 
HETATM    5  C6  UNL     1     -32.511   8.308   3.058  1.00 20.00     0.005 C 
HETATM    6  C7  UNL     1     -34.070   6.743   4.397  1.00 20.00     0.047 C 
HETATM    7  C8  UNL     1     -33.112   7.798   1.742  1.00 20.00    -0.011 C 
ENDROOT
BRANCH   7   8
HETATM    8  C11 UNL     1     -32.659   8.703   0.589  1.00 20.00    -0.019 C 
HETATM    9  C9  UNL     1     -33.023  10.155   0.881  1.00 20.00     0.010 C 
HETATM   10  C10 UNL     1     -31.160   8.556   0.357  1.00 20.00     0.010 C 
ENDBRANCH   7   8
BRANCH   6  11
HETATM   11  C1  UNL     1     -34.154   6.088   5.746  1.00 20.00     0.235 C 
HETATM   12  O12 UNL     1     -34.393   4.895   5.905  1.00 20.00    -0.306 OA
ENDBRANCH   6  11
TORSDOF 2
