REMARK  1 active torsions:
REMARK  status: ('A' for Active; 'I' for Inactive)
REMARK    1  A    between atoms: C6_6  and  C10_10 
ROOT
HETATM    1  C1  UNL     1     -33.449   7.652   4.858  1.00 20.00     0.001 C 
HETATM    2  C2  UNL     1     -32.320   7.740   3.832  1.00 20.00     0.005 C 
HETATM    3  C3  UNL     1     -33.005   6.054   1.990  1.00 20.00     0.006 C 
HETATM    4  C4  UNL     1     -33.874   6.238   5.239  1.00 20.00     0.008 C 
HETATM    5  C5  UNL     1     -33.299   5.018   3.075  1.00 20.00     0.009 C 
HETATM    6  C6  UNL     1     -32.806   7.523   2.395  1.00 20.00    -0.001 C 
HETATM    7  C7  UNL     1     -34.402   5.318   4.114  1.00 20.00    -0.048 C 
HETATM    8  C8  UNL     1     -34.783   3.972   4.783  1.00 20.00     0.015 C 
HETATM    9  C9  UNL     1     -35.677   5.882   3.468  1.00 20.00     0.015 C 
ENDROOT
BRANCH   6  10
HETATM   10  C10 UNL     1     -31.841   8.192   1.406  1.00 20.00     0.119 C 
HETATM   11 CL11 UNL     1     -32.180   9.927   1.317  1.00 20.00    -0.130 Cl
ENDBRANCH   6  10
TORSDOF 1
