REMARK  2 active torsions:
REMARK  status: ('A' for Active; 'I' for Inactive)
REMARK    1  A    between atoms: C5_5  and  C6_6 
REMARK    2  A    between atoms: C6_6  and  S8_8 
ROOT
HETATM    1  C1  UNL     1     -34.328   6.670   6.259  1.00 20.00     0.027 C 
HETATM    2  C2  UNL     1     -33.107   7.119   5.462  1.00 20.00     0.009 C 
HETATM    3  C3  UNL     1     -34.944   5.421   5.643  1.00 20.00     0.167 C 
HETATM    4  C4  UNL     1     -34.115   5.943   3.486  1.00 20.00     0.172 C 
HETATM    5  C5  UNL     1     -33.449   7.233   3.971  1.00 20.00     0.019 C 
HETATM    6  O7  UNL     1     -35.269   5.642   4.272  1.00 20.00    -0.391 OA
ENDROOT
BRANCH   5   7
HETATM    7  C6  UNL     1     -32.209   7.558   3.146  1.00 20.00     0.077 C 
BRANCH   7   8
HETATM    8  S8  UNL     1     -32.685   8.264   1.548  1.00 20.00    -0.182 SA
HETATM    9  H20 UNL     1     -31.438   8.432   1.085  1.00 20.00     0.101 HD
ENDBRANCH   7   8
ENDBRANCH   5   7
TORSDOF 2
