REMARK  1 active torsions:
REMARK  status: ('A' for Active; 'I' for Inactive)
REMARK    1  A    between atoms: C1_1  and  C7_7 
ROOT
HETATM    1  C2  UNL     1     -32.035   8.108   4.277  1.00 20.00     0.001 C 
HETATM    2  C3  UNL     1     -33.236   7.217   4.581  1.00 20.00     0.011 C 
HETATM    3  C4  UNL     1     -34.046   6.314   2.349  1.00 20.00     0.012 C 
HETATM    4  C5  UNL     1     -31.442   8.086   2.868  1.00 20.00     0.008 C 
HETATM    5  C6  UNL     1     -33.097   6.913   1.313  1.00 20.00     0.009 C 
HETATM    6  C7  UNL     1     -33.396   5.985   3.694  1.00 20.00     0.047 C 
HETATM    7  C8  UNL     1     -32.398   8.248   1.663  1.00 20.00    -0.048 C 
HETATM    8  C9  UNL     1     -31.530   8.630   0.437  1.00 20.00     0.015 C 
HETATM    9  C10 UNL     1     -33.415   9.382   1.874  1.00 20.00     0.015 C 
ENDROOT
BRANCH   6  10
HETATM   10  C1  UNL     1     -34.281   5.009   4.416  1.00 20.00     0.235 C 
HETATM   11  O11 UNL     1     -33.918   3.885   4.747  1.00 20.00    -0.306 OA
ENDBRANCH   6  10
TORSDOF 1
