REMARK  2 active torsions:
REMARK  status: ('A' for Active; 'I' for Inactive)
REMARK    1  A    between atoms: C5_5  and  C6_6 
REMARK    2  A    between atoms: C6_6  and  S8_8 
ROOT
HETATM    1  C1  UNL     1     -34.090   4.956   3.594  1.00 20.00     0.027 C 
HETATM    2  C2  UNL     1     -32.964   5.829   3.048  1.00 20.00     0.009 C 
HETATM    3  C3  UNL     1     -34.204   5.108   5.105  1.00 20.00     0.167 C 
HETATM    4  C4  UNL     1     -33.279   7.290   5.065  1.00 20.00     0.172 C 
HETATM    5  C5  UNL     1     -33.111   7.272   3.544  1.00 20.00     0.019 C 
HETATM    6  O7  UNL     1     -34.386   6.478   5.462  1.00 20.00    -0.391 OA
ENDROOT
BRANCH   5   7
HETATM    7  C6  UNL     1     -31.925   8.127   3.110  1.00 20.00     0.077 C 
BRANCH   7   8
HETATM    8  S8  UNL     1     -32.127   8.657   1.391  1.00 20.00    -0.182 SA
HETATM    9  H20 UNL     1     -30.984   9.352   1.316  1.00 20.00     0.101 HD
ENDBRANCH   7   8
ENDBRANCH   5   7
TORSDOF 2
