REMARK  2 active torsions:
REMARK  status: ('A' for Active; 'I' for Inactive)
REMARK    1  A    between atoms: C5_5  and  C7_7 
REMARK    2  A    between atoms: C6_6  and  C8_8 
ROOT
HETATM    1  C1  UNL     1     -31.725   8.520   4.325  1.00 20.00     0.001 C 
HETATM    2  C2  UNL     1     -31.594   8.741   2.820  1.00 20.00     0.005 C 
HETATM    3  C3  UNL     1     -32.495   7.241   4.641  1.00 20.00     0.013 C 
HETATM    4  C4  UNL     1     -33.732   7.445   2.447  1.00 20.00     0.019 C 
HETATM    5  C5  UNL     1     -32.963   8.735   2.128  1.00 20.00    -0.000 C 
HETATM    6  C6  UNL     1     -33.869   7.225   3.960  1.00 20.00     0.094 C 
ENDROOT
BRANCH   6   7
HETATM    7  C8  UNL     1     -34.600   5.915   4.251  1.00 20.00     0.391 C 
HETATM    8  F9  UNL     1     -35.813   5.930   3.679  1.00 20.00    -0.171 F 
HETATM    9  F10 UNL     1     -33.900   4.881   3.761  1.00 20.00    -0.171 F 
HETATM   10  F11 UNL     1     -34.745   5.754   5.575  1.00 20.00    -0.171 F 
ENDBRANCH   6   7
BRANCH   5  11
HETATM   11  C7  UNL     1     -32.803   8.908   0.618  1.00 20.00     0.119 C 
HETATM   12 CL12 UNL     1     -32.007  10.451   0.262  1.00 20.00    -0.130 Cl
ENDBRANCH   5  11
TORSDOF 2
