REMARK  4 active torsions:
REMARK  status: ('A' for Active; 'I' for Inactive)
REMARK    1  A    between atoms: C5_5  and  C7_7 
REMARK    2  A    between atoms: C5_5  and  C8_8 
REMARK    3  A    between atoms: C6_6  and  C7_7 
REMARK    4  A    between atoms: C8_8  and  O9_9 
ROOT
HETATM    1  C5  UNL     1     -32.655   6.433   2.345  1.00 20.00     0.042 C 
ENDROOT
BRANCH   1   2
HETATM    2  C7  UNL     1     -32.558   7.978   2.378  1.00 20.00    -0.002 C 
HETATM    3  C1  UNL     1     -31.645   8.404   3.538  1.00 20.00     0.011 C 
BRANCH   2   4
HETATM    4  C6  UNL     1     -32.119   8.646   1.067  1.00 20.00     0.119 C 
HETATM    5 CL10 UNL     1     -32.212  10.424   1.103  1.00 20.00    -0.130 Cl
ENDBRANCH   2   4
ENDBRANCH   1   2
BRANCH   1   6
HETATM    6  C8  UNL     1     -33.655   5.757   3.312  1.00 20.00     0.053 C 
HETATM    7  C2  UNL     1     -35.076   5.879   2.744  1.00 20.00     0.045 C 
HETATM    8  C3  UNL     1     -33.330   4.285   3.562  1.00 20.00     0.045 C 
BRANCH   6   9
HETATM    9  O9  UNL     1     -33.650   6.422   4.575  1.00 20.00    -0.386 OA
HETATM   10  C4  UNL     1     -34.577   5.831   5.472  1.00 20.00     0.202 C 
ENDBRANCH   6   9
ENDBRANCH   1   6
TORSDOF 4
