REMARK  2 active torsions:
REMARK  status: ('A' for Active; 'I' for Inactive)
REMARK    1  A    between atoms: C1_1  and  C5_5 
REMARK    2  A    between atoms: C6_6  and  C8_8 
ROOT
HETATM    1  C2  UNL     1     -34.269   5.924   2.722  1.00 20.00     0.012 C 
HETATM    2  C3  UNL     1     -32.780   6.169   2.510  1.00 20.00     0.005 C 
HETATM    3  C4  UNL     1     -33.469   7.673   4.247  1.00 20.00     0.016 C 
HETATM    4  C5  UNL     1     -34.621   6.700   3.988  1.00 20.00     0.047 C 
HETATM    5  C6  UNL     1     -32.559   7.592   3.017  1.00 20.00    -0.014 C 
ENDROOT
BRANCH   4   6
HETATM    6  C1  UNL     1     -34.714   5.723   5.145  1.00 20.00     0.235 C 
HETATM    7  O9  UNL     1     -34.090   4.668   5.191  1.00 20.00    -0.306 OA
ENDBRANCH   4   6
BRANCH   5   8
HETATM    8  C8  UNL     1     -32.921   8.644   1.969  1.00 20.00     0.000 C 
HETATM    9  C7  UNL     1     -32.063   8.535   0.747  1.00 20.00     0.005 C 
ENDBRANCH   5   8
TORSDOF 2
