REMARK  3 active torsions:
REMARK  status: ('A' for Active; 'I' for Inactive)
REMARK    1  A    between atoms: C6_6  and  C9_9 
REMARK    2  A    between atoms: C7_7  and  C10_10 
REMARK    3  A    between atoms: C9_9  and  C11_11 
ROOT
HETATM    1  C1  UNL     1     -32.861   7.316   4.626  1.00 20.00     0.001 C 
HETATM    2  C2  UNL     1     -31.954   7.432   3.402  1.00 20.00     0.005 C 
HETATM    3  C3  UNL     1     -34.329   6.964   4.412  1.00 20.00     0.005 C 
HETATM    4  C4  UNL     1     -33.298   6.598   1.408  1.00 20.00     0.005 C 
HETATM    5  C5  UNL     1     -34.637   6.179   2.010  1.00 20.00     0.006 C 
HETATM    6  C6  UNL     1     -32.629   7.811   2.078  1.00 20.00    -0.014 C 
HETATM    7  C7  UNL     1     -34.651   5.782   3.491  1.00 20.00    -0.001 C 
ENDROOT
BRANCH   6   8
HETATM    8  C9  UNL     1     -31.569   8.378   1.122  1.00 20.00     0.004 C 
BRANCH   8   9
HETATM    9  C11 UNL     1     -32.216   9.175  -0.002  1.00 20.00    -0.004 C 
HETATM   10  C8  UNL     1     -33.040  10.328   0.551  1.00 20.00     0.005 C 
ENDBRANCH   8   9
ENDBRANCH   6   8
BRANCH   7  11
HETATM   11  C10 UNL     1     -33.824   4.532   3.784  1.00 20.00     0.119 C 
HETATM   12 CL12 UNL     1     -34.108   3.996   5.447  1.00 20.00    -0.130 Cl
ENDBRANCH   7  11
TORSDOF 3
