REMARK  2 active torsions:
REMARK  status: ('A' for Active; 'I' for Inactive)
REMARK    1  A    between atoms: C1_1  and  C7_7 
REMARK    2  A    between atoms: C8_8  and  C12_12 
ROOT
HETATM    1  C2  UNL     1     -32.133   8.109   4.317  1.00 20.00     0.001 C 
HETATM    2  C3  UNL     1     -31.522   8.157   2.920  1.00 20.00     0.011 C 
HETATM    3  C4  UNL     1     -32.979   6.801   1.343  1.00 20.00     0.012 C 
HETATM    4  C5  UNL     1     -33.382   7.251   4.509  1.00 20.00     0.005 C 
HETATM    5  C6  UNL     1     -33.914   6.080   2.311  1.00 20.00     0.006 C 
HETATM    6  C7  UNL     1     -32.541   8.200   1.781  1.00 20.00     0.047 C 
HETATM    7  C8  UNL     1     -33.388   5.916   3.748  1.00 20.00    -0.007 C 
ENDROOT
BRANCH   7   8
HETATM    8  C12 UNL     1     -34.287   4.917   4.489  1.00 20.00    -0.048 C 
HETATM    9  C9  UNL     1     -33.762   4.715   5.918  1.00 20.00     0.015 C 
HETATM   10  C10 UNL     1     -34.280   3.572   3.747  1.00 20.00     0.015 C 
HETATM   11  C11 UNL     1     -35.722   5.461   4.545  1.00 20.00     0.015 C 
ENDBRANCH   7   8
BRANCH   6  12
HETATM   12  C1  UNL     1     -31.903   8.882   0.606  1.00 20.00     0.235 C 
HETATM   13  O13 UNL     1     -32.324   9.927   0.121  1.00 20.00    -0.306 OA
ENDBRANCH   6  12
TORSDOF 2
