REMARK  2 active torsions:
REMARK  status: ('A' for Active; 'I' for Inactive)
REMARK    1  A    between atoms: C1_1  and  C7_7 
REMARK    2  A    between atoms: C8_8  and  C12_12 
ROOT
HETATM    1  C2  UNL     1     -34.336   5.799   2.381  1.00 20.00     0.001 C 
HETATM    2  C3  UNL     1     -35.387   6.133   3.437  1.00 20.00     0.011 C 
HETATM    3  C4  UNL     1     -33.930   7.581   5.038  1.00 20.00     0.012 C 
HETATM    4  C5  UNL     1     -33.668   7.004   1.724  1.00 20.00     0.005 C 
HETATM    5  C6  UNL     1     -32.807   7.780   4.017  1.00 20.00     0.006 C 
HETATM    6  C7  UNL     1     -34.840   6.367   4.848  1.00 20.00     0.047 C 
HETATM    7  C8  UNL     1     -33.327   8.194   2.633  1.00 20.00    -0.007 C 
ENDROOT
BRANCH   7   8
HETATM    8  C12 UNL     1     -32.304   9.089   1.923  1.00 20.00    -0.048 C 
HETATM    9  C9  UNL     1     -32.551  10.555   2.307  1.00 20.00     0.015 C 
HETATM   10  C10 UNL     1     -32.449   8.928   0.403  1.00 20.00     0.015 C 
HETATM   11  C11 UNL     1     -30.885   8.682   2.347  1.00 20.00     0.015 C 
ENDBRANCH   7   8
BRANCH   6  12
HETATM   12  C1  UNL     1     -34.181   5.123   5.374  1.00 20.00     0.235 C 
HETATM   13  O13 UNL     1     -34.465   3.993   4.991  1.00 20.00    -0.306 OA
ENDBRANCH   6  12
TORSDOF 2
