REMARK  3 active torsions:
REMARK  status: ('A' for Active; 'I' for Inactive)
REMARK    1  A    between atoms: C6_6  and  C8_8 
REMARK    2  A    between atoms: C6_6  and  C9_9 
REMARK    3  A    between atoms: C7_7  and  C9_9 
ROOT
HETATM    1  C4  UNL     1     -35.333   6.229   2.744  1.00 20.00     0.015 C 
HETATM    2  C5  UNL     1     -33.020   5.370   2.484  1.00 20.00     0.015 C 
HETATM    3  C9  UNL     1     -33.908   6.290   3.350  1.00 20.00    -0.043 C 
ENDROOT
BRANCH   3   4
HETATM    4  C6  UNL     1     -33.438   7.781   3.219  1.00 20.00     0.029 C 
BRANCH   4   5
HETATM    5  C8  UNL     1     -32.950   8.289   1.848  1.00 20.00     0.079 C 
HETATM    6  C3  UNL     1     -31.489   7.900   1.622  1.00 20.00     0.026 C 
HETATM    7 CL10 UNL     1     -33.071  10.067   1.709  1.00 20.00    -0.125 Cl
ENDBRANCH   4   5
ENDBRANCH   3   4
BRANCH   3   8
HETATM    8  C7  UNL     1     -33.900   5.789   4.843  1.00 20.00    -0.015 C 
HETATM    9  C1  UNL     1     -34.767   6.633   5.789  1.00 20.00     0.010 C 
HETATM   10  C2  UNL     1     -34.304   4.314   5.011  1.00 20.00     0.010 C 
ENDBRANCH   3   8
TORSDOF 3
