REMARK  2 active torsions:
REMARK  status: ('A' for Active; 'I' for Inactive)
REMARK    1  A    between atoms: C5_5  and  C6_6 
REMARK    2  A    between atoms: C6_6  and  C7_7 
ROOT
HETATM    1  C1  UNL     1     -34.603   5.298   6.017  1.00 20.00     0.012 C 
HETATM    2  C2  UNL     1     -34.288   6.200   5.291  1.00 20.00    -0.117 C 
HETATM    3  C5  UNL     1     -33.907   7.308   4.398  1.00 20.00     0.098 C 
ENDROOT
BRANCH   3   4
HETATM    4  C6  UNL     1     -32.555   7.051   3.699  1.00 20.00     0.006 C 
HETATM    5  C3  UNL     1     -32.726   6.037   2.556  1.00 20.00     0.012 C 
BRANCH   4   6
HETATM    6  C7  UNL     1     -31.888   8.336   3.159  1.00 20.00     0.058 C 
HETATM    7  C4  UNL     1     -32.595   9.010   1.992  1.00 20.00     0.022 C 
HETATM    8 BR8  UNL     1     -30.036   7.946   2.618  1.00 20.00    -0.091 Br
ENDBRANCH   4   6
ENDBRANCH   3   4
TORSDOF 2
