REMARK  3 active torsions:
REMARK  status: ('A' for Active; 'I' for Inactive)
REMARK    1  A    between atoms: C3_3  and  N7_7 
REMARK    2  A    between atoms: C5_5  and  C6_6 
REMARK    3  A    between atoms: C5_5  and  N7_7 
ROOT
HETATM    1  N7  UNL     1     -32.291   7.726   2.325  1.00 20.00     0.093 N 
HETATM    2  H20 UNL     1     -31.762   7.276   1.579  1.00 20.00     0.316 HD
ENDROOT
BRANCH   1   3
HETATM    3  C3  UNL     1     -33.599   7.095   2.432  1.00 20.00     0.223 C 
HETATM    4  C1  UNL     1     -33.416   5.595   2.754  1.00 20.00     0.055 C 
HETATM    5  C4  UNL     1     -34.560   5.772   3.787  1.00 20.00     0.086 C 
HETATM    6  C2  UNL     1     -34.129   7.260   3.874  1.00 20.00     0.055 C 
HETATM    7 CL10 UNL     1     -34.540   4.784   5.272  1.00 20.00    -0.125 Cl
ENDBRANCH   1   3
BRANCH   1   8
HETATM    8  C5  UNL     1     -32.422   9.146   2.032  1.00 20.00     0.340 C 
BRANCH   8   9
HETATM    9  C6  UNL     1     -32.705   9.362   0.560  1.00 20.00     0.381 C 
HETATM   10  F8  UNL     1     -31.667   8.904  -0.183  1.00 20.00    -0.213 F 
HETATM   11  F9  UNL     1     -32.795  10.695   0.315  1.00 20.00    -0.213 F 
ENDBRANCH   8   9
ENDBRANCH   1   8
TORSDOF 3
