REMARK  4 active torsions:
REMARK  status: ('A' for Active; 'I' for Inactive)
REMARK    1  A    between atoms: C5_5  and  C7_7 
REMARK    2  A    between atoms: C5_5  and  C8_8 
REMARK    3  A    between atoms: C6_6  and  C8_8 
REMARK    4  A    between atoms: C6_6  and  C9_9 
ROOT
HETATM    1  C3  UNL     1     -31.733   8.349   4.224  1.00 20.00     0.010 C 
HETATM    2  C8  UNL     1     -32.846   7.852   3.299  1.00 20.00    -0.017 C 
ENDROOT
BRANCH   2   3
HETATM    3  C5  UNL     1     -33.406   6.485   3.762  1.00 20.00     0.008 C 
BRANCH   3   4
HETATM    4  C7  UNL     1     -34.468   6.523   4.880  1.00 20.00    -0.023 C 
HETATM    5  C1  UNL     1     -33.945   7.164   6.165  1.00 20.00     0.009 C 
HETATM    6  C2  UNL     1     -34.954   5.100   5.175  1.00 20.00     0.009 C 
ENDBRANCH   3   4
ENDBRANCH   2   3
BRANCH   2   7
HETATM    7  C6  UNL     1     -32.353   7.709   1.837  1.00 20.00     0.024 C 
BRANCH   7   8
HETATM    8  C9  UNL     1     -31.779   8.977   1.185  1.00 20.00     0.078 C 
HETATM    9  C4  UNL     1     -31.277   8.684  -0.226  1.00 20.00     0.026 C 
HETATM   10 CL10 UNL     1     -33.010  10.272   1.100  1.00 20.00    -0.125 Cl
ENDBRANCH   7   8
ENDBRANCH   2   7
TORSDOF 4
