REMARK  0 active torsions:
REMARK  status: ('A' for Active; 'I' for Inactive)
ROOT
HETATM    1  C1  UNL     1     -33.031   7.042   4.046  1.00 20.00    -0.085 C 
HETATM    2  C2  UNL     1     -31.862   7.543   3.628  1.00 20.00     0.014 C 
HETATM    3  C3  UNL     1     -33.641   7.312   5.397  1.00 20.00     0.034 C 
HETATM    4  C4  UNL     1     -34.471   6.111   5.889  1.00 20.00     0.009 C 
HETATM    5  C5  UNL     1     -33.866   4.668   3.844  1.00 20.00     0.013 C 
HETATM    6  C6  UNL     1     -35.335   6.127   3.435  1.00 20.00     0.013 C 
HETATM    7  C7  UNL     1     -33.789   6.081   3.181  1.00 20.00     0.014 C 
HETATM    8  C8  UNL     1     -35.010   5.286   4.708  1.00 20.00    -0.013 C 
ENDROOT
TORSDOF 0
