REMARK  4 active torsions:
REMARK  status: ('A' for Active; 'I' for Inactive)
REMARK    1  A    between atoms: C2_2  and  C8_8 
REMARK    2  A    between atoms: C5_5  and  C9_9 
REMARK    3  A    between atoms: C8_8  and  N10_10 
REMARK    4  A    between atoms: C9_9  and  N10_10 
ROOT
HETATM    1  C1  UNL     1     -32.736   9.669   1.939  1.00 20.00    -0.109 C 
HETATM    2  C2  UNL     1     -32.295   8.703   2.501  1.00 20.00    -0.077 C 
HETATM    3  C7  UNL     1     -33.273  10.844   1.255  1.00 20.00     0.112 C 
ENDROOT
BRANCH   2   4
HETATM    4  C8  UNL     1     -31.750   7.526   3.185  1.00 20.00     0.362 C 
BRANCH   4   5
HETATM    5  N10 UNL     1     -32.827   6.681   3.712  1.00 20.00     0.094 N 
HETATM    6  H25 UNL     1     -32.442   5.740   3.871  1.00 20.00     0.317 HD
BRANCH   5   7
HETATM    7  C9  UNL     1     -33.380   7.211   4.918  1.00 20.00     0.275 C 
BRANCH   7   8
HETATM    8  C5  UNL     1     -34.498   6.313   5.424  1.00 20.00     0.018 C 
HETATM    9  C3  UNL     1     -35.443   5.736   4.344  1.00 20.00     0.041 C 
HETATM   10  C6  UNL     1     -34.816   4.342   4.541  1.00 20.00     0.161 C 
HETATM   11  C4  UNL     1     -34.090   4.868   5.794  1.00 20.00     0.041 C 
HETATM   12  O11 UNL     1     -33.938   3.979   3.504  1.00 20.00    -0.235 OA
ENDBRANCH   7   8
ENDBRANCH   5   7
ENDBRANCH   4   5
ENDBRANCH   2   4
TORSDOF 4
