REMARK  3 active torsions:
REMARK  status: ('A' for Active; 'I' for Inactive)
REMARK    1  A    between atoms: C5_5  and  S11_11 
REMARK    2  A    between atoms: C7_7  and  C8_8 
REMARK    3  A    between atoms: C8_8  and  S11_11 
ROOT
HETATM    1  C1  UNL     1     -32.623   5.763   2.769  1.00 20.00     0.080 C 
HETATM    2  C2  UNL     1     -33.693   8.014   2.232  1.00 20.00     0.071 C 
HETATM    3  C3  UNL     1     -31.579   8.084   2.594  1.00 20.00     0.071 C 
HETATM    4  C4  UNL     1     -32.470   8.417   1.371  1.00 20.00     0.165 C 
HETATM    5  C5  UNL     1     -32.725   7.166   3.100  1.00 20.00     0.101 C 
HETATM    6  N9  UNL     1     -32.541   4.637   2.502  1.00 20.00    -0.196 NA
HETATM    7  O10 UNL     1     -32.456   9.775   1.025  1.00 20.00    -0.235 OA
ENDROOT
BRANCH   5   8
HETATM    8  S11 UNL     1     -33.040   7.376   4.889  1.00 20.00    -0.144 SA
BRANCH   8   9
HETATM    9  C8  UNL     1     -34.814   7.042   4.871  1.00 20.00     0.075 C 
BRANCH   9  10
HETATM   10  C7  UNL     1     -35.074   5.540   4.863  1.00 20.00     0.006 C 
HETATM   11  C6  UNL     1     -34.477   4.874   6.094  1.00 20.00     0.006 C 
ENDBRANCH   9  10
ENDBRANCH   8   9
ENDBRANCH   5   8
TORSDOF 3
