REMARK  5 active torsions:
REMARK  status: ('A' for Active; 'I' for Inactive)
REMARK    1  A    between atoms: C2_2  and  C7_7 
REMARK    2  A    between atoms: C2_2  and  C8_8 
REMARK    3  A    between atoms: C3_3  and  C7_7 
REMARK    4  A    between atoms: C3_3  and  C10_10 
REMARK    5  A    between atoms: C9_9  and  C10_10 
ROOT
HETATM    1  C3  UNL     1     -32.827   8.010   3.363  1.00 20.00     0.134 C 
HETATM    2  O11 UNL     1     -31.889   7.906   4.154  1.00 20.00    -0.297 OA
ENDROOT
BRANCH   1   3
HETATM    3  C7  UNL     1     -34.261   7.657   3.743  1.00 20.00     0.111 C 
BRANCH   3   4
HETATM    4  C2  UNL     1     -34.377   6.230   4.225  1.00 20.00    -0.083 C 
HETATM    5  C1  UNL     1     -34.633   5.244   3.349  1.00 20.00     0.014 C 
BRANCH   4   6
HETATM    6  C8  UNL     1     -34.213   6.036   5.719  1.00 20.00     0.029 C 
HETATM    7  C4  UNL     1     -34.350   4.615   6.253  1.00 20.00     0.010 C 
ENDBRANCH   4   6
ENDBRANCH   3   4
ENDBRANCH   1   3
BRANCH   1   8
HETATM    8  C10 UNL     1     -32.616   8.499   1.930  1.00 20.00     0.051 C 
HETATM    9  C6  UNL     1     -31.230   8.053   1.471  1.00 20.00     0.018 C 
BRANCH   8  10
HETATM   10  C9  UNL     1     -32.763  10.023   1.815  1.00 20.00     0.007 C 
HETATM   11  C5  UNL     1     -32.568  10.521   0.389  1.00 20.00     0.006 C 
ENDBRANCH   8  10
ENDBRANCH   1   8
TORSDOF 5
