REMARK  3 active torsions:
REMARK  status: ('A' for Active; 'I' for Inactive)
REMARK    1  A    between atoms: C5_5  and  C8_8 
REMARK    2  A    between atoms: C5_5  and  C9_9 
REMARK    3  A    between atoms: C8_8  and  C10_10 
ROOT
HETATM    1  C1  UNL     1     -34.379   6.780   5.858  1.00 20.00     0.001 C 
HETATM    2  C2  UNL     1     -35.193   5.714   5.126  1.00 20.00     0.001 C 
HETATM    3  C3  UNL     1     -33.715   7.627   4.774  1.00 20.00     0.010 C 
HETATM    4  C4  UNL     1     -34.984   5.967   3.635  1.00 20.00     0.010 C 
HETATM    5  C5  UNL     1     -33.647   6.715   3.541  1.00 20.00    -0.028 C 
ENDROOT
BRANCH   5   6
HETATM    6  C8  UNL     1     -33.544   7.525   2.247  1.00 20.00     0.014 C 
BRANCH   6   7
HETATM    7  C10 UNL     1     -32.685   8.790   2.388  1.00 20.00    -0.022 C 
HETATM    8  C6  UNL     1     -31.245   8.476   2.799  1.00 20.00     0.009 C 
HETATM    9  C7  UNL     1     -32.688   9.562   1.067  1.00 20.00     0.009 C 
ENDBRANCH   6   7
ENDBRANCH   5   6
BRANCH   5  10
HETATM   10  C9  UNL     1     -32.457   5.746   3.628  1.00 20.00     0.124 C 
HETATM   11 CL11 UNL     1     -32.726   4.369   2.551  1.00 20.00    -0.130 Cl
ENDBRANCH   5  10
TORSDOF 3
