REMARK  5 active torsions:
REMARK  status: ('A' for Active; 'I' for Inactive)
REMARK    1  A    between atoms: C2_2  and  C7_7 
REMARK    2  A    between atoms: C2_2  and  C8_8 
REMARK    3  A    between atoms: C3_3  and  C10_10 
REMARK    4  A    between atoms: C8_8  and  C10_10 
REMARK    5  A    between atoms: C9_9  and  C10_10 
ROOT
HETATM    1  C10 UNL     1     -33.891   7.004   3.718  1.00 20.00     0.058 C 
ENDROOT
BRANCH   1   2
HETATM    2  C3  UNL     1     -34.045   6.244   5.037  1.00 20.00     0.127 C 
HETATM    3  C4  UNL     1     -33.830   7.032   6.305  1.00 20.00     0.091 C 
HETATM    4  O11 UNL     1     -34.305   5.041   5.080  1.00 20.00    -0.298 OA
ENDBRANCH   1   2
BRANCH   1   5
HETATM    5  C8  UNL     1     -32.492   7.635   3.575  1.00 20.00     0.045 C 
BRANCH   5   6
HETATM    6  C2  UNL     1     -32.303   8.455   2.312  1.00 20.00    -0.089 C 
HETATM    7  C1  UNL     1     -31.317   8.164   1.447  1.00 20.00     0.014 C 
BRANCH   6   8
HETATM    8  C7  UNL     1     -33.239   9.613   2.049  1.00 20.00     0.029 C 
HETATM    9  C5  UNL     1     -32.929  10.353   0.755  1.00 20.00     0.010 C 
ENDBRANCH   6   8
ENDBRANCH   5   6
ENDBRANCH   1   5
BRANCH   1  10
HETATM   10  C9  UNL     1     -34.249   6.090   2.533  1.00 20.00     0.008 C 
HETATM   11  C6  UNL     1     -33.328   4.892   2.336  1.00 20.00     0.006 C 
ENDBRANCH   1  10
TORSDOF 5
