REMARK  4 active torsions:
REMARK  status: ('A' for Active; 'I' for Inactive)
REMARK    1  A    between atoms: C2_2  and  C9_9 
REMARK    2  A    between atoms: C2_2  and  C10_10 
REMARK    3  A    between atoms: C3_3  and  C5_5 
REMARK    4  A    between atoms: C3_3  and  C9_9 
ROOT
HETATM    1  C3  UNL     1     -32.764   7.494   2.398  1.00 20.00     0.135 C 
HETATM    2  O11 UNL     1     -31.757   7.412   3.090  1.00 20.00    -0.297 OA
ENDROOT
BRANCH   1   3
HETATM    3  C5  UNL     1     -32.842   8.521   1.318  1.00 20.00     0.060 A 
HETATM    4  C4  UNL     1     -31.606   8.828   0.538  1.00 20.00     0.017 A 
HETATM    5  C6  UNL     1     -32.133   9.830   1.531  1.00 20.00    -0.007 A 
HETATM    6  C7  UNL     1     -32.768  11.092   1.059  1.00 20.00     0.011 C 
ENDBRANCH   1   3
BRANCH   1   7
HETATM    7  C9  UNL     1     -34.006   6.637   2.569  1.00 20.00     0.111 C 
BRANCH   7   8
HETATM    8  C2  UNL     1     -34.146   6.151   3.988  1.00 20.00    -0.083 C 
HETATM    9  C1  UNL     1     -34.170   4.839   4.273  1.00 20.00     0.014 C 
BRANCH   8  10
HETATM   10  C10 UNL     1     -34.263   7.189   5.080  1.00 20.00     0.029 C 
HETATM   11  C8  UNL     1     -34.405   6.572   6.464  1.00 20.00     0.010 C 
ENDBRANCH   8  10
ENDBRANCH   7   8
ENDBRANCH   1   7
TORSDOF 4
