REMARK  4 active torsions:
REMARK  status: ('A' for Active; 'I' for Inactive)
REMARK    1  A    between atoms: C3_3  and  C5_5 
REMARK    2  A    between atoms: C3_3  and  C6_6 
REMARK    3  A    between atoms: C5_5  and  C7_7 
REMARK    4  A    between atoms: C7_7  and  O8_8 
ROOT
HETATM    1  C1  UNL     1     -34.763   5.682   3.212  1.00 20.00     0.011 A 
HETATM    2  C2  UNL     1     -33.706   4.753   3.736  1.00 20.00     0.011 A 
HETATM    3  C3  UNL     1     -33.491   6.247   3.797  1.00 20.00    -0.026 A 
ENDROOT
BRANCH   3   4
HETATM    4  C5  UNL     1     -32.490   6.855   2.854  1.00 20.00     0.037 C 
BRANCH   4   5
HETATM    5  C7  UNL     1     -32.842   8.293   2.482  1.00 20.00     0.167 C 
BRANCH   5   6
HETATM    6  O8  UNL     1     -31.865   8.800   1.584  1.00 20.00    -0.396 OA
HETATM    7  C4  UNL     1     -32.138  10.146   1.220  1.00 20.00     0.201 C 
ENDBRANCH   5   6
ENDBRANCH   4   5
ENDBRANCH   3   4
BRANCH   3   8
HETATM    8  C6  UNL     1     -33.569   6.916   5.142  1.00 20.00     0.124 C 
HETATM    9 CL9  UNL     1     -34.665   6.027   6.228  1.00 20.00    -0.130 Cl
ENDBRANCH   3   8
TORSDOF 4
