REMARK  5 active torsions:
REMARK  status: ('A' for Active; 'I' for Inactive)
REMARK    1  A    between atoms: C2_2  and  C8_8 
REMARK    2  A    between atoms: C2_2  and  C9_9 
REMARK    3  A    between atoms: C3_3  and  C10_10 
REMARK    4  A    between atoms: C9_9  and  C10_10 
REMARK    5  A    between atoms: C10_10  and  C11_11 
ROOT
HETATM    1  C10 UNL     1     -32.236   7.738   1.833  1.00 20.00     0.062 C 
ENDROOT
BRANCH   1   2
HETATM    2  C3  UNL     1     -31.434   8.041   3.102  1.00 20.00     0.127 C 
HETATM    3  C4  UNL     1     -30.058   8.628   2.913  1.00 20.00     0.091 C 
HETATM    4  O12 UNL     1     -31.883   7.835   4.230  1.00 20.00    -0.298 OA
ENDBRANCH   1   2
BRANCH   1   5
HETATM    5  C9  UNL     1     -33.583   7.082   2.204  1.00 20.00     0.045 C 
BRANCH   5   6
HETATM    6  C2  UNL     1     -33.449   5.816   3.030  1.00 20.00    -0.089 C 
HETATM    7  C1  UNL     1     -32.734   4.772   2.577  1.00 20.00     0.014 C 
BRANCH   6   8
HETATM    8  C8  UNL     1     -34.142   5.750   4.373  1.00 20.00     0.029 C 
HETATM    9  C5  UNL     1     -33.931   4.424   5.090  1.00 20.00     0.010 C 
ENDBRANCH   6   8
ENDBRANCH   5   6
ENDBRANCH   1   5
BRANCH   1  10
HETATM   10  C11 UNL     1     -32.424   8.990   0.935  1.00 20.00    -0.011 C 
HETATM   11  C6  UNL     1     -31.234   9.314   0.027  1.00 20.00     0.010 C 
HETATM   12  C7  UNL     1     -32.798  10.227   1.758  1.00 20.00     0.010 C 
ENDBRANCH   1  10
TORSDOF 5
