REMARK  3 active torsions:
REMARK  status: ('A' for Active; 'I' for Inactive)
REMARK    1  A    between atoms: C5_5  and  C6_6 
REMARK    2  A    between atoms: C5_5  and  C7_7 
REMARK    3  A    between atoms: C6_6  and  O9_9 
ROOT
HETATM    1  C1  UNL     1     -32.934   6.423   3.108  1.00 20.00     0.091 C 
HETATM    2  C6  UNL     1     -32.858   7.781   3.661  1.00 20.00     0.227 C 
HETATM    3  N8  UNL     1     -32.995   5.350   2.670  1.00 20.00    -0.195 NA
ENDROOT
BRANCH   2   4
HETATM    4  C5  UNL     1     -31.707   8.596   3.057  1.00 20.00     0.050 C 
BRANCH   4   5
HETATM    5  C7  UNL     1     -31.958   9.149   1.640  1.00 20.00    -0.019 C 
HETATM    6  C2  UNL     1     -32.217   7.990   0.672  1.00 20.00     0.009 C 
HETATM    7  C3  UNL     1     -33.131  10.129   1.595  1.00 20.00     0.009 C 
ENDBRANCH   4   5
ENDBRANCH   2   4
BRANCH   2   8
HETATM    8  O9  UNL     1     -32.662   7.704   5.075  1.00 20.00    -0.376 OA
HETATM    9  C4  UNL     1     -33.883   7.446   5.749  1.00 20.00     0.203 C 
ENDBRANCH   2   8
TORSDOF 3
