REMARK  1 active torsions:
REMARK  status: ('A' for Active; 'I' for Inactive)
REMARK    1  A    between atoms: C7_7  and  C9_9 
ROOT
HETATM    1  C1  UNL     1     -33.760   5.049   6.034  1.00 20.00     0.005 C 
HETATM    2  C2  UNL     1     -33.886   6.504   5.558  1.00 20.00     0.006 C 
HETATM    3  C3  UNL     1     -35.624   5.262   4.568  1.00 20.00     0.010 C 
HETATM    4  C4  UNL     1     -33.686   4.196   3.672  1.00 20.00     0.015 C 
HETATM    5  C5  UNL     1     -34.535   4.266   4.958  1.00 20.00    -0.013 C 
HETATM    6  C6  UNL     1     -34.614   6.362   4.208  1.00 20.00    -0.005 C 
HETATM    7  C7  UNL     1     -33.718   5.655   3.142  1.00 20.00    -0.028 C 
HETATM    8  C8  UNL     1     -34.374   5.720   1.749  1.00 20.00     0.016 C 
ENDROOT
BRANCH   7   9
HETATM    9  C9  UNL     1     -32.306   6.244   3.020  1.00 20.00     0.124 C 
HETATM   10 CL10 UNL     1     -32.392   8.011   2.971  1.00 20.00    -0.130 Cl
ENDBRANCH   7   9
TORSDOF 1
