REMARK  3 active torsions:
REMARK  status: ('A' for Active; 'I' for Inactive)
REMARK    1  A    between atoms: C6_6  and  C8_8 
REMARK    2  A    between atoms: C7_7  and  C8_8 
REMARK    3  A    between atoms: C7_7  and  C9_9 
ROOT
HETATM    1  C8  UNL     1     -32.957   6.360   2.482  1.00 20.00     0.042 C 
ENDROOT
BRANCH   1   2
HETATM    2  C6  UNL     1     -33.891   6.258   3.672  1.00 20.00     0.122 C 
HETATM    3  C2  UNL     1     -33.358   6.937   4.922  1.00 20.00     0.034 C 
HETATM    4  C1  UNL     1     -34.069   6.169   6.007  1.00 20.00     0.029 C 
HETATM    5  C5  UNL     1     -34.063   4.761   5.450  1.00 20.00     0.168 C 
HETATM    6  O10 UNL     1     -34.089   4.877   4.020  1.00 20.00    -0.386 OA
ENDBRANCH   1   2
BRANCH   1   7
HETATM    7  C7  UNL     1     -32.717   7.782   2.076  1.00 20.00    -0.025 A 
HETATM    8  C3  UNL     1     -31.685   8.573   2.845  1.00 20.00     0.011 A 
HETATM    9  C4  UNL     1     -31.388   8.123   1.444  1.00 20.00     0.011 A 
BRANCH   7  10
HETATM   10  C9  UNL     1     -33.939   8.507   1.584  1.00 20.00     0.124 C 
HETATM   11 CL11 UNL     1     -33.514  10.129   0.985  1.00 20.00    -0.130 Cl
ENDBRANCH   7  10
ENDBRANCH   1   7
TORSDOF 3
