REMARK  4 active torsions:
REMARK  status: ('A' for Active; 'I' for Inactive)
REMARK    1  A    between atoms: C6_6  and  C8_8 
REMARK    2  A    between atoms: C6_6  and  C9_9 
REMARK    3  A    between atoms: C7_7  and  O11_11 
REMARK    4  A    between atoms: C8_8  and  O11_11 
ROOT
HETATM    1  C1  UNL     1     -32.108   8.177   3.956  1.00 20.00     0.091 C 
HETATM    2  C8  UNL     1     -32.505   7.199   2.930  1.00 20.00     0.228 C 
HETATM    3  N10 UNL     1     -31.794   8.946   4.766  1.00 20.00    -0.195 NA
ENDROOT
BRANCH   2   4
HETATM    4  C6  UNL     1     -34.036   7.058   2.892  1.00 20.00     0.055 C 
BRANCH   4   5
HETATM    5  C9  UNL     1     -34.684   6.105   3.940  1.00 20.00    -0.048 C 
HETATM    6  C3  UNL     1     -36.203   6.070   3.670  1.00 20.00     0.014 C 
HETATM    7  C4  UNL     1     -34.136   4.675   3.798  1.00 20.00     0.014 C 
HETATM    8  C5  UNL     1     -34.464   6.587   5.382  1.00 20.00     0.014 C 
ENDBRANCH   4   5
ENDBRANCH   2   4
BRANCH   2   9
HETATM    9  O11 UNL     1     -32.036   7.645   1.662  1.00 20.00    -0.372 OA
BRANCH   9  10
HETATM   10  C7  UNL     1     -32.583   8.911   1.322  1.00 20.00     0.165 C 
HETATM   11  C2  UNL     1     -32.049   9.332  -0.031  1.00 20.00     0.033 C 
ENDBRANCH   9  10
ENDBRANCH   2   9
TORSDOF 4
