REMARK  6 active torsions:
REMARK  status: ('A' for Active; 'I' for Inactive)
REMARK    1  A    between atoms: C4_4  and  C6_6 
REMARK    2  A    between atoms: C4_4  and  C9_9 
REMARK    3  A    between atoms: C5_5  and  O10_10 
REMARK    4  A    between atoms: C6_6  and  O10_10 
REMARK    5  A    between atoms: C7_7  and  C9_9 
REMARK    6  A    between atoms: C8_8  and  C9_9 
ROOT
HETATM    1  C9  UNL     1     -33.247   6.721   3.632  1.00 20.00     0.005 C 
ENDROOT
BRANCH   1   2
HETATM    2  C4  UNL     1     -31.859   7.407   3.559  1.00 20.00     0.032 C 
BRANCH   2   3
HETATM    3  C6  UNL     1     -31.859   8.778   2.889  1.00 20.00     0.168 C 
BRANCH   3   4
HETATM    4  O10 UNL     1     -32.309   8.630   1.548  1.00 20.00    -0.391 OA
BRANCH   4   5
HETATM    5  C5  UNL     1     -31.915   9.731   0.742  1.00 20.00     0.163 C 
HETATM    6  C1  UNL     1     -32.509  11.000   1.316  1.00 20.00     0.033 C 
ENDBRANCH   4   5
ENDBRANCH   3   4
ENDBRANCH   2   3
ENDBRANCH   1   2
BRANCH   1   7
HETATM    7  C7  UNL     1     -34.151   7.327   4.728  1.00 20.00     0.119 C 
HETATM    8 CL11 UNL     1     -33.477   7.164   6.367  1.00 20.00    -0.130 Cl
ENDBRANCH   1   7
BRANCH   1   9
HETATM    9  C8  UNL     1     -33.108   5.167   3.761  1.00 20.00    -0.017 C 
HETATM   10  C2  UNL     1     -34.411   4.503   4.230  1.00 20.00     0.010 C 
HETATM   11  C3  UNL     1     -32.681   4.506   2.443  1.00 20.00     0.010 C 
ENDBRANCH   1   9
TORSDOF 6
