REMARK  3 active torsions:
REMARK  status: ('A' for Active; 'I' for Inactive)
REMARK    1  A    between atoms: C1_1  and  C6_6 
REMARK    2  A    between atoms: C5_5  and  C6_6 
REMARK    3  A    between atoms: C6_6  and  O8_8 
ROOT
HETATM    1  C4  UNL     1     -34.823   5.746   6.000  1.00 20.00     0.054 C 
HETATM    2  C6  UNL     1     -34.911   5.411   4.510  1.00 20.00     0.110 C 
ENDROOT
BRANCH   2   3
HETATM    3  C1  UNL     1     -36.141   6.095   3.929  1.00 20.00     0.268 C 
HETATM    4  O7  UNL     1     -37.074   5.500   3.398  1.00 20.00    -0.304 OA
ENDBRANCH   2   3
BRANCH   2   5
HETATM    5  C5  UNL     1     -33.623   5.788   3.732  1.00 20.00     0.018 C 
HETATM    6  C2  UNL     1     -33.286   7.282   3.757  1.00 20.00     0.013 C 
HETATM    7  C3  UNL     1     -33.656   5.296   2.276  1.00 20.00     0.013 C 
ENDBRANCH   2   5
BRANCH   2   8
HETATM    8  O8  UNL     1     -35.102   4.002   4.387  1.00 20.00    -0.383 OA
HETATM    9  H20 UNL     1     -35.903   3.789   4.890  1.00 20.00     0.211 HD
ENDBRANCH   2   8
TORSDOF 3
