REMARK  3 active torsions:
REMARK  status: ('A' for Active; 'I' for Inactive)
REMARK    1  A    between atoms: C2_2  and  C9_9 
REMARK    2  A    between atoms: C2_2  and  C10_10 
REMARK    3  A    between atoms: C6_6  and  C9_9 
ROOT
HETATM    1  C3  UNL     1     -31.476   8.522   0.721  1.00 20.00     0.006 C 
HETATM    2  C4  UNL     1     -31.820   9.965   0.340  1.00 20.00     0.020 C 
HETATM    3  C5  UNL     1     -33.148   9.409   2.242  1.00 20.00     0.025 C 
HETATM    4  C6  UNL     1     -32.505   8.101   1.782  1.00 20.00    -0.009 C 
HETATM    5  C7  UNL     1     -33.191  10.216   0.953  1.00 20.00     0.082 C 
HETATM    6 CL11 UNL     1     -33.497  11.934   1.245  1.00 20.00    -0.125 Cl
ENDROOT
BRANCH   4   7
HETATM    7  C9  UNL     1     -31.897   7.303   2.924  1.00 20.00     0.038 C 
BRANCH   7   8
HETATM    8  C2  UNL     1     -32.911   6.910   3.974  1.00 20.00    -0.089 C 
HETATM    9  C1  UNL     1     -33.177   7.722   5.011  1.00 20.00     0.014 C 
BRANCH   8  10
HETATM   10  C10 UNL     1     -33.620   5.583   3.829  1.00 20.00     0.029 C 
HETATM   11  C8  UNL     1     -34.910   5.683   3.026  1.00 20.00     0.010 C 
ENDBRANCH   8  10
ENDBRANCH   7   8
ENDBRANCH   4   7
TORSDOF 3
