REMARK  4 active torsions:
REMARK  status: ('A' for Active; 'I' for Inactive)
REMARK    1  A    between atoms: C4_4  and  C7_7 
REMARK    2  A    between atoms: C4_4  and  C8_8 
REMARK    3  A    between atoms: C7_7  and  C9_9 
REMARK    4  A    between atoms: C9_9  and  C10_10 
ROOT
HETATM    1  C1  UNL     1     -33.734   4.448   3.625  1.00 20.00     0.002 C 
HETATM    2  C2  UNL     1     -32.778   5.345   2.816  1.00 20.00     0.010 C 
HETATM    3  C3  UNL     1     -34.700   5.645   3.715  1.00 20.00     0.010 C 
HETATM    4  C4  UNL     1     -33.488   6.583   3.438  1.00 20.00    -0.028 C 
ENDROOT
BRANCH   4   5
HETATM    5  C7  UNL     1     -33.781   7.698   2.440  1.00 20.00     0.011 C 
BRANCH   5   6
HETATM    6  C9  UNL     1     -32.492   8.250   1.826  1.00 20.00     0.005 C 
BRANCH   6   7
HETATM    7  C10 UNL     1     -32.736   9.331   0.757  1.00 20.00    -0.023 C 
HETATM    8  C5  UNL     1     -33.487  10.513   1.375  1.00 20.00     0.009 C 
HETATM    9  C6  UNL     1     -33.516   8.798  -0.446  1.00 20.00     0.009 C 
ENDBRANCH   6   7
ENDBRANCH   5   6
ENDBRANCH   4   5
BRANCH   4  10
HETATM   10  C8  UNL     1     -32.813   7.124   4.699  1.00 20.00     0.124 C 
HETATM   11 CL11 UNL     1     -33.955   8.117   5.621  1.00 20.00    -0.130 Cl
ENDBRANCH   4  10
TORSDOF 4
