REMARK  5 active torsions:
REMARK  status: ('A' for Active; 'I' for Inactive)
REMARK    1  A    between atoms: C4_4  and  C7_7 
REMARK    2  A    between atoms: C4_4  and  C8_8 
REMARK    3  A    between atoms: C6_6  and  C9_9 
REMARK    4  A    between atoms: C8_8  and  N10_10 
REMARK    5  A    between atoms: C9_9  and  N10_10 
ROOT
HETATM    1  C1  UNL     1     -32.294  11.934   2.207  1.00 20.00     0.012 C 
HETATM    2  C2  UNL     1     -32.562  11.038   1.455  1.00 20.00    -0.116 C 
HETATM    3  C6  UNL     1     -32.892   9.941   0.531  1.00 20.00     0.123 C 
ENDROOT
BRANCH   3   4
HETATM    4  C9  UNL     1     -32.633   8.573   1.152  1.00 20.00     0.282 C 
BRANCH   4   5
HETATM    5  N10 UNL     1     -33.406   8.403   2.374  1.00 20.00     0.088 N 
HETATM    6  H25 UNL     1     -34.364   8.153   2.135  1.00 20.00     0.316 HD
BRANCH   5   7
HETATM    7  C8  UNL     1     -32.834   7.351   3.209  1.00 20.00     0.302 C 
BRANCH   7   8
HETATM    8  C4  UNL     1     -33.597   7.143   4.496  1.00 20.00    -0.062 C 
HETATM    9  C3  UNL     1     -33.259   7.812   5.611  1.00 20.00     0.016 C 
BRANCH   8  10
HETATM   10  C7  UNL     1     -34.751   6.166   4.498  1.00 20.00     0.030 C 
HETATM   11  C5  UNL     1     -34.325   4.748   4.854  1.00 20.00     0.010 C 
ENDBRANCH   8  10
ENDBRANCH   7   8
ENDBRANCH   5   7
ENDBRANCH   4   5
ENDBRANCH   3   4
TORSDOF 5
