REMARK  4 active torsions:
REMARK  status: ('A' for Active; 'I' for Inactive)
REMARK    1  A    between atoms: C6_6  and  C8_8 
REMARK    2  A    between atoms: C6_6  and  C9_9 
REMARK    3  A    between atoms: C7_7  and  O11_11 
REMARK    4  A    between atoms: C9_9  and  O11_11 
ROOT
HETATM    1  C1  UNL     1     -33.188   6.767   2.506  1.00 20.00     0.097 C 
HETATM    2  C5  UNL     1     -31.347   7.777   3.783  1.00 20.00     0.062 C 
HETATM    3  C9  UNL     1     -32.841   7.852   3.441  1.00 20.00     0.145 C 
HETATM    4  N10 UNL     1     -33.460   5.914   1.768  1.00 20.00    -0.194 NA
ENDROOT
BRANCH   3   5
HETATM    5  C6  UNL     1     -33.163   9.240   2.846  1.00 20.00     0.057 C 
BRANCH   5   6
HETATM    6  C8  UNL     1     -32.123   9.859   1.879  1.00 20.00    -0.019 C 
HETATM    7  C3  UNL     1     -31.937   8.929   0.674  1.00 20.00     0.009 C 
HETATM    8  C4  UNL     1     -32.497  11.257   1.386  1.00 20.00     0.009 C 
ENDBRANCH   5   6
ENDBRANCH   3   5
BRANCH   3   9
HETATM    9  O11 UNL     1     -33.562   7.688   4.662  1.00 20.00    -0.366 OA
BRANCH   9  10
HETATM   10  C7  UNL     1     -33.626   6.323   5.044  1.00 20.00     0.165 C 
HETATM   11  C2  UNL     1     -34.400   6.209   6.340  1.00 20.00     0.033 C 
ENDBRANCH   9  10
ENDBRANCH   3   9
TORSDOF 4
