REMARK  2 active torsions:
REMARK  status: ('A' for Active; 'I' for Inactive)
REMARK    1  A    between atoms: C5_5  and  O9_9 
REMARK    2  A    between atoms: C7_7  and  O9_9 
ROOT
HETATM    1  C1  UNL     1     -32.623   6.044   2.832  1.00 20.00     0.098 C 
HETATM    2  C2  UNL     1     -34.227   7.678   3.800  1.00 20.00     0.065 C 
HETATM    3  C3  UNL     1     -34.085   7.232   5.247  1.00 20.00     0.078 C 
HETATM    4  C4  UNL     1     -31.823   8.061   4.044  1.00 20.00     0.127 C 
HETATM    5  C5  UNL     1     -32.877   7.468   3.108  1.00 20.00     0.157 C 
HETATM    6  N8  UNL     1     -32.423   4.922   2.614  1.00 20.00    -0.194 NA
HETATM    7  S10 UNL     1     -32.421   7.761   5.737  1.00 20.00    -0.165 SA
ENDROOT
BRANCH   5   8
HETATM    8  O9  UNL     1     -32.867   8.168   1.868  1.00 20.00    -0.365 OA
BRANCH   8   9
HETATM    9  C7  UNL     1     -31.617   8.035   1.209  1.00 20.00     0.165 C 
HETATM   10  C6  UNL     1     -31.665   8.796  -0.098  1.00 20.00     0.033 C 
ENDBRANCH   8   9
ENDBRANCH   5   8
TORSDOF 2
