REMARK  4 active torsions:
REMARK  status: ('A' for Active; 'I' for Inactive)
REMARK    1  A    between atoms: C2_2  and  C7_7 
REMARK    2  A    between atoms: C2_2  and  C8_8 
REMARK    3  A    between atoms: C3_3  and  C9_9 
REMARK    4  A    between atoms: C8_8  and  C9_9 
ROOT
HETATM    1  C8  UNL     1     -34.169   7.900   3.452  1.00 20.00     0.045 C 
ENDROOT
BRANCH   1   2
HETATM    2  C2  UNL     1     -32.694   8.137   3.192  1.00 20.00    -0.089 C 
HETATM    3  C1  UNL     1     -31.823   8.225   4.212  1.00 20.00     0.014 C 
BRANCH   2   4
HETATM    4  C7  UNL     1     -32.221   8.268   1.762  1.00 20.00     0.029 C 
HETATM    5  C5  UNL     1     -32.241   9.703   1.254  1.00 20.00     0.010 C 
ENDBRANCH   2   4
ENDBRANCH   1   2
BRANCH   1   6
HETATM    6  C9  UNL     1     -34.560   6.416   3.571  1.00 20.00     0.055 C 
HETATM    7  C6  UNL     1     -33.826   5.576   2.528  1.00 20.00     0.018 C 
BRANCH   6   8
HETATM    8  C3  UNL     1     -34.239   5.857   4.954  1.00 20.00     0.127 C 
HETATM    9  C4  UNL     1     -34.569   4.406   5.191  1.00 20.00     0.091 C 
HETATM   10  O10 UNL     1     -33.706   6.538   5.831  1.00 20.00    -0.298 OA
ENDBRANCH   6   8
ENDBRANCH   1   6
TORSDOF 4
