REMARK  5 active torsions:
REMARK  status: ('A' for Active; 'I' for Inactive)
REMARK    1  A    between atoms: C3_3  and  C6_6 
REMARK    2  A    between atoms: C3_3  and  C7_7 
REMARK    3  A    between atoms: C6_6  and  C10_10 
REMARK    4  A    between atoms: C8_8  and  C9_9 
REMARK    5  A    between atoms: C9_9  and  C10_10 
ROOT
HETATM    1  C6  UNL     1     -33.690   7.154   3.260  1.00 20.00     0.015 C 
ENDROOT
BRANCH   1   2
HETATM    2  C3  UNL     1     -33.888   5.929   4.140  1.00 20.00    -0.027 A 
HETATM    3  C1  UNL     1     -33.845   6.118   5.639  1.00 20.00     0.011 A 
HETATM    4  C2  UNL     1     -35.155   5.842   4.959  1.00 20.00     0.011 A 
BRANCH   2   5
HETATM    5  C7  UNL     1     -33.326   4.654   3.574  1.00 20.00     0.124 C 
HETATM    6 CL11 UNL     1     -33.746   3.264   4.604  1.00 20.00    -0.130 Cl
ENDBRANCH   2   5
ENDBRANCH   1   2
BRANCH   1   7
HETATM    7  C10 UNL     1     -32.226   7.623   3.172  1.00 20.00    -0.018 C 
HETATM    8  C5  UNL     1     -31.835   8.343   4.467  1.00 20.00     0.010 C 
BRANCH   7   9
HETATM    9  C9  UNL     1     -31.901   8.481   1.932  1.00 20.00     0.004 C 
BRANCH   9  10
HETATM   10  C8  UNL     1     -32.881   9.626   1.656  1.00 20.00    -0.004 C 
HETATM   11  C4  UNL     1     -32.434  10.457   0.462  1.00 20.00     0.005 C 
ENDBRANCH   9  10
ENDBRANCH   7   9
ENDBRANCH   1   7
TORSDOF 5
