REMARK  2 active torsions:
REMARK  status: ('A' for Active; 'I' for Inactive)
REMARK    1  A    between atoms: C4_4  and  C7_7 
REMARK    2  A    between atoms: C7_7  and  C8_8 
ROOT
HETATM    1  C1  UNL     1     -33.839   6.820   5.318  1.00 20.00     0.218 C 
HETATM    2  C2  UNL     1     -34.370   7.009   3.916  1.00 20.00     0.113 C 
HETATM    3  C3  UNL     1     -32.324   8.239   4.203  1.00 20.00     0.132 C 
HETATM    4  C4  UNL     1     -33.150   7.527   3.128  1.00 20.00    -0.020 C 
HETATM    5  C5  UNL     1     -32.361   6.352   2.526  1.00 20.00     0.017 C 
HETATM    6  N9  UNL     1     -32.659   7.545   5.416  1.00 20.00    -0.360 N 
HETATM    7  O10 UNL     1     -34.386   6.174   6.198  1.00 20.00    -0.274 OA
HETATM    8  H25 UNL     1     -32.092   7.581   6.258  1.00 20.00     0.162 HD
ENDROOT
BRANCH   4   9
HETATM    9  C7  UNL     1     -33.569   8.486   2.013  1.00 20.00     0.011 C 
BRANCH   9  10
HETATM   10  C8  UNL     1     -32.352   9.017   1.270  1.00 20.00    -0.004 C 
HETATM   11  C6  UNL     1     -32.769   9.953   0.147  1.00 20.00     0.005 C 
ENDBRANCH   9  10
ENDBRANCH   4   9
TORSDOF 2
