REMARK  1 active torsions:
REMARK  status: ('A' for Active; 'I' for Inactive)
REMARK    1  A    between atoms: C3_3  and  C8_8 
ROOT
HETATM    1  C1  UNL     1     -33.926   6.812   5.336  1.00 20.00     0.218 C 
HETATM    2  C2  UNL     1     -32.768   7.694   4.943  1.00 20.00     0.109 C 
HETATM    3  C3  UNL     1     -33.000   7.925   3.443  1.00 20.00     0.021 C 
HETATM    4  C4  UNL     1     -33.700   6.627   2.978  1.00 20.00     0.029 C 
HETATM    5  C5  UNL     1     -32.732   5.495   2.608  1.00 20.00     0.038 C 
HETATM    6  C6  UNL     1     -34.657   6.892   1.814  1.00 20.00     0.038 C 
HETATM    7  N9  UNL     1     -34.437   6.251   4.172  1.00 20.00    -0.352 N 
HETATM    8  O10 UNL     1     -34.305   6.613   6.480  1.00 20.00    -0.274 OA
HETATM    9  H25 UNL     1     -35.247   5.639   4.157  1.00 20.00     0.163 HD
ENDROOT
BRANCH   3  10
HETATM   10  C8  UNL     1     -31.722   8.304   2.709  1.00 20.00     0.003 C 
HETATM   11  C7  UNL     1     -31.971   8.568   1.258  1.00 20.00     0.005 C 
ENDBRANCH   3  10
TORSDOF 1
