REMARK  1 active torsions:
REMARK  status: ('A' for Active; 'I' for Inactive)
REMARK    1  A    between atoms: C4_4  and  C8_8 
ROOT
HETATM    1  C1  UNL     1     -32.525   7.897   4.027  1.00 20.00     0.218 C 
HETATM    2  C2  UNL     1     -33.796   7.797   3.216  1.00 20.00     0.114 C 
HETATM    3  C3  UNL     1     -34.121   6.810   5.381  1.00 20.00     0.088 C 
HETATM    4  C4  UNL     1     -34.590   6.671   3.916  1.00 20.00    -0.016 C 
HETATM    5  C5  UNL     1     -34.212   5.563   6.247  1.00 20.00     0.033 C 
HETATM    6  C6  UNL     1     -34.232   5.314   3.283  1.00 20.00     0.018 C 
HETATM    7  N9  UNL     1     -32.764   7.284   5.250  1.00 20.00    -0.356 N 
HETATM    8  O10 UNL     1     -31.500   8.456   3.668  1.00 20.00    -0.274 OA
HETATM    9  H25 UNL     1     -32.060   7.180   5.975  1.00 20.00     0.162 HD
ENDROOT
BRANCH   4  10
HETATM   10  C8  UNL     1     -36.099   6.901   3.787  1.00 20.00     0.007 C 
HETATM   11  C7  UNL     1     -36.877   5.820   4.459  1.00 20.00     0.006 C 
ENDBRANCH   4  10
TORSDOF 1
