REMARK  1 active torsions:
REMARK  status: ('A' for Active; 'I' for Inactive)
REMARK    1  A    between atoms: C5_5  and  C6_6 
ROOT
HETATM    1  C1  UNL     1     -36.083   5.904   3.072  1.00 20.00     0.218 C 
HETATM    2  C2  UNL     1     -34.903   6.474   2.324  1.00 20.00     0.110 C 
HETATM    3  C5  UNL     1     -33.970   6.939   3.450  1.00 20.00     0.026 C 
HETATM    4  C7  UNL     1     -34.264   5.949   4.600  1.00 20.00     0.030 C 
HETATM    5  C8  UNL     1     -34.065   6.603   5.969  1.00 20.00     0.038 C 
HETATM    6  C9  UNL     1     -33.455   4.647   4.526  1.00 20.00     0.038 C 
HETATM    7  N10 UNL     1     -35.667   5.651   4.374  1.00 20.00    -0.352 N 
HETATM    8  O11 UNL     1     -37.183   5.680   2.591  1.00 20.00    -0.274 OA
HETATM    9  H26 UNL     1     -36.285   5.292   5.097  1.00 20.00     0.163 HD
ENDROOT
BRANCH   3  10
HETATM   10  C6  UNL     1     -32.519   7.039   2.999  1.00 20.00    -0.008 A 
HETATM   11  C3  UNL     1     -32.031   8.282   2.319  1.00 20.00     0.005 A 
HETATM   12  C4  UNL     1     -31.575   7.958   3.714  1.00 20.00     0.005 A 
ENDBRANCH   3  10
TORSDOF 1
