REMARK  1 active torsions:
REMARK  status: ('A' for Active; 'I' for Inactive)
REMARK    1  A    between atoms: C3_3  and  C8_8 
ROOT
HETATM    1  C1  UNL     1     -32.070   7.605   2.509  1.00 20.00     0.218 C 
HETATM    2  C2  UNL     1     -32.077   7.800   4.005  1.00 20.00     0.109 C 
HETATM    3  C3  UNL     1     -33.413   7.174   4.430  1.00 20.00     0.021 C 
HETATM    4  C4  UNL     1     -33.638   6.053   3.390  1.00 20.00     0.029 C 
HETATM    5  C5  UNL     1     -35.128   5.814   3.135  1.00 20.00     0.038 C 
HETATM    6  C6  UNL     1     -32.954   4.726   3.745  1.00 20.00     0.038 C 
HETATM    7  N9  UNL     1     -33.001   6.617   2.213  1.00 20.00    -0.352 N 
HETATM    8  O10 UNL     1     -31.343   8.194   1.724  1.00 20.00    -0.274 OA
HETATM    9  H25 UNL     1     -33.215   6.318   1.266  1.00 20.00     0.163 HD
ENDROOT
BRANCH   3  10
HETATM   10  C8  UNL     1     -33.418   6.751   5.892  1.00 20.00     0.003 C 
HETATM   11  C7  UNL     1     -34.739   6.184   6.303  1.00 20.00     0.005 C 
ENDBRANCH   3  10
TORSDOF 1
