REMARK  1 active torsions:
REMARK  status: ('A' for Active; 'I' for Inactive)
REMARK    1  A    between atoms: C3_3  and  C6_6 
ROOT
HETATM    1  C1  UNL     1     -34.355   6.700   4.212  1.00 20.00     0.131 A 
HETATM    2  C2  UNL     1     -34.435   4.558   3.749  1.00 20.00     0.166 A 
HETATM    3  C3  UNL     1     -33.271   6.631   3.361  1.00 20.00     0.005 A 
HETATM    4  N7  UNL     1     -35.023   5.512   4.435  1.00 20.00    -0.265 NA
HETATM    5  S8  UNL     1     -33.071   5.017   2.814  1.00 20.00    -0.085 SA
ENDROOT
BRANCH   3   6
HETATM    6  C6  UNL     1     -32.326   7.725   2.901  1.00 20.00     0.019 C 
HETATM    7  C4  UNL     1     -31.554   8.332   4.075  1.00 20.00     0.015 C 
HETATM    8  C5  UNL     1     -33.063   8.811   2.113  1.00 20.00     0.015 C 
ENDBRANCH   3   6
TORSDOF 1
