REMARK  0 active torsions:
REMARK  status: ('A' for Active; 'I' for Inactive)
ROOT
HETATM    1  C1  UNL     1     -32.423   8.483   4.167  1.00 20.00     0.010 A 
HETATM    2  C2  UNL     1     -33.156   7.510   4.849  1.00 20.00     0.019 A 
HETATM    3  C3  UNL     1     -33.811   6.466   2.751  1.00 20.00     0.026 A 
HETATM    4  C4  UNL     1     -32.389   8.431   2.783  1.00 20.00    -0.033 A 
HETATM    5  C5  UNL     1     -33.072   7.428   2.083  1.00 20.00    -0.049 A 
HETATM    6  C6  UNL     1     -33.846   6.509   4.146  1.00 20.00     0.011 A 
HETATM    7  C7  UNL     1     -32.913   7.604   0.605  1.00 20.00     0.041 C 
HETATM    8  C8  UNL     1     -31.682   8.525   0.551  1.00 20.00     0.030 C 
HETATM    9  C9  UNL     1     -31.701   9.369   1.838  1.00 20.00     0.116 C 
HETATM   10 CL10 UNL     1     -32.665  10.846   1.630  1.00 20.00    -0.120 Cl
HETATM   11 BR11 UNL     1     -34.838   5.211   5.100  1.00 20.00    -0.051 Br
ENDROOT
TORSDOF 0
