REMARK  2 active torsions:
REMARK  status: ('A' for Active; 'I' for Inactive)
REMARK    1  A    between atoms: C3_3  and  C7_7 
REMARK    2  A    between atoms: C7_7  and  C8_8 
ROOT
HETATM    1  C1  UNL     1     -32.131   8.821   0.849  1.00 20.00     0.012 C 
HETATM    2  C2  UNL     1     -32.604   8.600   1.930  1.00 20.00    -0.116 C 
HETATM    3  C8  UNL     1     -33.180   8.340   3.253  1.00 20.00     0.113 C 
ENDROOT
BRANCH   3   4
HETATM    4  C7  UNL     1     -33.491   6.829   3.441  1.00 20.00     0.058 C 
HETATM    5  C5  UNL     1     -32.325   5.859   3.072  1.00 20.00     0.021 C 
HETATM    6  C4  UNL     1     -33.351   4.948   2.375  1.00 20.00     0.003 C 
HETATM    7  C6  UNL     1     -34.289   6.163   2.276  1.00 20.00     0.021 C 
BRANCH   4   8
HETATM    8  C3  UNL     1     -34.092   6.561   4.823  1.00 20.00     0.182 C 
HETATM    9  O9  UNL     1     -35.054   5.744   4.843  1.00 20.00    -0.647 OA
HETATM   10  O10 UNL     1     -33.547   7.194   5.770  1.00 20.00    -0.647 OA
ENDBRANCH   4   8
ENDBRANCH   3   4
TORSDOF 2
