REMARK  1 active torsions:
REMARK  status: ('A' for Active; 'I' for Inactive)
REMARK    1  A    between atoms: C3_3  and  C7_7 
ROOT
HETATM    1  C1  UNL     1     -34.048   7.163   5.890  1.00 20.00     0.284 C 
HETATM    2  C2  UNL     1     -33.688   6.419   3.013  1.00 20.00     0.109 C 
HETATM    3  C3  UNL     1     -33.066   7.631   3.714  1.00 20.00     0.229 C 
HETATM    4  C4  UNL     1     -34.813   5.897   5.489  1.00 20.00     0.071 C 
HETATM    5  C5  UNL     1     -34.035   4.615   5.780  1.00 20.00     0.023 C 
HETATM    6  N8  UNL     1     -32.811   7.375   5.137  1.00 20.00     0.089 N 
HETATM    7  S9  UNL     1     -35.297   5.969   3.728  1.00 20.00    -0.161 SA
HETATM    8  H24 UNL     1     -32.316   8.173   5.538  1.00 20.00     0.316 HD
ENDROOT
BRANCH   3   9
HETATM    9  C7  UNL     1     -31.735   7.985   3.044  1.00 20.00     0.032 C 
HETATM   10  C6  UNL     1     -31.917   8.302   1.598  1.00 20.00     0.007 C 
ENDBRANCH   3   9
TORSDOF 1
