REMARK  1 active torsions:
REMARK  status: ('A' for Active; 'I' for Inactive)
REMARK    1  A    between atoms: C3_3  and  C7_7 
ROOT
HETATM    1  C1  UNL     1     -33.685   4.823   3.707  1.00 20.00     0.111 C 
HETATM    2  C2  UNL     1     -34.374   5.702   4.749  1.00 20.00     0.227 C 
HETATM    3  C3  UNL     1     -33.705   7.424   3.282  1.00 20.00     0.285 C 
HETATM    4  C4  UNL     1     -34.253   5.110   6.148  1.00 20.00     0.043 C 
HETATM    5  N8  UNL     1     -33.736   7.029   4.696  1.00 20.00     0.102 N 
HETATM    6  S9  UNL     1     -33.474   5.919   2.285  1.00 20.00    -0.131 SA
HETATM    7  H24 UNL     1     -34.265   7.705   5.246  1.00 20.00     0.317 HD
ENDROOT
BRANCH   3   8
HETATM    8  C7  UNL     1     -32.590   8.425   3.014  1.00 20.00     0.021 C 
HETATM    9  C5  UNL     1     -31.231   7.840   3.401  1.00 20.00     0.012 C 
HETATM   10  C6  UNL     1     -32.586   8.854   1.546  1.00 20.00     0.012 C 
ENDBRANCH   3   8
TORSDOF 1
