REMARK  1 active torsions:
REMARK  status: ('A' for Active; 'I' for Inactive)
REMARK    1  A    between atoms: C2_2  and  C6_6 
ROOT
HETATM    1  C1  UNL     1     -33.165   7.607   5.319  1.00 20.00     0.111 C 
HETATM    2  C2  UNL     1     -33.466   7.628   3.821  1.00 20.00     0.231 C 
HETATM    3  C3  UNL     1     -34.792   5.758   4.382  1.00 20.00     0.278 C 
HETATM    4  C4  UNL     1     -34.771   4.239   4.470  1.00 20.00     0.054 C 
HETATM    5  N7  UNL     1     -33.796   6.248   3.420  1.00 20.00     0.102 N 
HETATM    6  S8  UNL     1     -34.422   6.503   6.001  1.00 20.00    -0.132 SA
HETATM    7  H21 UNL     1     -34.171   6.228   2.473  1.00 20.00     0.317 HD
ENDROOT
BRANCH   2   8
HETATM    8  C6  UNL     1     -32.279   8.145   3.018  1.00 20.00     0.032 C 
HETATM    9  C5  UNL     1     -32.559   8.145   1.550  1.00 20.00     0.007 C 
ENDBRANCH   2   8
TORSDOF 1
