REMARK  0 active torsions:
REMARK  status: ('A' for Active; 'I' for Inactive)
ROOT
HETATM    1  C1  UNL     1     -32.931   8.349   2.084  1.00 20.00     0.125 C 
HETATM    2  C2  UNL     1     -33.538   7.192   4.272  1.00 20.00     0.074 A 
HETATM    3  C3  UNL     1     -34.002   5.240   3.295  1.00 20.00     0.167 A 
HETATM    4  C4  UNL     1     -33.347   7.284   2.912  1.00 20.00     0.156 A 
HETATM    5  C5  UNL     1     -33.963   5.865   4.520  1.00 20.00     0.059 A 
HETATM    6  N6  UNL     1     -32.589   9.225   1.404  1.00 20.00    -0.189 NA
HETATM    7  O7  UNL     1     -33.628   6.098   2.310  1.00 20.00    -0.310 OA
HETATM    8 CL8  UNL     1     -34.340   5.209   6.035  1.00 20.00    -0.082 Cl
ENDROOT
TORSDOF 0
