REMARK  1 active torsions:
REMARK  status: ('A' for Active; 'I' for Inactive)
REMARK    1  A    between atoms: C4_4  and  C5_5 
ROOT
HETATM    1  C3  UNL     1     -34.614   6.369   5.510  1.00 20.00     0.116 C 
HETATM    2  C5  UNL     1     -32.913   7.185   3.684  1.00 20.00     0.286 C 
HETATM    3  C6  UNL     1     -34.717   5.640   4.163  1.00 20.00     0.160 C 
HETATM    4  C7  UNL     1     -34.879   4.130   4.401  1.00 20.00     0.049 C 
HETATM    5  C8  UNL     1     -35.920   6.128   3.336  1.00 20.00     0.049 C 
HETATM    6  N9  UNL     1     -33.445   5.842   3.452  1.00 20.00     0.107 N 
HETATM    7  S10 UNL     1     -33.701   7.886   5.155  1.00 20.00    -0.131 SA
HETATM    8  H25 UNL     1     -33.625   5.734   2.445  1.00 20.00     0.318 HD
ENDROOT
BRANCH   2   9
HETATM    9  C4  UNL     1     -33.090   8.094   2.505  1.00 20.00     0.029 A 
HETATM   10  C1  UNL     1     -32.247   9.332   2.369  1.00 20.00     0.008 A 
HETATM   11  C2  UNL     1     -32.030   8.169   1.441  1.00 20.00     0.008 A 
ENDBRANCH   2   9
TORSDOF 1
