REMARK  3 active torsions:
REMARK  status: ('A' for Active; 'I' for Inactive)
REMARK    1  A    between atoms: C3_3  and  C6_6 
REMARK    2  A    between atoms: C6_6  and  C8_8 
REMARK    3  A    between atoms: C7_7  and  C8_8 
ROOT
HETATM    1  C1  UNL     1     -33.874   5.212   4.028  1.00 20.00     0.111 C 
HETATM    2  C2  UNL     1     -33.610   6.372   4.986  1.00 20.00     0.227 C 
HETATM    3  C3  UNL     1     -33.466   7.583   2.951  1.00 20.00     0.282 C 
HETATM    4  C4  UNL     1     -34.374   6.200   6.295  1.00 20.00     0.043 C 
HETATM    5  N9  UNL     1     -34.027   7.614   4.310  1.00 20.00     0.102 N 
HETATM    6  S10 UNL     1     -33.360   5.849   2.418  1.00 20.00    -0.132 SA
HETATM    7  H27 UNL     1     -35.045   7.607   4.232  1.00 20.00     0.317 HD
ENDROOT
BRANCH   3   8
HETATM    8  C6  UNL     1     -32.089   8.237   2.914  1.00 20.00     0.046 C 
BRANCH   8   9
HETATM    9  C8  UNL     1     -31.494   8.201   1.508  1.00 20.00     0.002 C 
BRANCH   9  10
HETATM   10  C7  UNL     1     -32.369   8.971   0.519  1.00 20.00    -0.004 C 
HETATM   11  C5  UNL     1     -32.538  10.422   0.938  1.00 20.00     0.005 C 
ENDBRANCH   9  10
ENDBRANCH   8   9
ENDBRANCH   3   8
TORSDOF 3
