REMARK  1 active torsions:
REMARK  status: ('A' for Active; 'I' for Inactive)
REMARK    1  A    between atoms: C2_2  and  C6_6 
ROOT
HETATM    1  C1  UNL     1     -31.673   7.960   3.872  1.00 20.00     0.111 C 
HETATM    2  C2  UNL     1     -32.148   7.641   2.455  1.00 20.00     0.231 C 
HETATM    3  C3  UNL     1     -33.857   6.501   3.658  1.00 20.00     0.278 C 
HETATM    4  C4  UNL     1     -34.218   5.123   4.198  1.00 20.00     0.054 C 
HETATM    5  N7  UNL     1     -32.937   6.397   2.516  1.00 20.00     0.102 N 
HETATM    6  S8  UNL     1     -33.053   7.502   4.946  1.00 20.00    -0.132 SA
HETATM    7  H21 UNL     1     -33.498   6.335   1.663  1.00 20.00     0.317 HD
ENDROOT
BRANCH   2   8
HETATM    8  C6  UNL     1     -32.941   8.781   1.811  1.00 20.00     0.032 C 
HETATM    9  C5  UNL     1     -32.127  10.031   1.705  1.00 20.00     0.007 C 
ENDBRANCH   2   8
TORSDOF 1
