REMARK  1 active torsions:
REMARK  status: ('A' for Active; 'I' for Inactive)
REMARK    1  A    between atoms: C2_2  and  C8_8 
ROOT
HETATM    1  C1  UNL     1     -31.847   8.217   3.321  1.00 20.00     0.284 C 
HETATM    2  C2  UNL     1     -33.251   6.701   4.619  1.00 20.00     0.233 C 
HETATM    3  C3  UNL     1     -32.892   8.565   2.259  1.00 20.00     0.071 C 
HETATM    4  C4  UNL     1     -34.499   6.841   3.718  1.00 20.00     0.076 C 
HETATM    5  C5  UNL     1     -32.224   8.934   0.937  1.00 20.00     0.023 C 
HETATM    6  C6  UNL     1     -35.386   5.595   3.724  1.00 20.00     0.023 C 
HETATM    7  N9  UNL     1     -32.437   7.926   4.626  1.00 20.00     0.090 N 
HETATM    8  S10 UNL     1     -34.006   7.149   1.980  1.00 20.00    -0.156 SA
HETATM    9  H27 UNL     1     -31.684   7.826   5.308  1.00 20.00     0.316 HD
ENDROOT
BRANCH   2  10
HETATM   10  C8  UNL     1     -33.625   6.419   6.078  1.00 20.00     0.032 C 
HETATM   11  C7  UNL     1     -34.473   7.508   6.642  1.00 20.00     0.007 C 
ENDBRANCH   2  10
TORSDOF 1
