REMARK  1 active torsions:
REMARK  status: ('A' for Active; 'I' for Inactive)
REMARK    1  A    between atoms: C4_4  and  C7_7 
ROOT
HETATM    1  C1  UNL     1     -35.033   5.778   4.517  1.00 20.00     0.109 C 
HETATM    2  C2  UNL     1     -33.018   5.617   2.627  1.00 20.00     0.109 C 
HETATM    3  C3  UNL     1     -34.410   7.131   4.899  1.00 20.00     0.226 C 
HETATM    4  C4  UNL     1     -33.484   7.080   2.624  1.00 20.00     0.230 C 
HETATM    5  C5  UNL     1     -33.809   7.090   6.310  1.00 20.00     0.043 C 
HETATM    6  N8  UNL     1     -33.408   7.664   3.964  1.00 20.00     0.093 N 
HETATM    7  S9  UNL     1     -33.815   4.582   3.898  1.00 20.00    -0.165 SA
HETATM    8  H24 UNL     1     -33.522   8.681   3.898  1.00 20.00     0.316 HD
ENDROOT
BRANCH   4   9
HETATM    9  C7  UNL     1     -32.598   7.906   1.689  1.00 20.00     0.032 C 
HETATM   10  C6  UNL     1     -33.024   9.335   1.652  1.00 20.00     0.007 C 
ENDBRANCH   4   9
TORSDOF 1
