REMARK  4 active torsions:
REMARK  status: ('A' for Active; 'I' for Inactive)
REMARK    1  A    between atoms: C1_1  and  C4_4 
REMARK    2  A    between atoms: C1_1  and  O11_11 
REMARK    3  A    between atoms: C5_5  and  C8_8 
REMARK    4  A    between atoms: C8_8  and  C9_9 
ROOT
HETATM    1  C2  UNL     1     -33.739   8.400   3.324  1.00 20.00     0.019 C 
HETATM    2  C3  UNL     1     -31.869   7.411   3.584  1.00 20.00     0.019 C 
HETATM    3  C4  UNL     1     -33.055   7.714   4.532  1.00 20.00     0.086 C 
HETATM    4  C5  UNL     1     -32.321   8.632   2.743  1.00 20.00    -0.013 C 
ENDROOT
BRANCH   3   5
HETATM    5  C1  UNL     1     -33.760   6.526   5.079  1.00 20.00     0.262 C 
HETATM    6  O10 UNL     1     -34.010   6.364   6.266  1.00 20.00    -0.265 OA
BRANCH   5   7
HETATM    7  O11 UNL     1     -34.069   5.672   4.062  1.00 20.00    -0.326 OA
HETATM    8  C7  UNL     1     -34.755   4.477   4.451  1.00 20.00     0.213 C 
ENDBRANCH   5   7
ENDBRANCH   3   5
BRANCH   4   9
HETATM    9  C8  UNL     1     -32.175   8.513   1.240  1.00 20.00     0.004 C 
BRANCH   9  10
HETATM   10  C9  UNL     1     -33.088   9.495   0.504  1.00 20.00    -0.004 C 
HETATM   11  C6  UNL     1     -32.795  10.935   0.893  1.00 20.00     0.005 C 
ENDBRANCH   9  10
ENDBRANCH   4   9
TORSDOF 4
