REMARK  0 active torsions:
REMARK  status: ('A' for Active; 'I' for Inactive)
ROOT
HETATM    1  C1  UNL     1     -35.986   5.800   3.732  1.00 20.00     0.080 C 
HETATM    2  C2  UNL     1     -34.077   7.728   5.298  1.00 20.00     0.013 C 
HETATM    3  C3  UNL     1     -34.451   6.286   5.621  1.00 20.00     0.036 C 
HETATM    4  C4  UNL     1     -32.943   7.662   4.292  1.00 20.00     0.076 C 
HETATM    5  C5  UNL     1     -34.643   5.553   4.286  1.00 20.00     0.093 C 
HETATM    6  C6  UNL     1     -34.408   4.051   4.434  1.00 20.00     0.043 C 
HETATM    7  N7  UNL     1     -37.043   5.995   3.296  1.00 20.00    -0.196 NA
HETATM    8  S8  UNL     1     -33.365   6.282   3.191  1.00 20.00    -0.144 SA
ENDROOT
TORSDOF 0
