REMARK  2 active torsions:
REMARK  status: ('A' for Active; 'I' for Inactive)
REMARK    1  A    between atoms: C3_3  and  C6_6 
REMARK    2  A    between atoms: C6_6  and  C7_7 
ROOT
HETATM    1  C1  UNL     1     -33.867   6.504   5.169  1.00 20.00     0.285 C 
HETATM    2  C2  UNL     1     -34.353   5.308   4.351  1.00 20.00     0.073 C 
HETATM    3  C3  UNL     1     -32.780   7.059   3.156  1.00 20.00     0.282 C 
HETATM    4  C4  UNL     1     -34.261   3.998   5.113  1.00 20.00     0.023 C 
HETATM    5  N8  UNL     1     -33.627   7.597   4.225  1.00 20.00     0.098 N 
HETATM    6  S9  UNL     1     -33.263   5.322   2.899  1.00 20.00    -0.128 SA
HETATM    7  H24 UNL     1     -34.523   7.882   3.828  1.00 20.00     0.317 HD
ENDROOT
BRANCH   3   8
HETATM    8  C6  UNL     1     -32.959   7.868   1.882  1.00 20.00     0.046 C 
BRANCH   8   9
HETATM    9  C7  UNL     1     -32.559   9.327   2.086  1.00 20.00    -0.002 C 
HETATM   10  C5  UNL     1     -32.712  10.130   0.804  1.00 20.00     0.005 C 
ENDBRANCH   8   9
ENDBRANCH   3   8
TORSDOF 2
