REMARK  2 active torsions:
REMARK  status: ('A' for Active; 'I' for Inactive)
REMARK    1  A    between atoms: C3_3  and  C7_7 
REMARK    2  A    between atoms: C7_7  and  C8_8 
ROOT
HETATM    1  C1  UNL     1     -33.624   4.589   3.448  1.00 20.00     0.111 C 
HETATM    2  C2  UNL     1     -33.944   5.508   4.626  1.00 20.00     0.227 C 
HETATM    3  C3  UNL     1     -33.732   7.176   2.951  1.00 20.00     0.282 C 
HETATM    4  C4  UNL     1     -34.887   4.836   5.618  1.00 20.00     0.043 C 
HETATM    5  N9  UNL     1     -34.560   6.733   4.082  1.00 20.00     0.102 N 
HETATM    6  S10 UNL     1     -32.988   5.708   2.181  1.00 20.00    -0.132 SA
HETATM    7  H27 UNL     1     -35.484   6.490   3.722  1.00 20.00     0.317 HD
ENDROOT
BRANCH   3   8
HETATM    8  C7  UNL     1     -32.647   8.143   3.415  1.00 20.00     0.050 C 
BRANCH   8   9
HETATM    9  C8  UNL     1     -32.066   9.001   2.280  1.00 20.00    -0.020 C 
HETATM   10  C5  UNL     1     -31.427   8.156   1.177  1.00 20.00     0.009 C 
HETATM   11  C6  UNL     1     -33.166   9.883   1.683  1.00 20.00     0.009 C 
ENDBRANCH   8   9
ENDBRANCH   3   8
TORSDOF 2
