REMARK  0 active torsions:
REMARK  status: ('A' for Active; 'I' for Inactive)
ROOT
HETATM    1  C1  UNL     1     -32.986   4.597   2.466  1.00 20.00     0.019 A 
HETATM    2  C2  UNL     1     -32.494   5.912   2.157  1.00 20.00     0.031 A 
HETATM    3  C3  UNL     1     -33.723   4.405   3.565  1.00 20.00     0.094 A 
HETATM    4  C4  UNL     1     -32.766   6.950   2.957  1.00 20.00     0.102 A 
HETATM    5  C5  UNL     1     -33.591   6.759   4.195  1.00 20.00     0.268 A 
HETATM    6  C6  UNL     1     -34.841   5.169   5.605  1.00 20.00     0.159 C 
HETATM    7  N7  UNL     1     -34.032   5.446   4.424  1.00 20.00    -0.328 N 
HETATM    8  O8  UNL     1     -33.838   7.716   4.928  1.00 20.00    -0.266 OA
HETATM    9 CL9  UNL     1     -32.189   8.532   2.608  1.00 20.00    -0.078 Cl
ENDROOT
TORSDOF 0
