REMARK  3 active torsions:
REMARK  status: ('A' for Active; 'I' for Inactive)
REMARK    1  A    between atoms: C1_1  and  C6_6 
REMARK    2  A    between atoms: C1_1  and  O9_9 
REMARK    3  A    between atoms: C7_7  and  O9_9 
ROOT
HETATM    1  C1  UNL     1     -33.675   6.889   4.217  1.00 20.00     0.274 C 
HETATM    2  O8  UNL     1     -33.749   7.733   5.102  1.00 20.00    -0.264 OA
ENDROOT
BRANCH   1   3
HETATM    3  C6  UNL     1     -34.327   5.517   4.271  1.00 20.00     0.154 C 
HETATM    4  C2  UNL     1     -33.546   4.529   3.406  1.00 20.00     0.033 C 
HETATM    5  S10 UNL     1     -34.317   4.949   6.006  1.00 20.00    -0.082 SA
ENDBRANCH   1   3
BRANCH   1   6
HETATM    6  O9  UNL     1     -32.993   7.031   3.039  1.00 20.00    -0.310 OA
BRANCH   6   7
HETATM    7  C7  UNL     1     -32.324   8.280   2.859  1.00 20.00     0.060 C 
HETATM    8  C3  UNL     1     -31.304   8.451   3.984  1.00 20.00     0.045 C 
HETATM    9  C4  UNL     1     -31.625   8.236   1.502  1.00 20.00     0.045 C 
HETATM   10  C5  UNL     1     -33.364   9.399   2.892  1.00 20.00     0.045 C 
ENDBRANCH   6   7
ENDBRANCH   1   6
TORSDOF 3
