REMARK  2 active torsions:
REMARK  status: ('A' for Active; 'I' for Inactive)
REMARK    1  A    between atoms: C6_6  and  C8_8 
REMARK    2  A    between atoms: C8_8  and  O9_9 
ROOT
HETATM    1  C1  UNL     1     -34.252   4.719   5.568  1.00 20.00    -0.004 C 
HETATM    2  C2  UNL     1     -33.931   4.018   4.350  1.00 20.00    -0.003 C 
HETATM    3  C3  UNL     1     -34.082   6.044   5.672  1.00 20.00    -0.025 C 
HETATM    4  C4  UNL     1     -33.668   4.679   3.214  1.00 20.00    -0.003 C 
HETATM    5  C5  UNL     1     -33.554   6.875   4.532  1.00 20.00     0.054 C 
HETATM    6  C6  UNL     1     -33.661   6.188   3.146  1.00 20.00     0.060 C 
HETATM    7 BR10 UNL     1     -35.416   6.675   2.353  1.00 20.00    -0.079 Br
ENDROOT
BRANCH   6   8
HETATM    8  C8  UNL     1     -32.583   6.712   2.197  1.00 20.00     0.192 C 
BRANCH   8   9
HETATM    9  O9  UNL     1     -32.650   8.125   2.182  1.00 20.00    -0.394 OA
HETATM   10  C7  UNL     1     -31.672   8.691   1.316  1.00 20.00     0.201 C 
ENDBRANCH   8   9
ENDBRANCH   6   8
TORSDOF 2
