REMARK  1 active torsions:
REMARK  status: ('A' for Active; 'I' for Inactive)
REMARK    1  A    between atoms: C3_3  and  C7_7 
ROOT
HETATM    1  C1  UNL     1     -33.932   5.748   3.226  1.00 20.00    -0.011 C 
HETATM    2  C2  UNL     1     -33.965   5.988   4.546  1.00 20.00    -0.015 C 
HETATM    3  C4  UNL     1     -33.453   6.754   2.219  1.00 20.00     0.040 C 
HETATM    4  C5  UNL     1     -33.490   7.278   5.155  1.00 20.00     0.047 C 
HETATM    5  C6  UNL     1     -32.660   8.125   4.185  1.00 20.00     0.017 C 
HETATM    6  C7  UNL     1     -33.305   8.165   2.800  1.00 20.00     0.058 C 
HETATM    7 BR10 UNL     1     -34.595   4.718   5.765  1.00 20.00    -0.056 Br
ENDROOT
BRANCH   6   8
HETATM    8  C3  UNL     1     -32.481   9.003   1.871  1.00 20.00     0.127 C 
HETATM    9  C8  UNL     1     -32.268  10.439   2.264  1.00 20.00     0.091 C 
HETATM   10  O9  UNL     1     -32.000   8.538   0.839  1.00 20.00    -0.298 OA
ENDBRANCH   6   8
TORSDOF 1
