REMARK  4 active torsions:
REMARK  status: ('A' for Active; 'I' for Inactive)
REMARK    1  A    between atoms: C2_2  and  C6_6 
REMARK    2  A    between atoms: C6_6  and  S10_10 
REMARK    3  A    between atoms: C7_7  and  C8_8 
REMARK    4  A    between atoms: C7_7  and  S10_10 
ROOT
HETATM    1  C6  UNL     1     -33.286   6.888   4.444  1.00 20.00     0.113 C 
ENDROOT
BRANCH   1   2
HETATM    2  C2  UNL     1     -34.207   5.700   4.651  1.00 20.00     0.087 A 
HETATM    3  C1  UNL     1     -35.436   5.551   3.788  1.00 20.00     0.207 A 
HETATM    4  O9  UNL     1     -34.242   4.794   3.540  1.00 20.00    -0.375 OA
HETATM    5  C3  UNL     1     -34.154   5.019   5.981  1.00 20.00     0.049 C 
ENDBRANCH   1   2
BRANCH   1   6
HETATM    6  S10 UNL     1     -33.101   7.247   2.683  1.00 20.00    -0.166 SA
BRANCH   6   7
HETATM    7  C7  UNL     1     -31.977   8.671   2.825  1.00 20.00     0.077 C 
BRANCH   7   8
HETATM    8  C8  UNL     1     -31.971   9.628   1.620  1.00 20.00    -0.013 C 
HETATM    9  C4  UNL     1     -31.556   8.938   0.319  1.00 20.00     0.010 C 
HETATM   10  C5  UNL     1     -33.302  10.360   1.440  1.00 20.00     0.010 C 
ENDBRANCH   7   8
ENDBRANCH   6   7
ENDBRANCH   1   6
TORSDOF 4
