REMARK  1 active torsions:
REMARK  status: ('A' for Active; 'I' for Inactive)
REMARK    1  A    between atoms: C2_2  and  O8_8 
ROOT
HETATM    1  C1  UNL     1     -34.227   5.563   3.001  1.00 20.00     0.049 C 
HETATM    2  C2  UNL     1     -33.281   6.029   4.134  1.00 20.00     0.131 C 
HETATM    3  C3  UNL     1     -35.417   5.844   3.944  1.00 20.00     0.070 C 
HETATM    4  C4  UNL     1     -34.427   5.687   5.149  1.00 20.00    -0.008 C 
HETATM    5  C5  UNL     1     -34.246   4.293   5.762  1.00 20.00     0.018 C 
HETATM    6  C6  UNL     1     -34.661   6.724   6.248  1.00 20.00     0.018 C 
HETATM    7 BR9  UNL     1     -36.908   4.623   3.816  1.00 20.00    -0.090 Br
ENDROOT
BRANCH   2   8
HETATM    8  O8  UNL     1     -32.869   7.410   4.062  1.00 20.00    -0.390 OA
HETATM    9  C7  UNL     1     -31.820   7.571   3.127  1.00 20.00     0.202 C 
ENDBRANCH   2   8
TORSDOF 1
