REMARK  1 active torsions:
REMARK  status: ('A' for Active; 'I' for Inactive)
REMARK    1  A    between atoms: C6_6  and  O10_10 
ROOT
HETATM    1  C1  UNL     1     -33.082   9.286   1.085  1.00 20.00     0.001 C 
HETATM    2  C2  UNL     1     -31.863   8.386   1.157  1.00 20.00     0.001 C 
HETATM    3  C3  UNL     1     -34.185   8.448   1.726  1.00 20.00     0.013 C 
HETATM    4  C4  UNL     1     -31.957   7.817   2.566  1.00 20.00     0.013 C 
HETATM    5  C5  UNL     1     -34.951   6.424   3.832  1.00 20.00     0.053 C 
HETATM    6  C6  UNL     1     -33.937   6.056   2.726  1.00 20.00     0.132 C 
HETATM    7  C7  UNL     1     -34.041   7.612   4.212  1.00 20.00     0.095 C 
HETATM    8  C8  UNL     1     -33.455   7.552   2.757  1.00 20.00     0.003 C 
HETATM    9 CL11 UNL     1     -32.938   7.365   5.630  1.00 20.00    -0.124 Cl
ENDROOT
BRANCH   6  10
HETATM   10  O10 UNL     1     -32.975   5.040   3.080  1.00 20.00    -0.390 OA
HETATM   11  C9  UNL     1     -33.543   3.748   2.975  1.00 20.00     0.202 C 
ENDBRANCH   6  10
TORSDOF 1
