REMARK  3 active torsions:
REMARK  status: ('A' for Active; 'I' for Inactive)
REMARK    1  A    between atoms: C2_2  and  O10_10 
REMARK    2  A    between atoms: C7_7  and  C8_8 
REMARK    3  A    between atoms: C8_8  and  O10_10 
ROOT
HETATM    1  C3  UNL     1     -34.733   6.139   5.611  1.00 20.00     0.005 C 
HETATM    2  C4  UNL     1     -34.507   4.631   5.618  1.00 20.00     0.026 C 
HETATM    3  C5  UNL     1     -33.783   6.818   4.629  1.00 20.00     0.034 C 
HETATM    4  C6  UNL     1     -34.533   4.075   4.201  1.00 20.00     0.168 C 
HETATM    5  C7  UNL     1     -33.855   6.146   3.256  1.00 20.00     0.145 C 
HETATM    6  O9  UNL     1     -33.580   4.746   3.376  1.00 20.00    -0.384 OA
ENDROOT
BRANCH   5   7
HETATM    7  C8  UNL     1     -32.830   6.741   2.300  1.00 20.00     0.206 C 
BRANCH   7   8
HETATM    8  O10 UNL     1     -33.104   8.122   2.144  1.00 20.00    -0.361 OA
BRANCH   8   9
HETATM    9  C2  UNL     1     -32.279   8.775   1.332  1.00 20.00     0.124 C 
HETATM   10  C1  UNL     1     -32.357  10.076   1.046  1.00 20.00     0.037 C 
ENDBRANCH   8   9
ENDBRANCH   7   8
ENDBRANCH   5   7
TORSDOF 3
