REMARK  3 active torsions:
REMARK  status: ('A' for Active; 'I' for Inactive)
REMARK    1  A    between atoms: C4_4  and  O11_11 
REMARK    2  A    between atoms: C8_8  and  C10_10 
REMARK    3  A    between atoms: C10_10  and  O11_11 
ROOT
HETATM    1  C1  UNL     1     -34.496   4.505   6.077  1.00 20.00    -0.030 C 
HETATM    2  C2  UNL     1     -34.581   5.780   6.477  1.00 20.00    -0.030 C 
HETATM    3  C5  UNL     1     -34.031   4.104   4.710  1.00 20.00     0.031 C 
HETATM    4  C6  UNL     1     -34.190   6.936   5.608  1.00 20.00     0.034 C 
HETATM    5  C7  UNL     1     -33.991   5.274   3.704  1.00 20.00    -0.009 C 
HETATM    6  C8  UNL     1     -33.369   6.527   4.366  1.00 20.00     0.017 C 
HETATM    7  C9  UNL     1     -33.255   4.831   2.438  1.00 20.00     0.011 C 
ENDROOT
BRANCH   6   8
HETATM    8  C10 UNL     1     -33.257   7.720   3.414  1.00 20.00     0.179 C 
BRANCH   8   9
HETATM    9  O11 UNL     1     -32.153   7.503   2.556  1.00 20.00    -0.363 OA
BRANCH   9  10
HETATM   10  C4  UNL     1     -31.924   8.468   1.670  1.00 20.00     0.124 C 
HETATM   11  C3  UNL     1     -32.647   9.584   1.550  1.00 20.00     0.037 C 
ENDBRANCH   9  10
ENDBRANCH   8   9
ENDBRANCH   6   8
TORSDOF 3
