REMARK  3 active torsions:
REMARK  status: ('A' for Active; 'I' for Inactive)
REMARK    1  A    between atoms: C2_2  and  O6_6 
REMARK    2  A    between atoms: C4_4  and  C5_5 
REMARK    3  A    between atoms: C4_4  and  O6_6 
ROOT
HETATM    1  C3  UNL     1     -33.406   5.231   2.442  1.00 20.00     0.049 C 
HETATM    2  C4  UNL     1     -33.417   6.132   3.639  1.00 20.00     0.231 C 
ENDROOT
BRANCH   2   3
HETATM    3  C5  UNL     1     -34.561   5.818   4.580  1.00 20.00     0.413 C 
HETATM    4  F7  UNL     1     -34.569   6.672   5.628  1.00 20.00    -0.168 F 
HETATM    5  F8  UNL     1     -35.753   5.938   3.954  1.00 20.00    -0.168 F 
HETATM    6  F9  UNL     1     -34.475   4.564   5.072  1.00 20.00    -0.168 F 
ENDBRANCH   2   3
BRANCH   2   7
HETATM    7  O6  UNL     1     -33.551   7.487   3.216  1.00 20.00    -0.350 OA
BRANCH   7   8
HETATM    8  C2  UNL     1     -32.433   8.047   2.777  1.00 20.00     0.125 C 
HETATM    9  C1  UNL     1     -32.371   9.007   1.852  1.00 20.00     0.037 C 
ENDBRANCH   7   8
ENDBRANCH   2   7
TORSDOF 3
