REMARK  2 active torsions:
REMARK  status: ('A' for Active; 'I' for Inactive)
REMARK    1  A    between atoms: C2_2  and  O10_10 
REMARK    2  A    between atoms: C9_9  and  O10_10 
ROOT
HETATM    1  C1  UNL     1     -33.067   6.165   2.802  1.00 20.00     0.053 C 
HETATM    2  C2  UNL     1     -32.813   7.525   3.493  1.00 20.00     0.132 C 
HETATM    3  C3  UNL     1     -33.506   5.611   4.175  1.00 20.00     0.095 C 
HETATM    4  C4  UNL     1     -33.841   7.085   4.593  1.00 20.00    -0.005 C 
HETATM    5  C5  UNL     1     -33.397   7.430   6.013  1.00 20.00     0.019 C 
HETATM    6  C6  UNL     1     -35.281   7.544   4.345  1.00 20.00     0.019 C 
HETATM    7 CL11 UNL     1     -34.766   4.335   4.217  1.00 20.00    -0.124 Cl
ENDROOT
BRANCH   2   8
HETATM    8  O10 UNL     1     -33.142   8.696   2.725  1.00 20.00    -0.381 OA
BRANCH   8   9
HETATM    9  C9  UNL     1     -31.990   9.231   2.102  1.00 20.00     0.114 C 
HETATM   10  C7  UNL     1     -31.372   8.174   1.199  1.00 20.00     0.039 C 
HETATM   11  C8  UNL     1     -32.374  10.483   1.329  1.00 20.00     0.039 C 
ENDBRANCH   8   9
ENDBRANCH   2   8
TORSDOF 2
