REMARK  2 active torsions:
REMARK  status: ('A' for Active; 'I' for Inactive)
REMARK    1  A    between atoms: C3_3  and  O11_11 
REMARK    2  A    between atoms: C9_9  and  O11_11 
ROOT
HETATM    1  C1  UNL     1     -32.973   7.715   4.281  1.00 20.00     0.069 C 
HETATM    2  C2  UNL     1     -34.366   7.057   4.191  1.00 20.00     0.173 C 
HETATM    3  C3  UNL     1     -32.790   7.414   2.771  1.00 20.00     0.135 C 
HETATM    4  C4  UNL     1     -33.856   6.270   2.932  1.00 20.00     0.008 C 
HETATM    5  C5  UNL     1     -34.902   6.196   1.817  1.00 20.00     0.020 C 
HETATM    6  C6  UNL     1     -33.186   4.900   3.121  1.00 20.00     0.020 C 
HETATM    7  O10 UNL     1     -34.680   6.263   5.303  1.00 20.00    -0.234 OA
ENDROOT
BRANCH   3   8
HETATM    8  O11 UNL     1     -33.132   8.498   1.883  1.00 20.00    -0.380 OA
BRANCH   8   9
HETATM    9  C9  UNL     1     -31.975   9.212   1.496  1.00 20.00     0.114 C 
HETATM   10  C7  UNL     1     -31.386   8.572   0.249  1.00 20.00     0.039 C 
HETATM   11  C8  UNL     1     -32.340  10.671   1.266  1.00 20.00     0.039 C 
ENDBRANCH   8   9
ENDBRANCH   3   8
TORSDOF 2
