REMARK  1 active torsions:
REMARK  status: ('A' for Active; 'I' for Inactive)
REMARK    1  A    between atoms: C2_2  and  O8_8 
ROOT
HETATM    1  C1  UNL     1     -32.981   7.630   4.547  1.00 20.00     0.053 C 
HETATM    2  C2  UNL     1     -32.573   7.179   3.125  1.00 20.00     0.131 C 
HETATM    3  C3  UNL     1     -33.234   6.145   4.887  1.00 20.00     0.095 C 
HETATM    4  C4  UNL     1     -33.443   5.895   3.353  1.00 20.00    -0.005 C 
HETATM    5  C5  UNL     1     -34.884   5.999   2.843  1.00 20.00     0.019 C 
HETATM    6  C6  UNL     1     -32.781   4.614   2.851  1.00 20.00     0.019 C 
HETATM    7 CL9  UNL     1     -34.525   5.748   6.066  1.00 20.00    -0.124 Cl
ENDROOT
BRANCH   2   8
HETATM    8  O8  UNL     1     -32.966   8.043   2.045  1.00 20.00    -0.390 OA
HETATM    9  C7  UNL     1     -32.083   9.142   1.930  1.00 20.00     0.202 C 
ENDBRANCH   2   8
TORSDOF 1
