REMARK  1 active torsions:
REMARK  status: ('A' for Active; 'I' for Inactive)
REMARK    1  A    between atoms: C1_1  and  C3_3 
REMARK       I    between atoms: C3_3  and  N11_11 
ROOT
HETATM    1  C3  UNL     1     -32.481   8.553   2.904  1.00 20.00     0.243 C 
HETATM    2  C4  UNL     1     -35.270   6.115   3.238  1.00 20.00     0.030 C 
HETATM    3  C5  UNL     1     -34.607   7.226   2.433  1.00 20.00     0.127 C 
HETATM    4  C6  UNL     1     -33.131   6.550   4.211  1.00 20.00     0.134 C 
HETATM    5  C7  UNL     1     -34.095   5.391   3.920  1.00 20.00    -0.030 C 
HETATM    6  C9  UNL     1     -33.448   4.372   2.968  1.00 20.00     0.016 C 
HETATM    7  C10 UNL     1     -34.536   4.684   5.201  1.00 20.00     0.016 C 
HETATM    8  N11 UNL     1     -33.364   7.517   3.144  1.00 20.00    -0.348 N 
HETATM    9  O12 UNL     1     -31.445   8.749   3.538  1.00 20.00    -0.268 OA
ENDROOT
BRANCH   1  10
HETATM   10  C1  UNL     1     -32.825   9.473   1.802  1.00 20.00     0.070 C 
HETATM   11  C2  UNL     1     -32.973   9.080   0.530  1.00 20.00    -0.026 C 
HETATM   12  C8  UNL     1     -33.317  10.007  -0.589  1.00 20.00     0.036 C 
ENDBRANCH   1  10
TORSDOF 1
