REMARK  2 active torsions:
REMARK  status: ('A' for Active; 'I' for Inactive)
REMARK    1  A    between atoms: C5_5  and  C9_9 
REMARK    2  A    between atoms: C6_6  and  C10_10 
ROOT
HETATM    1  C1  UNL     1     -32.648   7.842   3.855  1.00 20.00     0.005 C 
HETATM    2  C2  UNL     1     -33.500   6.384   1.978  1.00 20.00     0.005 C 
HETATM    3  C3  UNL     1     -33.437   7.007   4.862  1.00 20.00     0.006 C 
HETATM    4  C4  UNL     1     -34.289   5.549   2.985  1.00 20.00     0.006 C 
HETATM    5  C5  UNL     1     -32.261   7.022   2.618  1.00 20.00    -0.015 C 
HETATM    6  C6  UNL     1     -34.677   6.370   4.221  1.00 20.00     0.003 C 
ENDROOT
BRANCH   6   7
HETATM    7  C10 UNL     1     -35.421   5.501   5.234  1.00 20.00     0.082 C 
HETATM    8  C8  UNL     1     -34.551   4.358   5.729  1.00 20.00     0.027 C 
HETATM    9 CL11 UNL     1     -36.902   4.850   4.480  1.00 20.00    -0.125 Cl
ENDBRANCH   6   7
BRANCH   5  10
HETATM   10  C9  UNL     1     -31.518   7.891   1.605  1.00 20.00     0.000 C 
HETATM   11  C7  UNL     1     -32.368   9.018   1.117  1.00 20.00     0.005 C 
ENDBRANCH   5  10
TORSDOF 2
