REMARK  3 active torsions:
REMARK  status: ('A' for Active; 'I' for Inactive)
REMARK    1  A    between atoms: C4_4  and  C5_5 
REMARK    2  A    between atoms: C4_4  and  O7_7 
REMARK    3  A    between atoms: C5_5  and  C6_6 
ROOT
HETATM    1  C1  UNL     1     -32.315   7.891   4.278  1.00 20.00     0.014 C 
HETATM    2  C5  UNL     1     -33.472   7.737   3.313  1.00 20.00     0.023 C 
ENDROOT
BRANCH   2   3
HETATM    3  C4  UNL     1     -33.018   8.052   1.877  1.00 20.00     0.172 C 
BRANCH   3   4
HETATM    4  O7  UNL     1     -32.532   9.389   1.816  1.00 20.00    -0.396 OA
HETATM    5  C3  UNL     1     -32.144   9.740   0.495  1.00 20.00     0.201 C 
ENDBRANCH   3   4
ENDBRANCH   2   3
BRANCH   2   6
HETATM    6  C6  UNL     1     -34.161   6.353   3.396  1.00 20.00     0.084 C 
HETATM    7  C2  UNL     1     -34.758   6.052   4.767  1.00 20.00     0.027 C 
HETATM    8 CL8  UNL     1     -33.071   5.010   2.925  1.00 20.00    -0.125 Cl
ENDBRANCH   2   6
TORSDOF 3
