REMARK  2 active torsions:
REMARK  status: ('A' for Active; 'I' for Inactive)
REMARK    1  A    between atoms: C4_4  and  C9_9 
REMARK    2  A    between atoms: C5_5  and  C8_8 
ROOT
HETATM    1  C1  UNL     1     -33.181   7.319   4.505  1.00 20.00     0.032 C 
HETATM    2  C2  UNL     1     -33.041   7.002   2.014  1.00 20.00     0.038 C 
HETATM    3  C3  UNL     1     -31.976   8.259   4.452  1.00 20.00     0.168 C 
HETATM    4  C4  UNL     1     -33.120   6.292   3.376  1.00 20.00     0.008 C 
HETATM    5  C5  UNL     1     -32.424   8.403   2.122  1.00 20.00     0.121 C 
HETATM    6  O10 UNL     1     -31.426   8.412   3.141  1.00 20.00    -0.386 OA
ENDROOT
BRANCH   4   7
HETATM    7  C9  UNL     1     -34.299   5.325   3.429  1.00 20.00     0.082 C 
HETATM    8  C7  UNL     1     -34.347   4.586   4.754  1.00 20.00     0.027 C 
HETATM    9 CL11 UNL     1     -35.815   6.232   3.188  1.00 20.00    -0.125 Cl
ENDBRANCH   4   7
BRANCH   5  10
HETATM   10  C8  UNL     1     -31.779   8.830   0.811  1.00 20.00     0.027 C 
HETATM   11  C6  UNL     1     -32.775   8.900  -0.302  1.00 20.00     0.007 C 
ENDBRANCH   5  10
TORSDOF 2
