REMARK  2 active torsions:
REMARK  status: ('A' for Active; 'I' for Inactive)
REMARK    1  A    between atoms: C3_3  and  C6_6 
REMARK    2  A    between atoms: C6_6  and  C7_7 
ROOT
HETATM    1  C4  UNL     1     -31.433   8.120   3.682  1.00 20.00     0.011 C 
HETATM    2  C6  UNL     1     -32.201   7.816   2.416  1.00 20.00    -0.001 C 
ENDROOT
BRANCH   2   3
HETATM    3  C3  UNL     1     -32.835   9.103   1.873  1.00 20.00    -0.010 A 
HETATM    4  C1  UNL     1     -31.987  10.126   1.168  1.00 20.00     0.005 A 
HETATM    5  C2  UNL     1     -32.980   9.308   0.390  1.00 20.00     0.005 A 
ENDBRANCH   2   3
BRANCH   2   6
HETATM    6  C7  UNL     1     -33.266   6.714   2.582  1.00 20.00     0.058 C 
HETATM    7  C5  UNL     1     -32.740   5.294   2.741  1.00 20.00     0.022 C 
HETATM    8 BR8  UNL     1     -34.426   7.121   4.118  1.00 20.00    -0.091 Br
ENDBRANCH   2   6
TORSDOF 2
