REMARK  1 active torsions:
REMARK  status: ('A' for Active; 'I' for Inactive)
REMARK    1  A    between atoms: C4_4  and  C9_9 
ROOT
HETATM    1  C1  UNL     1     -32.236   8.348   3.781  1.00 20.00     0.032 C 
HETATM    2  C2  UNL     1     -33.382   6.553   2.468  1.00 20.00     0.043 C 
HETATM    3  C3  UNL     1     -32.729   7.659   5.045  1.00 20.00     0.169 C 
HETATM    4  C4  UNL     1     -33.175   8.066   2.606  1.00 20.00     0.008 C 
HETATM    5  C5  UNL     1     -33.800   5.890   3.795  1.00 20.00     0.054 C 
HETATM    6  C6  UNL     1     -33.683   4.366   3.654  1.00 20.00     0.045 C 
HETATM    7  C7  UNL     1     -35.247   6.227   4.182  1.00 20.00     0.045 C 
HETATM    8  O10 UNL     1     -32.893   6.258   4.845  1.00 20.00    -0.381 OA
ENDROOT
BRANCH   4   9
HETATM    9  C9  UNL     1     -32.627   8.665   1.313  1.00 20.00     0.082 C 
HETATM   10  C8  UNL     1     -31.250   8.113   0.984  1.00 20.00     0.027 C 
HETATM   11 CL11 UNL     1     -32.543  10.441   1.471  1.00 20.00    -0.125 Cl
ENDBRANCH   4   9
TORSDOF 1
