REMARK  1 active torsions:
REMARK  status: ('A' for Active; 'I' for Inactive)
REMARK    1  A    between atoms: C6_6  and  C11_11 
ROOT
HETATM    1  C1  UNL     1     -32.827   7.919   4.887  1.00 20.00     0.001 C 
HETATM    2  C2  UNL     1     -32.161   8.602   3.682  1.00 20.00     0.006 C 
HETATM    3  C3  UNL     1     -32.778   6.931   1.818  1.00 20.00     0.007 C 
HETATM    4  C4  UNL     1     -34.207   7.313   4.627  1.00 20.00     0.008 C 
HETATM    5  C5  UNL     1     -32.984   5.839   2.868  1.00 20.00     0.009 C 
HETATM    6  C6  UNL     1     -32.818   8.384   2.310  1.00 20.00     0.003 C 
HETATM    7  C7  UNL     1     -34.197   5.987   3.818  1.00 20.00    -0.048 C 
HETATM    8  C8  UNL     1     -34.145   4.804   4.813  1.00 20.00     0.015 C 
HETATM    9  C9  UNL     1     -35.513   5.875   3.025  1.00 20.00     0.015 C 
ENDROOT
BRANCH   6  10
HETATM   10  C11 UNL     1     -32.160   9.295   1.265  1.00 20.00     0.082 C 
HETATM   11  C10 UNL     1     -32.342  10.757   1.622  1.00 20.00     0.027 C 
HETATM   12 CL12 UNL     1     -32.876   8.962  -0.333  1.00 20.00    -0.125 Cl
ENDBRANCH   6  10
TORSDOF 1
