REMARK  1 active torsions:
REMARK  status: ('A' for Active; 'I' for Inactive)
REMARK    1  A    between atoms: C6_6  and  C10_10 
ROOT
HETATM    1  C1  UNL     1     -33.267   7.660   5.251  1.00 20.00     0.001 C 
HETATM    2  C2  UNL     1     -32.320   8.104   4.137  1.00 20.00     0.005 C 
HETATM    3  C3  UNL     1     -33.229   6.921   2.022  1.00 20.00     0.006 C 
HETATM    4  C4  UNL     1     -33.576   6.168   5.286  1.00 20.00     0.008 C 
HETATM    5  C5  UNL     1     -33.311   5.614   2.811  1.00 20.00     0.009 C 
HETATM    6  C6  UNL     1     -33.020   8.240   2.781  1.00 20.00    -0.005 C 
HETATM    7  C7  UNL     1     -34.245   5.542   4.040  1.00 20.00    -0.048 C 
HETATM    8  C8  UNL     1     -34.467   4.042   4.361  1.00 20.00     0.015 C 
HETATM    9  C9  UNL     1     -35.625   6.158   3.763  1.00 20.00     0.015 C 
ENDROOT
BRANCH   6  10
HETATM   10  C10 UNL     1     -32.249   9.221   1.886  1.00 20.00     0.089 C 
HETATM   11 BR11 UNL     1     -33.407   9.824   0.457  1.00 20.00    -0.096 Br
ENDBRANCH   6  10
TORSDOF 1
