REMARK  2 active torsions:
REMARK  status: ('A' for Active; 'I' for Inactive)
REMARK    1  A    between atoms: C1_1  and  C7_7 
REMARK    2  A    between atoms: C8_8  and  C12_12 
ROOT
HETATM    1  C2  UNL     1     -31.866   8.430   4.174  1.00 20.00     0.001 C 
HETATM    2  C3  UNL     1     -32.787   7.592   5.055  1.00 20.00     0.012 C 
HETATM    3  C4  UNL     1     -34.696   7.071   3.462  1.00 20.00     0.012 C 
HETATM    4  C5  UNL     1     -32.532   9.112   2.978  1.00 20.00     0.005 C 
HETATM    5  C6  UNL     1     -34.292   7.478   2.046  1.00 20.00     0.006 C 
HETATM    6  C7  UNL     1     -33.564   6.499   4.317  1.00 20.00     0.055 C 
HETATM    7  C8  UNL     1     -32.910   8.126   1.863  1.00 20.00    -0.011 C 
ENDROOT
BRANCH   6   8
HETATM    8  C1  UNL     1     -34.157   5.584   5.349  1.00 20.00     0.127 C 
HETATM    9  C9  UNL     1     -34.332   4.142   4.955  1.00 20.00     0.091 C 
HETATM   10  O13 UNL     1     -34.482   5.993   6.463  1.00 20.00    -0.298 OA
ENDBRANCH   6   8
BRANCH   7  11
HETATM   11  C12 UNL     1     -32.865   8.826   0.498  1.00 20.00    -0.019 C 
HETATM   12  C10 UNL     1     -33.465  10.223   0.599  1.00 20.00     0.010 C 
HETATM   13  C11 UNL     1     -31.432   8.886  -0.019  1.00 20.00     0.010 C 
ENDBRANCH   7  11
TORSDOF 2
