REMARK  1 active torsions:
REMARK  status: ('A' for Active; 'I' for Inactive)
REMARK    1  A    between atoms: C1_1  and  C7_7 
ROOT
HETATM    1  C2  UNL     1     -32.880   6.472   1.559  1.00 20.00     0.002 C 
HETATM    2  C3  UNL     1     -31.882   7.575   1.906  1.00 20.00     0.012 C 
HETATM    3  C4  UNL     1     -33.696   8.660   3.436  1.00 20.00     0.013 C 
HETATM    4  C5  UNL     1     -33.176   5.547   2.741  1.00 20.00     0.008 C 
HETATM    5  C6  UNL     1     -33.611   7.477   4.402  1.00 20.00     0.009 C 
HETATM    6  C7  UNL     1     -32.485   8.839   2.520  1.00 20.00     0.055 C 
HETATM    7  C8  UNL     1     -34.087   6.106   3.858  1.00 20.00    -0.048 C 
HETATM    8  C10 UNL     1     -34.048   5.102   5.035  1.00 20.00     0.015 C 
HETATM    9  C11 UNL     1     -35.548   6.172   3.367  1.00 20.00     0.015 C 
ENDROOT
BRANCH   6  10
HETATM   10  C1  UNL     1     -32.868   9.792   1.424  1.00 20.00     0.127 C 
HETATM   11  C9  UNL     1     -32.723  11.260   1.722  1.00 20.00     0.091 C 
HETATM   12  O12 UNL     1     -33.277   9.393   0.335  1.00 20.00    -0.298 OA
ENDBRANCH   6  10
TORSDOF 1
