REMARK  1 active torsions:
REMARK  status: ('A' for Active; 'I' for Inactive)
REMARK    1  A    between atoms: C9_9  and  N10_10 
ROOT
HETATM    1  C1  UNL     1     -32.336  10.717   0.832  1.00 20.00     0.013 C 
HETATM    2  C2  UNL     1     -32.135   9.591   1.195  1.00 20.00    -0.087 C 
HETATM    3  C9  UNL     1     -31.886   8.216   1.635  1.00 20.00     0.364 C 
ENDROOT
BRANCH   3   4
HETATM    4  N10 UNL     1     -32.891   7.795   2.599  1.00 20.00     0.100 N 
HETATM    5  C3  UNL     1     -32.983   6.336   2.718  1.00 20.00     0.278 C 
HETATM    6  C5  UNL     1     -33.552   6.088   4.124  1.00 20.00     0.015 C 
HETATM    7  C6  UNL     1     -33.625   7.485   4.762  1.00 20.00     0.015 C 
HETATM    8  C7  UNL     1     -34.908   5.395   4.100  1.00 20.00     0.012 C 
HETATM    9  C4  UNL     1     -32.621   8.292   3.948  1.00 20.00     0.278 C 
HETATM   10  C8  UNL     1     -33.317   7.489   6.252  1.00 20.00     0.012 C 
ENDBRANCH   3   4
TORSDOF 1
