REMARK  2 active torsions:
REMARK  status: ('A' for Active; 'I' for Inactive)
REMARK    1  A    between atoms: C8_8  and  C9_9 
REMARK    2  A    between atoms: C9_9  and  N11_11 
ROOT
HETATM    1  C1  UNL     1     -32.742   9.919   1.489  1.00 20.00     0.060 C 
HETATM    2  C8  UNL     1     -31.824   8.771   1.502  1.00 20.00     0.154 C 
HETATM    3  N10 UNL     1     -33.467  10.825   1.476  1.00 20.00    -0.197 NA
ENDROOT
BRANCH   2   4
HETATM    4  C9  UNL     1     -31.603   8.234   2.911  1.00 20.00     0.286 C 
BRANCH   4   5
HETATM    5  N11 UNL     1     -32.857   7.789   3.500  1.00 20.00     0.090 N 
HETATM    6  C2  UNL     1     -33.492   6.714   2.731  1.00 20.00     0.277 C 
HETATM    7  C4  UNL     1     -34.369   5.965   3.747  1.00 20.00     0.015 C 
HETATM    8  C5  UNL     1     -34.052   6.631   5.095  1.00 20.00     0.015 C 
HETATM    9  C6  UNL     1     -35.853   6.030   3.407  1.00 20.00     0.012 C 
HETATM   10  C3  UNL     1     -32.689   7.268   4.856  1.00 20.00     0.277 C 
HETATM   11  C7  UNL     1     -34.055   5.661   6.267  1.00 20.00     0.012 C 
ENDBRANCH   4   5
ENDBRANCH   2   4
TORSDOF 2
