REMARK  3 active torsions:
REMARK  status: ('A' for Active; 'I' for Inactive)
REMARK    1  A    between atoms: C5_5  and  S11_11 
REMARK    2  A    between atoms: C8_8  and  C9_9 
REMARK    3  A    between atoms: C9_9  and  S11_11 
ROOT
HETATM    1  C1  UNL     1     -33.567   6.529   4.983  1.00 20.00     0.080 C 
HETATM    2  C2  UNL     1     -34.569   4.649   2.308  1.00 20.00     0.009 C 
HETATM    3  C3  UNL     1     -34.903   6.041   2.878  1.00 20.00     0.037 C 
HETATM    4  C4  UNL     1     -33.502   4.483   3.421  1.00 20.00     0.014 C 
HETATM    5  C5  UNL     1     -33.551   6.029   3.631  1.00 20.00     0.100 C 
HETATM    6  C6  UNL     1     -33.944   3.576   4.566  1.00 20.00     0.012 C 
HETATM    7  N10 UNL     1     -33.580   6.932   6.071  1.00 20.00    -0.196 NA
ENDROOT
BRANCH   5   8
HETATM    8  S11 UNL     1     -32.228   6.897   2.683  1.00 20.00    -0.143 SA
BRANCH   8   9
HETATM    9  C9  UNL     1     -33.133   8.420   2.336  1.00 20.00     0.075 C 
BRANCH   9  10
HETATM   10  C8  UNL     1     -32.281   9.368   1.499  1.00 20.00     0.006 C 
HETATM   11  C7  UNL     1     -33.033  10.656   1.195  1.00 20.00     0.006 C 
ENDBRANCH   9  10
ENDBRANCH   8   9
ENDBRANCH   5   8
TORSDOF 3
