REMARK  2 active torsions:
REMARK  status: ('A' for Active; 'I' for Inactive)
REMARK    1  A    between atoms: C4_4  and  C9_9 
REMARK    2  A    between atoms: C5_5  and  C8_8 
ROOT
HETATM    1  C1  UNL     1     -32.809   7.627   5.056  1.00 20.00     0.032 C 
HETATM    2  C2  UNL     1     -33.135   6.642   2.768  1.00 20.00     0.038 C 
HETATM    3  C3  UNL     1     -31.463   8.004   4.442  1.00 20.00     0.168 C 
HETATM    4  C4  UNL     1     -33.843   7.222   3.994  1.00 20.00     0.008 C 
HETATM    5  C5  UNL     1     -32.120   7.641   2.186  1.00 20.00     0.121 C 
HETATM    6  O10 UNL     1     -31.655   8.587   3.158  1.00 20.00    -0.386 OA
ENDROOT
BRANCH   4   7
HETATM    7  C9  UNL     1     -34.869   6.248   4.565  1.00 20.00     0.082 C 
HETATM    8  C7  UNL     1     -35.869   5.817   3.507  1.00 20.00     0.027 C 
HETATM    9 CL11 UNL     1     -34.025   4.818   5.217  1.00 20.00    -0.125 Cl
ENDBRANCH   4   7
BRANCH   5  10
HETATM   10  C8  UNL     1     -32.720   8.445   1.038  1.00 20.00     0.027 C 
HETATM   11  C6  UNL     1     -31.745   9.432   0.481  1.00 20.00     0.007 C 
ENDBRANCH   5  10
TORSDOF 2
