REMARK  2 active torsions:
REMARK  status: ('A' for Active; 'I' for Inactive)
REMARK    1  A    between atoms: C5_5  and  C7_7 
REMARK    2  A    between atoms: C6_6  and  C8_8 
ROOT
HETATM    1  C1  UNL     1     -31.890   8.573   4.332  1.00 20.00     0.001 C 
HETATM    2  C2  UNL     1     -31.746   8.743   2.823  1.00 20.00     0.005 C 
HETATM    3  C3  UNL     1     -32.567   7.252   4.689  1.00 20.00     0.013 C 
HETATM    4  C4  UNL     1     -33.771   7.272   2.466  1.00 20.00     0.018 C 
HETATM    5  C5  UNL     1     -33.095   8.604   2.107  1.00 20.00    -0.004 C 
HETATM    6  C6  UNL     1     -33.922   7.104   3.985  1.00 20.00     0.094 C 
ENDROOT
BRANCH   6   7
HETATM    7  C8  UNL     1     -34.557   5.755   4.317  1.00 20.00     0.391 C 
HETATM    8  F9  UNL     1     -35.756   5.653   3.724  1.00 20.00    -0.171 F 
HETATM    9  F10 UNL     1     -33.771   4.758   3.884  1.00 20.00    -0.171 F 
HETATM   10  F11 UNL     1     -34.717   5.637   5.644  1.00 20.00    -0.171 F 
ENDBRANCH   6   7
BRANCH   5  11
HETATM   11  C7  UNL     1     -32.918   8.727   0.594  1.00 20.00     0.089 C 
HETATM   12 BR12 UNL     1     -32.825  10.601   0.107  1.00 20.00    -0.096 Br
ENDBRANCH   5  11
TORSDOF 2
