REMARK  3 active torsions:
REMARK  status: ('A' for Active; 'I' for Inactive)
REMARK    1  A    between atoms: C1_1  and  C7_7 
REMARK    2  A    between atoms: C8_8  and  C11_11 
REMARK    3  A    between atoms: C11_11  and  C12_12 
ROOT
HETATM    1  C2  UNL     1     -33.230   5.435   2.622  1.00 20.00     0.001 C 
HETATM    2  C3  UNL     1     -34.603   5.995   2.986  1.00 20.00     0.012 C 
HETATM    3  C4  UNL     1     -33.898   8.393   3.720  1.00 20.00     0.012 C 
HETATM    4  C5  UNL     1     -32.462   6.227   1.568  1.00 20.00     0.005 C 
HETATM    5  C6  UNL     1     -32.507   8.298   3.087  1.00 20.00     0.005 C 
HETATM    6  C7  UNL     1     -34.599   7.079   4.068  1.00 20.00     0.055 C 
HETATM    7  C8  UNL     1     -32.543   7.758   1.651  1.00 20.00    -0.014 C 
ENDROOT
BRANCH   6   8
HETATM    8  C1  UNL     1     -34.078   6.530   5.366  1.00 20.00     0.127 C 
HETATM    9  C9  UNL     1     -34.772   5.312   5.913  1.00 20.00     0.091 C 
HETATM   10  O13 UNL     1     -33.129   7.049   5.952  1.00 20.00    -0.298 OA
ENDBRANCH   6   8
BRANCH   7  11
HETATM   11  C11 UNL     1     -31.402   8.364   0.823  1.00 20.00     0.004 C 
BRANCH  11  12
HETATM   12  C12 UNL     1     -31.718   9.800   0.429  1.00 20.00    -0.004 C 
HETATM   13  C10 UNL     1     -32.974   9.867  -0.425  1.00 20.00     0.005 C 
ENDBRANCH  11  12
ENDBRANCH   7  11
TORSDOF 3
