REMARK  1 active torsions:
REMARK  status: ('A' for Active; 'I' for Inactive)
REMARK    1  A    between atoms: C1_1  and  C2_2 
ROOT
HETATM    1  C2  UNL     1     -32.824   5.935   3.868  1.00 20.00     0.089 A 
HETATM    2  C3  UNL     1     -33.747   5.358   2.805  1.00 20.00    -0.028 A 
HETATM    3  C4  UNL     1     -34.058   5.157   4.299  1.00 20.00    -0.028 A 
HETATM    4  C5  UNL     1     -33.226   4.192   1.992  1.00 20.00     0.016 C 
HETATM    5  C6  UNL     1     -34.621   6.276   1.979  1.00 20.00     0.016 C 
HETATM    6  C7  UNL     1     -35.233   5.880   4.920  1.00 20.00     0.016 C 
HETATM    7  C8  UNL     1     -33.837   3.797   4.926  1.00 20.00     0.016 C 
ENDROOT
BRANCH   1   8
HETATM    8  C1  UNL     1     -32.724   7.385   4.084  1.00 20.00     0.224 C 
HETATM    9  O9  UNL     1     -33.373   7.954   4.957  1.00 20.00    -0.279 OA
HETATM   10 CL10 UNL     1     -31.611   8.136   2.981  1.00 20.00    -0.043 Cl
ENDBRANCH   1   8
TORSDOF 1
