REMARK  4 active torsions:
REMARK  status: ('A' for Active; 'I' for Inactive)
REMARK    1  A    between atoms: C1_1  and  C7_7 
REMARK    2  A    between atoms: C1_1  and  C9_9 
REMARK    3  A    between atoms: C8_8  and  C9_9 
REMARK    4  A    between atoms: C9_9  and  N10_10 
ROOT
HETATM    1  C4  UNL     1     -35.522   5.909   2.936  1.00 20.00     0.058 C 
HETATM    2  C9  UNL     1     -34.268   6.102   3.798  1.00 20.00     0.214 C 
ENDROOT
BRANCH   2   3
HETATM    3  C1  UNL     1     -33.243   6.998   3.072  1.00 20.00     0.165 C 
HETATM    4  O11 UNL     1     -32.030   6.880   3.264  1.00 20.00    -0.295 OA
BRANCH   3   5
HETATM    5  C7  UNL     1     -33.782   8.054   2.112  1.00 20.00     0.076 C 
HETATM    6  C2  UNL     1     -32.677   8.883   1.480  1.00 20.00     0.013 C 
ENDBRANCH   3   5
ENDBRANCH   2   3
BRANCH   2   7
HETATM    7  C8  UNL     1     -34.656   6.689   5.172  1.00 20.00     0.045 C 
HETATM    8  C3  UNL     1     -33.503   6.865   6.156  1.00 20.00     0.008 C 
ENDBRANCH   2   7
BRANCH   2   9
HETATM    9  N10 UNL     1     -33.657   4.775   3.968  1.00 20.00     0.096 N 
HETATM   10  C5  UNL     1     -33.325   4.203   2.666  1.00 20.00     0.310 C 
HETATM   11  C6  UNL     1     -34.559   3.895   4.705  1.00 20.00     0.310 C 
ENDBRANCH   2   9
TORSDOF 4
