REMARK  2 active torsions:
REMARK  status: ('A' for Active; 'I' for Inactive)
REMARK    1  A    between atoms: C2_2  and  C3_3 
REMARK    2  A    between atoms: C2_2  and  C10_10 
ROOT
HETATM    1  C1  UNL     1     -34.510   4.734   4.420  1.00 20.00     0.066 C 
HETATM    2  C10 UNL     1     -35.001   6.071   4.767  1.00 20.00     0.202 C 
HETATM    3  N11 UNL     1     -34.125   3.674   4.146  1.00 20.00    -0.197 NA
ENDROOT
BRANCH   2   4
HETATM    4  C2  UNL     1     -33.901   7.106   4.753  1.00 20.00     0.145 C 
HETATM    5  O12 UNL     1     -33.221   7.420   5.721  1.00 20.00    -0.296 OA
BRANCH   4   6
HETATM    6  C3  UNL     1     -33.670   7.757   3.455  1.00 20.00     0.073 A 
HETATM    7  C4  UNL     1     -32.792   7.111   2.395  1.00 20.00    -0.029 A 
HETATM    8  C5  UNL     1     -32.328   8.388   3.117  1.00 20.00    -0.029 A 
HETATM    9  C6  UNL     1     -33.258   7.201   0.957  1.00 20.00     0.016 C 
HETATM   10  C7  UNL     1     -32.096   5.798   2.681  1.00 20.00     0.016 C 
HETATM   11  C8  UNL     1     -31.184   8.312   4.105  1.00 20.00     0.016 C 
HETATM   12  C9  UNL     1     -32.348   9.708   2.377  1.00 20.00     0.016 C 
ENDBRANCH   4   6
ENDBRANCH   2   4
TORSDOF 2
