REMARK  3 active torsions:
REMARK  status: ('A' for Active; 'I' for Inactive)
REMARK    1  A    between atoms: C5_5  and  C7_7 
REMARK    2  A    between atoms: C6_6  and  C7_7 
REMARK    3  A    between atoms: C6_6  and  O9_9 
ROOT
HETATM    1  C1  UNL     1     -32.186   7.605   2.593  1.00 20.00     0.071 C 
HETATM    2  C4  UNL     1     -34.595   7.785   3.022  1.00 20.00     0.034 C 
HETATM    3  C7  UNL     1     -33.311   6.988   3.341  1.00 20.00     0.070 C 
HETATM    4  N8  UNL     1     -31.308   8.087   2.007  1.00 20.00    -0.196 NA
ENDROOT
BRANCH   3   5
HETATM    5  C5  UNL     1     -33.467   5.502   2.912  1.00 20.00     0.022 C 
HETATM    6  C2  UNL     1     -34.589   4.726   3.598  1.00 20.00     0.007 C 
ENDBRANCH   3   5
BRANCH   3   7
HETATM    7  C6  UNL     1     -33.034   7.069   4.878  1.00 20.00     0.136 C 
HETATM    8  C3  UNL     1     -34.272   7.201   5.765  1.00 20.00     0.041 C 
BRANCH   7   9
HETATM    9  O9  UNL     1     -32.168   8.173   5.159  1.00 20.00    -0.394 OA
HETATM   10  H22 UNL     1     -31.944   8.109   6.099  1.00 20.00     0.210 HD
ENDBRANCH   7   9
ENDBRANCH   3   7
TORSDOF 3
