REMARK  4 active torsions:
REMARK  status: ('A' for Active; 'I' for Inactive)
REMARK    1  A    between atoms: C5_5  and  C7_7 
REMARK    2  A    between atoms: C6_6  and  C8_8 
REMARK    3  A    between atoms: C7_7  and  C8_8 
REMARK    4  A    between atoms: C8_8  and  O10_10 
ROOT
HETATM    1  C1  UNL     1     -33.126   6.089   2.921  1.00 20.00     0.067 C 
HETATM    2  C7  UNL     1     -33.727   7.387   3.319  1.00 20.00     0.126 C 
HETATM    3  N9  UNL     1     -32.660   5.073   2.608  1.00 20.00    -0.197 NA
ENDROOT
BRANCH   2   4
HETATM    4  C5  UNL     1     -33.931   7.423   4.848  1.00 20.00     0.018 C 
HETATM    5  C2  UNL     1     -34.771   6.257   5.365  1.00 20.00     0.006 C 
ENDBRANCH   2   4
BRANCH   2   6
HETATM    6  C8  UNL     1     -32.880   8.584   2.766  1.00 20.00     0.070 C 
HETATM    7  C4  UNL     1     -31.467   8.636   3.364  1.00 20.00     0.047 C 
BRANCH   6   8
HETATM    8  C6  UNL     1     -32.823   8.554   1.217  1.00 20.00     0.034 C 
HETATM    9  C3  UNL     1     -32.141   9.760   0.576  1.00 20.00     0.008 C 
ENDBRANCH   6   8
BRANCH   6  10
HETATM   10  O10 UNL     1     -33.540   9.802   3.148  1.00 20.00    -0.389 OA
HETATM   11  H25 UNL     1     -33.009  10.518   2.774  1.00 20.00     0.210 HD
ENDBRANCH   6  10
ENDBRANCH   2   6
TORSDOF 4
