REMARK  4 active torsions:
REMARK  status: ('A' for Active; 'I' for Inactive)
REMARK    1  A    between atoms: C4_4  and  C9_9 
REMARK    2  A    between atoms: C7_7  and  C8_8 
REMARK    3  A    between atoms: C8_8  and  C9_9 
REMARK    4  A    between atoms: C9_9  and  O11_11 
ROOT
HETATM    1  C1  UNL     1     -34.635   6.562   3.366  1.00 20.00     0.067 C 
HETATM    2  C8  UNL     1     -33.814   7.693   3.864  1.00 20.00     0.126 C 
HETATM    3  N10 UNL     1     -35.281   5.678   2.982  1.00 20.00    -0.197 NA
ENDROOT
BRANCH   2   4
HETATM    4  C7  UNL     1     -33.271   7.338   5.270  1.00 20.00     0.018 C 
HETATM    5  C5  UNL     1     -34.373   7.001   6.270  1.00 20.00     0.006 C 
ENDBRANCH   2   4
BRANCH   2   6
HETATM    6  C9  UNL     1     -32.684   8.053   2.843  1.00 20.00     0.074 C 
HETATM    7  C6  UNL     1     -31.471   8.632   3.548  1.00 20.00     0.047 C 
BRANCH   6   8
HETATM    8  C4  UNL     1     -33.165   9.069   1.789  1.00 20.00     0.021 A 
HETATM    9  C2  UNL     1     -32.519  10.424   1.692  1.00 20.00     0.008 A 
HETATM   10  C3  UNL     1     -32.295   9.405   0.609  1.00 20.00     0.008 A 
ENDBRANCH   6   8
BRANCH   6  11
HETATM   11  O11 UNL     1     -32.280   6.863   2.158  1.00 20.00    -0.388 OA
HETATM   12  H26 UNL     1     -31.565   7.124   1.560  1.00 20.00     0.210 HD
ENDBRANCH   6  11
ENDBRANCH   2   6
TORSDOF 4
