REMARK  3 active torsions:
REMARK  status: ('A' for Active; 'I' for Inactive)
REMARK    1  A    between atoms: C5_5  and  C6_6 
REMARK    2  A    between atoms: C6_6  and  C7_7 
REMARK    3  A    between atoms: C6_6  and  O9_9 
ROOT
HETATM    1  C1  UNL     1     -33.929   5.679   4.916  1.00 20.00     0.071 C 
HETATM    2  C3  UNL     1     -35.120   5.764   2.776  1.00 20.00     0.033 C 
HETATM    3  C4  UNL     1     -32.768   4.941   2.878  1.00 20.00     0.033 C 
HETATM    4  C7  UNL     1     -33.757   5.963   3.470  1.00 20.00     0.067 C 
HETATM    5  N8  UNL     1     -34.065   5.456   6.046  1.00 20.00    -0.196 NA
ENDROOT
BRANCH   4   6
HETATM    6  C6  UNL     1     -33.246   7.421   3.251  1.00 20.00     0.139 C 
BRANCH   6   7
HETATM    7  C5  UNL     1     -33.007   7.811   1.781  1.00 20.00     0.029 C 
HETATM    8  C2  UNL     1     -32.474   9.233   1.641  1.00 20.00     0.007 C 
ENDBRANCH   6   7
BRANCH   6   9
HETATM    9  O9  UNL     1     -32.023   7.631   3.963  1.00 20.00    -0.394 OA
HETATM   10  H22 UNL     1     -31.363   7.061   3.542  1.00 20.00     0.210 HD
ENDBRANCH   6   9
ENDBRANCH   4   6
TORSDOF 3
