REMARK  4 active torsions:
REMARK  status: ('A' for Active; 'I' for Inactive)
REMARK    1  A    between atoms: C4_4  and  C9_9 
REMARK    2  A    between atoms: C7_7  and  C9_9 
REMARK    3  A    between atoms: C8_8  and  C9_9 
REMARK    4  A    between atoms: C9_9  and  O11_11 
ROOT
HETATM    1  C1  UNL     1     -32.250   7.838   2.558  1.00 20.00     0.066 C 
HETATM    2  C6  UNL     1     -32.629   5.497   1.980  1.00 20.00     0.028 C 
HETATM    3  C8  UNL     1     -32.321   6.472   3.126  1.00 20.00     0.123 C 
HETATM    4  N10 UNL     1     -32.191   8.908   2.111  1.00 20.00    -0.197 NA
ENDROOT
BRANCH   3   5
HETATM    5  C9  UNL     1     -33.347   6.392   4.301  1.00 20.00     0.077 C 
BRANCH   5   6
HETATM    6  C4  UNL     1     -33.389   4.991   4.889  1.00 20.00     0.021 A 
HETATM    7  C2  UNL     1     -34.662   4.457   5.483  1.00 20.00     0.008 A 
HETATM    8  C3  UNL     1     -34.145   3.898   4.187  1.00 20.00     0.008 A 
ENDBRANCH   5   6
BRANCH   5   9
HETATM    9  C7  UNL     1     -33.082   7.427   5.429  1.00 20.00     0.035 C 
HETATM   10  C5  UNL     1     -34.120   7.465   6.543  1.00 20.00     0.008 C 
ENDBRANCH   5   9
BRANCH   5  11
HETATM   11  O11 UNL     1     -34.652   6.676   3.773  1.00 20.00    -0.388 OA
HETATM   12  H26 UNL     1     -35.260   6.614   4.523  1.00 20.00     0.210 HD
ENDBRANCH   5  11
ENDBRANCH   3   5
TORSDOF 4
