REMARK  4 active torsions:
REMARK  status: ('A' for Active; 'I' for Inactive)
REMARK    1  A    between atoms: C6_6  and  C9_9 
REMARK    2  A    between atoms: C7_7  and  C8_8 
REMARK    3  A    between atoms: C8_8  and  C9_9 
REMARK    4  A    between atoms: C8_8  and  O11_11 
ROOT
HETATM    1  C1  UNL     1     -33.202   5.437   2.918  1.00 20.00     0.071 C 
HETATM    2  C5  UNL     1     -35.212   6.805   2.843  1.00 20.00     0.034 C 
HETATM    3  C9  UNL     1     -33.788   6.698   3.446  1.00 20.00     0.071 C 
HETATM    4  N10 UNL     1     -32.757   4.453   2.492  1.00 20.00    -0.196 NA
ENDROOT
BRANCH   3   5
HETATM    5  C6  UNL     1     -33.886   6.568   4.992  1.00 20.00     0.022 C 
HETATM    6  C2  UNL     1     -34.749   5.421   5.505  1.00 20.00     0.007 C 
ENDBRANCH   3   5
BRANCH   3   7
HETATM    7  C8  UNL     1     -32.954   7.941   2.988  1.00 20.00     0.143 C 
BRANCH   7   8
HETATM    8  C7  UNL     1     -32.808   8.198   1.461  1.00 20.00     0.008 C 
HETATM    9  C3  UNL     1     -31.749   7.337   0.769  1.00 20.00     0.012 C 
HETATM   10  C4  UNL     1     -32.485   9.677   1.192  1.00 20.00     0.012 C 
ENDBRANCH   7   8
BRANCH   7  11
HETATM   11  O11 UNL     1     -31.662   7.884   3.605  1.00 20.00    -0.393 OA
HETATM   12  H28 UNL     1     -31.192   7.154   3.178  1.00 20.00     0.210 HD
ENDBRANCH   7  11
ENDBRANCH   3   7
TORSDOF 4
