REMARK  3 active torsions:
REMARK  status: ('A' for Active; 'I' for Inactive)
REMARK    1  A    between atoms: C3_3  and  C11_11 
REMARK    2  A    between atoms: C8_8  and  N12_12 
REMARK    3  A    between atoms: C11_11  and  N12_12 
ROOT
HETATM    1  C1  UNL     1     -34.434   5.271   5.270  1.00 20.00     0.127 C 
HETATM    2  C4  UNL     1     -34.552   6.691   5.777  1.00 20.00     0.080 C 
HETATM    3  C5  UNL     1     -34.415   5.088   3.768  1.00 20.00     0.080 C 
HETATM    4  C6  UNL     1     -33.528   7.592   5.097  1.00 20.00     0.040 C 
HETATM    5  C7  UNL     1     -33.393   6.020   3.126  1.00 20.00     0.040 C 
HETATM    6  C8  UNL     1     -33.609   7.464   3.576  1.00 20.00     0.189 C 
HETATM    7  O13 UNL     1     -34.459   4.308   6.036  1.00 20.00    -0.298 OA
ENDROOT
BRANCH   6   8
HETATM    8  N12 UNL     1     -32.555   8.319   2.967  1.00 20.00    -0.067 N 
HETATM    9  C10 UNL     1     -31.184   7.700   3.066  1.00 20.00     0.270 C 
HETATM   10  H33 UNL     1     -32.514   9.198   3.508  1.00 20.00     0.280 HD
BRANCH   8  11
HETATM   11  C11 UNL     1     -32.879   8.712   1.549  1.00 20.00     0.268 C 
BRANCH  11  12
HETATM   12  C3  UNL     1     -32.167   9.953   1.090  1.00 20.00    -0.068 C 
HETATM   13  C2  UNL     1     -31.335   9.936   0.037  1.00 20.00     0.015 C 
HETATM   14  C9  UNL     1     -32.453  11.220   1.844  1.00 20.00     0.044 C 
ENDBRANCH  11  12
ENDBRANCH   8  11
ENDBRANCH   6   8
TORSDOF 3
