REMARK  3 active torsions:
REMARK  status: ('A' for Active; 'I' for Inactive)
REMARK    1  A    between atoms: C6_6  and  C7_7 
REMARK    2  A    between atoms: C7_7  and  C8_8 
REMARK    3  A    between atoms: C8_8  and  O10_10 
ROOT
HETATM    1  C1  UNL     1     -35.846   5.973   3.499  1.00 20.00     0.072 C 
HETATM    2  C3  UNL     1     -33.991   4.389   3.648  1.00 20.00     0.034 C 
HETATM    3  C7  UNL     1     -34.369   5.889   3.690  1.00 20.00     0.075 C 
HETATM    4  N9  UNL     1     -36.995   6.036   3.349  1.00 20.00    -0.196 NA
ENDROOT
BRANCH   3   5
HETATM    5  C6  UNL     1     -34.018   6.491   5.085  1.00 20.00     0.023 C 
HETATM    6  C2  UNL     1     -34.660   5.801   6.288  1.00 20.00     0.007 C 
ENDBRANCH   3   5
BRANCH   3   7
HETATM    7  C8  UNL     1     -33.648   6.679   2.519  1.00 20.00     0.071 C 
HETATM    8  C4  UNL     1     -32.114   6.652   2.625  1.00 20.00     0.047 C 
HETATM    9  C5  UNL     1     -34.090   8.149   2.398  1.00 20.00     0.047 C 
BRANCH   7  10
HETATM   10  O10 UNL     1     -33.944   6.043   1.263  1.00 20.00    -0.389 OA
HETATM   11  H25 UNL     1     -33.507   6.578   0.588  1.00 20.00     0.210 HD
ENDBRANCH   7  10
ENDBRANCH   3   7
TORSDOF 3
