REMARK  0 active torsions:
REMARK  status: ('A' for Active; 'I' for Inactive)
ROOT
HETATM    1  C1  UNL     1     -33.692   7.161   4.843  1.00 20.00    -0.058 C 
HETATM    2  C2  UNL     1     -34.387   5.912   4.529  1.00 20.00    -0.061 C 
HETATM    3  C3  UNL     1     -32.970   7.355   2.453  1.00 20.00    -0.085 C 
HETATM    4  C4  UNL     1     -34.041   7.949   5.873  1.00 20.00     0.020 C 
HETATM    5  C5  UNL     1     -34.644   4.967   5.447  1.00 20.00     0.019 C 
HETATM    6  C6  UNL     1     -32.810   8.315   1.531  1.00 20.00     0.014 C 
HETATM    7  C7  UNL     1     -32.570   7.536   3.898  1.00 20.00     0.071 C 
HETATM    8  C8  UNL     1     -34.765   5.738   3.075  1.00 20.00     0.042 C 
HETATM    9  C9  UNL     1     -33.588   6.017   2.134  1.00 20.00     0.038 C 
ENDROOT
TORSDOF 0
