REMARK  1 active torsions:
REMARK  status: ('A' for Active; 'I' for Inactive)
REMARK    1  A    between atoms: C6_6  and  C10_10 
ROOT
HETATM    1  C1  UNL     1     -31.546   8.690   3.344  1.00 20.00    -0.025 A 
HETATM    2  C2  UNL     1     -32.025   7.861   4.285  1.00 20.00    -0.020 A 
HETATM    3  C3  UNL     1     -32.664   5.898   2.749  1.00 20.00     0.020 A 
HETATM    4  C4  UNL     1     -32.210   8.397   2.014  1.00 20.00     0.009 A 
HETATM    5  C5  UNL     1     -33.170   7.248   2.306  1.00 20.00     0.006 A 
HETATM    6  C6  UNL     1     -33.056   6.922   3.789  1.00 20.00    -0.015 A 
HETATM    7  C7  UNL     1     -32.944   9.622   1.483  1.00 20.00     0.014 C 
ENDROOT
BRANCH   6   8
HETATM    8  C10 UNL     1     -34.297   6.722   4.598  1.00 20.00    -0.010 C 
HETATM    9  C8  UNL     1     -35.269   5.743   3.917  1.00 20.00     0.010 C 
HETATM   10  C9  UNL     1     -33.976   6.218   6.016  1.00 20.00     0.010 C 
ENDBRANCH   6   8
TORSDOF 1
