REMARK  2 active torsions:
REMARK  status: ('A' for Active; 'I' for Inactive)
REMARK    1  A    between atoms: C1_1  and  C7_7 
REMARK    2  A    between atoms: C7_7  and  O11_11 
ROOT
HETATM    1  C3  UNL     1     -33.985   6.178   5.383  1.00 20.00     0.029 C 
HETATM    2  C4  UNL     1     -34.025   7.612   4.856  1.00 20.00     0.046 C 
HETATM    3  C5  UNL     1     -34.458   5.206   4.313  1.00 20.00     0.167 C 
HETATM    4  C6  UNL     1     -33.779   6.634   2.542  1.00 20.00     0.209 C 
HETATM    5  C7  UNL     1     -33.303   7.727   3.505  1.00 20.00     0.097 C 
HETATM    6  O10 UNL     1     -33.668   5.336   3.134  1.00 20.00    -0.388 OA
ENDROOT
BRANCH   5   7
HETATM    7  C1  UNL     1     -33.501   9.083   2.896  1.00 20.00     0.015 C 
HETATM    8  C2  UNL     1     -33.018   9.538   1.724  1.00 20.00    -0.088 C 
HETATM    9  C8  UNL     1     -33.311  10.935   1.252  1.00 20.00     0.042 C 
HETATM   10  C9  UNL     1     -32.162   8.720   0.799  1.00 20.00     0.042 C 
ENDBRANCH   5   7
BRANCH   5  11
HETATM   11  O11 UNL     1     -31.901   7.533   3.715  1.00 20.00    -0.384 OA
HETATM   12  H27 UNL     1     -31.614   8.239   4.314  1.00 20.00     0.211 HD
ENDBRANCH   5  11
TORSDOF 2
