REMARK  4 active torsions:
REMARK  status: ('A' for Active; 'I' for Inactive)
REMARK    1  A    between atoms: C2_2  and  C5_5 
REMARK    2  A    between atoms: C5_5  and  C6_6 
REMARK    3  A    between atoms: C6_6  and  C7_7 
REMARK    4  A    between atoms: C7_7  and  C8_8 
ROOT
HETATM    1  C6  UNL     1     -33.369   7.896   2.991  1.00 20.00     0.006 C 
ENDROOT
BRANCH   1   2
HETATM    2  C5  UNL     1     -32.070   8.520   2.461  1.00 20.00     0.033 C 
BRANCH   2   3
HETATM    3  C2  UNL     1     -32.230   9.344   1.205  1.00 20.00    -0.093 C 
HETATM    4  C1  UNL     1     -31.605   9.012   0.064  1.00 20.00     0.014 C 
HETATM    5  C3  UNL     1     -33.089  10.572   1.296  1.00 20.00     0.042 C 
ENDBRANCH   2   3
ENDBRANCH   1   2
BRANCH   1   6
HETATM    6  C7  UNL     1     -33.155   7.040   4.247  1.00 20.00     0.020 C 
BRANCH   6   7
HETATM    7  C8  UNL     1     -34.453   6.423   4.789  1.00 20.00     0.078 C 
HETATM    8  C4  UNL     1     -35.093   5.501   3.758  1.00 20.00     0.026 C 
HETATM    9 CL9  UNL     1     -34.148   5.491   6.286  1.00 20.00    -0.125 Cl
ENDBRANCH   6   7
ENDBRANCH   1   6
TORSDOF 4
