REMARK  4 active torsions:
REMARK  status: ('A' for Active; 'I' for Inactive)
REMARK    1  A    between atoms: C2_2  and  C7_7 
REMARK    2  A    between atoms: C6_6  and  C7_7 
REMARK    3  A    between atoms: C6_6  and  S9_9 
REMARK    4  A    between atoms: C7_7  and  N8_8 
ROOT
HETATM    1  C7  UNL     1     -33.085   6.786   3.605  1.00 20.00     0.257 C 
ENDROOT
BRANCH   1   2
HETATM    2  C2  UNL     1     -33.595   5.352   3.644  1.00 20.00    -0.060 C 
HETATM    3  C1  UNL     1     -34.626   5.008   4.434  1.00 20.00     0.016 C 
HETATM    4  C3  UNL     1     -32.918   4.323   2.779  1.00 20.00     0.044 C 
ENDBRANCH   1   2
BRANCH   1   5
HETATM    5  C6  UNL     1     -33.180   7.451   2.218  1.00 20.00     0.113 C 
BRANCH   5   6
HETATM    6  S9  UNL     1     -32.583   9.172   2.223  1.00 20.00    -0.171 SA
HETATM    7  C5  UNL     1     -32.834   9.535   0.471  1.00 20.00     0.089 C 
ENDBRANCH   5   6
ENDBRANCH   1   5
BRANCH   1   8
HETATM    8  N8  UNL     1     -33.801   7.619   4.584  1.00 20.00     0.088 N 
HETATM    9  C4  UNL     1     -33.264   7.409   5.916  1.00 20.00     0.307 C 
HETATM   10  H24 UNL     1     -33.693   8.592   4.318  1.00 20.00     0.316 HD
ENDBRANCH   1   8
TORSDOF 4
