REMARK  3 active torsions:
REMARK  status: ('A' for Active; 'I' for Inactive)
REMARK    1  A    between atoms: C2_2  and  C9_9 
REMARK    2  A    between atoms: C3_3  and  C5_5 
REMARK    3  A    between atoms: C3_3  and  C9_9 
ROOT
HETATM    1  C3  UNL     1     -32.710   7.299   2.913  1.00 20.00     0.135 C 
HETATM    2  O10 UNL     1     -32.435   7.621   4.068  1.00 20.00    -0.297 OA
ENDROOT
BRANCH   1   3
HETATM    3  C5  UNL     1     -32.848   8.342   1.833  1.00 20.00     0.060 A 
HETATM    4  C4  UNL     1     -31.677   8.594   0.953  1.00 20.00     0.017 A 
HETATM    5  C6  UNL     1     -32.072   9.613   1.989  1.00 20.00    -0.007 A 
HETATM    6  C8  UNL     1     -32.699  10.899   1.576  1.00 20.00     0.011 C 
ENDBRANCH   1   3
BRANCH   1   7
HETATM    7  C9  UNL     1     -32.972   5.861   2.488  1.00 20.00     0.111 C 
BRANCH   7   8
HETATM    8  C2  UNL     1     -34.069   5.228   3.300  1.00 20.00    -0.086 C 
HETATM    9  C1  UNL     1     -33.850   4.133   4.045  1.00 20.00     0.014 C 
HETATM   10  C7  UNL     1     -35.413   5.898   3.263  1.00 20.00     0.043 C 
ENDBRANCH   7   8
ENDBRANCH   1   7
TORSDOF 3
