REMARK  2 active torsions:
REMARK  status: ('A' for Active; 'I' for Inactive)
REMARK    1  A    between atoms: C2_2  and  C9_9 
REMARK    2  A    between atoms: C6_6  and  C9_9 
ROOT
HETATM    1  C3  UNL     1     -33.843   6.311   2.464  1.00 20.00     0.006 C 
HETATM    2  C4  UNL     1     -34.864   5.534   3.284  1.00 20.00     0.016 C 
HETATM    3  C5  UNL     1     -33.520   6.913   4.790  1.00 20.00     0.020 C 
HETATM    4  C6  UNL     1     -33.512   7.495   3.368  1.00 20.00    -0.010 C 
HETATM    5  C7  UNL     1     -34.335   5.621   4.710  1.00 20.00     0.058 C 
HETATM    6 BR10 UNL     1     -33.185   4.081   5.082  1.00 20.00    -0.091 Br
ENDROOT
BRANCH   4   7
HETATM    7  C9  UNL     1     -32.201   8.172   3.005  1.00 20.00     0.037 C 
BRANCH   7   8
HETATM    8  C2  UNL     1     -32.199   8.729   1.601  1.00 20.00    -0.093 C 
HETATM    9  C1  UNL     1     -31.292   8.337   0.692  1.00 20.00     0.014 C 
HETATM   10  C8  UNL     1     -33.235   9.766   1.275  1.00 20.00     0.042 C 
ENDBRANCH   7   8
ENDBRANCH   4   7
TORSDOF 2
