REMARK  2 active torsions:
REMARK  status: ('A' for Active; 'I' for Inactive)
REMARK    1  A    between atoms: C9_9  and  C10_10 
REMARK    2  A    between atoms: C9_9  and  N12_12 
ROOT
HETATM    1  C1  UNL     1     -34.407   5.676   4.703  1.00 20.00     0.065 C 
HETATM    2  C8  UNL     1     -33.045   4.375   3.107  1.00 20.00     0.027 C 
HETATM    3  C10 UNL     1     -34.293   5.237   3.298  1.00 20.00     0.114 C 
HETATM    4  N11 UNL     1     -34.498   6.021   5.807  1.00 20.00    -0.197 NA
ENDROOT
BRANCH   3   5
HETATM    5  C9  UNL     1     -34.348   6.423   2.331  1.00 20.00     0.253 C 
BRANCH   5   6
HETATM    6  N12 UNL     1     -33.230   7.388   2.566  1.00 20.00    -0.069 N 
HETATM    7  C2  UNL     1     -31.917   6.994   1.912  1.00 20.00     0.239 C 
HETATM    8  C4  UNL     1     -31.560   8.175   1.013  1.00 20.00     0.012 C 
HETATM    9  C5  UNL     1     -32.193   9.366   1.735  1.00 20.00     0.012 C 
HETATM   10  C6  UNL     1     -30.060   8.304   0.800  1.00 20.00     0.012 C 
HETATM   11  C3  UNL     1     -33.549   8.805   2.137  1.00 20.00     0.239 C 
HETATM   12  C7  UNL     1     -32.317  10.616   0.877  1.00 20.00     0.012 C 
HETATM   13  H31 UNL     1     -33.062   7.412   3.582  1.00 20.00     0.280 HD
ENDBRANCH   5   6
ENDBRANCH   3   5
TORSDOF 2
