REMARK  3 active torsions:
REMARK  status: ('A' for Active; 'I' for Inactive)
REMARK    1  A    between atoms: C2_2  and  C7_7 
REMARK    2  A    between atoms: C5_5  and  C7_7 
REMARK    3  A    between atoms: C7_7  and  O8_8 
ROOT
HETATM    1  C7  UNL     1     -33.458   7.338   4.735  1.00 20.00     0.150 C 
ENDROOT
BRANCH   1   2
HETATM    2  C2  UNL     1     -32.690   7.630   3.466  1.00 20.00    -0.064 C 
HETATM    3  C1  UNL     1     -31.436   8.110   3.511  1.00 20.00     0.016 C 
HETATM    4  C6  UNL     1     -33.366   7.362   2.150  1.00 20.00     0.045 C 
ENDBRANCH   1   2
BRANCH   1   5
HETATM    5  C5  UNL     1     -33.844   5.868   4.864  1.00 20.00     0.019 A 
HETATM    6  C3  UNL     1     -35.027   5.466   5.701  1.00 20.00     0.008 A 
HETATM    7  C4  UNL     1     -35.093   5.352   4.204  1.00 20.00     0.008 A 
ENDBRANCH   1   5
BRANCH   1   8
HETATM    8  O8  UNL     1     -32.665   7.717   5.858  1.00 20.00    -0.391 OA
HETATM    9  H20 UNL     1     -33.190   7.515   6.647  1.00 20.00     0.210 HD
ENDBRANCH   1   8
TORSDOF 3
