REMARK  3 active torsions:
REMARK  status: ('A' for Active; 'I' for Inactive)
REMARK    1  A    between atoms: C2_2  and  C9_9 
REMARK    2  A    between atoms: C7_7  and  C9_9 
REMARK    3  A    between atoms: C9_9  and  O11_11 
ROOT
HETATM    1  C3  UNL     1     -33.382   9.687   2.397  1.00 20.00     0.034 C 
HETATM    2  C4  UNL     1     -31.772   8.232   1.137  1.00 20.00     0.034 C 
HETATM    3  C5  UNL     1     -33.432  10.579   1.162  1.00 20.00     0.168 C 
HETATM    4  C6  UNL     1     -31.913   9.206  -0.027  1.00 20.00     0.168 C 
HETATM    5  C7  UNL     1     -32.046   8.938   2.470  1.00 20.00     0.023 C 
HETATM    6  O10 UNL     1     -33.202   9.817  -0.023  1.00 20.00    -0.391 OA
ENDROOT
BRANCH   5   7
HETATM    7  C9  UNL     1     -32.033   7.948   3.630  1.00 20.00     0.150 C 
BRANCH   7   8
HETATM    8  C2  UNL     1     -33.097   6.883   3.500  1.00 20.00    -0.064 C 
HETATM    9  C1  UNL     1     -32.838   5.717   2.887  1.00 20.00     0.016 C 
HETATM   10  C8  UNL     1     -34.454   7.161   4.087  1.00 20.00     0.045 C 
ENDBRANCH   7   8
BRANCH   7  11
HETATM   11  O11 UNL     1     -32.227   8.654   4.853  1.00 20.00    -0.391 OA
HETATM   12  H27 UNL     1     -32.154   7.999   5.565  1.00 20.00     0.210 HD
ENDBRANCH   7  11
ENDBRANCH   5   7
TORSDOF 3
