REMARK  2 active torsions:
REMARK  status: ('A' for Active; 'I' for Inactive)
REMARK    1  A    between atoms: C3_3  and  C11_11 
REMARK    2  A    between atoms: C9_9  and  C11_11 
ROOT
HETATM    1  C1  UNL     1     -34.196   6.377   5.111  1.00 20.00     0.127 C 
HETATM    2  C4  UNL     1     -34.762   5.021   5.466  1.00 20.00     0.078 C 
HETATM    3  C5  UNL     1     -34.561   6.917   3.748  1.00 20.00     0.083 C 
HETATM    4  C6  UNL     1     -34.026   3.888   4.768  1.00 20.00     0.007 C 
HETATM    5  C7  UNL     1     -33.953   4.014   3.243  1.00 20.00     0.001 C 
HETATM    6  C8  UNL     1     -32.978   5.099   2.778  1.00 20.00     0.005 C 
HETATM    7  C9  UNL     1     -33.567   6.518   2.656  1.00 20.00    -0.004 C 
HETATM    8  O12 UNL     1     -33.448   6.987   5.873  1.00 20.00    -0.298 OA
ENDROOT
BRANCH   7   9
HETATM    9  C11 UNL     1     -32.427   7.538   2.558  1.00 20.00     0.037 C 
BRANCH   9  10
HETATM   10  C3  UNL     1     -32.847   8.798   1.849  1.00 20.00    -0.093 C 
HETATM   11  C2  UNL     1     -32.704   8.932   0.521  1.00 20.00     0.014 C 
HETATM   12  C10 UNL     1     -33.389   9.914   2.695  1.00 20.00     0.042 C 
ENDBRANCH   9  10
ENDBRANCH   7   9
TORSDOF 2
