REMARK  3 active torsions:
REMARK  status: ('A' for Active; 'I' for Inactive)
REMARK    1  A    between atoms: C1_1  and  C7_7 
REMARK    2  A    between atoms: C1_1  and  C8_8 
REMARK    3  A    between atoms: C8_8  and  O10_10 
ROOT
HETATM    1  C1  UNL     1     -32.857   7.604   3.125  1.00 20.00     0.163 C 
HETATM    2  O9  UNL     1     -32.076   7.877   4.040  1.00 20.00    -0.294 OA
ENDROOT
BRANCH   1   3
HETATM    3  C7  UNL     1     -33.975   6.586   3.338  1.00 20.00     0.050 C 
HETATM    4  C2  UNL     1     -33.484   5.196   2.947  1.00 20.00     0.017 C 
HETATM    5  C3  UNL     1     -34.434   6.624   4.792  1.00 20.00     0.017 C 
ENDBRANCH   1   3
BRANCH   1   6
HETATM    6  C8  UNL     1     -32.734   8.273   1.750  1.00 20.00     0.113 C 
HETATM    7  C4  UNL     1     -33.813   7.766   0.799  1.00 20.00     0.054 C 
HETATM    8  C5  UNL     1     -31.335   8.098   1.165  1.00 20.00     0.054 C 
BRANCH   6   9
HETATM    9  O10 UNL     1     -32.966   9.669   1.934  1.00 20.00    -0.378 OA
HETATM   10  C6  UNL     1     -32.872  10.375   0.707  1.00 20.00     0.203 C 
ENDBRANCH   6   9
ENDBRANCH   1   6
TORSDOF 3
