REMARK  2 active torsions:
REMARK  status: ('A' for Active; 'I' for Inactive)
REMARK    1  A    between atoms: C2_2  and  C3_3 
REMARK    2  A    between atoms: C3_3  and  C5_5 
ROOT
HETATM    1  C3  UNL     1     -32.345   8.119   2.567  1.00 20.00     0.159 C 
HETATM    2  O9  UNL     1     -31.666   8.672   3.434  1.00 20.00    -0.292 OA
ENDROOT
BRANCH   1   3
HETATM    3  C2  UNL     1     -33.429   7.160   2.963  1.00 20.00    -0.025 C 
HETATM    4  C1  UNL     1     -33.776   6.134   2.173  1.00 20.00     0.022 C 
HETATM    5  C7  UNL     1     -34.098   7.411   4.281  1.00 20.00     0.051 C 
ENDBRANCH   1   3
BRANCH   1   6
HETATM    6  C5  UNL     1     -32.092   8.401   1.107  1.00 20.00     0.064 A 
HETATM    7  C4  UNL     1     -33.242   8.841   0.271  1.00 20.00     0.018 A 
HETATM    8  C6  UNL     1     -32.139   9.804   0.610  1.00 20.00    -0.006 A 
HETATM    9  C8  UNL     1     -32.418  10.978   1.485  1.00 20.00     0.011 C 
ENDBRANCH   1   6
TORSDOF 2
