REMARK  3 active torsions:
REMARK  status: ('A' for Active; 'I' for Inactive)
REMARK    1  A    between atoms: C2_2  and  C10_10 
REMARK    2  A    between atoms: C5_5  and  C10_10 
REMARK    3  A    between atoms: C7_7  and  O11_11 
ROOT
HETATM    1  C3  UNL     1     -33.889   7.367   4.487  1.00 20.00     0.008 C 
HETATM    2  C4  UNL     1     -34.891   6.373   5.057  1.00 20.00     0.032 C 
HETATM    3  C5  UNL     1     -32.979   6.563   3.534  1.00 20.00    -0.004 C 
HETATM    4  C6  UNL     1     -33.551   5.127   3.542  1.00 20.00     0.015 C 
HETATM    5  C7  UNL     1     -35.006   5.311   3.975  1.00 20.00     0.122 C 
HETATM    6  C9  UNL     1     -33.406   4.331   2.251  1.00 20.00     0.013 C 
ENDROOT
BRANCH   3   7
HETATM    7  C10 UNL     1     -32.905   7.236   2.165  1.00 20.00     0.038 C 
BRANCH   7   8
HETATM    8  C2  UNL     1     -32.389   8.653   2.237  1.00 20.00    -0.093 C 
HETATM    9  C1  UNL     1     -33.116   9.687   1.787  1.00 20.00     0.014 C 
HETATM   10  C8  UNL     1     -31.011   8.851   2.801  1.00 20.00     0.042 C 
ENDBRANCH   7   8
ENDBRANCH   3   7
BRANCH   5  11
HETATM   11  O11 UNL     1     -35.562   4.125   4.508  1.00 20.00    -0.395 OA
HETATM   12  H29 UNL     1     -36.439   4.360   4.848  1.00 20.00     0.210 HD
ENDBRANCH   5  11
TORSDOF 3
