REMARK  3 active torsions:
REMARK  status: ('A' for Active; 'I' for Inactive)
REMARK    1  A    between atoms: C7_7  and  C8_8 
REMARK    2  A    between atoms: C7_7  and  C9_9 
REMARK    3  A    between atoms: C8_8  and  N10_10 
ROOT
HETATM    1  C1  UNL     1     -32.704   5.816   3.124  1.00 20.00     0.239 C 
HETATM    2  C2  UNL     1     -33.032   7.226   5.010  1.00 20.00     0.239 C 
HETATM    3  C3  UNL     1     -34.103   5.496   3.654  1.00 20.00     0.012 C 
HETATM    4  C4  UNL     1     -34.345   6.470   4.829  1.00 20.00     0.012 C 
HETATM    5  C5  UNL     1     -34.252   4.009   3.950  1.00 20.00     0.012 C 
HETATM    6  C6  UNL     1     -34.834   5.871   6.140  1.00 20.00     0.012 C 
HETATM    7  N10 UNL     1     -32.397   7.195   3.646  1.00 20.00    -0.070 N 
HETATM    8  H30 UNL     1     -31.398   7.263   3.766  1.00 20.00     0.279 HD
ENDROOT
BRANCH   7   9
HETATM    9  C8  UNL     1     -32.840   8.303   2.736  1.00 20.00     0.236 C 
BRANCH   9  10
HETATM   10  C7  UNL     1     -31.838   8.504   1.605  1.00 20.00     0.043 C 
BRANCH  10  11
HETATM   11  C9  UNL     1     -32.204   9.572   0.576  1.00 20.00     0.116 C 
HETATM   12 CL11 UNL     1     -32.424  11.171   1.321  1.00 20.00    -0.130 Cl
ENDBRANCH  10  11
ENDBRANCH   9  10
ENDBRANCH   7   9
TORSDOF 3
