REMARK  2 active torsions:
REMARK  status: ('A' for Active; 'I' for Inactive)
REMARK    1  A    between atoms: C2_2  and  C7_7 
REMARK    2  A    between atoms: C7_7  and  O11_11 
ROOT
HETATM    1  C3  UNL     1     -34.237   8.097   3.435  1.00 20.00     0.073 C 
HETATM    2  C4  UNL     1     -32.299   6.592   2.892  1.00 20.00     0.073 C 
HETATM    3  C5  UNL     1     -33.558   9.196   2.611  1.00 20.00     0.275 C 
HETATM    4  C6  UNL     1     -31.688   7.744   2.088  1.00 20.00     0.275 C 
HETATM    5  C7  UNL     1     -33.219   7.107   4.001  1.00 20.00     0.083 C 
HETATM    6  C9  UNL     1     -32.136   9.681   0.728  1.00 20.00     0.309 C 
HETATM    7  N10 UNL     1     -32.732   8.620   1.540  1.00 20.00     0.084 N 
ENDROOT
BRANCH   5   8
HETATM    8  C2  UNL     1     -33.916   5.956   4.667  1.00 20.00    -0.059 C 
HETATM    9  C1  UNL     1     -34.250   4.844   3.995  1.00 20.00     0.017 C 
HETATM   10  C8  UNL     1     -34.218   6.121   6.127  1.00 20.00     0.046 C 
ENDBRANCH   5   8
BRANCH   5  11
HETATM   11  O11 UNL     1     -32.461   7.754   5.015  1.00 20.00    -0.385 OA
HETATM   12  H28 UNL     1     -33.097   8.044   5.685  1.00 20.00     0.211 HD
ENDBRANCH   5  11
TORSDOF 2
