REMARK  2 active torsions:
REMARK  status: ('A' for Active; 'I' for Inactive)
REMARK    1  A    between atoms: C7_7  and  C8_8 
REMARK    2  A    between atoms: C7_7  and  N9_9 
ROOT
HETATM    1  C1  UNL     1     -33.475   7.743   4.411  1.00 20.00     0.277 C 
HETATM    2  C2  UNL     1     -32.589   6.055   3.056  1.00 20.00     0.277 C 
HETATM    3  C3  UNL     1     -34.134   6.426   4.853  1.00 20.00     0.015 C 
HETATM    4  C4  UNL     1     -33.272   5.328   4.208  1.00 20.00     0.015 C 
HETATM    5  C5  UNL     1     -34.209   6.283   6.368  1.00 20.00     0.012 C 
HETATM    6  C6  UNL     1     -34.072   4.118   3.752  1.00 20.00     0.012 C 
HETATM    7  N9  UNL     1     -32.267   7.337   3.685  1.00 20.00     0.090 N 
ENDROOT
BRANCH   7   8
HETATM    8  C7  UNL     1     -31.828   8.337   2.724  1.00 20.00     0.287 C 
BRANCH   8   9
HETATM    9  C8  UNL     1     -32.846   8.573   1.620  1.00 20.00     0.144 C 
HETATM   10 CL10 UNL     1     -32.272   9.797   0.461  1.00 20.00    -0.129 Cl
ENDBRANCH   8   9
ENDBRANCH   7   8
TORSDOF 2
