REMARK  4 active torsions:
REMARK  status: ('A' for Active; 'I' for Inactive)
REMARK    1  A    between atoms: C2_2  and  C7_7 
REMARK    2  A    between atoms: C6_6  and  C7_7 
REMARK    3  A    between atoms: C6_6  and  S9_9 
REMARK    4  A    between atoms: C7_7  and  N8_8 
ROOT
HETATM    1  C7  UNL     1     -33.034   6.577   3.296  1.00 20.00     0.257 C 
ENDROOT
BRANCH   1   2
HETATM    2  C2  UNL     1     -33.825   6.382   4.582  1.00 20.00    -0.060 C 
HETATM    3  C1  UNL     1     -34.836   5.499   4.645  1.00 20.00     0.016 C 
HETATM    4  C3  UNL     1     -33.451   7.201   5.789  1.00 20.00     0.044 C 
ENDBRANCH   1   2
BRANCH   1   5
HETATM    5  C6  UNL     1     -33.107   8.002   2.718  1.00 20.00     0.113 C 
BRANCH   5   6
HETATM    6  S9  UNL     1     -32.126   8.193   1.195  1.00 20.00    -0.171 SA
HETATM    7  C5  UNL     1     -32.506   9.927   0.861  1.00 20.00     0.089 C 
ENDBRANCH   5   6
ENDBRANCH   1   5
BRANCH   1   8
HETATM    8  N8  UNL     1     -33.481   5.631   2.261  1.00 20.00     0.088 N 
HETATM    9  C4  UNL     1     -32.894   4.323   2.483  1.00 20.00     0.307 C 
HETATM   10  H24 UNL     1     -33.195   5.989   1.355  1.00 20.00     0.316 HD
ENDBRANCH   1   8
TORSDOF 4
