REMARK  3 active torsions:
REMARK  status: ('A' for Active; 'I' for Inactive)
REMARK    1  A    between atoms: C2_2  and  C10_10 
REMARK    2  A    between atoms: C5_5  and  C10_10 
REMARK    3  A    between atoms: C7_7  and  O11_11 
ROOT
HETATM    1  C3  UNL     1     -32.988   7.605   5.272  1.00 20.00     0.008 C 
HETATM    2  C4  UNL     1     -33.977   6.551   5.774  1.00 20.00     0.032 C 
HETATM    3  C5  UNL     1     -33.261   7.743   3.771  1.00 20.00    -0.004 C 
HETATM    4  C6  UNL     1     -33.676   6.321   3.376  1.00 20.00     0.015 C 
HETATM    5  C7  UNL     1     -34.604   5.926   4.527  1.00 20.00     0.122 C 
HETATM    6  C9  UNL     1     -34.358   6.240   2.016  1.00 20.00     0.013 C 
ENDROOT
BRANCH   3   7
HETATM    7  C10 UNL     1     -32.056   8.272   3.008  1.00 20.00     0.038 C 
BRANCH   7   8
HETATM    8  C2  UNL     1     -32.424   8.846   1.661  1.00 20.00    -0.093 C 
HETATM    9  C1  UNL     1     -31.892   8.366   0.526  1.00 20.00     0.014 C 
HETATM   10  C8  UNL     1     -33.383  10.001   1.649  1.00 20.00     0.042 C 
ENDBRANCH   7   8
ENDBRANCH   3   7
BRANCH   5  11
HETATM   11  O11 UNL     1     -34.689   4.519   4.672  1.00 20.00    -0.395 OA
HETATM   12  H29 UNL     1     -35.245   4.346   5.451  1.00 20.00     0.210 HD
ENDBRANCH   5  11
TORSDOF 3
