REMARK  2 active torsions:
REMARK  status: ('A' for Active; 'I' for Inactive)
REMARK    1  A    between atoms: C2_2  and  C9_9 
REMARK    2  A    between atoms: C6_6  and  C9_9 
ROOT
HETATM    1  C3  UNL     1     -33.912   6.502   2.340  1.00 20.00     0.006 C 
HETATM    2  C4  UNL     1     -34.315   5.302   3.202  1.00 20.00     0.020 C 
HETATM    3  C5  UNL     1     -33.513   6.989   4.686  1.00 20.00     0.025 C 
HETATM    4  C6  UNL     1     -33.628   7.656   3.314  1.00 20.00    -0.009 C 
HETATM    5  C7  UNL     1     -34.549   5.879   4.592  1.00 20.00     0.082 C 
HETATM    6 CL10 UNL     1     -34.358   4.669   5.867  1.00 20.00    -0.125 Cl
ENDROOT
BRANCH   4   7
HETATM    7  C9  UNL     1     -32.398   8.467   2.943  1.00 20.00     0.037 C 
BRANCH   7   8
HETATM    8  C2  UNL     1     -32.516   9.119   1.587  1.00 20.00    -0.093 C 
HETATM    9  C1  UNL     1     -31.632   8.869   0.609  1.00 20.00     0.014 C 
HETATM   10  C8  UNL     1     -33.646  10.089   1.391  1.00 20.00     0.042 C 
ENDBRANCH   7   8
ENDBRANCH   4   7
TORSDOF 2
