REMARK  4 active torsions:
REMARK  status: ('A' for Active; 'I' for Inactive)
REMARK    1  A    between atoms: C2_2  and  C9_9 
REMARK    2  A    between atoms: C5_5  and  C9_9 
REMARK    3  A    between atoms: C8_8  and  C9_9 
REMARK    4  A    between atoms: C9_9  and  O10_10 
ROOT
HETATM    1  C9  UNL     1     -33.070   7.122   2.978  1.00 20.00     0.083 C 
ENDROOT
BRANCH   1   2
HETATM    2  C2  UNL     1     -33.393   5.626   2.858  1.00 20.00    -0.059 C 
HETATM    3  C1  UNL     1     -32.472   4.676   2.622  1.00 20.00     0.017 C 
HETATM    4  C6  UNL     1     -34.837   5.219   3.029  1.00 20.00     0.046 C 
ENDBRANCH   1   2
BRANCH   1   5
HETATM    5  C5  UNL     1     -33.119   7.927   1.687  1.00 20.00     0.024 A 
HETATM    6  C3  UNL     1     -32.936   9.419   1.717  1.00 20.00     0.008 A 
HETATM    7  C4  UNL     1     -31.865   8.542   1.131  1.00 20.00     0.008 A 
ENDBRANCH   1   5
BRANCH   1   8
HETATM    8  C8  UNL     1     -33.946   7.816   4.055  1.00 20.00     0.038 C 
HETATM    9  C7  UNL     1     -33.802   7.264   5.468  1.00 20.00     0.008 C 
ENDBRANCH   1   8
BRANCH   1  10
HETATM   10  O10 UNL     1     -31.716   7.232   3.460  1.00 20.00    -0.385 OA
HETATM   11  H26 UNL     1     -31.168   6.790   2.800  1.00 20.00     0.211 HD
ENDBRANCH   1  10
TORSDOF 4
