REMARK  2 active torsions:
REMARK  status: ('A' for Active; 'I' for Inactive)
REMARK    1  A    between atoms: C7_7  and  C8_8 
REMARK    2  A    between atoms: C7_7  and  N9_9 
ROOT
HETATM    1  C1  UNL     1     -33.029   6.297   2.720  1.00 20.00     0.277 C 
HETATM    2  C2  UNL     1     -33.283   7.551   4.649  1.00 20.00     0.277 C 
HETATM    3  C3  UNL     1     -34.176   5.615   3.475  1.00 20.00     0.015 C 
HETATM    4  C4  UNL     1     -34.347   6.455   4.761  1.00 20.00     0.015 C 
HETATM    5  C5  UNL     1     -33.935   4.122   3.645  1.00 20.00     0.012 C 
HETATM    6  C6  UNL     1     -34.267   5.718   6.090  1.00 20.00     0.012 C 
HETATM    7  N9  UNL     1     -33.100   7.677   3.202  1.00 20.00     0.090 N 
ENDROOT
BRANCH   7   8
HETATM    8  C7  UNL     1     -31.911   8.444   2.860  1.00 20.00     0.287 C 
BRANCH   8   9
HETATM    9  C8  UNL     1     -31.892   8.873   1.402  1.00 20.00     0.144 C 
HETATM   10 CL10 UNL     1     -33.294   9.899   1.011  1.00 20.00    -0.129 Cl
ENDBRANCH   8   9
ENDBRANCH   7   8
TORSDOF 2
