REMARK  3 active torsions:
REMARK  status: ('A' for Active; 'I' for Inactive)
REMARK    1  A    between atoms: C2_2  and  C9_9 
REMARK    2  A    between atoms: C3_3  and  C5_5 
REMARK    3  A    between atoms: C3_3  and  C9_9 
ROOT
HETATM    1  C3  UNL     1     -32.893   8.172   2.768  1.00 20.00     0.135 C 
HETATM    2  O10 UNL     1     -31.892   8.547   3.377  1.00 20.00    -0.297 OA
ENDROOT
BRANCH   1   3
HETATM    3  C5  UNL     1     -32.934   8.193   1.262  1.00 20.00     0.060 A 
HETATM    4  C4  UNL     1     -31.673   8.500   0.532  1.00 20.00     0.017 A 
HETATM    5  C6  UNL     1     -32.804   9.490   0.539  1.00 20.00    -0.007 A 
HETATM    6  C8  UNL     1     -32.642  10.802   1.227  1.00 20.00     0.011 C 
ENDBRANCH   1   3
BRANCH   1   7
HETATM    7  C9  UNL     1     -34.166   7.708   3.463  1.00 20.00     0.111 C 
BRANCH   7   8
HETATM    8  C2  UNL     1     -33.942   6.455   4.266  1.00 20.00    -0.086 C 
HETATM    9  C1  UNL     1     -34.159   6.421   5.590  1.00 20.00     0.014 C 
HETATM   10  C7  UNL     1     -33.494   5.236   3.510  1.00 20.00     0.043 C 
ENDBRANCH   7   8
ENDBRANCH   1   7
TORSDOF 3
