REMARK  3 active torsions:
REMARK  status: ('A' for Active; 'I' for Inactive)
REMARK    1  A    between atoms: C2_2  and  C9_9 
REMARK    2  A    between atoms: C6_6  and  C9_9 
REMARK    3  A    between atoms: C9_9  and  N10_10 
ROOT
HETATM    1  C9  UNL     1     -31.957   7.715   2.221  1.00 20.00     0.254 C 
ENDROOT
BRANCH   1   2
HETATM    2  C2  UNL     1     -32.119   8.971   1.383  1.00 20.00    -0.060 C 
HETATM    3  C1  UNL     1     -31.433   9.131   0.239  1.00 20.00     0.016 C 
HETATM    4  C7  UNL     1     -33.062  10.041   1.865  1.00 20.00     0.044 C 
ENDBRANCH   1   2
BRANCH   1   5
HETATM    5  C6  UNL     1     -33.258   6.946   2.351  1.00 20.00     0.049 C 
HETATM    6  C3  UNL     1     -34.186   7.473   3.424  1.00 20.00     0.035 C 
HETATM    7  C4  UNL     1     -35.096   6.285   3.653  1.00 20.00     0.168 C 
HETATM    8  O11 UNL     1     -34.312   5.108   3.408  1.00 20.00    -0.391 OA
HETATM    9  C5  UNL     1     -33.075   5.505   2.795  1.00 20.00     0.174 C 
ENDBRANCH   1   5
BRANCH   1  10
HETATM   10  N10 UNL     1     -31.421   8.002   3.555  1.00 20.00     0.088 N 
HETATM   11  C8  UNL     1     -29.981   8.190   3.497  1.00 20.00     0.307 C 
HETATM   12  H28 UNL     1     -31.639   7.221   4.168  1.00 20.00     0.316 HD
ENDBRANCH   1  10
TORSDOF 3
