REMARK  0 active torsions:
REMARK  status: ('A' for Active; 'I' for Inactive)
ROOT
HETATM    1  C1  UNL     1     -33.077   8.694   3.852  1.00 20.00     0.063 A 
HETATM    2  C2  UNL     1     -32.967   7.061   2.045  1.00 20.00     0.098 A 
HETATM    3  C3  UNL     1     -33.731   6.411   4.194  1.00 20.00     0.055 A 
HETATM    4  C4  UNL     1     -33.555   7.698   4.688  1.00 20.00    -0.037 A 
HETATM    5  C5  UNL     1     -32.782   8.370   2.524  1.00 20.00     0.175 A 
HETATM    6  C6  UNL     1     -33.449   6.059   2.887  1.00 20.00     0.134 A 
HETATM    7  C7  UNL     1     -34.239   5.576   5.271  1.00 20.00     0.163 A 
HETATM    8  C8  UNL     1     -33.931   7.823   6.129  1.00 20.00     0.047 A 
HETATM    9  C9  UNL     1     -34.387   6.407   6.523  1.00 20.00     0.088 A 
HETATM   10  O10 UNL     1     -32.338   9.276   1.734  1.00 20.00    -0.288 OA
HETATM   11  O11 UNL     1     -34.498   4.392   5.159  1.00 20.00    -0.292 OA
HETATM   12  F12 UNL     1     -33.629   4.812   2.438  1.00 20.00    -0.205 F 
ENDROOT
TORSDOF 0
