REMARK  4 active torsions:
REMARK  status: ('A' for Active; 'I' for Inactive)
REMARK    1  A    between atoms: C2_2  and  C8_8 
REMARK    2  A    between atoms: C6_6  and  C9_9 
REMARK    3  A    between atoms: C8_8  and  C9_9 
REMARK    4  A    between atoms: C9_9  and  O11_11 
ROOT
HETATM    1  C9  UNL     1     -32.789   8.309   3.449  1.00 20.00     0.151 C 
ENDROOT
BRANCH   1   2
HETATM    2  C6  UNL     1     -33.393   7.034   2.892  1.00 20.00     0.150 C 
HETATM    3  C4  UNL     1     -32.357   5.994   2.500  1.00 20.00     0.036 C 
HETATM    4  C3  UNL     1     -33.151   4.718   2.626  1.00 20.00     0.029 C 
HETATM    5  C5  UNL     1     -34.001   4.998   3.848  1.00 20.00     0.168 C 
HETATM    6  O10 UNL     1     -34.227   6.415   3.885  1.00 20.00    -0.383 OA
ENDBRANCH   1   2
BRANCH   1   7
HETATM    7  C8  UNL     1     -31.808   8.933   2.447  1.00 20.00     0.067 C 
BRANCH   7   8
HETATM    8  C2  UNL     1     -32.452   9.330   1.137  1.00 20.00    -0.091 C 
HETATM    9  C1  UNL     1     -32.020   8.839  -0.035  1.00 20.00     0.014 C 
HETATM   10  C7  UNL     1     -33.625  10.266   1.208  1.00 20.00     0.042 C 
ENDBRANCH   7   8
ENDBRANCH   1   7
BRANCH   1  11
HETATM   11  O11 UNL     1     -32.104   7.963   4.651  1.00 20.00    -0.393 OA
HETATM   12  H27 UNL     1     -32.768   7.587   5.248  1.00 20.00     0.210 HD
ENDBRANCH   1  11
TORSDOF 4
