REMARK  3 active torsions:
REMARK  status: ('A' for Active; 'I' for Inactive)
REMARK    1  A    between atoms: C1_1  and  C8_8 
REMARK    2  A    between atoms: C1_1  and  C9_9 
REMARK    3  A    between atoms: C9_9  and  C10_10 
ROOT
HETATM    1  C4  UNL     1     -33.008   7.662   5.164  1.00 20.00     0.018 C 
HETATM    2  C9  UNL     1     -32.910   6.851   3.868  1.00 20.00     0.059 C 
ENDROOT
BRANCH   2   3
HETATM    3  C1  UNL     1     -33.254   7.786   2.699  1.00 20.00     0.134 C 
HETATM    4  O11 UNL     1     -34.396   7.851   2.243  1.00 20.00    -0.297 OA
BRANCH   3   5
HETATM    5  C8  UNL     1     -32.124   8.659   2.155  1.00 20.00     0.048 C 
HETATM    6  C2  UNL     1     -32.702   9.965   1.621  1.00 20.00     0.017 C 
HETATM    7  C3  UNL     1     -31.340   7.925   1.071  1.00 20.00     0.017 C 
ENDBRANCH   3   5
ENDBRANCH   2   3
BRANCH   2   8
HETATM    8  C10 UNL     1     -33.741   5.525   3.852  1.00 20.00    -0.041 C 
HETATM    9  C5  UNL     1     -33.295   4.616   5.018  1.00 20.00     0.015 C 
HETATM   10  C6  UNL     1     -33.486   4.751   2.541  1.00 20.00     0.015 C 
HETATM   11  C7  UNL     1     -35.257   5.762   3.988  1.00 20.00     0.015 C 
ENDBRANCH   2   8
TORSDOF 3
