REMARK  2 active torsions:
REMARK  status: ('A' for Active; 'I' for Inactive)
REMARK    1  A    between atoms: C3_3  and  C6_6 
REMARK    2  A    between atoms: C6_6  and  O9_9 
ROOT
HETATM    1  C2  UNL     1     -35.381   5.660   3.613  1.00 20.00     0.045 A 
HETATM    2  C5  UNL     1     -34.309   5.205   4.569  1.00 20.00     0.019 A 
HETATM    3  C6  UNL     1     -33.930   5.896   3.277  1.00 20.00     0.066 A 
HETATM    4  C8  UNL     1     -34.154   5.871   5.892  1.00 20.00     0.013 C 
ENDROOT
BRANCH   3   5
HETATM    5  C3  UNL     1     -33.330   7.298   3.200  1.00 20.00     0.024 A 
HETATM    6  C1  UNL     1     -31.854   7.539   3.021  1.00 20.00     0.012 A 
HETATM    7  C4  UNL     1     -32.813   7.884   1.912  1.00 20.00    -0.011 A 
HETATM    8  C7  UNL     1     -33.085   9.309   1.572  1.00 20.00     0.010 C 
ENDBRANCH   3   5
BRANCH   3   9
HETATM    9  O9  UNL     1     -33.402   5.006   2.267  1.00 20.00    -0.389 OA
HETATM   10  H23 UNL     1     -33.941   5.161   1.483  1.00 20.00     0.210 HD
ENDBRANCH   3   9
TORSDOF 2
