REMARK  3 active torsions:
REMARK  status: ('A' for Active; 'I' for Inactive)
REMARK    1  A    between atoms: C3_3  and  C9_9 
REMARK    2  A    between atoms: C3_3  and  O10_10 
REMARK    3  A    between atoms: C8_8  and  C9_9 
ROOT
HETATM    1  C1  UNL     1     -34.461   7.604   5.418  1.00 20.00     0.046 A 
HETATM    2  C2  UNL     1     -33.665   6.331   5.546  1.00 20.00     0.019 A 
HETATM    3  C3  UNL     1     -33.127   7.483   4.725  1.00 20.00     0.068 A 
HETATM    4  C4  UNL     1     -34.159   5.070   4.924  1.00 20.00     0.013 C 
ENDROOT
BRANCH   3   5
HETATM    5  C9  UNL     1     -33.060   7.436   3.186  1.00 20.00    -0.017 C 
HETATM    6  C6  UNL     1     -32.410   6.108   2.766  1.00 20.00     0.018 C 
HETATM    7  C7  UNL     1     -34.494   7.495   2.634  1.00 20.00     0.018 C 
BRANCH   5   8
HETATM    8  C8  UNL     1     -32.223   8.648   2.701  1.00 20.00     0.007 C 
HETATM    9  C5  UNL     1     -32.045   8.770   1.193  1.00 20.00     0.006 C 
ENDBRANCH   5   8
ENDBRANCH   3   5
BRANCH   3  10
HETATM   10  O10 UNL     1     -32.041   8.214   5.323  1.00 20.00    -0.389 OA
HETATM   11  H28 UNL     1     -31.951   7.864   6.219  1.00 20.00     0.210 HD
ENDBRANCH   3  10
TORSDOF 3
