REMARK  3 active torsions:
REMARK  status: ('A' for Active; 'I' for Inactive)
REMARK    1  A    between atoms: C5_5  and  C9_9 
REMARK    2  A    between atoms: C6_6  and  C11_11 
REMARK    3  A    between atoms: C10_10  and  C11_11 
ROOT
HETATM    1  C1  UNL     1     -32.197   8.618   3.067  1.00 20.00     0.005 C 
HETATM    2  C2  UNL     1     -33.965   8.126   1.332  1.00 20.00     0.005 C 
HETATM    3  C3  UNL     1     -32.637   7.390   3.862  1.00 20.00     0.006 C 
HETATM    4  C4  UNL     1     -34.404   6.898   2.128  1.00 20.00     0.006 C 
HETATM    5  C5  UNL     1     -32.486   8.456   1.569  1.00 20.00    -0.015 C 
HETATM    6  C6  UNL     1     -34.116   7.061   3.625  1.00 20.00     0.004 C 
ENDROOT
BRANCH   6   7
HETATM    7  C11 UNL     1     -34.518   5.802   4.391  1.00 20.00     0.086 C 
HETATM    8 CL12 UNL     1     -34.354   6.156   6.130  1.00 20.00    -0.125 Cl
BRANCH   7   9
HETATM    9  C10 UNL     1     -33.657   4.618   3.967  1.00 20.00     0.016 C 
HETATM   10  C8  UNL     1     -34.028   3.334   4.697  1.00 20.00     0.006 C 
ENDBRANCH   7   9
ENDBRANCH   6   7
BRANCH   5  11
HETATM   11  C9  UNL     1     -32.085   9.716   0.803  1.00 20.00     0.000 C 
HETATM   12  C7  UNL     1     -32.862  10.908   1.257  1.00 20.00     0.005 C 
ENDBRANCH   5  11
TORSDOF 3
