REMARK  3 active torsions:
REMARK  status: ('A' for Active; 'I' for Inactive)
REMARK    1  A    between atoms: C1_1  and  C7_7 
REMARK    2  A    between atoms: C1_1  and  C12_12 
REMARK    3  A    between atoms: C8_8  and  C13_13 
ROOT
HETATM    1  C2  UNL     1     -33.541   5.315   2.417  1.00 20.00     0.001 C 
HETATM    2  C3  UNL     1     -33.376   6.386   1.343  1.00 20.00     0.012 C 
HETATM    3  C4  UNL     1     -32.650   8.117   3.160  1.00 20.00     0.012 C 
HETATM    4  C5  UNL     1     -34.704   5.604   3.364  1.00 20.00     0.005 C 
HETATM    5  C6  UNL     1     -34.065   8.075   3.740  1.00 20.00     0.006 C 
HETATM    6  C7  UNL     1     -32.492   7.568   1.740  1.00 20.00     0.055 C 
HETATM    7  C8  UNL     1     -34.495   6.741   4.373  1.00 20.00    -0.011 C 
ENDROOT
BRANCH   6   8
HETATM    8  C1  UNL     1     -32.721   8.672   0.748  1.00 20.00     0.130 C 
HETATM    9  O14 UNL     1     -33.585   8.574  -0.122  1.00 20.00    -0.298 OA
BRANCH   8  10
HETATM   10  C12 UNL     1     -31.832   9.894   0.891  1.00 20.00     0.074 C 
HETATM   11  C9  UNL     1     -32.623  11.170   1.118  1.00 20.00     0.013 C 
ENDBRANCH   8  10
ENDBRANCH   6   8
BRANCH   7  12
HETATM   12  C13 UNL     1     -33.578   6.307   5.522  1.00 20.00    -0.019 C 
HETATM   13  C10 UNL     1     -33.358   7.464   6.490  1.00 20.00     0.010 C 
HETATM   14  C11 UNL     1     -34.167   5.100   6.243  1.00 20.00     0.010 C 
ENDBRANCH   7  12
TORSDOF 3
