REMARK  2 active torsions:
REMARK  status: ('A' for Active; 'I' for Inactive)
REMARK    1  A    between atoms: C4_4  and  C7_7 
REMARK    2  A    between atoms: C6_6  and  C7_7 
ROOT
HETATM    1  C1  UNL     1     -32.663   6.663   2.334  1.00 20.00     0.034 C 
HETATM    2  C2  UNL     1     -32.555   8.054   1.744  1.00 20.00     0.168 C 
HETATM    3  C3  UNL     1     -31.820   8.137   3.954  1.00 20.00     0.173 C 
HETATM    4  C4  UNL     1     -32.733   6.928   3.824  1.00 20.00     0.026 C 
HETATM    5  O8  UNL     1     -31.938   8.885   2.736  1.00 20.00    -0.391 OA
ENDROOT
BRANCH   4   6
HETATM    6  C7  UNL     1     -34.156   7.242   4.283  1.00 20.00     0.063 C 
HETATM    7 BR9  UNL     1     -34.089   7.722   6.185  1.00 20.00    -0.091 Br
BRANCH   6   8
HETATM    8  C6  UNL     1     -35.096   6.050   4.079  1.00 20.00     0.012 C 
HETATM    9  C5  UNL     1     -34.626   4.778   4.775  1.00 20.00     0.006 C 
ENDBRANCH   6   8
ENDBRANCH   4   6
TORSDOF 2
