REMARK  4 active torsions:
REMARK  status: ('A' for Active; 'I' for Inactive)
REMARK    1  A    between atoms: C3_3  and  C5_5 
REMARK    2  A    between atoms: C3_3  and  O8_8 
REMARK    3  A    between atoms: C5_5  and  C6_6 
REMARK    4  A    between atoms: C6_6  and  C7_7 
ROOT
HETATM    1  C1  UNL     1     -33.085  10.287   1.453  1.00 20.00     0.045 A 
HETATM    2  C2  UNL     1     -32.871   9.123   0.520  1.00 20.00     0.019 A 
HETATM    3  C3  UNL     1     -32.617   8.962   2.000  1.00 20.00     0.062 A 
HETATM    4  C4  UNL     1     -31.753   9.150  -0.465  1.00 20.00     0.013 C 
ENDROOT
BRANCH   3   5
HETATM    5  C5  UNL     1     -33.540   8.133   2.828  1.00 20.00     0.047 C 
BRANCH   5   6
HETATM    6  C6  UNL     1     -33.081   6.676   2.912  1.00 20.00     0.120 C 
BRANCH   6   7
HETATM    7  C7  UNL     1     -34.035   5.823   3.719  1.00 20.00     0.388 C 
HETATM    8  F9  UNL     1     -34.118   6.253   4.996  1.00 20.00    -0.171 F 
HETATM    9  F10 UNL     1     -35.277   5.839   3.190  1.00 20.00    -0.171 F 
HETATM   10  F11 UNL     1     -33.617   4.539   3.745  1.00 20.00    -0.171 F 
ENDBRANCH   6   7
ENDBRANCH   5   6
ENDBRANCH   3   5
BRANCH   3  11
HETATM   11  O8  UNL     1     -31.247   8.912   2.433  1.00 20.00    -0.389 OA
HETATM   12  H22 UNL     1     -31.167   9.574   3.132  1.00 20.00     0.210 HD
ENDBRANCH   3  11
TORSDOF 4
