REMARK  2 active torsions:
REMARK  status: ('A' for Active; 'I' for Inactive)
REMARK    1  A    between atoms: C4_4  and  C7_7 
REMARK    2  A    between atoms: C7_7  and  C8_8 
ROOT
HETATM    1  C1  UNL     1     -33.240   7.762   1.942  1.00 20.00     0.034 C 
HETATM    2  C2  UNL     1     -32.265   8.918   1.857  1.00 20.00     0.168 C 
HETATM    3  C3  UNL     1     -31.900   7.799   3.867  1.00 20.00     0.173 C 
HETATM    4  C4  UNL     1     -33.336   7.552   3.437  1.00 20.00     0.026 C 
HETATM    5  O9  UNL     1     -31.373   8.793   2.974  1.00 20.00    -0.391 OA
ENDROOT
BRANCH   4   6
HETATM    6  C7  UNL     1     -33.869   6.191   3.841  1.00 20.00     0.067 C 
HETATM    7 BR10 UNL     1     -32.825   4.812   2.903  1.00 20.00    -0.090 Br
BRANCH   6   8
HETATM    8  C8  UNL     1     -33.896   5.896   5.354  1.00 20.00    -0.008 C 
HETATM    9  C5  UNL     1     -34.813   4.704   5.656  1.00 20.00     0.011 C 
HETATM   10  C6  UNL     1     -34.299   7.078   6.205  1.00 20.00     0.011 C 
ENDBRANCH   6   8
ENDBRANCH   4   6
TORSDOF 2
