REMARK  2 active torsions:
REMARK  status: ('A' for Active; 'I' for Inactive)
REMARK    1  A    between atoms: C3_3  and  C6_6 
REMARK    2  A    between atoms: C6_6  and  O9_9 
ROOT
HETATM    1  C2  UNL     1     -33.604   9.078   3.493  1.00 20.00     0.045 A 
HETATM    2  C5  UNL     1     -32.255   8.516   3.123  1.00 20.00     0.019 A 
HETATM    3  C6  UNL     1     -33.245   7.669   3.894  1.00 20.00     0.066 A 
HETATM    4  C8  UNL     1     -31.926   8.239   1.697  1.00 20.00     0.013 C 
ENDROOT
BRANCH   3   5
HETATM    5  C3  UNL     1     -33.962   6.452   3.317  1.00 20.00     0.024 A 
HETATM    6  C1  UNL     1     -33.508   5.040   3.582  1.00 20.00     0.012 A 
HETATM    7  C4  UNL     1     -34.833   5.513   4.119  1.00 20.00    -0.011 A 
HETATM    8  C7  UNL     1     -35.029   5.682   5.586  1.00 20.00     0.010 C 
ENDBRANCH   3   5
BRANCH   3   9
HETATM    9  O9  UNL     1     -32.920   7.515   5.295  1.00 20.00    -0.389 OA
HETATM   10  H23 UNL     1     -33.711   7.791   5.772  1.00 20.00     0.210 HD
ENDBRANCH   3   9
TORSDOF 2
