REMARK  3 active torsions:
REMARK  status: ('A' for Active; 'I' for Inactive)
REMARK    1  A    between atoms: C2_2  and  C6_6 
REMARK    2  A    between atoms: C3_3  and  C7_7 
REMARK    3  A    between atoms: C3_3  and  O8_8 
ROOT
HETATM    1  C1  UNL     1     -34.274   7.793   3.766  1.00 20.00     0.045 A 
HETATM    2  C2  UNL     1     -34.127   6.480   4.489  1.00 20.00     0.022 A 
HETATM    3  C3  UNL     1     -32.898   7.251   4.060  1.00 20.00     0.062 A 
ENDROOT
BRANCH   3   4
HETATM    4  C7  UNL     1     -32.021   6.796   2.941  1.00 20.00     0.034 C 
HETATM    5  C5  UNL     1     -31.717   7.891   1.951  1.00 20.00     0.008 C 
ENDBRANCH   3   4
BRANCH   3   6
HETATM    6  O8  UNL     1     -32.178   7.908   5.119  1.00 20.00    -0.389 OA
HETATM    7  H22 UNL     1     -32.722   7.802   5.910  1.00 20.00     0.210 HD
ENDBRANCH   3   6
BRANCH   2   8
HETATM    8  C6  UNL     1     -34.541   5.209   3.831  1.00 20.00     0.003 C 
HETATM    9  C4  UNL     1     -33.854   3.996   4.406  1.00 20.00     0.005 C 
ENDBRANCH   2   8
TORSDOF 3
