REMARK  2 active torsions:
REMARK  status: ('A' for Active; 'I' for Inactive)
REMARK    1  A    between atoms: C5_5  and  C7_7 
REMARK    2  A    between atoms: C7_7  and  O9_9 
ROOT
HETATM    1  C2  UNL     1     -31.796   7.704   3.377  1.00 20.00     0.045 A 
HETATM    2  C6  UNL     1     -32.389   7.817   1.996  1.00 20.00     0.019 A 
HETATM    3  C7  UNL     1     -32.919   6.798   2.969  1.00 20.00     0.066 A 
HETATM    4  C8  UNL     1     -33.152   9.034   1.603  1.00 20.00     0.013 C 
ENDROOT
BRANCH   3   5
HETATM    5  C5  UNL     1     -34.271   6.950   3.621  1.00 20.00     0.030 C 
HETATM    6  C1  UNL     1     -34.178   7.468   5.057  1.00 20.00     0.018 C 
HETATM    7  C3  UNL     1     -33.743   6.312   5.945  1.00 20.00     0.074 C 
HETATM    8  S10 UNL     1     -34.569   4.851   5.262  1.00 20.00    -0.169 SA
HETATM    9  C4  UNL     1     -35.042   5.634   3.691  1.00 20.00     0.081 C 
ENDBRANCH   3   5
BRANCH   3  10
HETATM   10  O9  UNL     1     -32.580   5.430   2.705  1.00 20.00    -0.389 OA
HETATM   11  H24 UNL     1     -31.938   5.448   1.981  1.00 20.00     0.210 HD
ENDBRANCH   3  10
TORSDOF 2
