REMARK  2 active torsions:
REMARK  status: ('A' for Active; 'I' for Inactive)
REMARK    1  A    between atoms: C6_6  and  C9_9 
REMARK    2  A    between atoms: C8_8  and  C9_9 
ROOT
HETATM    1  C1  UNL     1     -33.997   7.088   5.929  1.00 20.00     0.027 C 
HETATM    2  C2  UNL     1     -32.902   7.565   4.977  1.00 20.00     0.008 C 
HETATM    3  C3  UNL     1     -33.842   6.571   2.787  1.00 20.00     0.032 C 
HETATM    4  C4  UNL     1     -34.296   5.593   5.860  1.00 20.00     0.167 C 
HETATM    5  C5  UNL     1     -34.832   5.682   3.529  1.00 20.00     0.168 C 
HETATM    6  C6  UNL     1     -33.422   7.836   3.553  1.00 20.00     0.006 C 
HETATM    7  O10 UNL     1     -34.157   5.001   4.577  1.00 20.00    -0.391 OA
ENDROOT
BRANCH   6   8
HETATM    8  C9  UNL     1     -32.357   8.587   2.747  1.00 20.00     0.086 C 
HETATM    9 CL11 UNL     1     -31.947  10.063   3.654  1.00 20.00    -0.125 Cl
BRANCH   8  10
HETATM   10  C8  UNL     1     -32.872   8.898   1.348  1.00 20.00     0.016 C 
HETATM   11  C7  UNL     1     -31.841   9.630   0.500  1.00 20.00     0.006 C 
ENDBRANCH   8  10
ENDBRANCH   6   8
TORSDOF 2
