REMARK  4 active torsions:
REMARK  status: ('A' for Active; 'I' for Inactive)
REMARK    1  A    between atoms: C6_6  and  C7_7 
REMARK    2  A    between atoms: C6_6  and  C9_9 
REMARK    3  A    between atoms: C8_8  and  C10_10 
REMARK    4  A    between atoms: C9_9  and  C10_10 
ROOT
HETATM    1  C5  UNL     1     -30.958   7.973   3.757  1.00 20.00     0.011 C 
HETATM    2  C9  UNL     1     -32.216   7.329   3.153  1.00 20.00     0.001 C 
ENDROOT
BRANCH   2   3
HETATM    3  C6  UNL     1     -33.095   8.374   2.423  1.00 20.00     0.009 C 
BRANCH   3   4
HETATM    4  C7  UNL     1     -32.668   8.723   0.980  1.00 20.00    -0.022 C 
HETATM    5  C1  UNL     1     -31.254   9.301   0.912  1.00 20.00     0.009 C 
HETATM    6  C2  UNL     1     -33.661   9.722   0.378  1.00 20.00     0.009 C 
ENDBRANCH   3   4
ENDBRANCH   2   3
BRANCH   2   7
HETATM    7  C10 UNL     1     -33.004   6.519   4.228  1.00 20.00     0.089 C 
HETATM    8 CL11 UNL     1     -33.856   7.649   5.347  1.00 20.00    -0.124 Cl
BRANCH   7   9
HETATM    9  C8  UNL     1     -34.004   5.462   3.679  1.00 20.00    -0.004 C 
HETATM   10  C3  UNL     1     -34.750   4.728   4.800  1.00 20.00     0.011 C 
HETATM   11  C4  UNL     1     -33.301   4.413   2.803  1.00 20.00     0.011 C 
ENDBRANCH   7   9
ENDBRANCH   2   7
TORSDOF 4
