REMARK  3 active torsions:
REMARK  status: ('A' for Active; 'I' for Inactive)
REMARK    1  A    between atoms: C1_1  and  C7_7 
REMARK    2  A    between atoms: C1_1  and  C8_8 
REMARK    3  A    between atoms: C8_8  and  C9_9 
ROOT
HETATM    1  C3  UNL     1     -33.486   7.842   5.198  1.00 20.00     0.018 C 
HETATM    2  C8  UNL     1     -33.095   6.575   4.431  1.00 20.00     0.058 C 
ENDROOT
BRANCH   2   3
HETATM    3  C1  UNL     1     -32.883   6.963   2.963  1.00 20.00     0.131 C 
HETATM    4  O10 UNL     1     -33.006   6.144   2.052  1.00 20.00    -0.298 OA
BRANCH   3   5
HETATM    5  C7  UNL     1     -32.543   8.421   2.694  1.00 20.00     0.074 C 
HETATM    6  C2  UNL     1     -32.378   8.720   1.215  1.00 20.00     0.013 C 
ENDBRANCH   3   5
ENDBRANCH   2   3
BRANCH   2   7
HETATM    7  C9  UNL     1     -34.065   5.361   4.613  1.00 20.00    -0.041 C 
HETATM    8  C4  UNL     1     -34.174   4.987   6.107  1.00 20.00     0.015 C 
HETATM    9  C5  UNL     1     -33.624   4.111   3.829  1.00 20.00     0.015 C 
HETATM   10  C6  UNL     1     -35.480   5.750   4.131  1.00 20.00     0.015 C 
ENDBRANCH   2   7
TORSDOF 3
