REMARK  3 active torsions:
REMARK  status: ('A' for Active; 'I' for Inactive)
REMARK    1  A    between atoms: C2_2  and  C6_6 
REMARK    2  A    between atoms: C3_3  and  C7_7 
REMARK    3  A    between atoms: C3_3  and  O8_8 
ROOT
HETATM    1  C1  UNL     1     -34.347   7.336   3.738  1.00 20.00     0.045 A 
HETATM    2  C2  UNL     1     -33.068   6.699   3.260  1.00 20.00     0.022 A 
HETATM    3  C3  UNL     1     -33.540   6.475   4.676  1.00 20.00     0.062 A 
ENDROOT
BRANCH   3   4
HETATM    4  C7  UNL     1     -34.056   5.136   5.086  1.00 20.00     0.034 C 
HETATM    5  C5  UNL     1     -34.270   4.207   3.919  1.00 20.00     0.008 C 
ENDBRANCH   3   4
BRANCH   3   6
HETATM    6  O8  UNL     1     -32.843   7.171   5.723  1.00 20.00    -0.389 OA
HETATM    7  H22 UNL     1     -33.524   7.624   6.238  1.00 20.00     0.210 HD
ENDBRANCH   3   6
BRANCH   2   8
HETATM    8  C6  UNL     1     -31.879   7.545   2.958  1.00 20.00     0.003 C 
HETATM    9  C4  UNL     1     -31.921   8.150   1.578  1.00 20.00     0.005 C 
ENDBRANCH   2   8
TORSDOF 3
