REMARK  3 active torsions:
REMARK  status: ('A' for Active; 'I' for Inactive)
REMARK    1  A    between atoms: C2_2  and  C6_6 
REMARK    2  A    between atoms: C3_3  and  C7_7 
REMARK    3  A    between atoms: C3_3  and  O8_8 
ROOT
HETATM    1  C1  UNL     1     -31.710   7.656   2.839  1.00 20.00     0.045 A 
HETATM    2  C2  UNL     1     -32.596   8.023   1.677  1.00 20.00     0.022 A 
HETATM    3  C3  UNL     1     -33.137   7.167   2.802  1.00 20.00     0.062 A 
ENDROOT
BRANCH   3   4
HETATM    4  C7  UNL     1     -34.127   7.685   3.792  1.00 20.00     0.034 C 
HETATM    5  C5  UNL     1     -33.738   7.394   5.218  1.00 20.00     0.008 C 
ENDBRANCH   3   4
BRANCH   3   6
HETATM    6  O8  UNL     1     -33.315   5.774   2.489  1.00 20.00    -0.389 OA
HETATM    7  H22 UNL     1     -32.929   5.651   1.612  1.00 20.00     0.210 HD
ENDBRANCH   3   6
BRANCH   2   8
HETATM    8  C6  UNL     1     -33.022   9.436   1.473  1.00 20.00     0.003 C 
HETATM    9  C4  UNL     1     -31.990  10.264   0.752  1.00 20.00     0.005 C 
ENDBRANCH   2   8
TORSDOF 3
