REMARK  3 active torsions:
REMARK  status: ('A' for Active; 'I' for Inactive)
REMARK    1  A    between atoms: C3_3  and  C6_6 
REMARK    2  A    between atoms: C3_3  and  O8_8 
REMARK    3  A    between atoms: C6_6  and  C7_7 
ROOT
HETATM    1  C1  UNL     1     -34.708   7.109   3.759  1.00 20.00     0.045 A 
HETATM    2  C2  UNL     1     -34.214   5.817   4.354  1.00 20.00     0.019 A 
HETATM    3  C3  UNL     1     -33.276   6.997   4.219  1.00 20.00     0.061 A 
HETATM    4  C4  UNL     1     -34.090   4.598   3.507  1.00 20.00     0.013 C 
ENDROOT
BRANCH   3   5
HETATM    5  C6  UNL     1     -32.168   7.024   3.219  1.00 20.00     0.038 C 
BRANCH   5   6
HETATM    6  C7  UNL     1     -31.851   8.448   2.732  1.00 20.00    -0.002 C 
HETATM    7  C5  UNL     1     -33.034   9.099   2.034  1.00 20.00     0.005 C 
ENDBRANCH   5   6
ENDBRANCH   3   5
BRANCH   3   8
HETATM    8  O8  UNL     1     -32.957   7.677   5.446  1.00 20.00    -0.389 OA
HETATM    9  H22 UNL     1     -33.525   7.282   6.120  1.00 20.00     0.210 HD
ENDBRANCH   3   8
TORSDOF 3
