REMARK  2 active torsions:
REMARK  status: ('A' for Active; 'I' for Inactive)
REMARK    1  A    between atoms: C4_4  and  C7_7 
REMARK    2  A    between atoms: C7_7  and  C8_8 
ROOT
HETATM    1  C1  UNL     1     -32.471   6.049   2.524  1.00 20.00     0.034 C 
HETATM    2  C2  UNL     1     -33.289   4.958   3.183  1.00 20.00     0.168 C 
HETATM    3  C3  UNL     1     -34.265   7.013   3.688  1.00 20.00     0.173 C 
HETATM    4  C4  UNL     1     -33.491   7.158   2.389  1.00 20.00     0.026 C 
HETATM    5  O9  UNL     1     -34.268   5.612   4.004  1.00 20.00    -0.391 OA
ENDROOT
BRANCH   4   6
HETATM    6  C7  UNL     1     -32.889   8.535   2.187  1.00 20.00     0.067 C 
HETATM    7 BR10 UNL     1     -31.478   8.799   3.532  1.00 20.00    -0.090 Br
BRANCH   6   8
HETATM    8  C8  UNL     1     -32.338   8.833   0.777  1.00 20.00    -0.008 C 
HETATM    9  C5  UNL     1     -32.147  10.342   0.580  1.00 20.00     0.011 C 
HETATM   10  C6  UNL     1     -33.184   8.275  -0.344  1.00 20.00     0.011 C 
ENDBRANCH   6   8
ENDBRANCH   4   6
TORSDOF 2
