REMARK  4 active torsions:
REMARK  status: ('A' for Active; 'I' for Inactive)
REMARK    1  A    between atoms: C1_1  and  C9_9 
REMARK    2  A    between atoms: C2_2  and  C6_6 
REMARK    3  A    between atoms: C7_7  and  C9_9 
REMARK    4  A    between atoms: C8_8  and  C9_9 
ROOT
HETATM    1  C1  UNL     1     -32.426   6.477   2.734  1.00 20.00    -0.019 C 
HETATM    2  C2  UNL     1     -33.306   5.551   3.167  1.00 20.00    -0.073 C 
HETATM    3  C3  UNL     1     -33.016   4.085   2.976  1.00 20.00     0.044 C 
ENDROOT
BRANCH   1   4
HETATM    4  C9  UNL     1     -32.550   7.983   2.820  1.00 20.00     0.007 C 
BRANCH   4   5
HETATM    5  C7  UNL     1     -32.551   8.609   1.408  1.00 20.00     0.004 C 
HETATM    6  C4  UNL     1     -32.648  10.130   1.421  1.00 20.00     0.006 C 
ENDBRANCH   4   5
BRANCH   4   7
HETATM    7  C8  UNL     1     -31.393   8.581   3.647  1.00 20.00     0.004 C 
HETATM    8  C5  UNL     1     -30.015   8.253   3.086  1.00 20.00     0.006 C 
ENDBRANCH   4   7
ENDBRANCH   1   4
BRANCH   2   9
HETATM    9  C6  UNL     1     -34.589   5.861   3.885  1.00 20.00     0.148 C 
HETATM   10 CL10 UNL     1     -34.319   5.922   5.640  1.00 20.00    -0.126 Cl
ENDBRANCH   2   9
TORSDOF 4
