REMARK  3 active torsions:
REMARK  status: ('A' for Active; 'I' for Inactive)
REMARK    1  A    between atoms: C2_2  and  C6_6 
REMARK    2  A    between atoms: C3_3  and  O8_8 
REMARK    3  A    between atoms: C6_6  and  C7_7 
ROOT
HETATM    1  C1  UNL     1     -35.371   6.105   3.611  1.00 20.00     0.045 A 
HETATM    2  C2  UNL     1     -34.039   6.472   4.212  1.00 20.00     0.022 A 
HETATM    3  C3  UNL     1     -34.687   5.147   4.554  1.00 20.00     0.058 A 
HETATM    4  C4  UNL     1     -34.160   3.847   4.044  1.00 20.00     0.046 C 
ENDROOT
BRANCH   2   5
HETATM    5  C6  UNL     1     -32.827   6.568   3.351  1.00 20.00     0.007 C 
BRANCH   5   6
HETATM    6  C7  UNL     1     -32.772   7.884   2.555  1.00 20.00    -0.004 C 
HETATM    7  C5  UNL     1     -31.517   7.998   1.704  1.00 20.00     0.005 C 
ENDBRANCH   5   6
ENDBRANCH   2   5
BRANCH   3   8
HETATM    8  O8  UNL     1     -35.250   5.058   5.875  1.00 20.00    -0.390 OA
HETATM    9  H22 UNL     1     -36.162   4.764   5.752  1.00 20.00     0.210 HD
ENDBRANCH   3   8
TORSDOF 3
