REMARK  4 active torsions:
REMARK  status: ('A' for Active; 'I' for Inactive)
REMARK    1  A    between atoms: C2_2  and  C8_8 
REMARK    2  A    between atoms: C3_3  and  C9_9 
REMARK    3  A    between atoms: C3_3  and  O11_11 
REMARK    4  A    between atoms: C9_9  and  C10_10 
ROOT
HETATM    1  C1  UNL     1     -32.391   7.926   3.712  1.00 20.00     0.045 A 
HETATM    2  C2  UNL     1     -33.744   7.293   3.908  1.00 20.00     0.022 A 
HETATM    3  C3  UNL     1     -33.165   7.423   2.520  1.00 20.00     0.063 A 
ENDROOT
BRANCH   3   4
HETATM    4  C9  UNL     1     -33.770   8.415   1.534  1.00 20.00     0.046 C 
BRANCH   4   5
HETATM    5  C10 UNL     1     -32.760   9.312   0.773  1.00 20.00    -0.049 C 
HETATM    6  C5  UNL     1     -32.577  10.617   1.573  1.00 20.00     0.014 C 
HETATM    7  C6  UNL     1     -33.280   9.668  -0.630  1.00 20.00     0.014 C 
HETATM    8  C7  UNL     1     -31.392   8.622   0.645  1.00 20.00     0.014 C 
ENDBRANCH   4   5
ENDBRANCH   3   4
BRANCH   3   9
HETATM    9  O11 UNL     1     -32.658   6.229   1.901  1.00 20.00    -0.389 OA
HETATM   10  H31 UNL     1     -31.761   6.443   1.612  1.00 20.00     0.210 HD
ENDBRANCH   3   9
BRANCH   2  11
HETATM   11  C8  UNL     1     -33.859   5.969   4.584  1.00 20.00     0.003 C 
HETATM   12  C4  UNL     1     -33.853   6.073   6.088  1.00 20.00     0.005 C 
ENDBRANCH   2  11
TORSDOF 4
