REMARK  4 active torsions:
REMARK  status: ('A' for Active; 'I' for Inactive)
REMARK    1  A    between atoms: C1_1  and  C9_9 
REMARK    2  A    between atoms: C2_2  and  C7_7 
REMARK    3  A    between atoms: C2_2  and  C8_8 
REMARK    4  A    between atoms: C8_8  and  O10_10 
ROOT
HETATM    1  C1  UNL     1     -33.186   8.748   2.718  1.00 20.00    -0.013 C 
HETATM    2  C2  UNL     1     -33.512   7.558   3.268  1.00 20.00    -0.060 C 
ENDROOT
BRANCH   2   3
HETATM    3  C7  UNL     1     -33.384   6.207   2.601  1.00 20.00     0.031 C 
HETATM    4  C3  UNL     1     -33.840   5.063   3.496  1.00 20.00     0.010 C 
ENDBRANCH   2   3
BRANCH   2   5
HETATM    5  C8  UNL     1     -34.036   7.526   4.688  1.00 20.00     0.198 C 
BRANCH   5   6
HETATM    6  O10 UNL     1     -32.950   7.387   5.596  1.00 20.00    -0.397 OA
HETATM    7  H28 UNL     1     -33.332   7.371   6.488  1.00 20.00     0.209 HD
ENDBRANCH   5   6
ENDBRANCH   2   5
BRANCH   1   8
HETATM    8  C9  UNL     1     -32.655   9.112   1.334  1.00 20.00    -0.033 C 
HETATM    9  C4  UNL     1     -32.436  10.630   1.224  1.00 20.00     0.018 C 
HETATM   10  C5  UNL     1     -31.369   8.355   0.959  1.00 20.00     0.018 C 
HETATM   11  C6  UNL     1     -33.730   8.717   0.293  1.00 20.00     0.018 C 
ENDBRANCH   1   8
TORSDOF 4
