REMARK  2 active torsions:
REMARK  status: ('A' for Active; 'I' for Inactive)
REMARK    1  A    between atoms: C3_3  and  C7_7 
REMARK    2  A    between atoms: C4_4  and  C9_9 
ROOT
HETATM    1  C1  UNL     1     -34.687   4.371   5.016  1.00 20.00    -0.003 C 
HETATM    2  C2  UNL     1     -33.981   4.031   3.931  1.00 20.00     0.131 C 
HETATM    3  C5  UNL     1     -34.899   5.802   5.398  1.00 20.00     0.032 C 
HETATM    4  C6  UNL     1     -34.515   6.728   4.246  1.00 20.00     0.040 C 
HETATM    5  C7  UNL     1     -33.229   6.233   3.590  1.00 20.00     0.151 C 
HETATM    6  O10 UNL     1     -33.340   4.898   3.085  1.00 20.00    -0.354 OA
ENDROOT
BRANCH   5   7
HETATM    7  C3  UNL     1     -32.900   7.054   2.386  1.00 20.00     0.009 C 
HETATM    8  C4  UNL     1     -32.111   8.143   2.326  1.00 20.00    -0.071 C 
HETATM    9  C8  UNL     1     -31.440   8.665   3.570  1.00 20.00     0.044 C 
BRANCH   8  10
HETATM   10  C9  UNL     1     -31.858   8.943   1.078  1.00 20.00     0.148 C 
HETATM   11 CL11 UNL     1     -33.067  10.236   0.913  1.00 20.00    -0.126 Cl
ENDBRANCH   8  10
ENDBRANCH   5   7
TORSDOF 2
