REMARK  2 active torsions:
REMARK  status: ('A' for Active; 'I' for Inactive)
REMARK    1  A    between atoms: C4_4  and  C8_8 
REMARK    2  A    between atoms: C5_5  and  C9_9 
ROOT
HETATM    1  C1  UNL     1     -34.055   4.668   3.582  1.00 20.00     0.027 C 
HETATM    2  C2  UNL     1     -34.811   5.938   3.964  1.00 20.00     0.010 C 
HETATM    3  C3  UNL     1     -33.305   4.857   2.271  1.00 20.00     0.168 C 
HETATM    4  C4  UNL     1     -33.909   7.182   3.902  1.00 20.00     0.029 C 
HETATM    5  C5  UNL     1     -33.193   7.214   2.536  1.00 20.00     0.130 C 
HETATM    6  O10 UNL     1     -32.456   6.003   2.325  1.00 20.00    -0.385 OA
ENDROOT
BRANCH   5   7
HETATM    7  C9  UNL     1     -32.222   8.380   2.386  1.00 20.00     0.007 C 
HETATM    8  C6  UNL     1     -31.524   8.330   1.028  1.00 20.00     0.012 C 
HETATM    9  C7  UNL     1     -32.948   9.712   2.567  1.00 20.00     0.012 C 
ENDBRANCH   5   7
BRANCH   4  10
HETATM   10  C8  UNL     1     -32.939   7.200   5.091  1.00 20.00     0.121 C 
HETATM   11 CL11 UNL     1     -33.848   7.242   6.609  1.00 20.00    -0.130 Cl
ENDBRANCH   4  10
TORSDOF 2
