REMARK  1 active torsions:
REMARK  status: ('A' for Active; 'I' for Inactive)
REMARK    1  A    between atoms: C3_3  and  C8_8 
ROOT
HETATM    1  C1  UNL     1     -31.763   8.561   3.260  1.00 20.00     0.284 C 
HETATM    2  C2  UNL     1     -32.382   5.945   2.637  1.00 20.00     0.110 C 
HETATM    3  C3  UNL     1     -32.629   6.393   4.084  1.00 20.00     0.233 C 
HETATM    4  C4  UNL     1     -32.813   8.653   2.149  1.00 20.00     0.071 C 
HETATM    5  C5  UNL     1     -32.351   9.600   1.044  1.00 20.00     0.023 C 
HETATM    6  N9  UNL     1     -32.199   7.761   4.401  1.00 20.00     0.090 N 
HETATM    7  S10 UNL     1     -33.169   7.021   1.400  1.00 20.00    -0.161 SA
HETATM    8  H27 UNL     1     -31.426   7.717   5.085  1.00 20.00     0.316 HD
ENDROOT
BRANCH   3   9
HETATM    9  C8  UNL     1     -34.088   6.186   4.511  1.00 20.00     0.011 C 
HETATM   10  C6  UNL     1     -34.479   4.718   4.378  1.00 20.00     0.012 C 
HETATM   11  C7  UNL     1     -34.299   6.675   5.940  1.00 20.00     0.012 C 
ENDBRANCH   3   9
TORSDOF 1
