REMARK  4 active torsions:
REMARK  status: ('A' for Active; 'I' for Inactive)
REMARK    1  A    between atoms: C2_2  and  C8_8 
REMARK    2  A    between atoms: C3_3  and  C10_10 
REMARK    3  A    between atoms: C3_3  and  O11_11 
REMARK    4  A    between atoms: C9_9  and  C10_10 
ROOT
HETATM    1  C1  UNL     1     -31.658   7.614   3.527  1.00 20.00     0.046 A 
HETATM    2  C2  UNL     1     -32.598   8.385   2.638  1.00 20.00     0.023 A 
HETATM    3  C3  UNL     1     -33.134   7.309   3.557  1.00 20.00     0.069 A 
ENDROOT
BRANCH   3   4
HETATM    4  C10 UNL     1     -33.652   5.957   3.027  1.00 20.00    -0.017 C 
HETATM    5  C6  UNL     1     -34.373   5.227   4.172  1.00 20.00     0.018 C 
HETATM    6  C7  UNL     1     -34.652   6.229   1.891  1.00 20.00     0.018 C 
BRANCH   4   7
HETATM    7  C9  UNL     1     -32.437   5.139   2.519  1.00 20.00     0.007 C 
HETATM    8  C5  UNL     1     -32.755   3.760   1.953  1.00 20.00     0.006 C 
ENDBRANCH   4   7
ENDBRANCH   3   4
BRANCH   3   9
HETATM    9  O11 UNL     1     -33.849   7.782   4.712  1.00 20.00    -0.389 OA
HETATM   10  H31 UNL     1     -33.737   8.742   4.715  1.00 20.00     0.210 HD
ENDBRANCH   3   9
BRANCH   2  11
HETATM   11  C8  UNL     1     -32.541   8.216   1.158  1.00 20.00     0.003 C 
HETATM   12  C4  UNL     1     -31.475   9.061   0.509  1.00 20.00     0.005 C 
ENDBRANCH   2  11
TORSDOF 4
