REMARK  2 active torsions:
REMARK  status: ('A' for Active; 'I' for Inactive)
REMARK    1  A    between atoms: C1_1  and  C6_6 
REMARK    2  A    between atoms: C2_2  and  C7_7 
ROOT
HETATM    1  C3  UNL     1     -34.617   6.448   5.084  1.00 20.00     0.037 C 
HETATM    2  C4  UNL     1     -34.736   5.036   5.613  1.00 20.00     0.168 C 
HETATM    3  C5  UNL     1     -34.060   4.917   3.387  1.00 20.00     0.176 C 
HETATM    4  C6  UNL     1     -33.638   6.271   3.941  1.00 20.00     0.034 C 
HETATM    5  O8  UNL     1     -34.611   4.167   4.480  1.00 20.00    -0.390 OA
ENDROOT
BRANCH   4   6
HETATM    6  C1  UNL     1     -33.678   7.373   2.940  1.00 20.00    -0.023 C 
HETATM    7  C2  UNL     1     -32.615   8.121   2.610  1.00 20.00    -0.015 C 
BRANCH   7   8
HETATM    8  C7  UNL     1     -32.658   9.218   1.598  1.00 20.00     0.141 C 
HETATM    9 CL9  UNL     1     -31.523   8.868   0.277  1.00 20.00    -0.126 Cl
ENDBRANCH   7   8
ENDBRANCH   4   6
TORSDOF 2
