REMARK  2 active torsions:
REMARK  status: ('A' for Active; 'I' for Inactive)
REMARK    1  A    between atoms: C3_3  and  C8_8 
REMARK    2  A    between atoms: C4_4  and  C9_9 
ROOT
HETATM    1  C1  UNL     1     -33.139   8.706   4.894  1.00 20.00     0.034 C 
HETATM    2  C2  UNL     1     -33.898   7.825   5.865  1.00 20.00     0.168 C 
HETATM    3  C3  UNL     1     -33.376   7.993   3.579  1.00 20.00     0.031 C 
HETATM    4  C4  UNL     1     -33.287   6.535   4.019  1.00 20.00     0.134 C 
HETATM    5  O10 UNL     1     -33.849   6.488   5.344  1.00 20.00    -0.385 OA
ENDROOT
BRANCH   4   6
HETATM    6  C9  UNL     1     -34.043   5.575   3.118  1.00 20.00    -0.025 C 
HETATM    7  C5  UNL     1     -33.098   4.464   2.617  1.00 20.00     0.017 C 
HETATM    8  C6  UNL     1     -34.614   6.329   1.901  1.00 20.00     0.017 C 
HETATM    9  C7  UNL     1     -35.207   4.926   3.893  1.00 20.00     0.017 C 
ENDBRANCH   4   6
BRANCH   3  10
HETATM   10  C8  UNL     1     -32.387   8.375   2.492  1.00 20.00     0.121 C 
HETATM   11 CL11 UNL     1     -32.853   9.917   1.746  1.00 20.00    -0.130 Cl
ENDBRANCH   3  10
TORSDOF 2
