REMARK  3 active torsions:
REMARK  status: ('A' for Active; 'I' for Inactive)
REMARK    1  A    between atoms: C1_1  and  C6_6 
REMARK    2  A    between atoms: C2_2  and  C3_3 
REMARK    3  A    between atoms: C3_3  and  C8_8 
ROOT
HETATM    1  C1  UNL     1     -32.628   7.587   1.988  1.00 20.00    -0.012 C 
HETATM    2  C3  UNL     1     -33.212   6.963   3.027  1.00 20.00    -0.024 C 
ENDROOT
BRANCH   2   3
HETATM    3  C2  UNL     1     -33.672   5.569   2.787  1.00 20.00     0.265 C 
HETATM    4  O9  UNL     1     -32.916   4.662   2.459  1.00 20.00    -0.302 OA
ENDBRANCH   2   3
BRANCH   2   5
HETATM    5  C8  UNL     1     -33.463   7.573   4.379  1.00 20.00     0.037 C 
HETATM    6  C7  UNL     1     -34.142   6.597   5.330  1.00 20.00     0.010 C 
ENDBRANCH   2   5
BRANCH   1   7
HETATM    7  C6  UNL     1     -32.097   8.964   1.963  1.00 20.00     0.009 A 
HETATM    8  C4  UNL     1     -32.020   9.669   0.648  1.00 20.00     0.009 A 
HETATM    9  C5  UNL     1     -33.043  10.081   1.663  1.00 20.00     0.009 A 
ENDBRANCH   1   7
TORSDOF 3
