REMARK  2 active torsions:
REMARK  status: ('A' for Active; 'I' for Inactive)
REMARK    1  A    between atoms: C5_5  and  C7_7 
REMARK    2  A    between atoms: C7_7  and  C8_8 
ROOT
HETATM    1  C1  UNL     1     -36.175   6.002   3.696  1.00 20.00     0.066 C 
HETATM    2  C2  UNL     1     -34.224   5.116   4.915  1.00 20.00     0.048 C 
HETATM    3  C3  UNL     1     -33.483   4.520   3.736  1.00 20.00     0.169 C 
HETATM    4  C4  UNL     1     -34.881   6.343   4.316  1.00 20.00     0.123 C 
HETATM    5  C5  UNL     1     -33.864   6.780   3.260  1.00 20.00     0.139 C 
HETATM    6  N9  UNL     1     -37.193   5.733   3.207  1.00 20.00    -0.197 NA
HETATM    7  O10 UNL     1     -33.102   5.613   2.893  1.00 20.00    -0.384 OA
ENDROOT
BRANCH   5   8
HETATM    8  C7  UNL     1     -32.888   7.825   3.788  1.00 20.00     0.033 C 
BRANCH   8   9
HETATM    9  C8  UNL     1     -31.863   8.213   2.726  1.00 20.00    -0.002 C 
HETATM   10  C6  UNL     1     -32.538   8.772   1.484  1.00 20.00     0.005 C 
ENDBRANCH   8   9
ENDBRANCH   5   8
TORSDOF 2
