REMARK  2 active torsions:
REMARK  status: ('A' for Active; 'I' for Inactive)
REMARK    1  A    between atoms: C4_4  and  C5_5 
REMARK    2  A    between atoms: C6_6  and  C7_7 
ROOT
HETATM    1  C1  UNL     1     -34.410   6.169   4.868  1.00 20.00     0.038 A 
HETATM    2  C2  UNL     1     -34.621   4.873   5.276  1.00 20.00     0.142 A 
HETATM    3  C3  UNL     1     -33.727   4.744   3.293  1.00 20.00     0.152 A 
HETATM    4  C4  UNL     1     -33.828   6.085   3.580  1.00 20.00    -0.011 A 
HETATM    5  O10 UNL     1     -34.208   3.998   4.322  1.00 20.00    -0.334 OA
ENDROOT
BRANCH   4   6
HETATM    6  C5  UNL     1     -33.407   7.182   2.699  1.00 20.00     0.023 C 
HETATM    7  C7  UNL     1     -32.474   8.102   2.996  1.00 20.00    -0.024 C 
HETATM    8  C8  UNL     1     -31.647   8.195   4.242  1.00 20.00     0.051 C 
BRANCH   7   9
HETATM    9  C6  UNL     1     -32.225   9.128   1.947  1.00 20.00     0.265 C 
HETATM   10  O9  UNL     1     -32.822   9.146   0.876  1.00 20.00    -0.302 OA
ENDBRANCH   7   9
ENDBRANCH   4   6
TORSDOF 2
