REMARK  3 active torsions:
REMARK  status: ('A' for Active; 'I' for Inactive)
REMARK    1  A    between atoms: C1_1  and  C8_8 
REMARK    2  A    between atoms: C2_2  and  C3_3 
REMARK    3  A    between atoms: C3_3  and  C9_9 
ROOT
HETATM    1  C1  UNL     1     -33.110   8.174   3.199  1.00 20.00    -0.012 C 
HETATM    2  C3  UNL     1     -33.729   7.173   3.855  1.00 20.00    -0.020 C 
ENDROOT
BRANCH   2   3
HETATM    3  C2  UNL     1     -33.775   7.358   5.338  1.00 20.00     0.265 C 
HETATM    4  O10 UNL     1     -34.291   6.561   6.111  1.00 20.00    -0.302 OA
ENDBRANCH   2   3
BRANCH   2   5
HETATM    5  C9  UNL     1     -34.352   5.936   3.239  1.00 20.00     0.013 C 
HETATM    6  C6  UNL     1     -33.660   4.649   3.700  1.00 20.00     0.015 C 
HETATM    7  C7  UNL     1     -35.863   5.866   3.475  1.00 20.00     0.015 C 
ENDBRANCH   2   5
BRANCH   1   8
HETATM    8  C8  UNL     1     -32.880   8.310   1.711  1.00 20.00     0.001 C 
HETATM    9  C4  UNL     1     -32.151   9.621   1.414  1.00 20.00     0.013 C 
HETATM   10  C5  UNL     1     -32.070   7.119   1.197  1.00 20.00     0.013 C 
ENDBRANCH   1   8
TORSDOF 3
