REMARK  4 active torsions:
REMARK  status: ('A' for Active; 'I' for Inactive)
REMARK    1  A    between atoms: C6_6  and  C9_9 
REMARK    2  A    between atoms: C7_7  and  C10_10 
REMARK    3  A    between atoms: C8_8  and  O11_11 
REMARK    4  A    between atoms: C9_9  and  C10_10 
ROOT
HETATM    1  C1  UNL     1     -35.053   5.415   3.653  1.00 20.00     0.003 C 
HETATM    2  C2  UNL     1     -33.729   5.542   2.898  1.00 20.00     0.007 C 
HETATM    3  C5  UNL     1     -34.852   6.120   4.995  1.00 20.00     0.032 C 
HETATM    4  C7  UNL     1     -32.998   6.708   3.563  1.00 20.00     0.014 C 
HETATM    5  C8  UNL     1     -33.380   6.517   5.033  1.00 20.00     0.122 C 
ENDROOT
BRANCH   4   6
HETATM    6  C10 UNL     1     -33.420   8.058   2.981  1.00 20.00     0.007 C 
BRANCH   6   7
HETATM    7  C9  UNL     1     -32.741   8.326   1.639  1.00 20.00     0.005 C 
BRANCH   7   8
HETATM    8  C6  UNL     1     -33.182   9.655   1.047  1.00 20.00    -0.014 A 
HETATM    9  C3  UNL     1     -32.431  10.916   1.372  1.00 20.00     0.005 A 
HETATM   10  C4  UNL     1     -32.349  10.327  -0.008  1.00 20.00     0.005 A 
ENDBRANCH   7   8
ENDBRANCH   6   7
ENDBRANCH   4   6
BRANCH   5  11
HETATM   11  O11 UNL     1     -33.185   7.674   5.821  1.00 20.00    -0.395 OA
HETATM   12  H29 UNL     1     -33.495   7.458   6.715  1.00 20.00     0.210 HD
ENDBRANCH   5  11
TORSDOF 4
