REMARK  3 active torsions:
REMARK  status: ('A' for Active; 'I' for Inactive)
REMARK    1  A    between atoms: C7_7  and  C9_9 
REMARK    2  A    between atoms: C8_8  and  C10_10 
REMARK    3  A    between atoms: C9_9  and  C10_10 
ROOT
HETATM    1  C1  UNL     1     -33.511   5.554   3.648  1.00 20.00     0.131 C 
HETATM    2  C2  UNL     1     -34.055   4.801   4.836  1.00 20.00     0.079 C 
HETATM    3  C3  UNL     1     -34.344   5.928   5.819  1.00 20.00     0.008 C 
HETATM    4  C4  UNL     1     -33.294   6.985   5.503  1.00 20.00     0.013 C 
HETATM    5  C7  UNL     1     -33.233   7.007   3.975  1.00 20.00     0.055 C 
HETATM    6  O11 UNL     1     -33.318   5.042   2.552  1.00 20.00    -0.298 OA
ENDROOT
BRANCH   5   7
HETATM    7  C9  UNL     1     -31.899   7.489   3.443  1.00 20.00     0.012 C 
BRANCH   7   8
HETATM    8  C10 UNL     1     -31.966   7.796   1.946  1.00 20.00     0.005 C 
BRANCH   8   9
HETATM    9  C8  UNL     1     -33.010   8.856   1.637  1.00 20.00    -0.014 A 
HETATM   10  C5  UNL     1     -32.635  10.312   1.640  1.00 20.00     0.005 A 
HETATM   11  C6  UNL     1     -32.952   9.621   0.343  1.00 20.00     0.005 A 
ENDBRANCH   8   9
ENDBRANCH   7   8
ENDBRANCH   5   7
TORSDOF 3
