REMARK  4 active torsions:
REMARK  status: ('A' for Active; 'I' for Inactive)
REMARK    1  A    between atoms: C1_1  and  C6_6 
REMARK    2  A    between atoms: C4_4  and  C6_6 
REMARK    3  A    between atoms: C5_5  and  C6_6 
REMARK    4  A    between atoms: C5_5  and  C7_7 
ROOT
HETATM    1  C6  UNL     1     -34.317   6.865   3.563  1.00 20.00     0.059 C 
ENDROOT
BRANCH   1   2
HETATM    2  C1  UNL     1     -33.659   7.086   4.923  1.00 20.00     0.127 C 
HETATM    3  C2  UNL     1     -34.314   6.425   6.109  1.00 20.00     0.091 C 
HETATM    4  O8  UNL     1     -32.641   7.765   5.055  1.00 20.00    -0.298 OA
ENDBRANCH   1   2
BRANCH   1   5
HETATM    5  C4  UNL     1     -33.744   5.597   2.909  1.00 20.00     0.008 C 
HETATM    6  C3  UNL     1     -33.953   4.347   3.754  1.00 20.00     0.006 C 
ENDBRANCH   1   5
BRANCH   1   7
HETATM    7  C5  UNL     1     -34.088   8.087   2.653  1.00 20.00     0.083 C 
BRANCH   7   8
HETATM    8  C7  UNL     1     -32.714   8.111   2.000  1.00 20.00     0.353 C 
HETATM    9  F9  UNL     1     -31.738   8.157   2.937  1.00 20.00    -0.214 F 
HETATM   10  F10 UNL     1     -32.582   9.217   1.230  1.00 20.00    -0.214 F 
ENDBRANCH   7   8
ENDBRANCH   1   7
TORSDOF 4
