REMARK  3 active torsions:
REMARK  status: ('A' for Active; 'I' for Inactive)
REMARK    1  A    between atoms: C4_4  and  C6_6 
REMARK    2  A    between atoms: C5_5  and  O8_8 
REMARK    3  A    between atoms: C6_6  and  C7_7 
ROOT
HETATM    1  C1  UNL     1     -34.912   5.846   4.265  1.00 20.00     0.003 C 
HETATM    2  C2  UNL     1     -34.588   6.214   2.816  1.00 20.00     0.007 C 
HETATM    3  C3  UNL     1     -33.818   6.479   5.124  1.00 20.00     0.032 C 
HETATM    4  C4  UNL     1     -33.597   7.370   2.918  1.00 20.00     0.023 C 
HETATM    5  C5  UNL     1     -32.768   6.981   4.140  1.00 20.00     0.122 C 
ENDROOT
BRANCH   4   6
HETATM    6  C6  UNL     1     -32.764   7.558   1.660  1.00 20.00     0.124 C 
BRANCH   6   7
HETATM    7  C7  UNL     1     -32.143   8.927   1.613  1.00 20.00     0.388 C 
HETATM    8  F9  UNL     1     -33.076   9.903   1.624  1.00 20.00    -0.171 F 
HETATM    9  F10 UNL     1     -31.427   9.059   0.474  1.00 20.00    -0.171 F 
HETATM   10  F11 UNL     1     -31.305   9.136   2.649  1.00 20.00    -0.171 F 
ENDBRANCH   6   7
ENDBRANCH   4   6
BRANCH   5  11
HETATM   11  O8  UNL     1     -32.063   8.094   4.655  1.00 20.00    -0.395 OA
HETATM   12  H22 UNL     1     -31.629   7.802   5.476  1.00 20.00     0.210 HD
ENDBRANCH   5  11
TORSDOF 3
