REMARK  4 active torsions:
REMARK  status: ('A' for Active; 'I' for Inactive)
REMARK    1  A    between atoms: C4_4  and  C6_6 
REMARK    2  A    between atoms: C6_6  and  C8_8 
REMARK    3  A    between atoms: C7_7  and  C8_8 
REMARK    4  A    between atoms: C8_8  and  O10_10 
ROOT
HETATM    1  C6  UNL     1     -33.649   6.862   2.508  1.00 20.00     0.038 C 
ENDROOT
BRANCH   1   2
HETATM    2  C4  UNL     1     -33.570   6.036   3.777  1.00 20.00     0.014 C 
HETATM    3  C1  UNL     1     -34.067   6.750   5.015  1.00 20.00     0.033 C 
HETATM    4  C2  UNL     1     -34.330   5.590   5.953  1.00 20.00     0.168 C 
HETATM    5  O9  UNL     1     -34.718   4.476   5.137  1.00 20.00    -0.391 OA
HETATM    6  C3  UNL     1     -34.460   4.805   3.764  1.00 20.00     0.172 C 
ENDBRANCH   1   2
BRANCH   1   7
HETATM    7  C8  UNL     1     -32.848   8.165   2.610  1.00 20.00     0.118 C 
BRANCH   7   8
HETATM    8  C7  UNL     1     -32.921   8.951   1.296  1.00 20.00     0.027 C 
HETATM    9  C5  UNL     1     -32.116  10.243   1.334  1.00 20.00     0.007 C 
ENDBRANCH   7   8
BRANCH   7  10
HETATM   10  O10 UNL     1     -31.492   7.839   2.904  1.00 20.00    -0.396 OA
HETATM   11  H26 UNL     1     -31.176   7.286   2.173  1.00 20.00     0.210 HD
ENDBRANCH   7  10
ENDBRANCH   1   7
TORSDOF 4
