REMARK  3 active torsions:
REMARK  status: ('A' for Active; 'I' for Inactive)
REMARK    1  A    between atoms: C7_7  and  C9_9 
REMARK    2  A    between atoms: C8_8  and  C10_10 
REMARK    3  A    between atoms: C9_9  and  C10_10 
ROOT
HETATM    1  C1  UNL     1     -33.876   5.364   3.475  1.00 20.00     0.131 C 
HETATM    2  C2  UNL     1     -34.776   4.465   4.285  1.00 20.00     0.079 C 
HETATM    3  C3  UNL     1     -34.719   5.117   5.661  1.00 20.00     0.008 C 
HETATM    4  C4  UNL     1     -34.524   6.600   5.371  1.00 20.00     0.013 C 
HETATM    5  C7  UNL     1     -33.507   6.626   4.228  1.00 20.00     0.055 C 
HETATM    6  O11 UNL     1     -33.495   5.097   2.342  1.00 20.00    -0.298 OA
ENDROOT
BRANCH   5   7
HETATM    7  C9  UNL     1     -33.606   7.875   3.376  1.00 20.00     0.012 C 
BRANCH   7   8
HETATM    8  C10 UNL     1     -32.363   8.065   2.506  1.00 20.00     0.005 C 
BRANCH   8   9
HETATM    9  C8  UNL     1     -32.475   9.302   1.630  1.00 20.00    -0.014 A 
HETATM   10  C5  UNL     1     -31.608   9.447   0.409  1.00 20.00     0.005 A 
HETATM   11  C6  UNL     1     -33.084   9.206   0.259  1.00 20.00     0.005 A 
ENDBRANCH   8   9
ENDBRANCH   7   8
ENDBRANCH   5   7
TORSDOF 3
