REMARK  3 active torsions:
REMARK  status: ('A' for Active; 'I' for Inactive)
REMARK    1  A    between atoms: C2_2  and  C10_10 
REMARK    2  A    between atoms: C3_3  and  C8_8 
REMARK    3  A    between atoms: C8_8  and  C10_10 
ROOT
HETATM    1  C4  UNL     1     -33.265   9.784   0.686  1.00 20.00     0.001 C 
HETATM    2  C5  UNL     1     -31.778   9.534   0.866  1.00 20.00     0.001 C 
HETATM    3  C6  UNL     1     -33.925   9.043   1.848  1.00 20.00     0.021 C 
HETATM    4  C7  UNL     1     -31.730   8.083   1.324  1.00 20.00     0.021 C 
HETATM    5  C8  UNL     1     -32.931   7.944   2.274  1.00 20.00     0.055 C 
ENDROOT
BRANCH   5   6
HETATM    6  C3  UNL     1     -32.491   8.202   3.693  1.00 20.00     0.182 C 
HETATM    7  O11 UNL     1     -31.466   8.929   3.816  1.00 20.00    -0.647 OA
HETATM    8  O12 UNL     1     -33.207   7.655   4.577  1.00 20.00    -0.647 OA
ENDBRANCH   5   6
BRANCH   5   9
HETATM    9  C10 UNL     1     -33.545   6.548   2.207  1.00 20.00     0.022 C 
HETATM   10  C9  UNL     1     -32.508   5.480   2.573  1.00 20.00     0.015 C 
BRANCH   9  11
HETATM   11  C2  UNL     1     -34.735   6.446   3.130  1.00 20.00    -0.031 C 
HETATM   12  C1  UNL     1     -35.129   5.314   3.725  1.00 20.00     0.007 C 
ENDBRANCH   9  11
ENDBRANCH   5   9
TORSDOF 3
