REMARK  4 active torsions:
REMARK  status: ('A' for Active; 'I' for Inactive)
REMARK    1  A    between atoms: C1_1  and  C10_10 
REMARK    2  A    between atoms: C5_5  and  C8_8 
REMARK    3  A    between atoms: C8_8  and  C10_10 
REMARK    4  A    between atoms: C9_9  and  C10_10 
ROOT
HETATM    1  C10 UNL     1     -32.631   7.234   3.486  1.00 20.00     0.055 C 
ENDROOT
BRANCH   1   2
HETATM    2  C1  UNL     1     -33.274   5.871   3.236  1.00 20.00     0.127 C 
HETATM    3  C6  UNL     1     -32.400   4.810   2.620  1.00 20.00     0.091 C 
HETATM    4  O11 UNL     1     -34.450   5.641   3.519  1.00 20.00    -0.298 OA
ENDBRANCH   1   2
BRANCH   1   5
HETATM    5  C8  UNL     1     -33.369   8.318   2.683  1.00 20.00     0.016 C 
BRANCH   5   6
HETATM    6  C5  UNL     1     -32.959   8.351   1.225  1.00 20.00    -0.014 C 
HETATM    7  C3  UNL     1     -31.467   8.656   0.930  1.00 20.00     0.005 C 
HETATM    8  C2  UNL     1     -31.950   9.453  -0.300  1.00 20.00     0.001 C 
HETATM    9  C4  UNL     1     -33.289   9.648   0.441  1.00 20.00     0.005 C 
ENDBRANCH   5   6
ENDBRANCH   1   5
BRANCH   1  10
HETATM   10  C9  UNL     1     -32.665   7.561   4.988  1.00 20.00     0.007 C 
HETATM   11  C7  UNL     1     -34.099   7.630   5.507  1.00 20.00     0.006 C 
ENDBRANCH   1  10
TORSDOF 4
