REMARK  4 active torsions:
REMARK  status: ('A' for Active; 'I' for Inactive)
REMARK    1  A    between atoms: C1_1  and  C6_6 
REMARK    2  A    between atoms: C4_4  and  C6_6 
REMARK    3  A    between atoms: C5_5  and  C6_6 
REMARK    4  A    between atoms: C5_5  and  C7_7 
ROOT
HETATM    1  C6  UNL     1     -33.536   7.951   2.718  1.00 20.00     0.063 C 
ENDROOT
BRANCH   1   2
HETATM    2  C1  UNL     1     -32.841   8.433   1.447  1.00 20.00     0.127 C 
HETATM    3  C2  UNL     1     -31.658   7.628   0.974  1.00 20.00     0.091 C 
HETATM    4  O8  UNL     1     -33.222   9.428   0.831  1.00 20.00    -0.298 OA
ENDBRANCH   1   2
BRANCH   1   5
HETATM    5  C4  UNL     1     -32.911   8.635   3.946  1.00 20.00     0.008 C 
HETATM    6  C3  UNL     1     -31.430   8.318   4.110  1.00 20.00     0.006 C 
ENDBRANCH   1   5
BRANCH   1   7
HETATM    7  C5  UNL     1     -33.422   6.422   2.842  1.00 20.00     0.129 C 
BRANCH   7   8
HETATM    8  C7  UNL     1     -34.462   5.810   3.762  1.00 20.00     0.388 C 
HETATM    9  F9  UNL     1     -34.355   6.273   5.024  1.00 20.00    -0.171 F 
HETATM   10  F10 UNL     1     -34.355   4.465   3.798  1.00 20.00    -0.171 F 
HETATM   11  F11 UNL     1     -35.707   6.108   3.325  1.00 20.00    -0.171 F 
ENDBRANCH   7   8
ENDBRANCH   1   7
TORSDOF 4
