REMARK  2 active torsions:
REMARK  status: ('A' for Active; 'I' for Inactive)
REMARK    1  A    between atoms: C4_4  and  C5_5 
REMARK    2  A    between atoms: C5_5  and  C6_6 
ROOT
HETATM    1  C1  UNL     1     -33.396   7.163   2.449  1.00 20.00     0.038 A 
HETATM    2  C2  UNL     1     -32.608   7.594   4.593  1.00 20.00     0.074 A 
HETATM    3  C3  UNL     1     -33.587   6.973   3.848  1.00 20.00     0.041 A 
HETATM    4  C4  UNL     1     -32.278   7.922   2.178  1.00 20.00    -0.015 A 
HETATM    5  S7  UNL     1     -31.465   8.402   3.606  1.00 20.00    -0.105 SA
HETATM    6 CL8  UNL     1     -34.889   6.075   4.495  1.00 20.00    -0.084 Cl
ENDROOT
BRANCH   4   7
HETATM    7  C5  UNL     1     -31.746   8.338   0.862  1.00 20.00     0.061 C 
BRANCH   7   8
HETATM    8  C6  UNL     1     -32.474   9.531   0.224  1.00 20.00     0.119 C 
HETATM    9 CL9  UNL     1     -32.410  10.972   1.268  1.00 20.00    -0.130 Cl
ENDBRANCH   7   8
ENDBRANCH   4   7
TORSDOF 2
