REMARK  3 active torsions:
REMARK  status: ('A' for Active; 'I' for Inactive)
REMARK    1  A    between atoms: C4_4  and  C7_7 
REMARK    2  A    between atoms: C8_8  and  C9_9 
REMARK    3  A    between atoms: C9_9  and  N10_10 
ROOT
HETATM    1  C1  UNL     1     -33.758   7.553   6.324  1.00 20.00     0.032 C 
HETATM    2  C2  UNL     1     -34.151   6.249   5.637  1.00 20.00     0.038 C 
HETATM    3  C3  UNL     1     -33.447   8.520   5.194  1.00 20.00     0.273 C 
HETATM    4  C4  UNL     1     -34.050   6.536   4.138  1.00 20.00     0.237 C 
HETATM    5  N10 UNL     1     -33.078   7.637   4.085  1.00 20.00     0.098 N 
ENDROOT
BRANCH   5   6
HETATM    6  C9  UNL     1     -33.080   8.348   2.812  1.00 20.00     0.219 C 
HETATM    7  C6  UNL     1     -32.292   7.552   1.777  1.00 20.00     0.043 C 
BRANCH   6   8
HETATM    8  C8  UNL     1     -32.508   9.764   2.962  1.00 20.00     0.031 C 
HETATM    9  C5  UNL     1     -32.550  10.556   1.661  1.00 20.00     0.007 C 
ENDBRANCH   6   8
ENDBRANCH   5   6
BRANCH   4  10
HETATM   10  C7  UNL     1     -33.614   5.305   3.354  1.00 20.00     0.150 C 
HETATM   11 CL11 UNL     1     -34.397   3.853   4.006  1.00 20.00    -0.128 Cl
ENDBRANCH   4  10
TORSDOF 3
