REMARK  3 active torsions:
REMARK  status: ('A' for Active; 'I' for Inactive)
REMARK    1  A    between atoms: C8_8  and  C10_10 
REMARK    2  A    between atoms: C9_9  and  C11_11 
REMARK    3  A    between atoms: C10_10  and  C11_11 
ROOT
HETATM    1  C1  UNL     1     -33.232   5.421   3.390  1.00 20.00     0.131 C 
HETATM    2  C2  UNL     1     -34.026   4.251   3.929  1.00 20.00     0.079 C 
HETATM    3  C3  UNL     1     -34.062   4.285   5.450  1.00 20.00     0.007 C 
HETATM    4  C4  UNL     1     -34.545   5.636   5.972  1.00 20.00     0.001 C 
HETATM    5  C5  UNL     1     -33.669   6.772   5.445  1.00 20.00     0.012 C 
HETATM    6  C8  UNL     1     -33.631   6.797   3.914  1.00 20.00     0.055 C 
HETATM    7  O12 UNL     1     -32.383   5.261   2.514  1.00 20.00    -0.298 OA
ENDROOT
BRANCH   6   8
HETATM    8  C10 UNL     1     -32.687   7.887   3.416  1.00 20.00     0.012 C 
BRANCH   8   9
HETATM    9  C11 UNL     1     -33.003   8.278   1.975  1.00 20.00     0.005 C 
BRANCH   9  10
HETATM   10  C9  UNL     1     -32.080   9.383   1.488  1.00 20.00    -0.014 A 
HETATM   11  C6  UNL     1     -32.464  10.224   0.301  1.00 20.00     0.005 A 
HETATM   12  C7  UNL     1     -32.459  10.826   1.679  1.00 20.00     0.005 A 
ENDBRANCH   9  10
ENDBRANCH   8   9
ENDBRANCH   6   8
TORSDOF 3
