REMARK  3 active torsions:
REMARK  status: ('A' for Active; 'I' for Inactive)
REMARK    1  A    between atoms: C1_1  and  C7_7 
REMARK    2  A    between atoms: C7_7  and  C8_8 
REMARK    3  A    between atoms: C7_7  and  C9_9 
ROOT
HETATM    1  C7  UNL     1     -33.444   7.955   2.865  1.00 20.00     0.061 C 
ENDROOT
BRANCH   1   2
HETATM    2  C1  UNL     1     -32.526   7.739   4.075  1.00 20.00     0.128 C 
HETATM    3  C2  UNL     1     -33.188   7.341   5.371  1.00 20.00     0.091 C 
HETATM    4  O10 UNL     1     -31.307   7.899   4.013  1.00 20.00    -0.298 OA
ENDBRANCH   1   2
BRANCH   1   5
HETATM    5  C8  UNL     1     -33.713   6.615   2.123  1.00 20.00    -0.011 C 
HETATM    6  C3  UNL     1     -34.864   5.826   2.761  1.00 20.00     0.010 C 
HETATM    7  C4  UNL     1     -32.486   5.709   1.983  1.00 20.00     0.010 C 
ENDBRANCH   1   5
BRANCH   1   8
HETATM    8  C9  UNL     1     -32.875   9.099   1.977  1.00 20.00    -0.011 C 
HETATM    9  C5  UNL     1     -31.736   8.628   1.067  1.00 20.00     0.010 C 
HETATM   10  C6  UNL     1     -33.975   9.715   1.098  1.00 20.00     0.010 C 
ENDBRANCH   1   8
TORSDOF 3
