REMARK  4 active torsions:
REMARK  status: ('A' for Active; 'I' for Inactive)
REMARK    1  A    between atoms: C1_1  and  C8_8 
REMARK    2  A    between atoms: C1_1  and  C10_10 
REMARK    3  A    between atoms: C5_5  and  C9_9 
REMARK    4  A    between atoms: C9_9  and  C10_10 
ROOT
HETATM    1  C7  UNL     1     -31.643   8.462   4.179  1.00 20.00     0.018 C 
HETATM    2  C10 UNL     1     -31.994   7.362   3.181  1.00 20.00     0.051 C 
ENDROOT
BRANCH   2   3
HETATM    3  C1  UNL     1     -33.369   6.800   3.544  1.00 20.00     0.130 C 
HETATM    4  O11 UNL     1     -34.039   7.271   4.462  1.00 20.00    -0.298 OA
BRANCH   3   5
HETATM    5  C8  UNL     1     -33.870   5.651   2.682  1.00 20.00     0.074 C 
HETATM    6  C6  UNL     1     -32.965   4.435   2.744  1.00 20.00     0.013 C 
ENDBRANCH   3   5
ENDBRANCH   2   3
BRANCH   2   7
HETATM    7  C9  UNL     1     -31.960   7.899   1.744  1.00 20.00     0.016 C 
BRANCH   7   8
HETATM    8  C5  UNL     1     -32.939   9.050   1.568  1.00 20.00    -0.014 C 
HETATM    9  C3  UNL     1     -33.308   9.411   0.107  1.00 20.00     0.005 C 
HETATM   10  C2  UNL     1     -32.214  10.495   0.155  1.00 20.00     0.001 C 
HETATM   11  C4  UNL     1     -32.343  10.475   1.690  1.00 20.00     0.005 C 
ENDBRANCH   7   8
ENDBRANCH   2   7
TORSDOF 4
