REMARK  4 active torsions:
REMARK  status: ('A' for Active; 'I' for Inactive)
REMARK    1  A    between atoms: C1_1  and  C5_5 
REMARK    2  A    between atoms: C1_1  and  C8_8 
REMARK    3  A    between atoms: C5_5  and  C6_6 
REMARK    4  A    between atoms: C6_6  and  C7_7 
ROOT
HETATM    1  C1  UNL     1     -33.239   8.170   2.111  1.00 20.00     0.134 C 
HETATM    2  O9  UNL     1     -34.473   8.182   2.109  1.00 20.00    -0.297 OA
ENDROOT
BRANCH   1   3
HETATM    3  C5  UNL     1     -32.467   7.441   3.207  1.00 20.00     0.084 C 
BRANCH   3   4
HETATM    4  C6  UNL     1     -33.368   6.818   4.270  1.00 20.00     0.078 C 
BRANCH   4   5
HETATM    5  C7  UNL     1     -34.329   5.792   3.696  1.00 20.00     0.353 C 
HETATM    6  F10 UNL     1     -35.072   5.266   4.702  1.00 20.00    -0.214 F 
HETATM    7  F11 UNL     1     -33.633   4.764   3.150  1.00 20.00    -0.214 F 
ENDBRANCH   4   5
ENDBRANCH   3   4
ENDBRANCH   1   3
BRANCH   1   8
HETATM    8  C8  UNL     1     -32.430   8.892   1.013  1.00 20.00     0.009 C 
HETATM    9  C2  UNL     1     -31.102   8.151   0.807  1.00 20.00     0.022 C 
HETATM   10  C3  UNL     1     -32.170  10.353   1.401  1.00 20.00     0.022 C 
HETATM   11  C4  UNL     1     -33.221   8.871  -0.306  1.00 20.00     0.022 C 
ENDBRANCH   1   8
TORSDOF 4
