REMARK  1 active torsions:
REMARK  status: ('A' for Active; 'I' for Inactive)
REMARK    1  A    between atoms: C7_7  and  N12_12 
ROOT
HETATM    1  C1  UNL     1     -34.399   5.898   4.944  1.00 20.00     0.134 C 
HETATM    2  C2  UNL     1     -33.976   7.265   5.433  1.00 20.00     0.106 C 
HETATM    3  C4  UNL     1     -32.956   7.892   4.501  1.00 20.00     0.243 C 
HETATM    4  C5  UNL     1     -34.842   5.821   3.486  1.00 20.00     0.082 C 
HETATM    5  C8  UNL     1     -33.768   6.440   2.569  1.00 20.00     0.195 C 
HETATM    6  C9  UNL     1     -35.217   4.396   3.085  1.00 20.00     0.020 C 
HETATM    7  C11 UNL     1     -32.490   5.606   2.444  1.00 20.00     0.041 C 
HETATM    8  N12 UNL     1     -33.472   7.846   3.083  1.00 20.00    -0.061 N 
HETATM    9  O13 UNL     1     -34.458   4.939   5.712  1.00 20.00    -0.297 OA
HETATM   10  H33 UNL     1     -34.374   8.345   3.083  1.00 20.00     0.280 HD
ENDROOT
BRANCH   8  11
HETATM   11  C7  UNL     1     -32.601   8.658   2.148  1.00 20.00     0.193 A 
HETATM   12  C3  UNL     1     -32.709  10.156   2.220  1.00 20.00     0.040 A 
HETATM   13  C6  UNL     1     -33.284   9.416   1.042  1.00 20.00     0.014 A 
HETATM   14  C10 UNL     1     -32.642   9.526  -0.297  1.00 20.00     0.012 C 
ENDBRANCH   8  11
TORSDOF 1
