REMARK  5 active torsions:
REMARK  status: ('A' for Active; 'I' for Inactive)
REMARK    1  A    between atoms: C1_1  and  C10_10 
REMARK    2  A    between atoms: C4_4  and  C8_8 
REMARK    3  A    between atoms: C8_8  and  C9_9 
REMARK    4  A    between atoms: C9_9  and  C10_10 
REMARK    5  A    between atoms: C10_10  and  C11_11 
ROOT
HETATM    1  C10 UNL     1     -33.507   6.374   3.884  1.00 20.00     0.058 C 
ENDROOT
BRANCH   1   2
HETATM    2  C1  UNL     1     -33.844   5.315   2.829  1.00 20.00     0.127 C 
HETATM    3  C5  UNL     1     -32.780   4.288   2.533  1.00 20.00     0.091 C 
HETATM    4  O12 UNL     1     -34.919   5.300   2.230  1.00 20.00    -0.298 OA
ENDBRANCH   1   2
BRANCH   1   5
HETATM    5  C9  UNL     1     -33.488   7.786   3.266  1.00 20.00     0.013 C 
BRANCH   5   6
HETATM    6  C8  UNL     1     -32.440   7.922   2.155  1.00 20.00     0.005 C 
BRANCH   6   7
HETATM    7  C4  UNL     1     -32.409   9.310   1.591  1.00 20.00    -0.014 A 
HETATM    8  C2  UNL     1     -31.803   9.565   0.239  1.00 20.00     0.005 A 
HETATM    9  C3  UNL     1     -33.290   9.674   0.429  1.00 20.00     0.005 A 
ENDBRANCH   6   7
ENDBRANCH   5   6
ENDBRANCH   1   5
BRANCH   1  10
HETATM   10  C11 UNL     1     -34.470   6.221   5.090  1.00 20.00    -0.012 C 
HETATM   11  C6  UNL     1     -34.413   4.841   5.752  1.00 20.00     0.010 C 
HETATM   12  C7  UNL     1     -34.223   7.308   6.142  1.00 20.00     0.010 C 
ENDBRANCH   1  10
TORSDOF 5
