REMARK  3 active torsions:
REMARK  status: ('A' for Active; 'I' for Inactive)
REMARK    1  A    between atoms: C1_1  and  C10_10 
REMARK    2  A    between atoms: C8_8  and  C11_11 
REMARK    3  A    between atoms: C10_10  and  C11_11 
ROOT
HETATM    1  C2  UNL     1     -34.686   4.518   5.578  1.00 20.00     0.005 C 
HETATM    2  C3  UNL     1     -34.099   5.898   5.909  1.00 20.00     0.005 C 
HETATM    3  C4  UNL     1     -35.556   6.122   4.050  1.00 20.00     0.009 C 
HETATM    4  C5  UNL     1     -33.845   4.692   3.221  1.00 20.00     0.009 C 
HETATM    5  C6  UNL     1     -35.105   4.664   4.105  1.00 20.00    -0.014 C 
HETATM    6  C7  UNL     1     -34.219   6.653   4.572  1.00 20.00    -0.010 C 
HETATM    7  C8  UNL     1     -33.197   6.048   3.580  1.00 20.00    -0.010 C 
ENDROOT
BRANCH   7   8
HETATM    8  C11 UNL     1     -32.973   6.924   2.352  1.00 20.00     0.012 C 
BRANCH   8   9
HETATM    9  C10 UNL     1     -32.295   8.237   2.724  1.00 20.00     0.078 C 
BRANCH   9  10
HETATM   10  C1  UNL     1     -32.036   9.117   1.514  1.00 20.00     0.123 C 
HETATM   11  C9  UNL     1     -31.180   8.518   0.429  1.00 20.00     0.091 C 
HETATM   12  O12 UNL     1     -32.490  10.256   1.408  1.00 20.00    -0.298 OA
ENDBRANCH   9  10
ENDBRANCH   8   9
ENDBRANCH   7   8
TORSDOF 3
