REMARK  4 active torsions:
REMARK  status: ('A' for Active; 'I' for Inactive)
REMARK    1  A    between atoms: C4_4  and  C6_6 
REMARK    2  A    between atoms: C4_4  and  C7_7 
REMARK    3  A    between atoms: C5_5  and  C6_6 
REMARK    4  A    between atoms: C5_5  and  O8_8 
ROOT
HETATM    1  C1  UNL     1     -32.844   7.182   5.235  1.00 20.00     0.012 C 
HETATM    2  C6  UNL     1     -32.962   7.313   3.716  1.00 20.00     0.007 C 
ENDROOT
BRANCH   2   3
HETATM    3  C4  UNL     1     -33.095   5.940   3.016  1.00 20.00     0.026 C 
BRANCH   3   4
HETATM    4  C7  UNL     1     -34.348   5.123   3.370  1.00 20.00     0.078 C 
HETATM    5  C2  UNL     1     -35.558   6.033   3.554  1.00 20.00     0.026 C 
HETATM    6 CL9  UNL     1     -34.101   4.183   4.871  1.00 20.00    -0.125 Cl
ENDBRANCH   3   4
ENDBRANCH   2   3
BRANCH   2   7
HETATM    7  C5  UNL     1     -31.742   8.073   3.172  1.00 20.00     0.171 C 
BRANCH   7   8
HETATM    8  O8  UNL     1     -31.828   8.184   1.757  1.00 20.00    -0.396 OA
HETATM    9  C3  UNL     1     -32.715   9.224   1.368  1.00 20.00     0.201 C 
ENDBRANCH   7   8
ENDBRANCH   2   7
TORSDOF 4
