REMARK  2 active torsions:
REMARK  status: ('A' for Active; 'I' for Inactive)
REMARK    1  A    between atoms: C7_7  and  C8_8 
REMARK    2  A    between atoms: C8_8  and  S9_9 
ROOT
HETATM    1  C1  UNL     1     -34.249   5.636   5.922  1.00 20.00     0.005 C 
HETATM    2  C2  UNL     1     -34.318   7.054   5.337  1.00 20.00     0.005 C 
HETATM    3  C3  UNL     1     -35.614   5.614   3.972  1.00 20.00     0.009 C 
HETATM    4  C4  UNL     1     -33.403   4.740   3.746  1.00 20.00     0.010 C 
HETATM    5  C5  UNL     1     -34.598   4.747   4.716  1.00 20.00    -0.014 C 
HETATM    6  C6  UNL     1     -34.652   6.800   3.857  1.00 20.00    -0.009 C 
HETATM    7  C7  UNL     1     -33.469   6.143   3.107  1.00 20.00    -0.001 C 
ENDROOT
BRANCH   7   8
HETATM    8  C8  UNL     1     -32.150   6.897   3.160  1.00 20.00     0.075 C 
BRANCH   8   9
HETATM    9  S9  UNL     1     -32.325   8.533   2.399  1.00 20.00    -0.182 SA
HETATM   10  H23 UNL     1     -31.058   8.921   2.596  1.00 20.00     0.101 HD
ENDBRANCH   8   9
ENDBRANCH   7   8
TORSDOF 2
