REMARK  2 active torsions:
REMARK  status: ('A' for Active; 'I' for Inactive)
REMARK    1  A    between atoms: C4_4  and  C7_7 
REMARK    2  A    between atoms: C7_7  and  O8_8 
ROOT
HETATM    1  C1  UNL     1     -34.013   7.565   3.945  1.00 20.00     0.008 C 
HETATM    2  C2  UNL     1     -34.330   6.297   4.723  1.00 20.00     0.020 C 
HETATM    3  C3  UNL     1     -32.849   5.656   2.938  1.00 20.00     0.027 C 
HETATM    4  C4  UNL     1     -32.794   7.188   3.095  1.00 20.00     0.011 C 
HETATM    5  C5  UNL     1     -34.117   5.220   3.670  1.00 20.00     0.082 C 
HETATM    6 CL9  UNL     1     -33.972   3.605   4.378  1.00 20.00    -0.125 Cl
ENDROOT
BRANCH   4   7
HETATM    7  C7  UNL     1     -32.766   7.921   1.762  1.00 20.00     0.171 C 
BRANCH   7   8
HETATM    8  O8  UNL     1     -32.733   9.316   2.011  1.00 20.00    -0.396 OA
HETATM    9  C6  UNL     1     -32.706  10.065   0.802  1.00 20.00     0.201 C 
ENDBRANCH   7   8
ENDBRANCH   4   7
TORSDOF 2
