REMARK  3 active torsions:
REMARK  status: ('A' for Active; 'I' for Inactive)
REMARK    1  A    between atoms: C1_1  and  C5_5 
REMARK    2  A    between atoms: C2_2  and  C7_7 
REMARK    3  A    between atoms: C5_5  and  C6_6 
ROOT
HETATM    1  C1  UNL     1     -32.708   7.801   2.615  1.00 20.00    -0.029 C 
HETATM    2  C2  UNL     1     -33.018   6.563   3.029  1.00 20.00    -0.027 C 
ENDROOT
BRANCH   1   3
HETATM    3  C5  UNL     1     -31.494   8.127   1.793  1.00 20.00     0.042 C 
BRANCH   3   4
HETATM    4  C6  UNL     1     -31.839   8.842   0.490  1.00 20.00     0.118 C 
HETATM    5 CL8  UNL     1     -32.702  10.371   0.787  1.00 20.00    -0.130 Cl
ENDBRANCH   3   4
ENDBRANCH   1   3
BRANCH   2   6
HETATM    6  C7  UNL     1     -34.237   6.236   3.852  1.00 20.00    -0.001 C 
HETATM    7  C3  UNL     1     -34.215   7.020   5.164  1.00 20.00     0.013 C 
HETATM    8  C4  UNL     1     -34.301   4.734   4.124  1.00 20.00     0.013 C 
ENDBRANCH   2   6
TORSDOF 3
