REMARK  2 active torsions:
REMARK  status: ('A' for Active; 'I' for Inactive)
REMARK    1  A    between atoms: C3_3  and  C4_4 
REMARK    2  A    between atoms: C3_3  and  S9_9 
ROOT
HETATM    1  C1  UNL     1     -32.963   5.087   3.011  1.00 20.00     0.083 C 
HETATM    2  C3  UNL     1     -33.158   6.204   3.947  1.00 20.00     0.261 C 
HETATM    3  N5  UNL     1     -32.805   4.207   2.271  1.00 20.00    -0.196 NA
ENDROOT
BRANCH   2   4
HETATM    4  C4  UNL     1     -34.349   5.953   4.856  1.00 20.00     0.412 C 
HETATM    5  F6  UNL     1     -34.533   6.979   5.719  1.00 20.00    -0.169 F 
HETATM    6  F7  UNL     1     -35.488   5.837   4.134  1.00 20.00    -0.169 F 
HETATM    7  F8  UNL     1     -34.210   4.823   5.582  1.00 20.00    -0.169 F 
ENDBRANCH   2   4
BRANCH   2   8
HETATM    8  S9  UNL     1     -33.382   7.776   3.046  1.00 20.00    -0.145 SA
HETATM    9  C2  UNL     1     -31.644   8.113   2.690  1.00 20.00     0.091 C 
ENDBRANCH   2   8
TORSDOF 2
