REMARK  4 active torsions:
REMARK  status: ('A' for Active; 'I' for Inactive)
REMARK    1  A    between atoms: C6_6  and  C7_7 
REMARK    2  A    between atoms: C6_6  and  O10_10 
REMARK    3  A    between atoms: C7_7  and  C8_8 
REMARK    4  A    between atoms: C7_7  and  O9_9 
ROOT
HETATM    1  C7  UNL     1     -33.527   6.040   3.577  1.00 20.00     0.154 C 
ENDROOT
BRANCH   1   2
HETATM    2  C6  UNL     1     -33.713   7.527   3.205  1.00 20.00     0.146 C 
HETATM    3  C1  UNL     1     -33.002   7.905   1.908  1.00 20.00     0.042 C 
BRANCH   2   4
HETATM    4  O10 UNL     1     -33.220   8.380   4.233  1.00 20.00    -0.388 OA
HETATM    5  C5  UNL     1     -31.817   8.232   4.403  1.00 20.00     0.202 C 
ENDBRANCH   2   4
ENDBRANCH   1   2
BRANCH   1   6
HETATM    6  C8  UNL     1     -34.576   5.423   4.561  1.00 20.00    -0.023 C 
HETATM    7  C2  UNL     1     -34.508   6.198   5.898  1.00 20.00     0.017 C 
HETATM    8  C3  UNL     1     -36.003   5.566   4.002  1.00 20.00     0.017 C 
HETATM    9  C4  UNL     1     -34.310   3.939   4.874  1.00 20.00     0.017 C 
ENDBRANCH   1   6
BRANCH   1  10
HETATM   10  O9  UNL     1     -33.501   5.254   2.381  1.00 20.00    -0.392 OA
HETATM   11  H28 UNL     1     -34.352   5.402   1.942  1.00 20.00     0.210 HD
ENDBRANCH   1  10
TORSDOF 4
