REMARK  3 active torsions:
REMARK  status: ('A' for Active; 'I' for Inactive)
REMARK    1  A    between atoms: C3_3  and  C5_5 
REMARK    2  A    between atoms: C6_6  and  C8_8 
REMARK    3  A    between atoms: C8_8  and  C9_9 
ROOT
HETATM    1  C1  UNL     1     -33.251   5.438   3.258  1.00 20.00     0.026 A 
HETATM    2  C2  UNL     1     -33.893   7.480   4.164  1.00 20.00     0.061 A 
HETATM    3  C3  UNL     1     -33.225   6.857   3.133  1.00 20.00    -0.029 A 
HETATM    4  C4  UNL     1     -33.938   5.030   4.380  1.00 20.00    -0.021 A 
HETATM    5  C7  UNL     1     -34.187   3.652   4.858  1.00 20.00     0.056 C 
HETATM    6  S10 UNL     1     -34.548   6.355   5.277  1.00 20.00    -0.106 SA
ENDROOT
BRANCH   3   7
HETATM    7  C5  UNL     1     -32.569   7.598   2.044  1.00 20.00     0.008 C 
HETATM    8  C6  UNL     1     -32.543   8.934   1.925  1.00 20.00    -0.025 C 
BRANCH   8   9
HETATM    9  C8  UNL     1     -31.867   9.651   0.789  1.00 20.00     0.042 C 
BRANCH   9  10
HETATM   10  C9  UNL     1     -32.847  10.434  -0.079  1.00 20.00     0.118 C 
HETATM   11 CL11 UNL     1     -34.091   9.374  -0.787  1.00 20.00    -0.130 Cl
ENDBRANCH   9  10
ENDBRANCH   8   9
ENDBRANCH   3   7
TORSDOF 3
