REMARK  2 active torsions:
REMARK  status: ('A' for Active; 'I' for Inactive)
REMARK    1  A    between atoms: C4_4  and  C7_7 
REMARK    2  A    between atoms: C7_7  and  O8_8 
ROOT
HETATM    1  C1  UNL     1     -33.231   7.716   4.622  1.00 20.00     0.008 C 
HETATM    2  C2  UNL     1     -34.320   6.866   5.281  1.00 20.00     0.016 C 
HETATM    3  C3  UNL     1     -34.172   6.366   2.896  1.00 20.00     0.022 C 
HETATM    4  C4  UNL     1     -32.838   6.949   3.362  1.00 20.00     0.011 C 
HETATM    5  C5  UNL     1     -34.854   5.937   4.190  1.00 20.00     0.058 C 
HETATM    6 BR9  UNL     1     -34.392   4.081   4.602  1.00 20.00    -0.091 Br
ENDROOT
BRANCH   4   7
HETATM    7  C7  UNL     1     -32.170   7.823   2.315  1.00 20.00     0.171 C 
BRANCH   7   8
HETATM    8  O8  UNL     1     -33.073   8.847   1.930  1.00 20.00    -0.396 OA
HETATM    9  C6  UNL     1     -32.506   9.704   0.947  1.00 20.00     0.201 C 
ENDBRANCH   7   8
ENDBRANCH   4   7
TORSDOF 2
