REMARK  3 active torsions:
REMARK  status: ('A' for Active; 'I' for Inactive)
REMARK    1  A    between atoms: C7_7  and  C9_9 
REMARK    2  A    between atoms: C9_9  and  N10_10 
REMARK    3  A    between atoms: N10_10  and  O11_11 
ROOT
HETATM    1  C1  UNL     1     -34.034   4.420   5.150  1.00 20.00     0.005 C 
HETATM    2  C2  UNL     1     -33.851   5.891   5.554  1.00 20.00     0.005 C 
HETATM    3  C3  UNL     1     -35.436   5.783   3.792  1.00 20.00     0.010 C 
HETATM    4  C4  UNL     1     -33.446   4.968   2.774  1.00 20.00     0.011 C 
HETATM    5  C5  UNL     1     -34.579   4.521   3.715  1.00 20.00    -0.014 C 
HETATM    6  C6  UNL     1     -34.277   6.652   4.285  1.00 20.00    -0.009 C 
HETATM    7  C7  UNL     1     -33.196   6.431   3.200  1.00 20.00     0.005 C 
ENDROOT
BRANCH   7   8
HETATM    8  C9  UNL     1     -33.322   7.403   2.032  1.00 20.00     0.122 C 
BRANCH   8   9
HETATM    9  N10 UNL     1     -32.660   8.626   2.345  1.00 20.00    -0.206 NA
HETATM   10  H28 UNL     1     -33.069   9.068   3.181  1.00 20.00     0.153 HD
BRANCH   9  11
HETATM   11  O11 UNL     1     -33.077   9.584   1.319  1.00 20.00    -0.311 OA
HETATM   12  C8  UNL     1     -32.239   9.415   0.184  1.00 20.00     0.229 C 
ENDBRANCH   9  11
ENDBRANCH   8   9
ENDBRANCH   7   8
TORSDOF 3
