REMARK  4 active torsions:
REMARK  status: ('A' for Active; 'I' for Inactive)
REMARK    1  A    between atoms: C4_4  and  C6_6 
REMARK    2  A    between atoms: C4_4  and  C7_7 
REMARK    3  A    between atoms: C5_5  and  C6_6 
REMARK    4  A    between atoms: C5_5  and  O8_8 
ROOT
HETATM    1  C1  UNL     1     -31.806   8.370   4.101  1.00 20.00     0.012 C 
HETATM    2  C6  UNL     1     -33.110   7.966   3.411  1.00 20.00     0.007 C 
ENDROOT
BRANCH   2   3
HETATM    3  C4  UNL     1     -32.963   7.902   1.872  1.00 20.00     0.026 C 
BRANCH   3   4
HETATM    4  C7  UNL     1     -32.484   9.191   1.187  1.00 20.00     0.078 C 
HETATM    5  C2  UNL     1     -33.491  10.320   1.385  1.00 20.00     0.026 C 
HETATM    6 CL9  UNL     1     -32.242   8.937  -0.567  1.00 20.00    -0.125 Cl
ENDBRANCH   3   4
ENDBRANCH   2   3
BRANCH   2   7
HETATM    7  C5  UNL     1     -33.581   6.611   3.963  1.00 20.00     0.171 C 
BRANCH   7   8
HETATM    8  O8  UNL     1     -33.782   6.701   5.367  1.00 20.00    -0.396 OA
HETATM    9  C3  UNL     1     -34.235   5.467   5.909  1.00 20.00     0.201 C 
ENDBRANCH   7   8
ENDBRANCH   2   7
TORSDOF 4
