REMARK  2 active torsions:
REMARK  status: ('A' for Active; 'I' for Inactive)
REMARK    1  A    between atoms: C7_7  and  C8_8 
REMARK    2  A    between atoms: C8_8  and  S9_9 
ROOT
HETATM    1  C1  UNL     1     -34.757   4.651   5.098  1.00 20.00     0.005 C 
HETATM    2  C2  UNL     1     -33.740   4.194   4.041  1.00 20.00     0.005 C 
HETATM    3  C3  UNL     1     -35.130   5.859   3.081  1.00 20.00     0.009 C 
HETATM    4  C4  UNL     1     -34.015   7.031   4.825  1.00 20.00     0.010 C 
HETATM    5  C5  UNL     1     -35.174   6.044   4.597  1.00 20.00    -0.014 C 
HETATM    6  C6  UNL     1     -33.670   5.399   3.085  1.00 20.00    -0.009 C 
HETATM    7  C7  UNL     1     -32.947   6.556   3.815  1.00 20.00    -0.001 C 
ENDROOT
BRANCH   7   8
HETATM    8  C8  UNL     1     -32.509   7.670   2.870  1.00 20.00     0.075 C 
BRANCH   8   9
HETATM    9  S9  UNL     1     -31.299   8.744   3.682  1.00 20.00    -0.182 SA
HETATM   10  H23 UNL     1     -31.122   9.576   2.646  1.00 20.00     0.101 HD
ENDBRANCH   8   9
ENDBRANCH   7   8
TORSDOF 2
