REMARK  4 active torsions:
REMARK  status: ('A' for Active; 'I' for Inactive)
REMARK    1  A    between atoms: C6_6  and  C7_7 
REMARK    2  A    between atoms: C6_6  and  O10_10 
REMARK    3  A    between atoms: C7_7  and  C8_8 
REMARK    4  A    between atoms: C7_7  and  O9_9 
ROOT
HETATM    1  C7  UNL     1     -33.556   7.570   4.576  1.00 20.00     0.154 C 
ENDROOT
BRANCH   1   2
HETATM    2  C6  UNL     1     -33.798   6.084   4.917  1.00 20.00     0.146 C 
HETATM    3  C1  UNL     1     -34.669   5.897   6.157  1.00 20.00     0.042 C 
BRANCH   2   4
HETATM    4  O10 UNL     1     -34.430   5.404   3.838  1.00 20.00    -0.388 OA
HETATM    5  C5  UNL     1     -34.173   4.007   3.882  1.00 20.00     0.202 C 
ENDBRANCH   2   4
ENDBRANCH   1   2
BRANCH   1   6
HETATM    6  C8  UNL     1     -32.647   7.879   3.341  1.00 20.00    -0.023 C 
HETATM    7  C2  UNL     1     -33.463   8.718   2.329  1.00 20.00     0.017 C 
HETATM    8  C3  UNL     1     -31.416   8.705   3.758  1.00 20.00     0.017 C 
HETATM    9  C4  UNL     1     -32.170   6.610   2.609  1.00 20.00     0.017 C 
ENDBRANCH   1   6
BRANCH   1  10
HETATM   10  O9  UNL     1     -32.996   8.231   5.715  1.00 20.00    -0.392 OA
HETATM   11  H28 UNL     1     -33.644   8.137   6.428  1.00 20.00     0.210 HD
ENDBRANCH   1  10
TORSDOF 4
