REMARK  4 active torsions:
REMARK  status: ('A' for Active; 'I' for Inactive)
REMARK    1  A    between atoms: C2_2  and  C7_7 
REMARK    2  A    between atoms: C2_2  and  O11_11 
REMARK    3  A    between atoms: C6_6  and  C7_7 
REMARK    4  A    between atoms: C6_6  and  C8_8 
ROOT
HETATM    1  C1  UNL     1     -31.658   7.937   3.514  1.00 20.00     0.074 C 
HETATM    2  C7  UNL     1     -33.014   7.934   2.934  1.00 20.00     0.192 C 
HETATM    3  N9  UNL     1     -30.593   7.942   3.973  1.00 20.00    -0.196 NA
ENDROOT
BRANCH   2   4
HETATM    4  C2  UNL     1     -33.802   6.737   3.444  1.00 20.00     0.276 C 
HETATM    5  O10 UNL     1     -34.314   5.878   2.738  1.00 20.00    -0.264 OA
BRANCH   4   6
HETATM    6  O11 UNL     1     -33.842   6.770   4.811  1.00 20.00    -0.325 OA
HETATM    7  C5  UNL     1     -34.550   5.693   5.434  1.00 20.00     0.213 C 
ENDBRANCH   4   6
ENDBRANCH   2   4
BRANCH   2   8
HETATM    8  C6  UNL     1     -32.966   7.885   1.396  1.00 20.00     0.033 C 
BRANCH   8   9
HETATM    9  C8  UNL     1     -32.183   9.034   0.725  1.00 20.00    -0.021 C 
HETATM   10  C3  UNL     1     -32.820  10.377   1.095  1.00 20.00     0.009 C 
HETATM   11  C4  UNL     1     -32.130   8.892  -0.797  1.00 20.00     0.009 C 
ENDBRANCH   8   9
ENDBRANCH   2   8
TORSDOF 4
