REMARK  3 active torsions:
REMARK  status: ('A' for Active; 'I' for Inactive)
REMARK    1  A    between atoms: C7_7  and  C9_9 
REMARK    2  A    between atoms: C8_8  and  O11_11 
REMARK    3  A    between atoms: C9_9  and  O11_11 
ROOT
HETATM    1  C1  UNL     1     -34.147   5.372   4.185  1.00 20.00     0.129 C 
HETATM    2  C2  UNL     1     -33.833   6.166   5.426  1.00 20.00     0.081 C 
HETATM    3  C3  UNL     1     -33.683   6.064   2.930  1.00 20.00     0.110 C 
HETATM    4  C4  UNL     1     -33.491   7.526   4.839  1.00 20.00     0.040 C 
HETATM    5  C8  UNL     1     -32.853   7.214   3.489  1.00 20.00     0.128 C 
HETATM    6  O10 UNL     1     -34.705   4.282   4.196  1.00 20.00    -0.298 OA
ENDROOT
BRANCH   5   7
HETATM    7  O11 UNL     1     -32.916   8.338   2.629  1.00 20.00    -0.385 OA
BRANCH   7   8
HETATM    8  C9  UNL     1     -32.034   8.196   1.525  1.00 20.00     0.172 C 
BRANCH   8   9
HETATM    9  C7  UNL     1     -32.144   9.423   0.645  1.00 20.00     0.009 A 
HETATM   10  C5  UNL     1     -33.487  10.044   0.377  1.00 20.00     0.007 A 
HETATM   11  C6  UNL     1     -32.489  10.757   1.247  1.00 20.00     0.007 A 
ENDBRANCH   8   9
ENDBRANCH   7   8
ENDBRANCH   5   7
TORSDOF 3
