REMARK  3 active torsions:
REMARK  status: ('A' for Active; 'I' for Inactive)
REMARK    1  A    between atoms: C3_3  and  C9_9 
REMARK    2  A    between atoms: C7_7  and  O11_11 
REMARK    3  A    between atoms: C9_9  and  O11_11 
ROOT
HETATM    1  C1  UNL     1     -34.167   5.571   5.255  1.00 20.00     0.129 C 
HETATM    2  C4  UNL     1     -33.786   6.766   6.088  1.00 20.00     0.081 C 
HETATM    3  C5  UNL     1     -34.299   5.910   3.790  1.00 20.00     0.110 C 
HETATM    4  C6  UNL     1     -34.007   7.915   5.108  1.00 20.00     0.040 C 
HETATM    5  C7  UNL     1     -33.710   7.317   3.738  1.00 20.00     0.129 C 
HETATM    6  O10 UNL     1     -34.346   4.450   5.714  1.00 20.00    -0.298 OA
ENDROOT
BRANCH   5   7
HETATM    7  O11 UNL     1     -32.300   7.251   3.550  1.00 20.00    -0.382 OA
BRANCH   7   8
HETATM    8  C9  UNL     1     -31.786   8.476   3.048  1.00 20.00     0.195 C 
BRANCH   8   9
HETATM    9  C3  UNL     1     -32.033   8.533   1.576  1.00 20.00    -0.005 C 
HETATM   10  C2  UNL     1     -32.786   9.472   0.984  1.00 20.00    -0.033 C 
HETATM   11  C8  UNL     1     -33.039   9.529  -0.486  1.00 20.00     0.036 C 
ENDBRANCH   8   9
ENDBRANCH   7   8
ENDBRANCH   5   7
TORSDOF 3
