REMARK  1 active torsions:
REMARK  status: ('A' for Active; 'I' for Inactive)
REMARK    1  A    between atoms: C2_2  and  C3_3 
ROOT
HETATM    1  C1  UNL     1     -32.816   6.969   3.551  1.00 20.00    -0.034 C 
HETATM    2  C2  UNL     1     -33.756   6.635   4.447  1.00 20.00     0.194 C 
HETATM    3  C4  UNL     1     -31.802   8.051   3.806  1.00 20.00     0.038 C 
HETATM    4  C5  UNL     1     -32.707   6.300   2.205  1.00 20.00     0.042 C 
HETATM    5  C6  UNL     1     -31.802   9.083   2.675  1.00 20.00     0.009 C 
HETATM    6  C7  UNL     1     -32.737   7.327   1.055  1.00 20.00    -0.011 C 
HETATM    7  C8  UNL     1     -31.663   8.422   1.291  1.00 20.00    -0.014 C 
HETATM    8  C9  UNL     1     -34.155   7.881   0.859  1.00 20.00     0.010 C 
HETATM    9  C10 UNL     1     -31.644   9.484   0.191  1.00 20.00     0.010 C 
HETATM   10  F13 UNL     1     -33.782   7.305   5.620  1.00 20.00    -0.199 F 
ENDROOT
BRANCH   2  11
HETATM   11  C3  UNL     1     -34.789   5.533   4.192  1.00 20.00     0.239 C 
HETATM   12  O11 UNL     1     -34.419   4.383   4.567  1.00 20.00    -0.642 OA
HETATM   13  O12 UNL     1     -35.874   5.882   3.647  1.00 20.00    -0.642 OA
ENDBRANCH   2  11
TORSDOF 1
