REMARK  0 active torsions:
REMARK  status: ('A' for Active; 'I' for Inactive)
ROOT
HETATM    1  C1  UNL     1     -32.333   7.226   1.545  1.00 20.00     0.009 A 
HETATM    2  C2  UNL     1     -32.148   8.561   1.183  1.00 20.00     0.024 A 
HETATM    3  C3  UNL     1     -33.502   9.307   3.062  1.00 20.00     0.032 A 
HETATM    4  C4  UNL     1     -33.110   6.949   2.658  1.00 20.00    -0.050 A 
HETATM    5  C5  UNL     1     -33.682   7.979   3.416  1.00 20.00    -0.035 A 
HETATM    6  C6  UNL     1     -32.729   9.594   1.935  1.00 20.00     0.034 A 
HETATM    7  C7  UNL     1     -33.429   5.608   3.244  1.00 20.00     0.045 C 
HETATM    8  C8  UNL     1     -34.438   7.425   4.586  1.00 20.00     0.095 C 
HETATM    9  C9  UNL     1     -34.641   5.960   4.137  1.00 20.00     0.005 C 
HETATM   10  C10 UNL     1     -34.895   4.929   5.227  1.00 20.00     0.011 C 
HETATM   11 CL11 UNL     1     -32.481  11.233   1.465  1.00 20.00    -0.084 Cl
HETATM   12 BR12 UNL     1     -33.331   7.621   6.171  1.00 20.00    -0.086 Br
ENDROOT
TORSDOF 0
