REMARK  0 active torsions:
REMARK  status: ('A' for Active; 'I' for Inactive)
ROOT
HETATM    1  C1  UNL     1     -34.166   5.130   2.603  1.00 20.00     0.009 A 
HETATM    2  C2  UNL     1     -34.561   4.725   3.879  1.00 20.00     0.019 A 
HETATM    3  C3  UNL     1     -33.664   6.766   4.852  1.00 20.00     0.028 A 
HETATM    4  C4  UNL     1     -33.511   6.344   2.472  1.00 20.00    -0.050 A 
HETATM    5  C5  UNL     1     -33.253   7.155   3.586  1.00 20.00    -0.032 A 
HETATM    6  C6  UNL     1     -34.314   5.538   4.995  1.00 20.00     0.011 A 
HETATM    7  C7  UNL     1     -33.046   6.997   1.208  1.00 20.00     0.045 C 
HETATM    8  C8  UNL     1     -32.591   8.432   3.159  1.00 20.00     0.119 C 
HETATM    9  C9  UNL     1     -32.057   8.047   1.758  1.00 20.00     0.009 C 
HETATM   10  C10 UNL     1     -31.908   9.244   0.829  1.00 20.00     0.012 C 
HETATM   11 CL11 UNL     1     -31.280   8.940   4.232  1.00 20.00    -0.119 Cl
HETATM   12 BR12 UNL     1     -34.858   4.960   6.712  1.00 20.00    -0.051 Br
ENDROOT
TORSDOF 0
