REMARK  0 active torsions:
REMARK  status: ('A' for Active; 'I' for Inactive)
ROOT
HETATM    1  C1  UNL     1     -32.253   7.218   1.532  1.00 20.00     0.009 A 
HETATM    2  C2  UNL     1     -32.045   8.557   1.198  1.00 20.00     0.024 A 
HETATM    3  C3  UNL     1     -33.424   9.287   3.065  1.00 20.00     0.033 A 
HETATM    4  C4  UNL     1     -33.055   6.931   2.624  1.00 20.00    -0.050 A 
HETATM    5  C5  UNL     1     -33.630   7.955   3.389  1.00 20.00    -0.031 A 
HETATM    6  C6  UNL     1     -32.627   9.584   1.957  1.00 20.00     0.034 A 
HETATM    7  C7  UNL     1     -33.400   5.585   3.183  1.00 20.00     0.045 C 
HETATM    8  C8  UNL     1     -34.412   7.391   4.539  1.00 20.00     0.119 C 
HETATM    9  C9  UNL     1     -34.630   5.935   4.049  1.00 20.00     0.009 C 
HETATM   10  C10 UNL     1     -34.905   4.897   5.128  1.00 20.00     0.012 C 
HETATM   11 CL11 UNL     1     -32.349  11.228   1.523  1.00 20.00    -0.084 Cl
HETATM   12 CL12 UNL     1     -33.445   7.523   6.026  1.00 20.00    -0.119 Cl
ENDROOT
TORSDOF 0
