REMARK  0 active torsions:
REMARK  status: ('A' for Active; 'I' for Inactive)
ROOT
HETATM    1  C1  UNL     1     -31.777   6.352   2.652  1.00 20.00     0.009 A 
HETATM    2  C2  UNL     1     -32.026   7.506   1.907  1.00 20.00     0.024 A 
HETATM    3  C3  UNL     1     -33.870   8.110   3.374  1.00 20.00     0.033 A 
HETATM    4  C4  UNL     1     -32.586   6.088   3.743  1.00 20.00    -0.050 A 
HETATM    5  C5  UNL     1     -33.620   6.960   4.106  1.00 20.00    -0.031 A 
HETATM    6  C6  UNL     1     -33.066   8.378   2.264  1.00 20.00     0.034 A 
HETATM    7  C7  UNL     1     -32.495   4.937   4.698  1.00 20.00     0.045 C 
HETATM    8  C8  UNL     1     -34.325   6.477   5.337  1.00 20.00     0.119 C 
HETATM    9  C9  UNL     1     -33.876   4.995   5.395  1.00 20.00     0.009 C 
HETATM   10  C10 UNL     1     -34.887   4.089   4.678  1.00 20.00     0.012 C 
HETATM   11 CL11 UNL     1     -33.348   9.797   1.329  1.00 20.00    -0.084 Cl
HETATM   12 CL12 UNL     1     -33.734   7.381   6.753  1.00 20.00    -0.119 Cl
ENDROOT
TORSDOF 0
