REMARK  0 active torsions:
REMARK  status: ('A' for Active; 'I' for Inactive)
ROOT
HETATM    1  C1  UNL     1     -34.390   5.699   6.216  1.00 20.00     0.035 C 
HETATM    2  C2  UNL     1     -34.047   4.925   4.931  1.00 20.00     0.014 C 
HETATM    3  C3  UNL     1     -34.040   7.121   5.907  1.00 20.00     0.152 A 
HETATM    4  C4  UNL     1     -33.938   7.281   4.433  1.00 20.00     0.158 A 
HETATM    5  C5  UNL     1     -34.233   5.949   3.778  1.00 20.00    -0.019 C 
HETATM    6  C6  UNL     1     -35.680   5.926   3.267  1.00 20.00     0.017 C 
HETATM    7  C7  UNL     1     -33.269   5.672   2.625  1.00 20.00     0.017 C 
HETATM    8  O8  UNL     1     -32.775   7.336   5.272  1.00 20.00    -0.375 OA
ENDROOT
TORSDOF 0
