REMARK  2 active torsions:
REMARK  status: ('A' for Active; 'I' for Inactive)
REMARK    1  A    between atoms: C6_6  and  N11_11 
REMARK    2  A    between atoms: C10_10  and  N11_11 
ROOT
HETATM    1  C1  UNL     1     -31.901   9.150   0.205  1.00 20.00     0.013 C 
HETATM    2  C2  UNL     1     -31.833   8.471   1.193  1.00 20.00    -0.087 C 
HETATM    3  C10 UNL     1     -31.745   7.641   2.397  1.00 20.00     0.362 C 
ENDROOT
BRANCH   3   4
HETATM    4  N11 UNL     1     -32.857   7.920   3.296  1.00 20.00     0.099 N 
HETATM    5  H28 UNL     1     -32.657   8.771   3.822  1.00 20.00     0.317 HD
BRANCH   4   6
HETATM    6  C6  UNL     1     -33.065   6.820   4.225  1.00 20.00     0.229 C 
HETATM    7  C4  UNL     1     -33.867   7.239   5.458  1.00 20.00     0.036 C 
HETATM    8  C3  UNL     1     -34.461   5.940   6.007  1.00 20.00     0.003 C 
HETATM    9  C5  UNL     1     -34.183   4.857   4.959  1.00 20.00     0.011 C 
HETATM   10  C7  UNL     1     -33.848   5.613   3.660  1.00 20.00    -0.017 C 
HETATM   11  C8  UNL     1     -35.144   6.011   2.927  1.00 20.00     0.017 C 
HETATM   12  C9  UNL     1     -32.992   4.758   2.721  1.00 20.00     0.017 C 
ENDBRANCH   4   6
ENDBRANCH   3   4
TORSDOF 2
