REMARK  1 active torsions:
REMARK  status: ('A' for Active; 'I' for Inactive)
REMARK    1  A    between atoms: C4_4  and  C9_9 
ROOT
HETATM    1  C1  UNL     1     -34.780   5.674   5.495  1.00 20.00     0.001 C 
HETATM    2  C2  UNL     1     -33.647   6.687   5.328  1.00 20.00     0.007 C 
HETATM    3  C3  UNL     1     -35.297   5.370   4.090  1.00 20.00     0.009 C 
HETATM    4  C4  UNL     1     -33.604   7.022   3.832  1.00 20.00     0.011 C 
HETATM    5  C5  UNL     1     -34.146   5.748   3.142  1.00 20.00    -0.043 C 
HETATM    6  C6  UNL     1     -33.117   4.606   3.063  1.00 20.00     0.015 C 
HETATM    7  C7  UNL     1     -34.672   6.041   1.732  1.00 20.00     0.015 C 
ENDROOT
BRANCH   4   8
HETATM    8  C9  UNL     1     -32.229   7.499   3.382  1.00 20.00     0.083 C 
HETATM    9  C8  UNL     1     -31.606   8.447   4.396  1.00 20.00     0.027 C 
HETATM   10 CL10 UNL     1     -32.370   8.321   1.802  1.00 20.00    -0.125 Cl
ENDBRANCH   4   8
TORSDOF 1
