REMARK  2 active torsions:
REMARK  status: ('A' for Active; 'I' for Inactive)
REMARK    1  A    between atoms: C5_5  and  C9_9 
REMARK    2  A    between atoms: C5_5  and  O10_10 
ROOT
HETATM    1  C1  UNL     1     -32.951   4.571   2.272  1.00 20.00     0.004 C 
HETATM    2  C2  UNL     1     -33.449   4.715   3.711  1.00 20.00     0.012 C 
HETATM    3  C3  UNL     1     -32.935   5.979   1.667  1.00 20.00     0.038 C 
HETATM    4  C4  UNL     1     -34.130   6.098   3.777  1.00 20.00    -0.017 C 
HETATM    5  C5  UNL     1     -33.217   6.932   2.837  1.00 20.00     0.064 C 
HETATM    6  C6  UNL     1     -34.157   6.615   5.222  1.00 20.00     0.018 C 
HETATM    7  C7  UNL     1     -35.583   5.988   3.273  1.00 20.00     0.018 C 
ENDROOT
BRANCH   5   8
HETATM    8  C9  UNL     1     -33.786   8.269   2.376  1.00 20.00     0.034 C 
HETATM    9  C8  UNL     1     -32.848   8.983   1.458  1.00 20.00     0.008 C 
ENDBRANCH   5   8
BRANCH   5  10
HETATM   10  O10 UNL     1     -31.971   7.194   3.497  1.00 20.00    -0.389 OA
HETATM   11  H28 UNL     1     -31.396   7.598   2.833  1.00 20.00     0.210 HD
ENDBRANCH   5  10
TORSDOF 2
