REMARK  3 active torsions:
REMARK  status: ('A' for Active; 'I' for Inactive)
REMARK    1  A    between atoms: C1_1  and  C6_6 
REMARK    2  A    between atoms: C2_2  and  C7_7 
REMARK    3  A    between atoms: C5_5  and  C6_6 
ROOT
HETATM    1  C3  UNL     1     -34.359   6.044   6.080  1.00 20.00     0.124 A 
HETATM    2  C4  UNL     1     -33.631   7.193   6.309  1.00 20.00     0.070 A 
HETATM    3  C5  UNL     1     -33.478   6.279   4.085  1.00 20.00     0.085 A 
HETATM    4  N8  UNL     1     -34.272   5.519   4.805  1.00 20.00    -0.257 NA
HETATM    5  S9  UNL     1     -32.799   7.642   4.878  1.00 20.00    -0.084 SA
ENDROOT
BRANCH   3   6
HETATM    6  C6  UNL     1     -33.136   6.027   2.640  1.00 20.00     0.161 C 
BRANCH   6   7
HETATM    7  C1  UNL     1     -32.917   7.277   1.902  1.00 20.00    -0.099 C 
HETATM    8  C2  UNL     1     -32.737   8.302   1.302  1.00 20.00    -0.091 C 
BRANCH   8   9
HETATM    9  C7  UNL     1     -32.519   9.549   0.573  1.00 20.00     0.208 C 
HETATM   10 CL10 UNL     1     -32.452  10.889   1.735  1.00 20.00    -0.117 Cl
ENDBRANCH   8   9
ENDBRANCH   6   7
ENDBRANCH   3   6
TORSDOF 3
