REMARK  2 active torsions:
REMARK  status: ('A' for Active; 'I' for Inactive)
REMARK    1  A    between atoms: C1_1  and  C5_5 
REMARK    2  A    between atoms: C1_1  and  C10_10 
ROOT
HETATM    1  C2  UNL     1     -34.085   5.431   5.182  1.00 20.00     0.002 C 
HETATM    2  C3  UNL     1     -33.748   6.878   4.823  1.00 20.00     0.013 C 
HETATM    3  C4  UNL     1     -34.595   4.792   3.894  1.00 20.00     0.010 C 
HETATM    4  C5  UNL     1     -33.930   6.999   3.306  1.00 20.00     0.063 C 
HETATM    5  C6  UNL     1     -33.870   5.552   2.771  1.00 20.00    -0.037 C 
HETATM    6  C7  UNL     1     -32.434   5.018   2.603  1.00 20.00     0.015 C 
HETATM    7  C8  UNL     1     -34.614   5.407   1.439  1.00 20.00     0.015 C 
ENDROOT
BRANCH   4   8
HETATM    8  C1  UNL     1     -32.920   7.917   2.690  1.00 20.00     0.131 C 
HETATM    9  O11 UNL     1     -31.793   8.032   3.168  1.00 20.00    -0.298 OA
BRANCH   8  10
HETATM   10  C10 UNL     1     -33.374   8.681   1.459  1.00 20.00     0.074 C 
HETATM   11  C9  UNL     1     -32.302   9.608   0.918  1.00 20.00     0.013 C 
ENDBRANCH   8  10
ENDBRANCH   4   8
TORSDOF 2
