REMARK  2 active torsions:
REMARK  status: ('A' for Active; 'I' for Inactive)
REMARK    1  A    between atoms: C3_3  and  C9_9 
REMARK    2  A    between atoms: C7_7  and  C9_9 
ROOT
HETATM    1  C4  UNL     1     -32.966   8.129   0.798  1.00 20.00     0.006 C 
HETATM    2  C5  UNL     1     -32.674   9.152  -0.293  1.00 20.00     0.020 C 
HETATM    3  C6  UNL     1     -32.321  10.282   1.791  1.00 20.00     0.025 C 
HETATM    4  C7  UNL     1     -33.039   8.953   2.090  1.00 20.00    -0.007 C 
HETATM    5  C8  UNL     1     -31.741  10.148   0.384  1.00 20.00     0.082 C 
HETATM    6 CL12 UNL     1     -30.072   9.510   0.452  1.00 20.00    -0.125 Cl
ENDROOT
BRANCH   4   7
HETATM    7  C9  UNL     1     -32.443   8.214   3.280  1.00 20.00     0.071 C 
BRANCH   7   8
HETATM    8  C3  UNL     1     -33.408   7.212   3.856  1.00 20.00     0.074 A 
HETATM    9  N10 UNL     1     -33.941   6.219   3.180  1.00 20.00    -0.258 NA
HETATM   10  C1  UNL     1     -34.774   5.504   4.018  1.00 20.00     0.124 A 
HETATM   11  C2  UNL     1     -34.861   5.963   5.316  1.00 20.00     0.070 A 
HETATM   12  S11 UNL     1     -33.863   7.345   5.506  1.00 20.00    -0.085 SA
ENDBRANCH   7   8
ENDBRANCH   4   7
TORSDOF 2
