REMARK  1 active torsions:
REMARK  status: ('A' for Active; 'I' for Inactive)
REMARK    1  A    between atoms: C4_4  and  C9_9 
ROOT
HETATM    1  C1  UNL     1     -33.438   7.884   5.886  1.00 20.00     0.001 C 
HETATM    2  C2  UNL     1     -33.886   6.478   5.481  1.00 20.00     0.007 C 
HETATM    3  C3  UNL     1     -32.675   8.453   4.690  1.00 20.00     0.009 C 
HETATM    4  C4  UNL     1     -33.283   6.230   4.093  1.00 20.00     0.011 C 
HETATM    5  C5  UNL     1     -33.160   7.643   3.475  1.00 20.00    -0.043 C 
HETATM    6  C6  UNL     1     -34.495   8.205   2.953  1.00 20.00     0.015 C 
HETATM    7  C7  UNL     1     -32.128   7.684   2.342  1.00 20.00     0.015 C 
ENDROOT
BRANCH   4   8
HETATM    8  C9  UNL     1     -34.076   5.209   3.289  1.00 20.00     0.083 C 
HETATM    9  C8  UNL     1     -33.231   4.586   2.188  1.00 20.00     0.027 C 
HETATM   10 CL10 UNL     1     -34.677   3.927   4.377  1.00 20.00    -0.125 Cl
ENDBRANCH   4   8
TORSDOF 1
