REMARK  0 active torsions:
REMARK  status: ('A' for Active; 'I' for Inactive)
ROOT
HETATM    1  C1  UNL     1     -33.218   7.152   2.782  1.00 20.00     0.098 C 
HETATM    2  C2  UNL     1     -33.950   4.916   3.461  1.00 20.00     0.160 A 
HETATM    3  C3  UNL     1     -33.771   6.215   3.676  1.00 20.00     0.063 A 
HETATM    4  C4  UNL     1     -34.276   6.459   5.045  1.00 20.00     0.225 A 
HETATM    5  N5  UNL     1     -32.762   7.923   2.046  1.00 20.00    -0.192 NA
HETATM    6  N6  UNL     1     -34.514   4.276   4.532  1.00 20.00    -0.166 NA
HETATM    7  N7  UNL     1     -34.724   5.103   5.466  1.00 20.00    -0.188 NA
ENDROOT
TORSDOF 0
