REMARK  3 active torsions:
REMARK  status: ('A' for Active; 'I' for Inactive)
REMARK    1  A    between atoms: C1_1  and  C2_2 
REMARK    2  A    between atoms: C1_1  and  C3_3 
REMARK    3  A    between atoms: C3_3  and  O4_4 
ROOT
HETATM    1  C3  UNL     1     -34.795   5.113   4.217  1.00 20.00     0.216 C 
HETATM    2 CL6  UNL     1     -34.350   5.464   5.901  1.00 20.00    -0.096 Cl
ENDROOT
BRANCH   1   3
HETATM    3  C1  UNL     1     -33.713   5.551   3.236  1.00 20.00     0.079 C 
BRANCH   3   4
HETATM    4  C2  UNL     1     -33.389   7.033   3.298  1.00 20.00     0.226 C 
HETATM    5  F5  UNL     1     -32.395   7.294   2.406  1.00 20.00    -0.255 F 
ENDBRANCH   3   4
ENDBRANCH   1   3
BRANCH   1   6
HETATM    6  O4  UNL     1     -35.995   5.812   3.916  1.00 20.00    -0.380 OA
HETATM    7  H12 UNL     1     -36.661   5.511   4.557  1.00 20.00     0.211 HD
ENDBRANCH   1   6
TORSDOF 3
