REMARK  2 active torsions:
REMARK  status: ('A' for Active; 'I' for Inactive)
REMARK    1  A    between atoms: C3_3  and  C9_9 
REMARK    2  A    between atoms: C7_7  and  C9_9 
ROOT
HETATM    1  C4  UNL     1     -32.882   5.980   2.587  1.00 20.00     0.006 C 
HETATM    2  C5  UNL     1     -34.411   5.943   2.618  1.00 20.00     0.020 C 
HETATM    3  C6  UNL     1     -33.760   7.707   4.071  1.00 20.00     0.025 C 
HETATM    4  C7  UNL     1     -32.456   7.048   3.608  1.00 20.00    -0.007 C 
HETATM    5  C8  UNL     1     -34.809   6.610   3.929  1.00 20.00     0.082 C 
HETATM    6 CL12 UNL     1     -34.715   5.451   5.285  1.00 20.00    -0.125 Cl
ENDROOT
BRANCH   4   7
HETATM    7  C9  UNL     1     -31.461   8.050   3.044  1.00 20.00     0.071 C 
BRANCH   7   8
HETATM    8  C3  UNL     1     -32.024   8.792   1.860  1.00 20.00     0.074 A 
HETATM    9  N10 UNL     1     -33.124   9.511   1.887  1.00 20.00    -0.258 NA
HETATM   10  C1  UNL     1     -33.339  10.046   0.632  1.00 20.00     0.124 A 
HETATM   11  C2  UNL     1     -32.402   9.726  -0.328  1.00 20.00     0.070 A 
HETATM   12  S11 UNL     1     -31.197   8.716   0.358  1.00 20.00    -0.085 SA
ENDBRANCH   7   8
ENDBRANCH   4   7
TORSDOF 2
