REMARK  1 active torsions:
REMARK  status: ('A' for Active; 'I' for Inactive)
REMARK    1  A    between atoms: C2_2  and  C5_5 
ROOT
HETATM    1  C1  UNL     1     -33.071   7.080   2.378  1.00 20.00     0.075 A 
HETATM    2  C2  UNL     1     -33.252   6.777   3.669  1.00 20.00     0.039 A 
HETATM    3  C3  UNL     1     -32.086   8.152   2.181  1.00 20.00     0.209 A 
HETATM    4  C4  UNL     1     -32.460   7.543   4.680  1.00 20.00     0.126 A 
HETATM    5  O6  UNL     1     -31.755   8.598   1.095  1.00 20.00    -0.281 OA
HETATM    6  S10 UNL     1     -31.452   8.707   3.717  1.00 20.00    -0.084 SA
ENDROOT
BRANCH   2   7
HETATM    7  C5  UNL     1     -34.196   5.727   4.154  1.00 20.00     0.414 C 
HETATM    8  F7  UNL     1     -34.176   5.638   5.501  1.00 20.00    -0.166 F 
HETATM    9  F8  UNL     1     -35.465   5.999   3.780  1.00 20.00    -0.166 F 
HETATM   10  F9  UNL     1     -33.876   4.512   3.659  1.00 20.00    -0.166 F 
ENDBRANCH   2   7
TORSDOF 1
