REMARK  0 active torsions:
REMARK  status: ('A' for Active; 'I' for Inactive)
ROOT
HETATM    1  C1  UNL     1     -30.983   7.940   3.640  1.00 20.00     0.086 C 
HETATM    2  C2  UNL     1     -33.290   5.170   2.302  1.00 20.00     0.003 C 
HETATM    3  C3  UNL     1     -34.479   5.392   3.228  1.00 20.00     0.001 C 
HETATM    4  C4  UNL     1     -32.027   5.869   2.805  1.00 20.00     0.042 C 
HETATM    5  C5  UNL     1     -34.713   6.874   3.520  1.00 20.00     0.012 C 
HETATM    6  C6  UNL     1     -32.236   7.369   3.104  1.00 20.00     0.132 C 
HETATM    7  C7  UNL     1     -33.456   7.605   4.069  1.00 20.00    -0.013 C 
HETATM    8  C8  UNL     1     -33.157   7.071   5.496  1.00 20.00     0.018 C 
HETATM    9  C9  UNL     1     -33.810   9.104   4.230  1.00 20.00     0.018 C 
HETATM   10  N10 UNL     1     -30.000   8.387   4.061  1.00 20.00    -0.195 NA
HETATM   11 CL11 UNL     1     -32.475   8.218   1.518  1.00 20.00    -0.102 Cl
ENDROOT
TORSDOF 0
