REMARK  0 active torsions:
REMARK  status: ('A' for Active; 'I' for Inactive)
ROOT
HETATM    1  C1  UNL     1     -32.906   7.357   4.563  1.00 20.00     0.021 C 
HETATM    2  C2  UNL     1     -33.720   6.374   4.981  1.00 20.00     0.001 C 
HETATM    3  C3  UNL     1     -33.159   6.765   2.224  1.00 20.00     0.003 C 
HETATM    4  C4  UNL     1     -32.752   7.642   3.155  1.00 20.00     0.030 C 
HETATM    5  C5  UNL     1     -33.791   5.436   2.603  1.00 20.00     0.033 C 
HETATM    6  C6  UNL     1     -34.506   5.525   3.999  1.00 20.00     0.058 C 
HETATM    7  C7  UNL     1     -32.688   4.370   2.503  1.00 20.00     0.016 C 
HETATM    8  C8  UNL     1     -35.906   6.146   3.842  1.00 20.00     0.037 C 
HETATM    9 CL9  UNL     1     -31.987   9.120   2.704  1.00 20.00    -0.085 Cl
HETATM   10 CL10 UNL     1     -34.743   3.892   4.725  1.00 20.00    -0.115 Cl
ENDROOT
TORSDOF 0
