REMARK  1 active torsions:
REMARK  status: ('A' for Active; 'I' for Inactive)
REMARK    1  A    between atoms: C1_1  and  C4_4 
ROOT
HETATM    1  C1  UNL     1     -33.152   6.757   2.347  1.00 20.00    -0.079 C 
HETATM    2  C2  UNL     1     -33.098   7.812   1.776  1.00 20.00    -0.106 C 
HETATM    3  C7  UNL     1     -33.033   9.097   1.081  1.00 20.00     0.112 C 
ENDROOT
BRANCH   1   4
HETATM    4  C4  UNL     1     -33.213   5.506   3.022  1.00 20.00     0.070 C 
HETATM    5  C3  UNL     1     -34.121   5.255   3.962  1.00 20.00    -0.017 C 
HETATM    6  C5  UNL     1     -34.442   4.074   4.836  1.00 20.00     0.306 C 
HETATM    7  C6  UNL     1     -35.250   6.034   4.579  1.00 20.00     0.306 C 
HETATM    8  N8  UNL     1     -35.273   4.997   5.622  1.00 20.00     0.091 N 
HETATM    9  H17 UNL     1     -36.200   4.646   5.858  1.00 20.00     0.316 HD
ENDBRANCH   1   4
TORSDOF 1
