REMARK  2 active torsions:
REMARK  status: ('A' for Active; 'I' for Inactive)
REMARK    1  A    between atoms: C2_2  and  C6_6 
REMARK    2  A    between atoms: C6_6  and  O10_10 
ROOT
HETATM    1  C3  UNL     1     -33.958   5.997   5.931  1.00 20.00     0.004 C 
HETATM    2  C4  UNL     1     -33.518   7.266   5.188  1.00 20.00     0.043 C 
HETATM    3  C5  UNL     1     -34.084   4.893   4.879  1.00 20.00     0.012 C 
HETATM    4  C6  UNL     1     -33.201   6.815   3.755  1.00 20.00     0.082 C 
HETATM    5  C7  UNL     1     -34.180   5.626   3.525  1.00 20.00    -0.013 C 
HETATM    6  C8  UNL     1     -33.763   4.694   2.378  1.00 20.00     0.018 C 
HETATM    7  C9  UNL     1     -35.638   6.070   3.280  1.00 20.00     0.018 C 
ENDROOT
BRANCH   4   8
HETATM    8  C2  UNL     1     -33.286   7.945   2.776  1.00 20.00     0.001 C 
HETATM    9  C1  UNL     1     -32.557   8.024   1.658  1.00 20.00     0.010 C 
ENDBRANCH   4   8
BRANCH   4  10
HETATM   10  O10 UNL     1     -31.847   6.340   3.770  1.00 20.00    -0.385 OA
HETATM   11  H26 UNL     1     -31.302   7.092   4.042  1.00 20.00     0.211 HD
ENDBRANCH   4  10
TORSDOF 2
