REMARK  2 active torsions:
REMARK  status: ('A' for Active; 'I' for Inactive)
REMARK    1  A    between atoms: C5_5  and  C10_10 
REMARK    2  A    between atoms: C5_5  and  O11_11 
ROOT
HETATM    1  C1  UNL     1     -34.164   7.752   5.193  1.00 20.00     0.004 C 
HETATM    2  C2  UNL     1     -33.738   6.374   4.683  1.00 20.00     0.012 C 
HETATM    3  C3  UNL     1     -33.727   8.773   4.137  1.00 20.00     0.039 C 
HETATM    4  C4  UNL     1     -33.471   6.553   3.175  1.00 20.00    -0.016 C 
HETATM    5  C5  UNL     1     -32.877   7.989   3.127  1.00 20.00     0.068 C 
HETATM    6  C6  UNL     1     -34.797   6.420   2.398  1.00 20.00     0.018 C 
HETATM    7  C7  UNL     1     -32.502   5.475   2.669  1.00 20.00     0.018 C 
ENDROOT
BRANCH   5   8
HETATM    8  C10 UNL     1     -32.864   8.651   1.753  1.00 20.00     0.012 C 
HETATM    9  C8  UNL     1     -33.055  10.161   1.882  1.00 20.00     0.012 C 
HETATM   10  C9  UNL     1     -31.563   8.336   1.016  1.00 20.00     0.012 C 
ENDBRANCH   5   8
BRANCH   5  11
HETATM   11  O11 UNL     1     -31.518   7.992   3.583  1.00 20.00    -0.389 OA
HETATM   12  H31 UNL     1     -31.526   7.565   4.451  1.00 20.00     0.210 HD
ENDBRANCH   5  11
TORSDOF 2
