REMARK  0 active torsions:
REMARK  status: ('A' for Active; 'I' for Inactive)
ROOT
HETATM    1  C1  UNL     1     -31.673   7.864   2.280  1.00 20.00     0.088 C 
HETATM    2  C2  UNL     1     -33.399   6.689   3.481  1.00 20.00    -0.062 C 
HETATM    3  C3  UNL     1     -32.517   6.743   2.468  1.00 20.00     0.097 C 
HETATM    4  C4  UNL     1     -33.493   7.852   4.446  1.00 20.00     0.036 C 
HETATM    5  C5  UNL     1     -33.333   7.391   5.892  1.00 20.00     0.004 C 
HETATM    6  C6  UNL     1     -34.313   6.275   6.239  1.00 20.00     0.001 C 
HETATM    7  C7  UNL     1     -34.191   5.104   5.263  1.00 20.00     0.013 C 
HETATM    8  C8  UNL     1     -34.334   5.505   3.770  1.00 20.00    -0.024 C 
HETATM    9  C9  UNL     1     -34.028   4.246   2.927  1.00 20.00     0.019 C 
HETATM   10  C10 UNL     1     -35.790   5.913   3.460  1.00 20.00     0.019 C 
HETATM   11  N11 UNL     1     -30.977   8.778   2.118  1.00 20.00    -0.192 NA
ENDROOT
TORSDOF 0
