REMARK  2 active torsions:
REMARK  status: ('A' for Active; 'I' for Inactive)
REMARK    1  A    between atoms: C6_6  and  N11_11 
REMARK    2  A    between atoms: C10_10  and  N11_11 
ROOT
HETATM    1  C1  UNL     1     -32.637   9.893   0.865  1.00 20.00     0.013 C 
HETATM    2  C2  UNL     1     -32.442   9.020   1.665  1.00 20.00    -0.087 C 
HETATM    3  C10 UNL     1     -32.202   7.958   2.646  1.00 20.00     0.362 C 
ENDROOT
BRANCH   3   4
HETATM    4  N11 UNL     1     -32.859   6.723   2.237  1.00 20.00     0.099 N 
HETATM    5  H28 UNL     1     -32.285   6.256   1.534  1.00 20.00     0.317 HD
BRANCH   4   6
HETATM    6  C6  UNL     1     -33.048   5.833   3.372  1.00 20.00     0.229 C 
HETATM    7  C4  UNL     1     -33.278   4.382   2.945  1.00 20.00     0.036 C 
HETATM    8  C3  UNL     1     -33.991   3.727   4.130  1.00 20.00     0.003 C 
HETATM    9  C5  UNL     1     -34.356   4.857   5.098  1.00 20.00     0.011 C 
HETATM   10  C7  UNL     1     -34.259   6.155   4.275  1.00 20.00    -0.017 C 
HETATM   11  C8  UNL     1     -34.002   7.369   5.174  1.00 20.00     0.017 C 
HETATM   12  C9  UNL     1     -35.565   6.386   3.490  1.00 20.00     0.017 C 
ENDBRANCH   4   6
ENDBRANCH   3   4
TORSDOF 2
