REMARK  0 active torsions:
REMARK  status: ('A' for Active; 'I' for Inactive)
ROOT
HETATM    1  C1  UNL     1     -33.605   6.923   4.635  1.00 20.00    -0.081 C 
HETATM    2  C2  UNL     1     -34.015   7.657   5.677  1.00 20.00     0.015 C 
HETATM    3  C3  UNL     1     -32.422   7.295   3.782  1.00 20.00     0.034 C 
HETATM    4  C4  UNL     1     -32.594   6.429   2.543  1.00 20.00     0.005 C 
HETATM    5  C5  UNL     1     -33.231   5.155   3.082  1.00 20.00     0.013 C 
HETATM    6  C6  UNL     1     -34.252   5.641   4.132  1.00 20.00    -0.025 C 
HETATM    7  C7  UNL     1     -35.608   5.941   3.472  1.00 20.00     0.019 C 
HETATM    8  C8  UNL     1     -34.433   4.582   5.226  1.00 20.00     0.019 C 
ENDROOT
TORSDOF 0
