REMARK  1 active torsions:
REMARK  status: ('A' for Active; 'I' for Inactive)
REMARK    1  A    between atoms: C6_6  and  O10_10 
ROOT
HETATM    1  C1  UNL     1     -34.463   5.334   5.989  1.00 20.00     0.015 C 
HETATM    2  C2  UNL     1     -34.102   6.163   5.200  1.00 20.00    -0.077 C 
HETATM    3  C3  UNL     1     -33.069   7.661   1.768  1.00 20.00     0.023 C 
HETATM    4  C4  UNL     1     -31.701   8.257   2.079  1.00 20.00     0.075 C 
HETATM    5  C5  UNL     1     -32.329   7.784   4.728  1.00 20.00     0.126 C 
HETATM    6  C6  UNL     1     -33.658   7.187   4.225  1.00 20.00     0.135 C 
HETATM    7  C7  UNL     1     -33.570   6.588   2.775  1.00 20.00    -0.004 C 
HETATM    8  C8  UNL     1     -34.968   6.133   2.281  1.00 20.00     0.019 C 
HETATM    9  C9  UNL     1     -32.638   5.354   2.712  1.00 20.00     0.019 C 
HETATM   10  S11 UNL     1     -31.679   9.115   3.673  1.00 20.00    -0.165 SA
ENDROOT
BRANCH   6  11
HETATM   11  O10 UNL     1     -34.641   8.233   4.227  1.00 20.00    -0.376 OA
HETATM   12  H25 UNL     1     -34.664   8.578   5.131  1.00 20.00     0.211 HD
ENDBRANCH   6  11
TORSDOF 1
