REMARK  0 active torsions:
REMARK  status: ('A' for Active; 'I' for Inactive)
ROOT
HETATM    1  C1  UNL     1     -34.667   6.395   2.845  1.00 20.00     0.056 C 
HETATM    2  C2  UNL     1     -34.009   7.736   3.109  1.00 20.00     0.094 C 
HETATM    3  C3  UNL     1     -33.682   5.367   3.416  1.00 20.00     0.056 C 
HETATM    4  C4  UNL     1     -33.154   7.471   4.349  1.00 20.00     0.068 C 
HETATM    5  C5  UNL     1     -34.402   4.287   4.227  1.00 20.00     0.045 C 
HETATM    6  C6  UNL     1     -32.833   4.698   2.333  1.00 20.00     0.045 C 
HETATM    7  C7  UNL     1     -31.873   8.294   4.496  1.00 20.00     0.047 C 
HETATM    8  C8  UNL     1     -33.997   7.673   5.623  1.00 20.00     0.047 C 
HETATM    9  O9  UNL     1     -32.789   6.077   4.295  1.00 20.00    -0.369 OA
HETATM   10 BR10 UNL     1     -33.007   8.288   1.526  1.00 20.00    -0.088 Br
ENDROOT
TORSDOF 0
