REMARK  0 active torsions:
REMARK  status: ('A' for Active; 'I' for Inactive)
ROOT
HETATM    1  C1  UNL     1     -34.115   6.831   5.479  1.00 20.00     0.086 C 
HETATM    2  C2  UNL     1     -33.105   5.862   3.407  1.00 20.00     0.056 C 
HETATM    3  C3  UNL     1     -35.539   5.905   3.660  1.00 20.00     0.115 C 
HETATM    4  C4  UNL     1     -33.399   6.990   2.411  1.00 20.00     0.046 C 
HETATM    5  C5  UNL     1     -34.233   5.795   4.440  1.00 20.00     0.135 C 
HETATM    6  C6  UNL     1     -32.795   8.333   2.798  1.00 20.00     0.021 C 
HETATM    7  N7  UNL     1     -34.021   7.647   6.298  1.00 20.00    -0.195 NA
HETATM    8  S8  UNL     1     -35.217   7.106   2.333  1.00 20.00    -0.162 SA
HETATM    9 CL9  UNL     1     -34.173   4.230   5.310  1.00 20.00    -0.102 Cl
ENDROOT
TORSDOF 0
