REMARK  1 active torsions:
REMARK  status: ('A' for Active; 'I' for Inactive)
REMARK    1  A    between atoms: C7_7  and  C11_11 
ROOT
HETATM    1  C1  UNL     1     -35.003   5.521   5.302  1.00 20.00     0.030 C 
HETATM    2  C2  UNL     1     -33.997   6.572   5.736  1.00 20.00     0.036 C 
HETATM    3  C3  UNL     1     -32.721   8.304   4.358  1.00 20.00     0.305 C 
HETATM    4  C4  UNL     1     -35.422   6.007   3.931  1.00 20.00     0.235 C 
HETATM    5  C5  UNL     1     -34.292   7.575   2.293  1.00 20.00     0.271 C 
HETATM    6  C6  UNL     1     -33.189   6.855   4.472  1.00 20.00     0.216 C 
HETATM    7  C7  UNL     1     -32.897   8.083   1.907  1.00 20.00     0.251 C 
HETATM    8  C10 UNL     1     -30.727   8.306   2.975  1.00 20.00     0.310 C 
HETATM    9  N12 UNL     1     -32.148   8.644   3.050  1.00 20.00     0.092 N 
HETATM   10  N13 UNL     1     -34.126   6.499   3.328  1.00 20.00    -0.063 N 
HETATM   11  H36 UNL     1     -33.673   5.678   2.814  1.00 20.00     0.280 HD
ENDROOT
BRANCH   7  12
HETATM   12  C11 UNL     1     -33.023   9.161   0.829  1.00 20.00     0.012 C 
HETATM   13  C8  UNL     1     -33.432  10.489   1.455  1.00 20.00     0.012 C 
HETATM   14  C9  UNL     1     -31.712   9.300   0.065  1.00 20.00     0.012 C 
ENDBRANCH   7  12
TORSDOF 1
