REMARK  1 active torsions:
REMARK  status: ('A' for Active; 'I' for Inactive)
REMARK    1  A    between atoms: C2_2  and  C3_3 
ROOT
HETATM    1  C1  UNL     1     -33.526   7.179   2.923  1.00 20.00    -0.063 C 
HETATM    2  C2  UNL     1     -34.478   6.792   3.787  1.00 20.00     0.088 C 
HETATM    3  C4  UNL     1     -33.855   8.050   1.732  1.00 20.00     0.044 C 
HETATM    4  C5  UNL     1     -32.097   6.778   3.104  1.00 20.00     0.108 C 
HETATM    5  C6  UNL     1     -31.994   9.553   2.658  1.00 20.00     0.083 C 
HETATM    6  C7  UNL     1     -32.795   9.141   1.403  1.00 20.00    -0.036 C 
HETATM    7  C8  UNL     1     -33.529  10.392   0.870  1.00 20.00     0.016 C 
HETATM    8  C9  UNL     1     -31.852   8.661   0.277  1.00 20.00     0.016 C 
HETATM    9  S12 UNL     1     -31.046   8.216   3.470  1.00 20.00    -0.164 SA
ENDROOT
BRANCH   2  10
HETATM   10  C3  UNL     1     -34.157   5.909   4.998  1.00 20.00     0.198 C 
HETATM   11  O10 UNL     1     -33.855   6.562   6.040  1.00 20.00    -0.644 OA
HETATM   12  O11 UNL     1     -34.224   4.659   4.833  1.00 20.00    -0.644 OA
ENDBRANCH   2  10
TORSDOF 1
