REMARK  0 active torsions:
REMARK  status: ('A' for Active; 'I' for Inactive)
ROOT
HETATM    1  C1  UNL     1     -32.980   9.214   0.514  1.00 20.00     0.064 C 
HETATM    2  C2  UNL     1     -34.222   3.927   4.519  1.00 20.00     0.000 C 
HETATM    3  C3  UNL     1     -35.190   5.077   4.769  1.00 20.00     0.003 C 
HETATM    4  C4  UNL     1     -32.840   4.431   4.120  1.00 20.00     0.003 C 
HETATM    5  C5  UNL     1     -35.249   6.035   3.578  1.00 20.00     0.038 C 
HETATM    6  C6  UNL     1     -32.914   5.380   2.923  1.00 20.00     0.038 C 
HETATM    7  C7  UNL     1     -32.321   9.044   2.886  1.00 20.00     0.045 C 
HETATM    8  C8  UNL     1     -34.009   7.468   1.928  1.00 20.00     0.057 C 
HETATM    9  C9  UNL     1     -32.200   8.102   4.075  1.00 20.00     0.170 C 
HETATM   10  C10 UNL     1     -32.746   8.283   1.630  1.00 20.00     0.097 C 
HETATM   11  C11 UNL     1     -33.857   6.578   3.181  1.00 20.00     0.062 C 
HETATM   12  N12 UNL     1     -33.165   9.948  -0.366  1.00 20.00    -0.197 NA
HETATM   13  O13 UNL     1     -33.406   7.374   4.290  1.00 20.00    -0.380 OA
ENDROOT
TORSDOF 0
