REMARK  0 active torsions:
REMARK  status: ('A' for Active; 'I' for Inactive)
ROOT
HETATM    1  C1  UNL     1     -32.243   8.387   1.703  1.00 20.00     0.088 C 
HETATM    2  C2  UNL     1     -32.959   6.994   3.533  1.00 20.00    -0.057 C 
HETATM    3  C3  UNL     1     -32.885   8.202   2.951  1.00 20.00     0.097 C 
HETATM    4  C4  UNL     1     -32.350   5.786   2.856  1.00 20.00     0.037 C 
HETATM    5  C5  UNL     1     -33.397   4.716   2.543  1.00 20.00     0.014 C 
HETATM    6  C6  UNL     1     -34.142   4.222   3.778  1.00 20.00     0.075 C 
HETATM    7  C7  UNL     1     -33.607   6.714   4.875  1.00 20.00     0.072 C 
HETATM    8  C8  UNL     1     -34.115   7.927   5.655  1.00 20.00     0.026 C 
HETATM    9  N9  UNL     1     -31.719   8.547   0.680  1.00 20.00    -0.192 NA
HETATM   10  S10 UNL     1     -35.020   5.571   4.625  1.00 20.00    -0.160 SA
ENDROOT
TORSDOF 0
