REMARK  2 active torsions:
REMARK  status: ('A' for Active; 'I' for Inactive)
REMARK    1  A    between atoms: C1_1  and  C5_5 
REMARK    2  A    between atoms: C1_1  and  C8_8 
ROOT
HETATM    1  C2  UNL     1     -34.032   5.409   5.291  1.00 20.00     0.084 C 
HETATM    2  C3  UNL     1     -34.641   5.407   3.897  1.00 20.00     0.085 C 
HETATM    3  C4  UNL     1     -32.587   7.685   4.660  1.00 20.00     0.096 C 
HETATM    4  C5  UNL     1     -33.201   7.687   3.266  1.00 20.00     0.126 C 
HETATM    5  S10 UNL     1     -33.741   7.085   5.931  1.00 20.00    -0.167 SA
HETATM    6  S11 UNL     1     -33.491   6.008   2.624  1.00 20.00    -0.155 SA
ENDROOT
BRANCH   4   7
HETATM    7  C1  UNL     1     -32.261   8.348   2.307  1.00 20.00     0.144 C 
HETATM    8  O9  UNL     1     -31.047   8.343   2.513  1.00 20.00    -0.296 OA
BRANCH   7   9
HETATM    9  C8  UNL     1     -32.883   9.045   1.101  1.00 20.00     0.048 C 
HETATM   10  C6  UNL     1     -33.203  10.495   1.447  1.00 20.00     0.017 C 
HETATM   11  C7  UNL     1     -31.960   8.968  -0.112  1.00 20.00     0.017 C 
ENDBRANCH   7   9
ENDBRANCH   4   7
TORSDOF 2
