REMARK  3 active torsions:
REMARK  status: ('A' for Active; 'I' for Inactive)
REMARK    1  A    between atoms: C6_6  and  C9_9 
REMARK    2  A    between atoms: C6_6  and  O10_10 
REMARK    3  A    between atoms: C8_8  and  C9_9 
ROOT
HETATM    1  C1  UNL     1     -32.686  10.237   0.064  1.00 20.00     0.012 C 
HETATM    2  C2  UNL     1     -32.553   9.402   0.916  1.00 20.00    -0.117 C 
HETATM    3  C8  UNL     1     -32.385   8.382   1.960  1.00 20.00     0.096 C 
ENDROOT
BRANCH   3   4
HETATM    4  C9  UNL     1     -33.702   7.675   2.217  1.00 20.00     0.050 C 
BRANCH   4   5
HETATM    5  C6  UNL     1     -33.546   6.618   3.308  1.00 20.00     0.068 C 
HETATM    6  C3  UNL     1     -34.854   5.858   3.551  1.00 20.00     0.053 C 
HETATM    7  C5  UNL     1     -34.724   5.052   4.846  1.00 20.00     0.046 C 
HETATM    8  C7  UNL     1     -34.142   3.658   4.651  1.00 20.00     0.021 C 
HETATM    9  S11 UNL     1     -33.642   6.048   5.919  1.00 20.00    -0.162 SA
HETATM   10  C4  UNL     1     -33.154   7.247   4.641  1.00 20.00     0.112 C 
BRANCH   5  11
HETATM   11  O10 UNL     1     -32.514   5.723   2.896  1.00 20.00    -0.389 OA
HETATM   12  H25 UNL     1     -31.720   6.263   2.760  1.00 20.00     0.210 HD
ENDBRANCH   5  11
ENDBRANCH   4   5
ENDBRANCH   3   4
TORSDOF 3
