REMARK  1 active torsions:
REMARK  status: ('A' for Active; 'I' for Inactive)
REMARK    1  A    between atoms: C5_5  and  O9_9 
ROOT
HETATM    1  C1  UNL     1     -32.777   7.212   3.252  1.00 20.00     0.022 C 
HETATM    2  C2  UNL     1     -32.267   7.790   4.569  1.00 20.00     0.075 C 
HETATM    3  C3  UNL     1     -34.121   6.146   5.775  1.00 20.00     0.112 C 
HETATM    4  C4  UNL     1     -33.339   5.768   3.333  1.00 20.00    -0.015 C 
HETATM    5  C5  UNL     1     -34.522   5.664   4.366  1.00 20.00     0.069 C 
HETATM    6  C6  UNL     1     -33.804   5.364   1.912  1.00 20.00     0.018 C 
HETATM    7  C7  UNL     1     -32.192   4.791   3.700  1.00 20.00     0.018 C 
HETATM    8  C8  UNL     1     -35.803   6.386   3.903  1.00 20.00     0.047 C 
HETATM    9  S10 UNL     1     -33.557   7.869   5.838  1.00 20.00    -0.166 SA
ENDROOT
BRANCH   5  10
HETATM   10  O9  UNL     1     -34.878   4.275   4.493  1.00 20.00    -0.389 OA
HETATM   11  H26 UNL     1     -35.616   4.249   5.117  1.00 20.00     0.210 HD
ENDBRANCH   5  10
TORSDOF 1
