REMARK  0 active torsions:
REMARK  status: ('A' for Active; 'I' for Inactive)
ROOT
HETATM    1  C1  UNL     1     -33.256   7.580   4.693  1.00 20.00     0.067 C 
HETATM    2  C2  UNL     1     -33.015   8.790   2.537  1.00 20.00     0.059 C 
HETATM    3  C3  UNL     1     -32.697   7.543   3.339  1.00 20.00     0.129 C 
HETATM    4  C4  UNL     1     -32.801   8.325   1.096  1.00 20.00     0.056 C 
HETATM    5  C5  UNL     1     -33.250   6.431   2.434  1.00 20.00     0.071 C 
HETATM    6  C6  UNL     1     -33.762   9.008   0.127  1.00 20.00     0.045 C 
HETATM    7  C7  UNL     1     -31.356   8.530   0.637  1.00 20.00     0.045 C 
HETATM    8  C8  UNL     1     -32.465   5.128   2.587  1.00 20.00     0.047 C 
HETATM    9  C9  UNL     1     -34.751   6.153   2.598  1.00 20.00     0.047 C 
HETATM   10  N10 UNL     1     -33.697   7.610   5.766  1.00 20.00    -0.197 NA
HETATM   11  O11 UNL     1     -33.065   6.907   1.081  1.00 20.00    -0.369 OA
ENDROOT
TORSDOF 0
