REMARK  1 active torsions:
REMARK  status: ('A' for Active; 'I' for Inactive)
REMARK    1  A    between atoms: C5_5  and  O9_9 
ROOT
HETATM    1  C1  UNL     1     -33.635   7.377   4.467  1.00 20.00     0.098 C 
HETATM    2  C2  UNL     1     -33.703   8.939   2.542  1.00 20.00     0.069 C 
HETATM    3  C3  UNL     1     -31.741   7.520   2.887  1.00 20.00     0.128 C 
HETATM    4  C4  UNL     1     -33.061   9.129   1.168  1.00 20.00     0.047 C 
HETATM    5  C5  UNL     1     -33.258   7.569   3.060  1.00 20.00     0.157 C 
HETATM    6  C6  UNL     1     -33.009  10.586   0.741  1.00 20.00     0.021 C 
HETATM    7  N8  UNL     1     -33.932   7.225   5.578  1.00 20.00    -0.194 NA
HETATM    8  S10 UNL     1     -31.390   8.429   1.347  1.00 20.00    -0.161 SA
ENDROOT
BRANCH   5   9
HETATM    9  O9  UNL     1     -33.846   6.532   2.275  1.00 20.00    -0.369 OA
HETATM   10  C7  UNL     1     -33.787   5.281   2.944  1.00 20.00     0.204 C 
ENDBRANCH   5   9
TORSDOF 1
