REMARK  2 active torsions:
REMARK  status: ('A' for Active; 'I' for Inactive)
REMARK    1  A    between atoms: C2_2  and  C6_6 
REMARK    2  A    between atoms: C6_6  and  O9_9 
ROOT
HETATM    1  C3  UNL     1     -33.652   8.932   3.146  1.00 20.00     0.058 C 
HETATM    2  C4  UNL     1     -32.130   7.123   2.504  1.00 20.00     0.116 C 
HETATM    3  C5  UNL     1     -32.670   9.763   2.319  1.00 20.00     0.046 C 
HETATM    4  C6  UNL     1     -32.874   7.733   3.694  1.00 20.00     0.089 C 
HETATM    5  C8  UNL     1     -33.368  10.693   1.341  1.00 20.00     0.021 C 
HETATM    6  S10 UNL     1     -31.648   8.530   1.451  1.00 20.00    -0.161 SA
ENDROOT
BRANCH   4   7
HETATM    7  C2  UNL     1     -33.787   6.749   4.356  1.00 20.00    -0.058 C 
HETATM    8  C1  UNL     1     -34.356   5.741   3.677  1.00 20.00     0.017 C 
HETATM    9  C7  UNL     1     -34.030   6.954   5.822  1.00 20.00     0.046 C 
ENDBRANCH   4   7
BRANCH   4  10
HETATM   10  O9  UNL     1     -31.932   8.193   4.666  1.00 20.00    -0.385 OA
HETATM   11  H24 UNL     1     -31.450   7.410   4.972  1.00 20.00     0.211 HD
ENDBRANCH   4  10
TORSDOF 2
