REMARK  0 active torsions:
REMARK  status: ('A' for Active; 'I' for Inactive)
ROOT
HETATM    1  C1  UNL     1     -33.788   7.272   5.141  1.00 20.00    -0.053 C 
HETATM    2  C2  UNL     1     -33.768   7.252   6.478  1.00 20.00     0.017 C 
HETATM    3  C3  UNL     1     -33.644   8.499   4.307  1.00 20.00     0.073 C 
HETATM    4  C4  UNL     1     -33.854   6.094   4.206  1.00 20.00     0.077 C 
HETATM    5  C5  UNL     1     -32.905   7.944   3.091  1.00 20.00     0.059 C 
HETATM    6  C6  UNL     1     -32.987   4.904   4.618  1.00 20.00     0.051 C 
HETATM    7  C7  UNL     1     -35.300   5.646   3.979  1.00 20.00     0.051 C 
HETATM    8  C8  UNL     1     -33.256   8.713   1.819  1.00 20.00     0.046 C 
HETATM    9  C9  UNL     1     -31.384   7.932   3.286  1.00 20.00     0.046 C 
HETATM   10  O10 UNL     1     -33.362   6.585   2.935  1.00 20.00    -0.366 OA
ENDROOT
TORSDOF 0
