REMARK  3 active torsions:
REMARK  status: ('A' for Active; 'I' for Inactive)
REMARK    1  A    between atoms: C4_4  and  C7_7 
REMARK    2  A    between atoms: C4_4  and  O9_9 
REMARK    3  A    between atoms: C7_7  and  C8_8 
ROOT
HETATM    1  C1  UNL     1     -33.231   9.291   3.377  1.00 20.00     0.053 C 
HETATM    2  C2  UNL     1     -31.651   7.456   3.042  1.00 20.00     0.112 C 
HETATM    3  C3  UNL     1     -33.146   9.364   1.856  1.00 20.00     0.046 C 
HETATM    4  C4  UNL     1     -32.922   7.850   3.796  1.00 20.00     0.067 C 
HETATM    5  C5  UNL     1     -32.935  10.781   1.349  1.00 20.00     0.021 C 
HETATM    6  S10 UNL     1     -31.738   8.290   1.429  1.00 20.00    -0.162 SA
ENDROOT
BRANCH   4   7
HETATM    7  C7  UNL     1     -34.083   6.892   3.522  1.00 20.00     0.038 C 
BRANCH   7   8
HETATM    8  C8  UNL     1     -33.943   5.608   4.333  1.00 20.00    -0.002 C 
HETATM    9  C6  UNL     1     -35.111   4.667   4.081  1.00 20.00     0.005 C 
ENDBRANCH   7   8
ENDBRANCH   4   7
BRANCH   4  10
HETATM   10  O9  UNL     1     -32.677   7.812   5.201  1.00 20.00    -0.389 OA
HETATM   11  H26 UNL     1     -33.485   8.133   5.629  1.00 20.00     0.210 HD
ENDBRANCH   4  10
TORSDOF 3
