REMARK  0 active torsions:
REMARK  status: ('A' for Active; 'I' for Inactive)
ROOT
HETATM    1  C1  UNL     1     -32.266   7.499   2.132  1.00 20.00     0.086 C 
HETATM    2  C2  UNL     1     -33.051   5.384   3.159  1.00 20.00     0.056 C 
HETATM    3  C3  UNL     1     -34.654   7.172   2.678  1.00 20.00     0.115 C 
HETATM    4  C4  UNL     1     -34.281   4.756   3.824  1.00 20.00     0.046 C 
HETATM    5  C5  UNL     1     -33.209   6.908   3.093  1.00 20.00     0.135 C 
HETATM    6  C6  UNL     1     -34.119   4.482   5.313  1.00 20.00     0.021 C 
HETATM    7  N7  UNL     1     -31.522   7.965   1.373  1.00 20.00    -0.195 NA
HETATM    8  S8  UNL     1     -35.654   5.916   3.525  1.00 20.00    -0.162 SA
HETATM    9 CL9  UNL     1     -32.849   7.678   4.672  1.00 20.00    -0.102 Cl
ENDROOT
TORSDOF 0
