REMARK  0 active torsions:
REMARK  status: ('A' for Active; 'I' for Inactive)
ROOT
HETATM    1  C1  UNL     1     -33.808   4.819   4.324  1.00 20.00     0.086 C 
HETATM    2  C2  UNL     1     -32.397   7.687   2.181  1.00 20.00     0.013 C 
HETATM    3  C3  UNL     1     -32.678   6.287   2.725  1.00 20.00     0.043 C 
HETATM    4  C4  UNL     1     -31.843   8.632   3.236  1.00 20.00     0.074 C 
HETATM    5  C5  UNL     1     -33.270   7.126   5.079  1.00 20.00     0.081 C 
HETATM    6  C6  UNL     1     -33.693   6.227   3.886  1.00 20.00     0.137 C 
HETATM    7  C7  UNL     1     -34.243   7.120   6.266  1.00 20.00     0.024 C 
HETATM    8  N8  UNL     1     -33.898   3.714   4.667  1.00 20.00    -0.195 NA
HETATM    9  S9  UNL     1     -33.017   8.878   4.593  1.00 20.00    -0.162 SA
HETATM   10 CL10 UNL     1     -35.330   6.665   3.268  1.00 20.00    -0.102 Cl
ENDROOT
TORSDOF 0
