REMARK  1 active torsions:
REMARK  status: ('A' for Active; 'I' for Inactive)
REMARK    1  A    between atoms: C4_4  and  C11_11 
ROOT
HETATM    1  C1  UNL     1     -32.057   8.500   3.317  1.00 20.00     0.008 A 
HETATM    2  C2  UNL     1     -32.122   7.755   4.496  1.00 20.00     0.008 A 
HETATM    3  C3  UNL     1     -34.192   7.598   2.575  1.00 20.00     0.016 A 
HETATM    4  C4  UNL     1     -33.085   8.423   2.364  1.00 20.00    -0.053 A 
HETATM    5  C5  UNL     1     -33.228   6.950   4.704  1.00 20.00    -0.050 A 
HETATM    6  C6  UNL     1     -34.252   6.866   3.750  1.00 20.00    -0.033 A 
HETATM    7  C7  UNL     1     -33.503   6.045   5.864  1.00 20.00     0.041 C 
HETATM    8  C8  UNL     1     -35.012   5.801   5.694  1.00 20.00     0.030 C 
HETATM    9  C12 UNL     1     -35.312   5.902   4.187  1.00 20.00     0.116 C 
HETATM   10 CL13 UNL     1     -35.091   4.338   3.376  1.00 20.00    -0.120 Cl
ENDROOT
BRANCH   4  11
HETATM   11  C11 UNL     1     -32.991   9.226   1.111  1.00 20.00     0.018 A 
HETATM   12  C9  UNL     1     -31.639   9.455   0.488  1.00 20.00     0.010 A 
HETATM   13  C10 UNL     1     -32.349  10.588   1.160  1.00 20.00     0.010 A 
ENDBRANCH   4  11
TORSDOF 1
