REMARK  5 active torsions:
REMARK  status: ('A' for Active; 'I' for Inactive)
REMARK    1  A    between atoms: C1_1  and  C7_7 
REMARK    2  A    between atoms: C2_2  and  C8_8 
REMARK    3  A    between atoms: C5_5  and  N9_9 
REMARK    4  A    between atoms: C7_7  and  N9_9 
REMARK    5  A    between atoms: C8_8  and  S10_10 
ROOT
HETATM    1  C7  UNL     1     -32.641   7.813   4.754  1.00 20.00     0.299 C 
ENDROOT
BRANCH   1   2
HETATM    2  C1  UNL     1     -32.262   7.813   3.304  1.00 20.00    -0.000 C 
HETATM    3  C2  UNL     1     -32.479   8.847   2.477  1.00 20.00    -0.019 C 
BRANCH   3   4
HETATM    4  C8  UNL     1     -32.096   8.845   1.031  1.00 20.00     0.097 C 
BRANCH   4   5
HETATM    5  S10 UNL     1     -33.219   9.910   0.086  1.00 20.00    -0.178 SA
HETATM    6  H25 UNL     1     -32.643   9.706  -1.106  1.00 20.00     0.101 HD
ENDBRANCH   4   5
ENDBRANCH   3   4
ENDBRANCH   1   2
BRANCH   1   7
HETATM    7  N9  UNL     1     -33.607   6.762   5.057  1.00 20.00     0.092 N 
HETATM    8  C6  UNL     1     -34.269   7.024   6.335  1.00 20.00     0.310 C 
BRANCH   7   9
HETATM    9  C5  UNL     1     -34.597   6.649   3.985  1.00 20.00     0.223 A 
HETATM   10  C3  UNL     1     -34.248   5.956   2.697  1.00 20.00     0.038 A 
HETATM   11  C4  UNL     1     -35.215   5.319   3.652  1.00 20.00     0.038 A 
ENDBRANCH   7   9
ENDBRANCH   1   7
TORSDOF 5
