REMARK  1 active torsions:
REMARK  status: ('A' for Active; 'I' for Inactive)
REMARK    1  A    between atoms: C5_5  and  C12_12 
ROOT
HETATM    1  C1  UNL     1     -31.746   8.768   3.374  1.00 20.00     0.008 A 
HETATM    2  C2  UNL     1     -32.000   8.380   4.694  1.00 20.00     0.009 A 
HETATM    3  C3  UNL     1     -33.601   7.416   2.568  1.00 20.00     0.023 A 
HETATM    4  C4  UNL     1     -33.826   7.052   3.883  1.00 20.00     0.017 A 
HETATM    5  C5  UNL     1     -32.541   8.288   2.319  1.00 20.00    -0.053 A 
HETATM    6  C6  UNL     1     -33.052   7.514   4.940  1.00 20.00    -0.044 A 
HETATM    7  C7  UNL     1     -34.848   6.169   4.420  1.00 20.00     0.160 A 
HETATM    8  C8  UNL     1     -33.495   6.976   6.262  1.00 20.00     0.047 A 
HETATM    9  C9  UNL     1     -34.695   6.075   5.919  1.00 20.00     0.088 A 
HETATM   10  O13 UNL     1     -35.688   5.602   3.745  1.00 20.00    -0.292 OA
ENDROOT
BRANCH   5  11
HETATM   11  C12 UNL     1     -32.249   8.717   0.921  1.00 20.00     0.018 A 
HETATM   12  C10 UNL     1     -32.201  10.188   0.601  1.00 20.00     0.010 A 
HETATM   13  C11 UNL     1     -33.343   9.356   0.106  1.00 20.00     0.010 A 
ENDBRANCH   5  11
TORSDOF 1
