REMARK  5 active torsions:
REMARK  status: ('A' for Active; 'I' for Inactive)
REMARK    1  A    between atoms: C3_3  and  C6_6 
REMARK    2  A    between atoms: C4_4  and  C6_6 
REMARK    3  A    between atoms: C4_4  and  O7_7 
REMARK    4  A    between atoms: C5_5  and  C6_6 
REMARK    5  A    between atoms: C5_5  and  S8_8 
ROOT
HETATM    1  C6  UNL     1     -32.544   6.927   3.654  1.00 20.00     0.018 C 
ENDROOT
BRANCH   1   2
HETATM    2  C3  UNL     1     -33.009   7.797   4.840  1.00 20.00     0.003 C 
HETATM    3  C1  UNL     1     -33.539   6.995   6.020  1.00 20.00     0.005 C 
ENDBRANCH   1   2
BRANCH   1   4
HETATM    4  C4  UNL     1     -31.920   7.827   2.573  1.00 20.00     0.172 C 
BRANCH   4   5
HETATM    5  O7  UNL     1     -32.881   8.757   2.091  1.00 20.00    -0.396 OA
HETATM    6  C2  UNL     1     -32.352   9.558   1.043  1.00 20.00     0.201 C 
ENDBRANCH   4   5
ENDBRANCH   1   4
BRANCH   1   7
HETATM    7  C5  UNL     1     -33.622   5.973   3.096  1.00 20.00     0.077 C 
BRANCH   7   8
HETATM    8  S8  UNL     1     -33.902   4.459   4.067  1.00 20.00    -0.182 SA
HETATM    9  H22 UNL     1     -34.856   3.960   3.270  1.00 20.00     0.101 HD
ENDBRANCH   7   8
ENDBRANCH   1   7
TORSDOF 5
