REMARK  5 active torsions:
REMARK  status: ('A' for Active; 'I' for Inactive)
REMARK    1  A    between atoms: C5_5  and  C8_8 
REMARK    2  A    between atoms: C5_5  and  N9_9 
REMARK    3  A    between atoms: C6_6  and  C8_8 
REMARK    4  A    between atoms: C6_6  and  S10_10 
REMARK    5  A    between atoms: C7_7  and  C8_8 
ROOT
HETATM    1  C8  UNL     1     -32.376   6.843   3.350  1.00 20.00     0.024 C 
ENDROOT
BRANCH   1   2
HETATM    2  C5  UNL     1     -32.661   8.317   2.986  1.00 20.00     0.239 C 
BRANCH   2   3
HETATM    3  N9  UNL     1     -32.747   8.514   1.520  1.00 20.00    -0.078 N 
HETATM    4  C3  UNL     1     -33.033   9.947   1.140  1.00 20.00     0.269 C 
HETATM    5  C4  UNL     1     -31.534   7.989   0.790  1.00 20.00     0.269 C 
HETATM    6  H29 UNL     1     -33.550   7.961   1.171  1.00 20.00     0.278 HD
ENDBRANCH   2   3
ENDBRANCH   1   2
BRANCH   1   7
HETATM    7  C6  UNL     1     -32.281   6.597   4.878  1.00 20.00     0.077 C 
BRANCH   7   8
HETATM    8  S10 UNL     1     -33.532   7.468   5.876  1.00 20.00    -0.182 SA
HETATM    9  H30 UNL     1     -33.110   7.002   7.058  1.00 20.00     0.101 HD
ENDBRANCH   7   8
ENDBRANCH   1   7
BRANCH   1  10
HETATM   10  C7  UNL     1     -33.402   5.845   2.710  1.00 20.00    -0.016 C 
HETATM   11  C1  UNL     1     -34.833   6.059   3.223  1.00 20.00     0.010 C 
HETATM   12  C2  UNL     1     -33.020   4.378   2.960  1.00 20.00     0.010 C 
ENDBRANCH   1  10
TORSDOF 5
