REMARK  2 active torsions:
REMARK  status: ('A' for Active; 'I' for Inactive)
REMARK    1  A    between atoms: C5_5  and  C10_10 
REMARK    2  A    between atoms: C6_6  and  C11_11 
ROOT
HETATM    1  C1  UNL     1     -33.436   8.471   3.557  1.00 20.00     0.008 A 
HETATM    2  C2  UNL     1     -33.031   6.909   1.759  1.00 20.00     0.008 A 
HETATM    3  C3  UNL     1     -34.092   7.473   4.277  1.00 20.00     0.010 A 
HETATM    4  C4  UNL     1     -33.687   5.910   2.479  1.00 20.00     0.010 A 
HETATM    5  C5  UNL     1     -32.906   8.189   2.298  1.00 20.00    -0.054 A 
HETATM    6  C6  UNL     1     -34.218   6.193   3.738  1.00 20.00    -0.027 A 
ENDROOT
BRANCH   5   7
HETATM    7  C10 UNL     1     -32.205   9.256   1.529  1.00 20.00     0.018 A 
HETATM    8  C7  UNL     1     -32.924  10.550   1.248  1.00 20.00     0.010 A 
HETATM    9  C8  UNL     1     -32.673   9.583   0.134  1.00 20.00     0.010 A 
ENDBRANCH   5   7
BRANCH   6  10
HETATM   10  C11 UNL     1     -34.919   5.126   4.507  1.00 20.00     0.178 A 
HETATM   11  C9  UNL     1     -34.179   3.867   4.874  1.00 20.00     0.205 A 
HETATM   12  O12 UNL     1     -34.450   4.884   5.841  1.00 20.00    -0.376 OA
ENDBRANCH   6  10
TORSDOF 2
