REMARK  6 active torsions:
REMARK  status: ('A' for Active; 'I' for Inactive)
REMARK    1  A    between atoms: C4_4  and  C5_5 
REMARK    2  A    between atoms: C5_5  and  S10_10 
REMARK    3  A    between atoms: C6_6  and  C8_8 
REMARK    4  A    between atoms: C6_6  and  S9_9 
REMARK    5  A    between atoms: C7_7  and  C8_8 
REMARK    6  A    between atoms: C7_7  and  S10_10 
ROOT
HETATM    1  C2  UNL     1     -33.755   3.937   3.487  1.00 20.00     0.016 C 
HETATM    2  C3  UNL     1     -34.524   5.528   1.737  1.00 20.00     0.016 C 
HETATM    3  C8  UNL     1     -33.893   5.439   3.146  1.00 20.00    -0.031 C 
ENDROOT
BRANCH   3   4
HETATM    4  C6  UNL     1     -34.842   6.076   4.200  1.00 20.00     0.080 C 
BRANCH   4   5
HETATM    5  S9  UNL     1     -34.322   5.932   5.941  1.00 20.00    -0.181 SA
HETATM    6  H28 UNL     1     -35.377   6.581   6.450  1.00 20.00     0.101 HD
ENDBRANCH   4   5
ENDBRANCH   3   4
BRANCH   3   7
HETATM    7  C7  UNL     1     -32.489   6.103   3.075  1.00 20.00     0.083 C 
BRANCH   7   8
HETATM    8  S10 UNL     1     -32.443   7.912   3.301  1.00 20.00    -0.168 SA
BRANCH   8   9
HETATM    9  C5  UNL     1     -32.826   8.391   1.602  1.00 20.00     0.073 C 
BRANCH   9  10
HETATM   10  C4  UNL     1     -32.388   9.827   1.340  1.00 20.00     0.006 C 
HETATM   11  C1  UNL     1     -32.701  10.244  -0.090  1.00 20.00     0.006 C 
ENDBRANCH   9  10
ENDBRANCH   8   9
ENDBRANCH   7   8
ENDBRANCH   3   7
TORSDOF 6
