REMARK  3 active torsions:
REMARK  status: ('A' for Active; 'I' for Inactive)
REMARK    1  A    between atoms: C4_4  and  C7_7 
REMARK    2  A    between atoms: C4_4  and  C9_9 
REMARK    3  A    between atoms: C8_8  and  C9_9 
ROOT
HETATM    1  C1  UNL     1     -33.381   4.852   2.444  1.00 20.00     0.002 C 
HETATM    2  C2  UNL     1     -34.218   6.103   2.772  1.00 20.00     0.011 C 
HETATM    3  C3  UNL     1     -32.337   5.346   3.465  1.00 20.00     0.011 C 
HETATM    4  C4  UNL     1     -32.917   6.781   3.293  1.00 20.00    -0.025 C 
ENDROOT
BRANCH   4   5
HETATM    5  C7  UNL     1     -33.094   7.540   4.603  1.00 20.00     0.124 C 
HETATM    6 CL10 UNL     1     -34.163   6.639   5.693  1.00 20.00    -0.130 Cl
ENDBRANCH   4   5
BRANCH   4   7
HETATM    7  C9  UNL     1     -32.191   7.629   2.248  1.00 20.00    -0.010 C 
HETATM    8  C6  UNL     1     -30.899   8.193   2.845  1.00 20.00     0.011 C 
BRANCH   7   9
HETATM    9  C8  UNL     1     -33.062   8.781   1.717  1.00 20.00     0.000 C 
HETATM   10  C5  UNL     1     -32.365   9.640   0.672  1.00 20.00     0.005 C 
ENDBRANCH   7   9
ENDBRANCH   4   7
TORSDOF 3
