REMARK  3 active torsions:
REMARK  status: ('A' for Active; 'I' for Inactive)
REMARK    1  A    between atoms: C4_4  and  C10_10 
REMARK    2  A    between atoms: C8_8  and  C10_10 
REMARK    3  A    between atoms: C9_9  and  C10_10 
ROOT
HETATM    1  C1  UNL     1     -32.191   6.650   3.151  1.00 20.00     0.006 C 
HETATM    2  C2  UNL     1     -31.679   8.029   2.760  1.00 20.00     0.020 C 
HETATM    3  C3  UNL     1     -34.076   8.111   2.582  1.00 20.00     0.025 C 
HETATM    4  C4  UNL     1     -33.689   6.865   3.400  1.00 20.00    -0.009 C 
HETATM    5  C5  UNL     1     -32.797   8.538   1.865  1.00 20.00     0.082 C 
HETATM    6 CL11 UNL     1     -32.712  10.287   1.610  1.00 20.00    -0.125 Cl
ENDROOT
BRANCH   4   7
HETATM    7  C10 UNL     1     -34.518   5.639   3.046  1.00 20.00    -0.011 C 
BRANCH   7   8
HETATM    8  C8  UNL     1     -36.023   5.886   3.278  1.00 20.00     0.000 C 
HETATM    9  C6  UNL     1     -36.905   4.700   2.914  1.00 20.00     0.005 C 
ENDBRANCH   7   8
BRANCH   7  10
HETATM   10  C9  UNL     1     -34.079   4.404   3.860  1.00 20.00     0.000 C 
HETATM   11  C7  UNL     1     -34.237   4.570   5.365  1.00 20.00     0.005 C 
ENDBRANCH   7  10
ENDBRANCH   4   7
TORSDOF 3
