REMARK  4 active torsions:
REMARK  status: ('A' for Active; 'I' for Inactive)
REMARK    1  A    between atoms: C5_5  and  C8_8 
REMARK    2  A    between atoms: C6_6  and  C8_8 
REMARK    3  A    between atoms: C7_7  and  C8_8 
REMARK    4  A    between atoms: C7_7  and  S10_10 
ROOT
HETATM    1  C1  UNL     1     -32.382   8.146   3.650  1.00 20.00     0.074 C 
HETATM    2  C7  UNL     1     -33.349   7.947   2.552  1.00 20.00     0.157 C 
HETATM    3  N9  UNL     1     -31.628   8.303   4.518  1.00 20.00    -0.196 NA
ENDROOT
BRANCH   2   4
HETATM    4  C8  UNL     1     -33.700   6.440   2.367  1.00 20.00     0.012 C 
BRANCH   4   5
HETATM    5  C5  UNL     1     -34.803   5.956   3.347  1.00 20.00     0.002 C 
HETATM    6  C2  UNL     1     -34.394   6.037   4.814  1.00 20.00     0.005 C 
ENDBRANCH   4   5
BRANCH   4   7
HETATM    7  C6  UNL     1     -32.462   5.509   2.447  1.00 20.00     0.002 C 
HETATM    8  C3  UNL     1     -32.765   4.037   2.195  1.00 20.00     0.005 C 
ENDBRANCH   4   7
ENDBRANCH   2   4
BRANCH   2   9
HETATM    9  S10 UNL     1     -32.757   8.771   1.026  1.00 20.00    -0.154 SA
HETATM   10  C4  UNL     1     -33.262  10.453   1.443  1.00 20.00     0.091 C 
ENDBRANCH   2   9
TORSDOF 4
