REMARK  4 active torsions:
REMARK  status: ('A' for Active; 'I' for Inactive)
REMARK    1  A    between atoms: C5_5  and  C6_6 
REMARK    2  A    between atoms: C6_6  and  C9_9 
REMARK    3  A    between atoms: C7_7  and  C9_9 
REMARK    4  A    between atoms: C8_8  and  C9_9 
ROOT
HETATM    1  C4  UNL     1     -34.874   6.918   3.141  1.00 20.00     0.016 C 
HETATM    2  C9  UNL     1     -33.379   6.627   3.456  1.00 20.00    -0.029 C 
ENDROOT
BRANCH   2   3
HETATM    3  C6  UNL     1     -32.583   7.169   2.219  1.00 20.00     0.010 C 
BRANCH   3   4
HETATM    4  C5  UNL     1     -32.760   8.644   1.845  1.00 20.00    -0.004 C 
HETATM    5  C1  UNL     1     -31.986   8.984   0.578  1.00 20.00     0.005 C 
ENDBRANCH   3   4
ENDBRANCH   2   3
BRANCH   2   6
HETATM    6  C7  UNL     1     -33.054   7.461   4.734  1.00 20.00     0.124 C 
HETATM    7 CL10 UNL     1     -34.035   7.092   6.173  1.00 20.00    -0.130 Cl
ENDBRANCH   2   6
BRANCH   2   8
HETATM    8  C8  UNL     1     -33.156   5.081   3.682  1.00 20.00    -0.014 C 
HETATM    9  C2  UNL     1     -32.757   4.317   2.409  1.00 20.00     0.010 C 
HETATM   10  C3  UNL     1     -34.359   4.360   4.312  1.00 20.00     0.010 C 
ENDBRANCH   2   8
TORSDOF 4
