REMARK  2 active torsions:
REMARK  status: ('A' for Active; 'I' for Inactive)
REMARK    1  A    between atoms: C3_3  and  C8_8 
REMARK    2  A    between atoms: C8_8  and  C9_9 
ROOT
HETATM    1  C1  UNL     1     -32.387   8.271   4.328  1.00 20.00     0.302 C 
HETATM    2  C2  UNL     1     -33.673   6.374   5.194  1.00 20.00     0.244 C 
HETATM    3  C3  UNL     1     -32.511   7.465   3.037  1.00 20.00     0.150 C 
HETATM    4  C4  UNL     1     -34.600   6.774   4.030  1.00 20.00     0.150 C 
HETATM    5  C5  UNL     1     -34.420   6.027   6.479  1.00 20.00     0.045 C 
HETATM    6  C6  UNL     1     -35.634   5.708   3.684  1.00 20.00     0.042 C 
HETATM    7  N10 UNL     1     -32.738   7.471   5.502  1.00 20.00     0.092 N 
HETATM    8  O11 UNL     1     -33.855   7.020   2.827  1.00 20.00    -0.377 OA
HETATM    9  H30 UNL     1     -31.876   7.081   5.915  1.00 20.00     0.316 HD
ENDROOT
BRANCH   3  10
HETATM   10  C8  UNL     1     -32.107   8.292   1.825  1.00 20.00     0.033 C 
BRANCH  10  11
HETATM   11  C9  UNL     1     -33.013   9.508   1.659  1.00 20.00    -0.002 C 
HETATM   12  C7  UNL     1     -32.593  10.348   0.464  1.00 20.00     0.005 C 
ENDBRANCH  10  11
ENDBRANCH   3  10
TORSDOF 2
