REMARK  2 active torsions:
REMARK  status: ('A' for Active; 'I' for Inactive)
REMARK    1  A    between atoms: C4_4  and  C7_7 
REMARK    2  A    between atoms: C4_4  and  C8_8 
ROOT
HETATM    1  C1  UNL     1     -32.559   6.087   2.402  1.00 20.00     0.039 C 
HETATM    2  C2  UNL     1     -33.450   5.286   3.332  1.00 20.00     0.168 C 
HETATM    3  C3  UNL     1     -34.472   7.342   2.923  1.00 20.00     0.178 C 
HETATM    4  C4  UNL     1     -32.977   7.524   2.677  1.00 20.00    -0.001 C 
HETATM    5  O9  UNL     1     -34.635   6.063   3.555  1.00 20.00    -0.390 OA
ENDROOT
BRANCH   4   6
HETATM    6  C7  UNL     1     -32.280   8.071   3.934  1.00 20.00     0.126 C 
HETATM    7 CL10 UNL     1     -33.118   7.505   5.389  1.00 20.00    -0.130 Cl
ENDBRANCH   4   6
BRANCH   4   8
HETATM    8  C8  UNL     1     -32.695   8.451   1.495  1.00 20.00    -0.011 C 
HETATM    9  C5  UNL     1     -33.164   9.866   1.812  1.00 20.00     0.010 C 
HETATM   10  C6  UNL     1     -31.211   8.432   1.154  1.00 20.00     0.010 C 
ENDBRANCH   4   8
TORSDOF 2
