REMARK  5 active torsions:
REMARK  status: ('A' for Active; 'I' for Inactive)
REMARK    1  A    between atoms: C1_1  and  C7_7 
REMARK    2  A    between atoms: C1_1  and  C11_11 
REMARK    3  A    between atoms: C7_7  and  C10_10 
REMARK    4  A    between atoms: C8_8  and  C10_10 
REMARK    5  A    between atoms: C9_9  and  C10_10 
ROOT
HETATM    1  C1  UNL     1     -33.416   5.991   2.896  1.00 20.00     0.134 C 
HETATM    2  O12 UNL     1     -32.358   5.414   2.634  1.00 20.00    -0.297 OA
ENDROOT
BRANCH   1   3
HETATM    3  C7  UNL     1     -33.883   7.187   2.068  1.00 20.00     0.083 C 
BRANCH   3   4
HETATM    4  C10 UNL     1     -32.726   7.990   1.436  1.00 20.00    -0.008 C 
BRANCH   4   5
HETATM    5  C8  UNL     1     -32.027   8.867   2.499  1.00 20.00     0.000 C 
HETATM    6  C2  UNL     1     -31.471   8.113   3.699  1.00 20.00     0.005 C 
ENDBRANCH   4   5
BRANCH   4   7
HETATM    7  C9  UNL     1     -33.231   8.784   0.211  1.00 20.00     0.000 C 
HETATM    8  C3  UNL     1     -32.139   9.567  -0.504  1.00 20.00     0.005 C 
ENDBRANCH   4   7
ENDBRANCH   3   4
ENDBRANCH   1   3
BRANCH   1   9
HETATM    9  C11 UNL     1     -34.304   5.537   4.074  1.00 20.00     0.009 C 
HETATM   10  C4  UNL     1     -35.767   5.860   3.748  1.00 20.00     0.022 C 
HETATM   11  C5  UNL     1     -34.162   4.016   4.268  1.00 20.00     0.022 C 
HETATM   12  C6  UNL     1     -33.879   6.233   5.373  1.00 20.00     0.022 C 
ENDBRANCH   1   9
TORSDOF 5
