REMARK  4 active torsions:
REMARK  status: ('A' for Active; 'I' for Inactive)
REMARK    1  A    between atoms: C1_1  and  C9_9 
REMARK    2  A    between atoms: C1_1  and  C10_10 
REMARK    3  A    between atoms: C7_7  and  C9_9 
REMARK    4  A    between atoms: C8_8  and  C9_9 
ROOT
HETATM    1  C1  UNL     1     -32.934   7.629   2.752  1.00 20.00     0.138 C 
HETATM    2  O11 UNL     1     -32.326   6.605   2.427  1.00 20.00    -0.297 OA
ENDROOT
BRANCH   1   3
HETATM    3  C9  UNL     1     -33.935   7.588   3.916  1.00 20.00     0.055 C 
BRANCH   3   4
HETATM    4  C7  UNL     1     -35.046   6.585   3.553  1.00 20.00     0.007 C 
HETATM    5  C2  UNL     1     -34.534   5.166   3.351  1.00 20.00     0.006 C 
ENDBRANCH   3   4
BRANCH   3   6
HETATM    6  C8  UNL     1     -33.227   7.198   5.228  1.00 20.00     0.007 C 
HETATM    7  C3  UNL     1     -34.168   7.149   6.424  1.00 20.00     0.006 C 
ENDBRANCH   3   6
ENDBRANCH   1   3
BRANCH   1   8
HETATM    8  C10 UNL     1     -32.722   8.963   1.998  1.00 20.00     0.010 C 
HETATM    9  C4  UNL     1     -32.217  10.051   2.955  1.00 20.00     0.022 C 
HETATM   10  C5  UNL     1     -31.723   8.762   0.851  1.00 20.00     0.022 C 
HETATM   11  C6  UNL     1     -34.062   9.430   1.400  1.00 20.00     0.022 C 
ENDBRANCH   1   8
TORSDOF 4
