REMARK  3 active torsions:
REMARK  status: ('A' for Active; 'I' for Inactive)
REMARK    1  A    between atoms: C5_5  and  C6_6 
REMARK    2  A    between atoms: C6_6  and  C7_7 
REMARK    3  A    between atoms: C7_7  and  C8_8 
ROOT
HETATM    1  C1  UNL     1     -34.266   6.461   5.625  1.00 20.00     0.012 C 
HETATM    2  C2  UNL     1     -33.733   6.171   4.590  1.00 20.00    -0.117 C 
HETATM    3  C5  UNL     1     -33.077   5.812   3.323  1.00 20.00     0.093 C 
ENDROOT
BRANCH   3   4
HETATM    4  C6  UNL     1     -33.473   6.782   2.206  1.00 20.00     0.018 C 
BRANCH   4   5
HETATM    5  C7  UNL     1     -33.015   8.239   2.463  1.00 20.00     0.000 C 
HETATM    6  C3  UNL     1     -31.637   8.285   3.136  1.00 20.00     0.011 C 
BRANCH   5   7
HETATM    7  C8  UNL     1     -33.092   9.064   1.151  1.00 20.00     0.082 C 
HETATM    8  C4  UNL     1     -33.291  10.559   1.387  1.00 20.00     0.027 C 
HETATM    9 CL9  UNL     1     -31.649   8.828   0.115  1.00 20.00    -0.125 Cl
ENDBRANCH   5   7
ENDBRANCH   4   5
ENDBRANCH   3   4
TORSDOF 3
