REMARK  3 active torsions:
REMARK  status: ('A' for Active; 'I' for Inactive)
REMARK    1  A    between atoms: C6_6  and  C10_10 
REMARK    2  A    between atoms: C6_6  and  C11_11 
REMARK    3  A    between atoms: C9_9  and  N12_12 
ROOT
HETATM    1  C1  UNL     1     -32.064   9.485   0.327  1.00 20.00     0.013 C 
HETATM    2  C2  UNL     1     -32.168   8.926   1.385  1.00 20.00    -0.087 C 
HETATM    3  C9  UNL     1     -32.292   8.247   2.677  1.00 20.00     0.364 C 
ENDROOT
BRANCH   3   4
HETATM    4  N12 UNL     1     -33.405   7.311   2.661  1.00 20.00     0.100 N 
HETATM    5  C4  UNL     1     -33.253   6.274   1.639  1.00 20.00     0.274 C 
HETATM    6  C3  UNL     1     -34.159   5.133   2.106  1.00 20.00     0.041 C 
HETATM    7  C6  UNL     1     -34.554   5.485   3.553  1.00 20.00    -0.013 C 
HETATM    8  C5  UNL     1     -33.550   6.585   3.924  1.00 20.00     0.283 C 
BRANCH   7   9
HETATM    9  C10 UNL     1     -34.437   4.281   4.490  1.00 20.00     0.007 C 
HETATM   10  C7  UNL     1     -34.822   4.642   5.882  1.00 20.00     0.006 C 
ENDBRANCH   7   9
BRANCH   7  11
HETATM   11  C11 UNL     1     -35.998   6.020   3.594  1.00 20.00     0.007 C 
HETATM   12  C8  UNL     1     -36.971   5.011   3.082  1.00 20.00     0.006 C 
ENDBRANCH   7  11
ENDBRANCH   3   4
TORSDOF 3
