REMARK  2 active torsions:
REMARK  status: ('A' for Active; 'I' for Inactive)
REMARK    1  A    between atoms: C1_1  and  C6_6 
REMARK    2  A    between atoms: C1_1  and  C9_9 
ROOT
HETATM    1  C2  UNL     1     -33.391   5.200   5.211  1.00 20.00     0.005 C 
HETATM    2  C3  UNL     1     -34.032   6.594   5.261  1.00 20.00     0.006 C 
HETATM    3  C4  UNL     1     -33.033   5.418   2.743  1.00 20.00     0.017 C 
HETATM    4  C5  UNL     1     -35.220   5.280   3.688  1.00 20.00     0.010 C 
HETATM    5  C6  UNL     1     -33.677   6.814   2.748  1.00 20.00     0.061 C 
HETATM    6  C7  UNL     1     -33.825   4.672   3.834  1.00 20.00    -0.013 C 
HETATM    7  C8  UNL     1     -34.715   6.713   3.885  1.00 20.00    -0.003 C 
ENDROOT
BRANCH   5   8
HETATM    8  C1  UNL     1     -32.689   7.922   2.932  1.00 20.00     0.145 C 
HETATM    9  O10 UNL     1     -31.981   7.970   3.937  1.00 20.00    -0.296 OA
BRANCH   8  10
HETATM   10  C9  UNL     1     -32.636   8.945   1.820  1.00 20.00     0.193 C 
HETATM   11 CL11 UNL     1     -31.448   8.477   0.595  1.00 20.00    -0.123 Cl
ENDBRANCH   8  10
ENDBRANCH   5   8
TORSDOF 2
