REMARK  2 active torsions:
REMARK  status: ('A' for Active; 'I' for Inactive)
REMARK    1  A    between atoms: C5_5  and  C7_7 
REMARK    2  A    between atoms: C7_7  and  N8_8 
ROOT
HETATM    1  C1  UNL     1     -32.187   8.127   2.066  1.00 20.00     0.332 C 
HETATM    2  N8  UNL     1     -32.307   7.619   3.121  1.00 20.00    -0.245 NA
HETATM    3  O9  UNL     1     -32.067   8.637   1.013  1.00 20.00    -0.260 OA
ENDROOT
BRANCH   2   4
HETATM    4  C7  UNL     1     -32.500   6.175   3.082  1.00 20.00     0.190 C 
BRANCH   4   5
HETATM    5  C5  UNL     1     -33.844   5.850   3.728  1.00 20.00     0.075 C 
HETATM    6  C3  UNL     1     -34.126   4.347   3.734  1.00 20.00     0.041 C 
HETATM    7  C2  UNL     1     -34.900   4.162   5.016  1.00 20.00     0.029 C 
HETATM    8  C4  UNL     1     -34.230   5.161   5.932  1.00 20.00     0.169 C 
HETATM    9  O10 UNL     1     -33.801   6.256   5.110  1.00 20.00    -0.379 OA
HETATM   10  C6  UNL     1     -34.964   6.639   3.045  1.00 20.00     0.048 C 
ENDBRANCH   4   5
ENDBRANCH   2   4
TORSDOF 2
