REMARK  3 active torsions:
REMARK  status: ('A' for Active; 'I' for Inactive)
REMARK    1  A    between atoms: C1_1  and  C5_5 
REMARK    2  A    between atoms: C1_1  and  C8_8 
REMARK    3  A    between atoms: C8_8  and  C9_9 
ROOT
HETATM    1  C2  UNL     1     -34.223   4.360   4.076  1.00 20.00     0.029 C 
HETATM    2  C3  UNL     1     -33.414   5.121   3.054  1.00 20.00     0.048 C 
HETATM    3  C4  UNL     1     -34.305   5.351   5.212  1.00 20.00     0.169 C 
HETATM    4  C5  UNL     1     -33.866   6.562   3.269  1.00 20.00     0.117 C 
HETATM    5  C6  UNL     1     -34.953   7.002   2.298  1.00 20.00     0.054 C 
HETATM    6  O11 UNL     1     -34.384   6.647   4.605  1.00 20.00    -0.373 OA
ENDROOT
BRANCH   4   7
HETATM    7  C1  UNL     1     -32.701   7.503   3.214  1.00 20.00     0.160 C 
HETATM    8  O10 UNL     1     -32.069   7.790   4.230  1.00 20.00    -0.295 OA
BRANCH   7   9
HETATM    9  C8  UNL     1     -32.361   8.067   1.845  1.00 20.00     0.081 C 
BRANCH   9  10
HETATM   10  C9  UNL     1     -33.070   9.389   1.565  1.00 20.00     0.003 C 
HETATM   11  C7  UNL     1     -32.688   9.948   0.204  1.00 20.00     0.005 C 
ENDBRANCH   9  10
ENDBRANCH   7   9
ENDBRANCH   4   7
TORSDOF 3
