REMARK  1 active torsions:
REMARK  status: ('A' for Active; 'I' for Inactive)
REMARK    1  A    between atoms: C4_4  and  C6_6 
ROOT
HETATM    1  C1  UNL     1     -34.619   6.151   5.900  1.00 20.00     0.029 C 
HETATM    2  C2  UNL     1     -33.866   6.938   4.855  1.00 20.00     0.041 C 
HETATM    3  C3  UNL     1     -34.167   4.738   5.611  1.00 20.00     0.169 C 
HETATM    4  C4  UNL     1     -33.870   5.991   3.656  1.00 20.00     0.070 C 
HETATM    5  C5  UNL     1     -35.105   6.189   2.773  1.00 20.00     0.047 C 
HETATM    6  O7  UNL     1     -33.929   4.657   4.199  1.00 20.00    -0.379 OA
ENDROOT
BRANCH   4   7
HETATM    7  C6  UNL     1     -32.599   6.122   2.821  1.00 20.00     0.152 C 
HETATM    8 CL8  UNL     1     -32.446   7.774   2.197  1.00 20.00    -0.127 Cl
ENDBRANCH   4   7
TORSDOF 1
