REMARK  1 active torsions:
REMARK  status: ('A' for Active; 'I' for Inactive)
REMARK    1  A    between atoms: C3_3  and  C8_8 
ROOT
HETATM    1  C1  UNL     1     -31.971   7.902   3.195  1.00 20.00     0.017 A 
HETATM    2  C2  UNL     1     -31.545   8.403   1.931  1.00 20.00     0.032 A 
HETATM    3  C3  UNL     1     -33.343   7.809   3.279  1.00 20.00    -0.012 A 
HETATM    4  C4  UNL     1     -32.608   8.673   1.097  1.00 20.00     0.075 A 
HETATM    5  S10 UNL     1     -34.112   8.324   1.838  1.00 20.00    -0.082 SA
HETATM    6 CL11 UNL     1     -32.559   9.285  -0.503  1.00 20.00    -0.076 Cl
ENDROOT
BRANCH   3   7
HETATM    7  C8  UNL     1     -34.183   7.329   4.439  1.00 20.00     0.027 C 
HETATM    8  C5  UNL     1     -33.360   6.940   5.676  1.00 20.00     0.011 C 
HETATM    9  C6  UNL     1     -34.248   5.933   6.394  1.00 20.00     0.021 C 
HETATM   10  C9  UNL     1     -34.843   5.102   5.264  1.00 20.00     0.083 C 
HETATM   11  C7  UNL     1     -35.077   6.107   4.132  1.00 20.00     0.030 C 
HETATM   12 CL12 UNL     1     -33.696   3.831   4.749  1.00 20.00    -0.125 Cl
ENDBRANCH   3   7
TORSDOF 1
