REMARK  3 active torsions:
REMARK  status: ('A' for Active; 'I' for Inactive)
REMARK    1  A    between atoms: C1_1  and  C3_3 
REMARK    2  A    between atoms: C2_2  and  C8_8 
REMARK    3  A    between atoms: C8_8  and  C10_10 
ROOT
HETATM    1  C4  UNL     1     -35.404   4.516   4.851  1.00 20.00     0.002 C 
HETATM    2  C5  UNL     1     -34.289   3.688   4.213  1.00 20.00     0.002 C 
HETATM    3  C6  UNL     1     -35.217   5.945   4.344  1.00 20.00     0.022 C 
HETATM    4  C7  UNL     1     -33.479   4.655   3.351  1.00 20.00     0.022 C 
HETATM    5  C8  UNL     1     -33.736   6.040   3.958  1.00 20.00     0.024 C 
ENDROOT
BRANCH   5   6
HETATM    6  C2  UNL     1     -33.478   7.161   2.953  1.00 20.00    -0.085 C 
HETATM    7  C1  UNL     1     -33.275   8.043   2.163  1.00 20.00     0.005 C 
BRANCH   7   8
HETATM    8  C3  UNL     1     -33.014   9.174   1.150  1.00 20.00     0.258 C 
HETATM    9  O11 UNL     1     -33.818  10.150   1.192  1.00 20.00    -0.637 OA
HETATM   10  O12 UNL     1     -32.024   9.009   0.380  1.00 20.00    -0.637 OA
ENDBRANCH   7   8
ENDBRANCH   5   6
BRANCH   5  11
HETATM   11  C10 UNL     1     -32.893   6.253   5.154  1.00 20.00     0.018 C 
HETATM   12  C9  UNL     1     -33.194   7.559   5.814  1.00 20.00     0.007 C 
ENDBRANCH   5  11
TORSDOF 3
