REMARK  1 active torsions:
REMARK  status: ('A' for Active; 'I' for Inactive)
REMARK    1  A    between atoms: C3_3  and  C8_8 
ROOT
HETATM    1  C1  UNL     1     -32.540   9.102   1.138  1.00 20.00     0.089 C 
HETATM    2  C2  UNL     1     -33.119   7.924   1.682  1.00 20.00     0.113 C 
HETATM    3  C3  UNL     1     -32.627   7.281   2.752  1.00 20.00     0.030 C 
HETATM    4  N10 UNL     1     -32.072  10.064   0.688  1.00 20.00    -0.192 NA
HETATM    5 CL11 UNL     1     -31.204   7.911   3.528  1.00 20.00    -0.087 Cl
ENDROOT
BRANCH   3   6
HETATM    6  C8  UNL     1     -33.179   6.016   3.405  1.00 20.00    -0.005 C 
HETATM    7  C6  UNL     1     -32.884   5.980   4.913  1.00 20.00     0.015 C 
HETATM    8  C4  UNL     1     -34.082   5.258   5.514  1.00 20.00     0.001 C 
HETATM    9  C5  UNL     1     -35.246   5.804   4.708  1.00 20.00     0.001 C 
HETATM   10  C7  UNL     1     -34.712   5.911   3.281  1.00 20.00     0.015 C 
HETATM   11  C9  UNL     1     -32.548   4.822   2.734  1.00 20.00     0.021 C 
ENDBRANCH   3   6
TORSDOF 1
