REMARK  1 active torsions:
REMARK  status: ('A' for Active; 'I' for Inactive)
REMARK    1  A    between atoms: C4_4  and  C5_5 
ROOT
HETATM    1  C1  UNL     1     -35.130   5.619   4.689  1.00 20.00     0.013 A 
HETATM    2  C2  UNL     1     -34.030   4.739   5.211  1.00 20.00     0.013 A 
HETATM    3  C4  UNL     1     -33.692   6.068   4.578  1.00 20.00    -0.011 A 
HETATM    4  C6  UNL     1     -33.255   7.167   5.515  1.00 20.00     0.018 C 
ENDROOT
BRANCH   3   5
HETATM    5  C5  UNL     1     -33.001   6.118   3.209  1.00 20.00     0.086 A 
HETATM    6  C3  UNL     1     -33.162   7.297   2.289  1.00 20.00     0.207 A 
HETATM    7  O8  UNL     1     -31.986   7.119   3.094  1.00 20.00    -0.375 OA
HETATM    8  C7  UNL     1     -32.609   4.800   2.622  1.00 20.00     0.049 C 
ENDBRANCH   3   5
TORSDOF 1
