REMARK  4 active torsions:
REMARK  status: ('A' for Active; 'I' for Inactive)
REMARK    1  A    between atoms: C3_3  and  C10_10 
REMARK    2  A    between atoms: C8_8  and  C9_9 
REMARK    3  A    between atoms: C9_9  and  C10_10 
REMARK    4  A    between atoms: C10_10  and  O11_11 
ROOT
HETATM    1  C7  UNL     1     -32.924   5.452   2.742  1.00 20.00     0.047 C 
HETATM    2  C10 UNL     1     -33.687   6.505   3.520  1.00 20.00     0.065 C 
ENDROOT
BRANCH   2   3
HETATM    3  C3  UNL     1     -33.883   6.039   4.968  1.00 20.00    -0.013 A 
HETATM    4  C1  UNL     1     -32.832   5.135   5.569  1.00 20.00     0.013 A 
HETATM    5  C2  UNL     1     -34.179   4.576   5.207  1.00 20.00     0.013 A 
HETATM    6  C4  UNL     1     -34.543   7.048   5.866  1.00 20.00     0.018 C 
ENDBRANCH   2   3
BRANCH   2   7
HETATM    7  C9  UNL     1     -33.012   7.913   3.407  1.00 20.00     0.016 C 
HETATM    8  C6  UNL     1     -31.665   7.966   4.150  1.00 20.00     0.013 C 
BRANCH   7   9
HETATM    9  C8  UNL     1     -32.852   8.396   1.947  1.00 20.00     0.002 C 
HETATM   10  C5  UNL     1     -32.240   9.787   1.825  1.00 20.00     0.005 C 
ENDBRANCH   7   9
ENDBRANCH   2   7
BRANCH   2  11
HETATM   11  O11 UNL     1     -35.000   6.582   2.943  1.00 20.00    -0.389 OA
HETATM   12  H31 UNL     1     -34.872   6.876   2.031  1.00 20.00     0.210 HD
ENDBRANCH   2  11
TORSDOF 4
