REMARK  3 active torsions:
REMARK  status: ('A' for Active; 'I' for Inactive)
REMARK    1  A    between atoms: C4_4  and  C9_9 
REMARK    2  A    between atoms: C8_8  and  C9_9 
REMARK    3  A    between atoms: C9_9  and  O11_11 
ROOT
HETATM    1  C1  UNL     1     -34.264   5.277   4.925  1.00 20.00     0.066 C 
HETATM    2  C6  UNL     1     -34.125   5.420   2.491  1.00 20.00     0.028 C 
HETATM    3  C8  UNL     1     -33.488   5.873   3.813  1.00 20.00     0.123 C 
HETATM    4  N10 UNL     1     -34.868   4.811   5.799  1.00 20.00    -0.197 NA
ENDROOT
BRANCH   3   5
HETATM    5  C9  UNL     1     -33.383   7.423   3.948  1.00 20.00     0.077 C 
HETATM    6  C7  UNL     1     -34.757   8.065   3.943  1.00 20.00     0.048 C 
BRANCH   5   7
HETATM    7  C4  UNL     1     -32.546   8.038   2.812  1.00 20.00    -0.012 A 
HETATM    8  C2  UNL     1     -32.833   9.467   2.414  1.00 20.00     0.013 A 
HETATM    9  C3  UNL     1     -33.240   8.342   1.505  1.00 20.00     0.013 A 
HETATM   10  C5  UNL     1     -31.119   7.566   2.760  1.00 20.00     0.018 C 
ENDBRANCH   5   7
BRANCH   5  11
HETATM   11  O11 UNL     1     -32.746   7.740   5.190  1.00 20.00    -0.388 OA
HETATM   12  H26 UNL     1     -33.292   7.342   5.883  1.00 20.00     0.210 HD
ENDBRANCH   5  11
ENDBRANCH   3   5
TORSDOF 3
