REMARK  3 active torsions:
REMARK  status: ('A' for Active; 'I' for Inactive)
REMARK    1  A    between atoms: C3_3  and  C6_6 
REMARK    2  A    between atoms: C6_6  and  C7_7 
REMARK    3  A    between atoms: C6_6  and  O8_8 
ROOT
HETATM    1  C5  UNL     1     -34.589   7.875   4.899  1.00 20.00     0.056 C 
HETATM    2  C6  UNL     1     -33.417   7.075   4.365  1.00 20.00     0.158 C 
ENDROOT
BRANCH   2   3
HETATM    3  C3  UNL     1     -32.518   7.924   3.508  1.00 20.00    -0.004 A 
HETATM    4  C1  UNL     1     -33.112   8.564   2.275  1.00 20.00     0.013 A 
HETATM    5  C2  UNL     1     -32.159   7.411   2.133  1.00 20.00     0.013 A 
HETATM    6  C4  UNL     1     -31.473   8.693   4.268  1.00 20.00     0.018 C 
ENDBRANCH   2   3
BRANCH   2   7
HETATM    7  C7  UNL     1     -33.925   5.841   3.608  1.00 20.00     0.418 C 
HETATM    8  F9  UNL     1     -32.892   5.067   3.207  1.00 20.00    -0.168 F 
HETATM    9  F10 UNL     1     -34.637   6.170   2.507  1.00 20.00    -0.168 F 
HETATM   10  F11 UNL     1     -34.719   5.083   4.397  1.00 20.00    -0.168 F 
ENDBRANCH   2   7
BRANCH   2  11
HETATM   11  O8  UNL     1     -32.676   6.601   5.501  1.00 20.00    -0.380 OA
HETATM   12  H22 UNL     1     -32.382   7.391   5.973  1.00 20.00     0.211 HD
ENDBRANCH   2  11
TORSDOF 3
