REMARK  3 active torsions:
REMARK  status: ('A' for Active; 'I' for Inactive)
REMARK    1  A    between atoms: C1_1  and  C10_10 
REMARK    2  A    between atoms: C5_5  and  C10_10 
REMARK    3  A    between atoms: C10_10  and  O11_11 
ROOT
HETATM    1  C9  UNL     1     -31.465   8.701   4.082  1.00 20.00     0.051 C 
HETATM    2  C10 UNL     1     -32.407   7.932   3.184  1.00 20.00     0.079 C 
ENDROOT
BRANCH   2   3
HETATM    3  C1  UNL     1     -33.040   8.802   2.111  1.00 20.00     0.013 C 
HETATM    4  C2  UNL     1     -32.586   9.110   0.879  1.00 20.00    -0.088 C 
HETATM    5  C6  UNL     1     -33.393  10.004  -0.026  1.00 20.00     0.042 C 
HETATM    6  C7  UNL     1     -31.281   8.656   0.290  1.00 20.00     0.042 C 
ENDBRANCH   2   3
BRANCH   2   7
HETATM    7  C5  UNL     1     -33.517   7.281   4.026  1.00 20.00    -0.010 A 
HETATM    8  C3  UNL     1     -34.008   8.024   5.246  1.00 20.00     0.013 A 
HETATM    9  C4  UNL     1     -33.162   6.793   5.411  1.00 20.00     0.013 A 
HETATM   10  C8  UNL     1     -34.518   6.486   3.233  1.00 20.00     0.018 C 
ENDBRANCH   2   7
BRANCH   2  11
HETATM   11  O11 UNL     1     -31.686   6.858   2.570  1.00 20.00    -0.385 OA
HETATM   12  H29 UNL     1     -31.306   6.340   3.294  1.00 20.00     0.211 HD
ENDBRANCH   2  11
TORSDOF 3
