REMARK  3 active torsions:
REMARK  status: ('A' for Active; 'I' for Inactive)
REMARK    1  A    between atoms: C3_3  and  C6_6 
REMARK    2  A    between atoms: C5_5  and  C6_6 
REMARK    3  A    between atoms: C5_5  and  O7_7 
ROOT
HETATM    1  C6  UNL     1     -32.865   6.715   3.364  1.00 20.00     0.110 C 
HETATM    2 CL8  UNL     1     -32.726   7.772   4.819  1.00 20.00    -0.122 Cl
ENDROOT
BRANCH   1   3
HETATM    3  C3  UNL     1     -33.944   5.708   3.566  1.00 20.00     0.006 A 
HETATM    4  C1  UNL     1     -34.179   5.110   4.925  1.00 20.00     0.006 A 
HETATM    5  C2  UNL     1     -35.180   6.069   4.343  1.00 20.00     0.006 A 
ENDBRANCH   1   3
BRANCH   1   6
HETATM    6  C5  UNL     1     -33.104   7.601   2.130  1.00 20.00     0.187 C 
BRANCH   6   7
HETATM    7  O7  UNL     1     -32.037   8.526   1.959  1.00 20.00    -0.394 OA
HETATM    8  C4  UNL     1     -32.212   9.310   0.787  1.00 20.00     0.201 C 
ENDBRANCH   6   7
ENDBRANCH   1   6
TORSDOF 3
