REMARK  3 active torsions:
REMARK  status: ('A' for Active; 'I' for Inactive)
REMARK    1  A    between atoms: C3_3  and  C6_6 
REMARK    2  A    between atoms: C4_4  and  O8_8 
REMARK    3  A    between atoms: C6_6  and  C7_7 
ROOT
HETATM    1  C1  UNL     1     -34.188   7.230   4.272  1.00 20.00     0.036 C 
HETATM    2  C2  UNL     1     -34.110   5.357   3.254  1.00 20.00     0.036 C 
HETATM    3  C3  UNL     1     -33.793   6.812   2.834  1.00 20.00    -0.010 C 
HETATM    4  C4  UNL     1     -35.035   5.939   4.348  1.00 20.00     0.118 C 
ENDROOT
BRANCH   3   5
HETATM    5  C6  UNL     1     -32.367   7.101   2.412  1.00 20.00     0.004 C 
BRANCH   5   6
HETATM    6  C7  UNL     1     -32.062   8.599   2.439  1.00 20.00    -0.004 C 
HETATM    7  C5  UNL     1     -32.953   9.372   1.481  1.00 20.00     0.005 C 
ENDBRANCH   5   6
ENDBRANCH   3   5
BRANCH   4   8
HETATM    8  O8  UNL     1     -35.026   5.257   5.614  1.00 20.00    -0.396 OA
HETATM    9  H22 UNL     1     -35.593   4.483   5.501  1.00 20.00     0.210 HD
ENDBRANCH   4   8
TORSDOF 3
