REMARK  5 active torsions:
REMARK  status: ('A' for Active; 'I' for Inactive)
REMARK    1  A    between atoms: C4_4  and  C5_5 
REMARK    2  A    between atoms: C4_4  and  O8_8 
REMARK    3  A    between atoms: C5_5  and  S9_9 
REMARK    4  A    between atoms: C6_6  and  C7_7 
REMARK    5  A    between atoms: C7_7  and  O8_8 
ROOT
HETATM    1  C3  UNL     1     -34.364   5.409   2.805  1.00 20.00     0.040 C 
HETATM    2  C7  UNL     1     -33.639   6.358   3.754  1.00 20.00     0.120 C 
ENDROOT
BRANCH   2   3
HETATM    3  C6  UNL     1     -34.246   6.394   5.172  1.00 20.00     0.006 C 
HETATM    4  C1  UNL     1     -33.545   7.404   6.083  1.00 20.00     0.012 C 
HETATM    5  C2  UNL     1     -34.199   5.005   5.821  1.00 20.00     0.012 C 
ENDBRANCH   2   3
BRANCH   2   6
HETATM    6  O8  UNL     1     -33.709   7.672   3.196  1.00 20.00    -0.385 OA
BRANCH   6   7
HETATM    7  C4  UNL     1     -32.738   7.850   2.178  1.00 20.00     0.178 C 
BRANCH   7   8
HETATM    8  C5  UNL     1     -32.835   9.255   1.604  1.00 20.00     0.097 C 
BRANCH   8   9
HETATM    9  S9  UNL     1     -31.600   9.526   0.297  1.00 20.00    -0.180 SA
HETATM   10  H25 UNL     1     -31.953  10.791   0.034  1.00 20.00     0.101 HD
ENDBRANCH   8   9
ENDBRANCH   7   8
ENDBRANCH   6   7
ENDBRANCH   2   6
TORSDOF 5
