REMARK  4 active torsions:
REMARK  status: ('A' for Active; 'I' for Inactive)
REMARK    1  A    between atoms: C4_4  and  C7_7 
REMARK    2  A    between atoms: C4_4  and  C8_8 
REMARK    3  A    between atoms: C7_7  and  C9_9 
REMARK    4  A    between atoms: C8_8  and  C10_10 
ROOT
HETATM    1  C1  UNL     1     -31.859   8.314   4.241  1.00 20.00     0.128 C 
HETATM    2  C2  UNL     1     -31.733   7.127   3.270  1.00 20.00     0.088 C 
HETATM    3  C3  UNL     1     -33.397   8.243   4.222  1.00 20.00     0.088 C 
HETATM    4  C4  UNL     1     -33.263   7.290   2.989  1.00 20.00    -0.027 C 
HETATM    5  O11 UNL     1     -31.058   9.034   4.798  1.00 20.00    -0.298 OA
ENDROOT
BRANCH   4   6
HETATM    6  C7  UNL     1     -33.557   7.986   1.659  1.00 20.00     0.010 C 
BRANCH   6   7
HETATM    7  C9  UNL     1     -32.611   9.158   1.430  1.00 20.00    -0.004 C 
HETATM    8  C5  UNL     1     -32.887   9.834   0.097  1.00 20.00     0.005 C 
ENDBRANCH   6   7
ENDBRANCH   4   6
BRANCH   4   9
HETATM    9  C8  UNL     1     -34.052   5.993   3.130  1.00 20.00     0.010 C 
BRANCH   9  10
HETATM   10  C10 UNL     1     -33.902   5.402   4.528  1.00 20.00    -0.004 C 
HETATM   11  C6  UNL     1     -34.710   4.122   4.677  1.00 20.00     0.005 C 
ENDBRANCH   9  10
ENDBRANCH   4   9
TORSDOF 4
