REMARK  0 active torsions:
REMARK  status: ('A' for Active; 'I' for Inactive)
ROOT
HETATM    1  C1  UNL     1     -32.549   6.426   2.460  1.00 20.00     0.005 C 
HETATM    2  C2  UNL     1     -33.052   5.169   2.956  1.00 20.00     0.041 C 
HETATM    3  C3  UNL     1     -33.123   7.595   2.794  1.00 20.00    -0.081 C 
HETATM    4  C4  UNL     1     -33.960   5.126   3.939  1.00 20.00     0.128 C 
HETATM    5  C5  UNL     1     -34.314   7.643   3.727  1.00 20.00     0.078 C 
HETATM    6  C6  UNL     1     -34.514   6.368   4.566  1.00 20.00     0.235 C 
HETATM    7  C7  UNL     1     -32.644   8.907   2.249  1.00 20.00     0.043 C 
HETATM    8  F8  UNL     1     -34.391   3.924   4.379  1.00 20.00    -0.208 F 
HETATM    9  F9  UNL     1     -33.908   6.563   5.774  1.00 20.00    -0.242 F 
ENDROOT
TORSDOF 0
