REMARK  3 active torsions:
REMARK  status: ('A' for Active; 'I' for Inactive)
REMARK    1  A    between atoms: C4_4  and  O7_7 
REMARK    2  A    between atoms: C5_5  and  C6_6 
REMARK    3  A    between atoms: C6_6  and  O7_7 
ROOT
HETATM    1  C3  UNL     1     -33.676   6.759   5.556  1.00 20.00     0.040 C 
HETATM    2  C6  UNL     1     -33.492   6.495   4.065  1.00 20.00     0.122 C 
ENDROOT
BRANCH   2   3
HETATM    3  C5  UNL     1     -34.508   5.486   3.489  1.00 20.00     0.006 C 
HETATM    4  C1  UNL     1     -35.958   5.923   3.712  1.00 20.00     0.012 C 
HETATM    5  C2  UNL     1     -34.297   4.093   4.096  1.00 20.00     0.012 C 
ENDBRANCH   2   3
BRANCH   2   6
HETATM    6  O7  UNL     1     -33.644   7.738   3.378  1.00 20.00    -0.371 OA
BRANCH   6   7
HETATM    7  C4  UNL     1     -33.055   7.687   2.089  1.00 20.00     0.282 C 
HETATM    8 CL8  UNL     1     -32.720   9.344   1.556  1.00 20.00    -0.102 Cl
ENDBRANCH   6   7
ENDBRANCH   2   6
TORSDOF 3
