REMARK  3 active torsions:
REMARK  status: ('A' for Active; 'I' for Inactive)
REMARK    1  A    between atoms: C4_4  and  C7_7 
REMARK    2  A    between atoms: C6_6  and  C7_7 
REMARK    3  A    between atoms: C6_6  and  O9_9 
ROOT
HETATM    1  C1  UNL     1     -32.858   5.668   2.931  1.00 20.00     0.066 C 
HETATM    2  C7  UNL     1     -33.025   6.925   3.676  1.00 20.00     0.120 C 
HETATM    3  N8  UNL     1     -32.720   4.677   2.342  1.00 20.00    -0.197 NA
ENDROOT
BRANCH   2   4
HETATM    4  C4  UNL     1     -34.257   6.722   4.514  1.00 20.00     0.005 A 
HETATM    5  C2  UNL     1     -35.410   5.917   3.982  1.00 20.00     0.006 A 
HETATM    6  C3  UNL     1     -34.561   5.369   5.095  1.00 20.00     0.006 A 
ENDBRANCH   2   4
BRANCH   2   7
HETATM    7  C6  UNL     1     -33.131   8.134   2.749  1.00 20.00     0.186 C 
BRANCH   7   8
HETATM    8  O9  UNL     1     -31.964   8.268   1.945  1.00 20.00    -0.395 OA
HETATM    9  C5  UNL     1     -32.042   9.406   1.099  1.00 20.00     0.201 C 
ENDBRANCH   7   8
ENDBRANCH   2   7
TORSDOF 3
