REMARK  0 active torsions:
REMARK  status: ('A' for Active; 'I' for Inactive)
ROOT
HETATM    1  C1  UNL     1     -32.676   8.651   1.102  1.00 20.00     0.128 C 
HETATM    2  C2  UNL     1     -33.729   8.377   2.187  1.00 20.00     0.088 C 
HETATM    3  C3  UNL     1     -31.545   8.102   1.987  1.00 20.00     0.088 C 
HETATM    4  C4  UNL     1     -34.721   6.686   5.025  1.00 20.00     0.000 C 
HETATM    5  C5  UNL     1     -34.227   5.321   4.565  1.00 20.00     0.000 C 
HETATM    6  C6  UNL     1     -33.644   7.744   5.241  1.00 20.00     0.001 C 
HETATM    7  C7  UNL     1     -34.022   5.254   3.053  1.00 20.00     0.001 C 
HETATM    8  C8  UNL     1     -32.396   7.688   4.366  1.00 20.00     0.010 C 
HETATM    9  C9  UNL     1     -32.763   5.942   2.540  1.00 20.00     0.010 C 
HETATM   10  C10 UNL     1     -32.669   7.443   2.877  1.00 20.00    -0.027 C 
HETATM   11  O11 UNL     1     -32.722   9.110  -0.020  1.00 20.00    -0.298 OA
ENDROOT
TORSDOF 0
