REMARK  3 active torsions:
REMARK  status: ('A' for Active; 'I' for Inactive)
REMARK    1  A    between atoms: C5_5  and  C7_7 
REMARK    2  A    between atoms: C5_5  and  O9_9 
REMARK    3  A    between atoms: C6_6  and  C7_7 
ROOT
HETATM    1  C1  UNL     1     -32.920   5.573   2.835  1.00 20.00     0.088 C 
HETATM    2  C7  UNL     1     -33.426   6.803   3.486  1.00 20.00     0.149 C 
HETATM    3  N8  UNL     1     -32.519   4.611   2.325  1.00 20.00    -0.195 NA
HETATM    4 CL10 UNL     1     -35.131   7.002   2.934  1.00 20.00    -0.100 Cl
ENDROOT
BRANCH   2   5
HETATM    5  C5  UNL     1     -32.607   8.012   2.988  1.00 20.00     0.208 C 
BRANCH   5   6
HETATM    6  O9  UNL     1     -32.722   8.168   1.575  1.00 20.00    -0.393 OA
HETATM    7  C4  UNL     1     -31.928   9.248   1.108  1.00 20.00     0.201 C 
ENDBRANCH   5   6
ENDBRANCH   2   5
BRANCH   2   8
HETATM    8  C6  UNL     1     -33.351   6.657   5.042  1.00 20.00     0.017 C 
HETATM    9  C2  UNL     1     -33.807   7.909   5.807  1.00 20.00     0.012 C 
HETATM   10  C3  UNL     1     -34.127   5.445   5.589  1.00 20.00     0.012 C 
ENDBRANCH   2   8
TORSDOF 3
