REMARK  4 active torsions:
REMARK  status: ('A' for Active; 'I' for Inactive)
REMARK    1  A    between atoms: C2_2  and  C7_7 
REMARK    2  A    between atoms: C7_7  and  O11_11 
REMARK    3  A    between atoms: C8_8  and  C9_9 
REMARK    4  A    between atoms: C9_9  and  O11_11 
ROOT
HETATM    1  O11 UNL     1     -33.428   7.642   2.662  1.00 20.00    -0.383 OA
ENDROOT
BRANCH   1   2
HETATM    2  C7  UNL     1     -32.488   8.698   2.782  1.00 20.00     0.208 C 
BRANCH   2   3
HETATM    3  C2  UNL     1     -32.393   9.426   1.458  1.00 20.00     0.100 A 
HETATM    4  C1  UNL     1     -31.546   8.848   0.350  1.00 20.00     0.208 A 
HETATM    5  O10 UNL     1     -32.975   8.709   0.361  1.00 20.00    -0.373 OA
HETATM    6  C3  UNL     1     -32.708  10.887   1.458  1.00 20.00     0.050 C 
ENDBRANCH   2   3
ENDBRANCH   1   2
BRANCH   1   7
HETATM    7  C9  UNL     1     -33.236   6.660   3.681  1.00 20.00     0.120 C 
HETATM    8  C6  UNL     1     -33.414   7.345   5.032  1.00 20.00     0.040 C 
BRANCH   7   9
HETATM    9  C8  UNL     1     -34.229   5.503   3.444  1.00 20.00     0.006 C 
HETATM   10  C4  UNL     1     -35.688   5.950   3.553  1.00 20.00     0.012 C 
HETATM   11  C5  UNL     1     -33.973   4.354   4.429  1.00 20.00     0.012 C 
ENDBRANCH   7   9
ENDBRANCH   1   7
TORSDOF 4
