REMARK  1 active torsions:
REMARK  status: ('A' for Active; 'I' for Inactive)
REMARK    1  A    between atoms: C6_6  and  O8_8 
ROOT
HETATM    1  C1  UNL     1     -32.832   8.542   2.397  1.00 20.00     0.002 C 
HETATM    2  C2  UNL     1     -33.678   8.781   3.674  1.00 20.00     0.010 C 
HETATM    3  C3  UNL     1     -32.284   7.252   3.061  1.00 20.00     0.010 C 
HETATM    4  C4  UNL     1     -33.389   6.849   5.395  1.00 20.00     0.041 C 
HETATM    5  C5  UNL     1     -34.651   6.377   3.703  1.00 20.00     0.041 C 
HETATM    6  C6  UNL     1     -34.842   6.315   5.245  1.00 20.00     0.119 C 
HETATM    7  C7  UNL     1     -33.489   7.307   3.965  1.00 20.00    -0.036 C 
ENDROOT
BRANCH   6   8
HETATM    8  O8  UNL     1     -35.088   5.012   5.799  1.00 20.00    -0.396 OA
HETATM    9  H20 UNL     1     -36.021   4.825   5.629  1.00 20.00     0.210 HD
ENDBRANCH   6   8
TORSDOF 1
