REMARK  1 active torsions:
REMARK  status: ('A' for Active; 'I' for Inactive)
REMARK    1  A    between atoms: C3_3  and  C7_7 
ROOT
HETATM    1  C1  UNL     1     -33.863   6.080   3.545  1.00 20.00     0.087 C 
HETATM    2  C2  UNL     1     -33.244   7.335   3.303  1.00 20.00     0.090 C 
HETATM    3  C3  UNL     1     -32.640   7.608   2.139  1.00 20.00    -0.011 C 
HETATM    4  N8  UNL     1     -34.371   5.056   3.746  1.00 20.00    -0.192 NA
ENDROOT
BRANCH   3   5
HETATM    5  C7  UNL     1     -31.985   8.893   1.841  1.00 20.00     0.009 C 
HETATM    6  C5  UNL     1     -31.565   9.107   0.364  1.00 20.00     0.008 C 
HETATM    7  C4  UNL     1     -31.981  10.583   0.538  1.00 20.00     0.001 C 
HETATM    8  C6  UNL     1     -32.934  10.104   1.653  1.00 20.00     0.008 C 
ENDBRANCH   3   5
TORSDOF 1
