REMARK  3 active torsions:
REMARK  status: ('A' for Active; 'I' for Inactive)
REMARK    1  A    between atoms: C5_5  and  C8_8 
REMARK    2  A    between atoms: C7_7  and  C8_8 
REMARK    3  A    between atoms: C8_8  and  O9_9 
ROOT
HETATM    1  C1  UNL     1     -32.318   9.219   1.934  1.00 20.00     0.012 C 
HETATM    2  C2  UNL     1     -32.997   8.345   2.399  1.00 20.00    -0.115 C 
HETATM    3  C7  UNL     1     -33.833   7.273   2.965  1.00 20.00     0.125 C 
ENDROOT
BRANCH   3   4
HETATM    4  C8  UNL     1     -33.183   6.626   4.199  1.00 20.00     0.137 C 
BRANCH   4   5
HETATM    5  C5  UNL     1     -34.074   5.584   4.819  1.00 20.00    -0.017 A 
HETATM    6  C3  UNL     1     -33.902   4.150   4.376  1.00 20.00     0.012 A 
HETATM    7  C4  UNL     1     -35.112   4.926   3.940  1.00 20.00     0.012 A 
HETATM    8  C6  UNL     1     -34.428   5.841   6.258  1.00 20.00     0.018 C 
ENDBRANCH   4   5
BRANCH   4   9
HETATM    9  O9  UNL     1     -32.924   7.659   5.158  1.00 20.00    -0.394 OA
HETATM   10  H21 UNL     1     -32.351   8.299   4.714  1.00 20.00     0.210 HD
ENDBRANCH   4   9
ENDBRANCH   3   4
TORSDOF 3
