REMARK  1 active torsions:
REMARK  status: ('A' for Active; 'I' for Inactive)
REMARK    1  A    between atoms: C8_8  and  C9_9 
ROOT
HETATM    1  C1  UNL     1     -33.758   6.489   5.170  1.00 20.00     0.074 C 
HETATM    2  C2  UNL     1     -32.973   7.569   5.220  1.00 20.00     0.139 C 
HETATM    3  C3  UNL     1     -34.040   5.904   3.842  1.00 20.00     0.153 C 
HETATM    4  C4  UNL     1     -33.311   6.509   2.669  1.00 20.00     0.116 C 
HETATM    5  C9  UNL     1     -33.133   8.004   2.919  1.00 20.00     0.139 C 
HETATM    6  O10 UNL     1     -34.776   4.928   3.731  1.00 20.00    -0.293 OA
HETATM    7  O11 UNL     1     -32.456   8.262   4.157  1.00 20.00    -0.357 OA
ENDROOT
BRANCH   5   8
HETATM    8  C8  UNL     1     -32.308   8.616   1.806  1.00 20.00     0.015 C 
HETATM    9  C6  UNL     1     -32.224  10.164   1.773  1.00 20.00     0.007 C 
HETATM   10  C5  UNL     1     -32.258  10.060   0.234  1.00 20.00     0.001 C 
HETATM   11  C7  UNL     1     -32.982   8.709   0.412  1.00 20.00     0.007 C 
ENDBRANCH   5   8
TORSDOF 1
