REMARK  2 active torsions:
REMARK  status: ('A' for Active; 'I' for Inactive)
REMARK    1  A    between atoms: C7_7  and  C9_9 
REMARK    2  A    between atoms: C9_9  and  O11_11 
ROOT
HETATM    1  C1  UNL     1     -32.373  10.324   1.565  1.00 20.00     0.010 A 
HETATM    2  C2  UNL     1     -31.921   9.328   3.949  1.00 20.00     0.012 C 
HETATM    3  C3  UNL     1     -32.256   7.761   2.111  1.00 20.00     0.012 C 
HETATM    4  C5  UNL     1     -32.842   9.967   2.947  1.00 20.00    -0.010 A 
HETATM    5  C6  UNL     1     -33.047   9.005   1.819  1.00 20.00    -0.010 A 
HETATM    6  C7  UNL     1     -31.987   7.821   3.628  1.00 20.00     0.021 C 
ENDROOT
BRANCH   6   7
HETATM    7  C9  UNL     1     -33.080   7.137   4.411  1.00 20.00     0.065 A 
HETATM    8  C4  UNL     1     -34.467   7.082   3.843  1.00 20.00     0.045 A 
HETATM    9  C8  UNL     1     -33.632   5.830   3.918  1.00 20.00     0.019 A 
HETATM   10  C10 UNL     1     -33.999   4.742   4.869  1.00 20.00     0.013 C 
BRANCH   7  11
HETATM   11  O11 UNL     1     -32.970   7.338   5.824  1.00 20.00    -0.389 OA
HETATM   12  H27 UNL     1     -32.022   7.348   6.022  1.00 20.00     0.210 HD
ENDBRANCH   7  11
ENDBRANCH   6   7
TORSDOF 2
