REMARK  3 active torsions:
REMARK  status: ('A' for Active; 'I' for Inactive)
REMARK    1  A    between atoms: C3_3  and  C7_7 
REMARK    2  A    between atoms: C6_6  and  C7_7 
REMARK    3  A    between atoms: C7_7  and  O8_8 
ROOT
HETATM    1  C7  UNL     1     -34.073   4.999   5.032  1.00 20.00     0.126 C 
ENDROOT
BRANCH   1   2
HETATM    2  C3  UNL     1     -34.436   5.645   3.724  1.00 20.00    -0.018 A 
HETATM    3  C1  UNL     1     -33.706   5.189   2.482  1.00 20.00     0.012 A 
HETATM    4  C2  UNL     1     -33.410   6.540   3.068  1.00 20.00     0.012 A 
HETATM    5  C4  UNL     1     -35.886   6.019   3.591  1.00 20.00     0.018 C 
ENDBRANCH   1   2
BRANCH   1   6
HETATM    6  C6  UNL     1     -34.313   5.942   6.222  1.00 20.00     0.028 C 
HETATM    7  C5  UNL     1     -33.451   7.196   6.169  1.00 20.00     0.007 C 
ENDBRANCH   1   6
BRANCH   1   8
HETATM    8  O8  UNL     1     -34.864   3.822   5.221  1.00 20.00    -0.395 OA
HETATM    9  H22 UNL     1     -35.787   4.114   5.221  1.00 20.00     0.210 HD
ENDBRANCH   1   8
TORSDOF 3
