REMARK  5 active torsions:
REMARK  status: ('A' for Active; 'I' for Inactive)
REMARK    1  A    between atoms: C3_3  and  C9_9 
REMARK    2  A    between atoms: C7_7  and  C10_10 
REMARK    3  A    between atoms: C8_8  and  C10_10 
REMARK    4  A    between atoms: C9_9  and  C10_10 
REMARK    5  A    between atoms: C9_9  and  O11_11 
ROOT
HETATM    1  C9  UNL     1     -32.988   6.594   4.095  1.00 20.00     0.130 C 
ENDROOT
BRANCH   1   2
HETATM    2  C3  UNL     1     -33.827   5.490   3.459  1.00 20.00    -0.018 A 
HETATM    3  C1  UNL     1     -35.205   5.849   2.954  1.00 20.00     0.012 A 
HETATM    4  C2  UNL     1     -35.058   5.020   4.198  1.00 20.00     0.012 A 
HETATM    5  C4  UNL     1     -33.036   4.471   2.686  1.00 20.00     0.018 C 
ENDBRANCH   1   2
BRANCH   1   6
HETATM    6  C10 UNL     1     -32.165   7.424   3.077  1.00 20.00     0.014 C 
BRANCH   6   7
HETATM    7  C7  UNL     1     -31.276   8.501   3.739  1.00 20.00     0.002 C 
HETATM    8  C5  UNL     1     -32.033   9.572   4.512  1.00 20.00     0.005 C 
ENDBRANCH   6   7
BRANCH   6   9
HETATM    9  C8  UNL     1     -33.104   8.001   1.986  1.00 20.00     0.002 C 
HETATM   10  C6  UNL     1     -32.382   8.746   0.872  1.00 20.00     0.005 C 
ENDBRANCH   6   9
ENDBRANCH   1   6
BRANCH   1  11
HETATM   11  O11 UNL     1     -33.884   7.474   4.782  1.00 20.00    -0.394 OA
HETATM   12  H31 UNL     1     -34.489   7.821   4.111  1.00 20.00     0.210 HD
ENDBRANCH   1  11
TORSDOF 5
