REMARK  3 active torsions:
REMARK  status: ('A' for Active; 'I' for Inactive)
REMARK    1  A    between atoms: C1_1  and  C6_6 
REMARK    2  A    between atoms: C1_1  and  O8_8 
REMARK    3  A    between atoms: C4_4  and  C6_6 
ROOT
HETATM    1  C1  UNL     1     -32.257   7.791   3.641  1.00 20.00     0.132 C 
HETATM    2  N7  UNL     1     -31.496   8.552   4.356  1.00 20.00    -0.282 NA
HETATM    3  H19 UNL     1     -31.243   8.080   5.230  1.00 20.00     0.189 HD
ENDROOT
BRANCH   1   4
HETATM    4  C6  UNL     1     -32.699   6.422   4.070  1.00 20.00     0.090 C 
BRANCH   4   5
HETATM    5  C4  UNL     1     -34.002   6.453   4.801  1.00 20.00    -0.007 A 
HETATM    6  C2  UNL     1     -34.404   5.304   5.683  1.00 20.00     0.005 A 
HETATM    7  C3  UNL     1     -34.029   6.625   6.294  1.00 20.00     0.005 A 
ENDBRANCH   4   5
ENDBRANCH   1   4
BRANCH   1   8
HETATM    8  O8  UNL     1     -32.773   8.141   2.435  1.00 20.00    -0.343 OA
HETATM    9  C5  UNL     1     -32.420   9.432   1.920  1.00 20.00     0.211 C 
ENDBRANCH   1   8
TORSDOF 3
