REMARK  3 active torsions:
REMARK  status: ('A' for Active; 'I' for Inactive)
REMARK    1  A    between atoms: C3_3  and  C7_7 
REMARK    2  A    between atoms: C3_3  and  C8_8 
REMARK    3  A    between atoms: C6_6  and  C8_8 
ROOT
HETATM    1  C1  UNL     1     -34.451   6.195   5.000  1.00 20.00     0.012 C 
HETATM    2  C2  UNL     1     -33.727   6.368   4.058  1.00 20.00    -0.110 C 
HETATM    3  C7  UNL     1     -32.844   6.572   2.904  1.00 20.00     0.171 C 
ENDROOT
BRANCH   3   4
HETATM    4  C3  UNL     1     -32.045   7.859   3.001  1.00 20.00     0.138 C 
HETATM    5  O9  UNL     1     -31.686   8.334   4.078  1.00 20.00    -0.297 OA
BRANCH   4   6
HETATM    6  C8  UNL     1     -31.718   8.526   1.677  1.00 20.00     0.083 C 
BRANCH   6   7
HETATM    7  C6  UNL     1     -32.766   9.484   1.208  1.00 20.00    -0.007 A 
HETATM    8  C4  UNL     1     -32.704  10.932   1.610  1.00 20.00     0.005 A 
HETATM    9  C5  UNL     1     -32.429  10.535   0.186  1.00 20.00     0.005 A 
ENDBRANCH   6   7
ENDBRANCH   4   6
ENDBRANCH   3   4
TORSDOF 3
