REMARK  4 active torsions:
REMARK  status: ('A' for Active; 'I' for Inactive)
REMARK    1  A    between atoms: C1_1  and  C4_4 
REMARK    2  A    between atoms: C1_1  and  C9_9 
REMARK    3  A    between atoms: C9_9  and  C10_10 
REMARK    4  A    between atoms: C10_10  and  C11_11 
ROOT
HETATM    1  C1  UNL     1     -32.542   8.483   2.477  1.00 20.00     0.135 C 
HETATM    2  O12 UNL     1     -31.674   8.893   3.236  1.00 20.00    -0.297 OA
ENDROOT
BRANCH   1   3
HETATM    3  C4  UNL     1     -32.798   9.189   1.187  1.00 20.00     0.017 A 
HETATM    4  C2  UNL     1     -32.613   8.380  -0.075  1.00 20.00     0.018 A 
HETATM    5  C3  UNL     1     -31.601   9.421   0.294  1.00 20.00     0.018 A 
HETATM    6  C5  UNL     1     -33.877  10.236   1.191  1.00 20.00     0.023 C 
ENDBRANCH   1   3
BRANCH   1   7
HETATM    7  C9  UNL     1     -33.416   7.273   2.737  1.00 20.00     0.080 C 
BRANCH   7   8
HETATM    8  C10 UNL     1     -33.627   7.029   4.234  1.00 20.00     0.015 C 
BRANCH   8   9
HETATM    9  C11 UNL     1     -34.455   5.769   4.600  1.00 20.00    -0.051 C 
HETATM   10  C6  UNL     1     -35.872   5.940   4.020  1.00 20.00     0.014 C 
HETATM   11  C7  UNL     1     -34.569   5.604   6.125  1.00 20.00     0.014 C 
HETATM   12  C8  UNL     1     -33.831   4.499   3.999  1.00 20.00     0.014 C 
ENDBRANCH   8   9
ENDBRANCH   7   8
ENDBRANCH   1   7
TORSDOF 4
