REMARK  3 active torsions:
REMARK  status: ('A' for Active; 'I' for Inactive)
REMARK    1  A    between atoms: C1_1  and  C7_7 
REMARK    2  A    between atoms: C2_2  and  C3_3 
REMARK    3  A    between atoms: C3_3  and  C9_9 
ROOT
HETATM    1  C1  UNL     1     -33.292   7.815   3.137  1.00 20.00    -0.012 C 
HETATM    2  C3  UNL     1     -33.667   6.615   3.615  1.00 20.00    -0.024 C 
ENDROOT
BRANCH   1   3
HETATM    3  C7  UNL     1     -33.047   8.171   1.728  1.00 20.00     0.009 C 
HETATM    4  C5  UNL     1     -33.091   9.685   1.399  1.00 20.00     0.008 C 
HETATM    5  C4  UNL     1     -31.925   9.431   0.422  1.00 20.00     0.001 C 
HETATM    6  C6  UNL     1     -31.559   8.212   1.295  1.00 20.00     0.008 C 
ENDBRANCH   1   3
BRANCH   2   7
HETATM    7  C2  UNL     1     -33.839   6.516   5.089  1.00 20.00     0.265 C 
HETATM    8  O10 UNL     1     -34.175   5.483   5.656  1.00 20.00    -0.302 OA
ENDBRANCH   2   7
BRANCH   2   9
HETATM    9  C9  UNL     1     -33.885   5.378   2.788  1.00 20.00     0.037 C 
HETATM   10  C8  UNL     1     -32.614   4.553   2.645  1.00 20.00     0.010 C 
ENDBRANCH   2   9
TORSDOF 3
