REMARK  3 active torsions:
REMARK  status: ('A' for Active; 'I' for Inactive)
REMARK    1  A    between atoms: C1_1  and  C6_6 
REMARK    2  A    between atoms: C2_2  and  C8_8 
REMARK    3  A    between atoms: C2_2  and  C9_9 
ROOT
HETATM    1  C1  UNL     1     -33.116   6.823   2.329  1.00 20.00    -0.018 C 
HETATM    2  C2  UNL     1     -32.150   7.741   2.135  1.00 20.00    -0.070 C 
ENDROOT
BRANCH   1   3
HETATM    3  C6  UNL     1     -33.166   5.959   3.521  1.00 20.00     0.008 C 
HETATM    4  C4  UNL     1     -34.161   6.395   4.627  1.00 20.00     0.008 C 
HETATM    5  C3  UNL     1     -34.457   4.897   4.847  1.00 20.00     0.001 C 
HETATM    6  C5  UNL     1     -34.021   4.673   3.384  1.00 20.00     0.008 C 
ENDBRANCH   1   3
BRANCH   2   7
HETATM    7  C8  UNL     1     -31.059   7.910   3.174  1.00 20.00     0.030 C 
HETATM    8  C7  UNL     1     -30.053   8.988   2.796  1.00 20.00     0.010 C 
ENDBRANCH   2   7
BRANCH   2   9
HETATM    9  C9  UNL     1     -32.072   8.644   0.931  1.00 20.00     0.148 C 
HETATM   10 CL10 UNL     1     -32.964  10.155   1.227  1.00 20.00    -0.126 Cl
ENDBRANCH   2   9
TORSDOF 3
