REMARK  3 active torsions:
REMARK  status: ('A' for Active; 'I' for Inactive)
REMARK    1  A    between atoms: C5_5  and  C8_8 
REMARK    2  A    between atoms: C6_6  and  C8_8 
REMARK    3  A    between atoms: C8_8  and  O9_9 
ROOT
HETATM    1  C8  UNL     1     -32.851   7.192   4.163  1.00 20.00     0.130 C 
ENDROOT
BRANCH   1   2
HETATM    2  C5  UNL     1     -33.075   8.105   2.959  1.00 20.00     0.015 A 
HETATM    3  C1  UNL     1     -31.921   8.851   2.348  1.00 20.00     0.007 A 
HETATM    4  C2  UNL     1     -32.558   7.711   1.603  1.00 20.00     0.007 A 
ENDBRANCH   1   2
BRANCH   1   5
HETATM    5  C6  UNL     1     -33.986   6.228   4.373  1.00 20.00    -0.018 A 
HETATM    6  C3  UNL     1     -33.895   4.872   3.715  1.00 20.00     0.012 A 
HETATM    7  C4  UNL     1     -34.861   5.894   3.187  1.00 20.00     0.012 A 
HETATM    8  C7  UNL     1     -34.636   6.313   5.727  1.00 20.00     0.018 C 
ENDBRANCH   1   5
BRANCH   1   9
HETATM    9  O9  UNL     1     -32.684   8.006   5.327  1.00 20.00    -0.394 OA
HETATM   10  H23 UNL     1     -32.545   7.396   6.066  1.00 20.00     0.210 HD
ENDBRANCH   1   9
TORSDOF 3
