REMARK  4 active torsions:
REMARK  status: ('A' for Active; 'I' for Inactive)
REMARK    1  A    between atoms: C2_2  and  C8_8 
REMARK    2  A    between atoms: C3_3  and  C8_8 
REMARK    3  A    between atoms: C3_3  and  C9_9 
REMARK    4  A    between atoms: C6_6  and  C9_9 
ROOT
HETATM    1  C1  UNL     1     -32.728   9.178   0.553  1.00 20.00    -0.111 C 
HETATM    2  C2  UNL     1     -32.428   8.468   1.475  1.00 20.00    -0.100 C 
HETATM    3  C7  UNL     1     -33.093  10.042  -0.568  1.00 20.00     0.112 C 
ENDROOT
BRANCH   2   4
HETATM    4  C8  UNL     1     -32.056   7.604   2.601  1.00 20.00     0.172 C 
BRANCH   4   5
HETATM    5  C3  UNL     1     -33.143   6.604   2.952  1.00 20.00     0.138 C 
HETATM    6  O10 UNL     1     -33.574   5.783   2.144  1.00 20.00    -0.297 OA
BRANCH   5   7
HETATM    7  C9  UNL     1     -33.669   6.685   4.374  1.00 20.00     0.083 C 
BRANCH   7   8
HETATM    8  C6  UNL     1     -34.761   5.706   4.671  1.00 20.00    -0.007 A 
HETATM    9  C4  UNL     1     -34.428   4.335   5.191  1.00 20.00     0.005 A 
HETATM   10  C5  UNL     1     -35.085   5.342   6.094  1.00 20.00     0.005 A 
ENDBRANCH   7   8
ENDBRANCH   5   7
ENDBRANCH   4   5
ENDBRANCH   2   4
TORSDOF 4
