REMARK  2 active torsions:
REMARK  status: ('A' for Active; 'I' for Inactive)
REMARK    1  A    between atoms: C6_6  and  C8_8 
REMARK    2  A    between atoms: C7_7  and  C9_9 
ROOT
HETATM    1  C4  UNL     1     -31.542   8.001   2.420  1.00 20.00     0.034 C 
HETATM    2  C5  UNL     1     -31.371   7.908   3.922  1.00 20.00     0.168 C 
HETATM    3  C7  UNL     1     -32.933   8.588   2.307  1.00 20.00     0.031 C 
HETATM    4  C8  UNL     1     -33.666   7.904   3.459  1.00 20.00     0.130 C 
HETATM    5  O10 UNL     1     -32.674   7.683   4.480  1.00 20.00    -0.385 OA
ENDROOT
BRANCH   4   6
HETATM    6  C6  UNL     1     -34.273   6.551   3.104  1.00 20.00     0.015 C 
HETATM    7  C2  UNL     1     -34.922   5.754   4.265  1.00 20.00     0.007 C 
HETATM    8  C1  UNL     1     -34.373   4.477   3.597  1.00 20.00     0.001 C 
HETATM    9  C3  UNL     1     -33.286   5.365   2.956  1.00 20.00     0.007 C 
ENDBRANCH   4   6
BRANCH   3  10
HETATM   10  C9  UNL     1     -33.549   8.460   0.925  1.00 20.00     0.121 C 
HETATM   11 CL11 UNL     1     -32.552   9.303  -0.278  1.00 20.00    -0.130 Cl
ENDBRANCH   3  10
TORSDOF 2
