REMARK  2 active torsions:
REMARK  status: ('A' for Active; 'I' for Inactive)
REMARK    1  A    between atoms: C1_1  and  C5_5 
REMARK    2  A    between atoms: C1_1  and  C8_8 
ROOT
HETATM    1  C2  UNL     1     -33.189   5.747   2.903  1.00 20.00     0.017 C 
HETATM    2  C3  UNL     1     -33.579   7.417   4.645  1.00 20.00     0.017 C 
HETATM    3  C4  UNL     1     -35.359   5.502   4.367  1.00 20.00     0.010 A 
HETATM    4  C5  UNL     1     -33.341   7.261   3.133  1.00 20.00     0.057 C 
HETATM    5  C6  UNL     1     -33.950   5.100   4.023  1.00 20.00    -0.009 A 
HETATM    6  C7  UNL     1     -34.187   6.118   5.085  1.00 20.00    -0.009 A 
ENDROOT
BRANCH   4   7
HETATM    7  C1  UNL     1     -32.135   8.018   2.677  1.00 20.00     0.144 C 
HETATM    8  O9  UNL     1     -31.193   8.216   3.443  1.00 20.00    -0.296 OA
BRANCH   7   9
HETATM    9  C8  UNL     1     -32.168   8.505   1.247  1.00 20.00     0.193 C 
HETATM   10 CL10 UNL     1     -32.896  10.115   1.150  1.00 20.00    -0.123 Cl
ENDBRANCH   7   9
ENDBRANCH   4   7
TORSDOF 2
