REMARK  2 active torsions:
REMARK  status: ('A' for Active; 'I' for Inactive)
REMARK    1  A    between atoms: C6_6  and  C8_8 
REMARK    2  A    between atoms: C7_7  and  C9_9 
ROOT
HETATM    1  C4  UNL     1     -34.187   6.656   5.519  1.00 20.00     0.034 C 
HETATM    2  C5  UNL     1     -33.094   7.699   5.583  1.00 20.00     0.168 C 
HETATM    3  C7  UNL     1     -34.470   6.603   4.033  1.00 20.00     0.031 C 
HETATM    4  C8  UNL     1     -33.068   6.755   3.448  1.00 20.00     0.130 C 
HETATM    5  O10 UNL     1     -32.315   7.544   4.389  1.00 20.00    -0.385 OA
ENDROOT
BRANCH   4   6
HETATM    6  C6  UNL     1     -33.086   7.475   2.109  1.00 20.00     0.015 C 
HETATM    7  C2  UNL     1     -31.708   7.796   1.474  1.00 20.00     0.007 C 
HETATM    8  C1  UNL     1     -32.328   9.119   0.978  1.00 20.00     0.001 C 
HETATM    9  C3  UNL     1     -33.328   9.006   2.147  1.00 20.00     0.007 C 
ENDBRANCH   4   6
BRANCH   3  10
HETATM   10  C9  UNL     1     -35.184   5.336   3.594  1.00 20.00     0.121 C 
HETATM   11 CL11 UNL     1     -34.199   3.909   3.973  1.00 20.00    -0.130 Cl
ENDBRANCH   3  10
TORSDOF 2
