REMARK  3 active torsions:
REMARK  status: ('A' for Active; 'I' for Inactive)
REMARK    1  A    between atoms: C3_3  and  C8_8 
REMARK    2  A    between atoms: C8_8  and  C9_9 
REMARK    3  A    between atoms: C8_8  and  O10_10 
ROOT
HETATM    1  C8  UNL     1     -32.974   6.291   3.646  1.00 20.00     0.133 C 
ENDROOT
BRANCH   1   2
HETATM    2  C3  UNL     1     -34.347   5.717   3.990  1.00 20.00    -0.017 A 
HETATM    3  C1  UNL     1     -34.751   5.672   5.446  1.00 20.00     0.012 A 
HETATM    4  C2  UNL     1     -34.398   4.400   4.729  1.00 20.00     0.012 A 
HETATM    5  C4  UNL     1     -35.416   5.996   2.970  1.00 20.00     0.018 C 
ENDBRANCH   1   2
BRANCH   1   6
HETATM    6  C9  UNL     1     -32.940   7.819   3.340  1.00 20.00    -0.025 C 
HETATM    7  C5  UNL     1     -31.570   8.413   3.714  1.00 20.00     0.017 C 
HETATM    8  C6  UNL     1     -33.165   8.037   1.829  1.00 20.00     0.017 C 
HETATM    9  C7  UNL     1     -34.037   8.590   4.099  1.00 20.00     0.017 C 
ENDBRANCH   1   6
BRANCH   1  10
HETATM   10  O10 UNL     1     -32.448   5.544   2.545  1.00 20.00    -0.394 OA
HETATM   11  H28 UNL     1     -33.077   5.656   1.817  1.00 20.00     0.210 HD
ENDBRANCH   1  10
TORSDOF 3
