REMARK  5 active torsions:
REMARK  status: ('A' for Active; 'I' for Inactive)
REMARK    1  A    between atoms: C1_1  and  C7_7 
REMARK    2  A    between atoms: C1_1  and  C9_9 
REMARK    3  A    between atoms: C4_4  and  C9_9 
REMARK    4  A    between atoms: C8_8  and  C9_9 
REMARK    5  A    between atoms: C8_8  and  O11_11 
ROOT
HETATM    1  C9  UNL     1     -33.156   7.584   3.062  1.00 20.00     0.083 C 
ENDROOT
BRANCH   1   2
HETATM    2  C1  UNL     1     -32.583   8.396   1.895  1.00 20.00     0.133 C 
HETATM    3  O10 UNL     1     -31.496   8.119   1.387  1.00 20.00    -0.297 OA
BRANCH   2   4
HETATM    4  C7  UNL     1     -33.410   9.580   1.418  1.00 20.00     0.074 C 
HETATM    5  C5  UNL     1     -32.772  10.297   0.241  1.00 20.00     0.013 C 
ENDBRANCH   2   4
ENDBRANCH   1   2
BRANCH   1   6
HETATM    6  C4  UNL     1     -32.260   7.644   4.273  1.00 20.00    -0.001 A 
HETATM    7  C2  UNL     1     -32.030   8.950   4.982  1.00 20.00     0.006 A 
HETATM    8  C3  UNL     1     -32.847   7.872   5.638  1.00 20.00     0.006 A 
ENDBRANCH   1   6
BRANCH   1   9
HETATM    9  C8  UNL     1     -33.380   6.133   2.629  1.00 20.00     0.179 C 
BRANCH   9  10
HETATM   10  O11 UNL     1     -33.920   5.390   3.716  1.00 20.00    -0.395 OA
HETATM   11  C6  UNL     1     -35.306   5.648   3.884  1.00 20.00     0.201 C 
ENDBRANCH   9  10
ENDBRANCH   1   9
TORSDOF 5
