REMARK  6 active torsions:
REMARK  status: ('A' for Active; 'I' for Inactive)
REMARK    1  A    between atoms: C5_5  and  C10_10 
REMARK    2  A    between atoms: C6_6  and  C7_7 
REMARK    3  A    between atoms: C6_6  and  C10_10 
REMARK    4  A    between atoms: C7_7  and  C11_11 
REMARK    5  A    between atoms: C8_8  and  C9_9 
REMARK    6  A    between atoms: C8_8  and  C11_11 
ROOT
HETATM    1  C7  UNL     1     -31.838   7.376   3.004  1.00 20.00     0.020 C 
ENDROOT
BRANCH   1   2
HETATM    2  C6  UNL     1     -31.858   8.904   3.168  1.00 20.00     0.005 C 
BRANCH   2   3
HETATM    3  C10 UNL     1     -32.698   9.616   2.087  1.00 20.00    -0.019 C 
HETATM    4  C4  UNL     1     -32.522   8.975   0.707  1.00 20.00     0.010 C 
BRANCH   3   5
HETATM    5  C5  UNL     1     -32.404  11.131   2.046  1.00 20.00    -0.000 C 
HETATM    6  C1  UNL     1     -33.234  11.930   1.050  1.00 20.00     0.005 C 
ENDBRANCH   3   5
ENDBRANCH   2   3
ENDBRANCH   1   2
BRANCH   1   7
HETATM    7  C11 UNL     1     -33.231   6.732   3.105  1.00 20.00     0.082 C 
HETATM    8 CL12 UNL     1     -33.255   5.150   2.248  1.00 20.00    -0.125 Cl
BRANCH   7   9
HETATM    9  C8  UNL     1     -33.680   6.481   4.556  1.00 20.00     0.024 C 
BRANCH   9  10
HETATM   10  C9  UNL     1     -34.762   5.399   4.749  1.00 20.00    -0.021 C 
HETATM   11  C2  UNL     1     -36.056   5.725   4.003  1.00 20.00     0.009 C 
HETATM   12  C3  UNL     1     -35.056   5.225   6.242  1.00 20.00     0.009 C 
ENDBRANCH   9  10
ENDBRANCH   7   9
ENDBRANCH   1   7
TORSDOF 6
