REMARK  4 active torsions:
REMARK  status: ('A' for Active; 'I' for Inactive)
REMARK    1  A    between atoms: C3_3  and  C7_7 
REMARK    2  A    between atoms: C6_6  and  C7_7 
REMARK    3  A    between atoms: C6_6  and  O9_9 
REMARK    4  A    between atoms: C7_7  and  C8_8 
ROOT
HETATM    1  C7  UNL     1     -33.692   6.683   3.929  1.00 20.00     0.032 C 
ENDROOT
BRANCH   1   2
HETATM    2  C3  UNL     1     -34.691   6.761   5.065  1.00 20.00    -0.007 A 
HETATM    3  C1  UNL     1     -34.538   5.878   6.272  1.00 20.00     0.005 A 
HETATM    4  C2  UNL     1     -34.289   7.356   6.386  1.00 20.00     0.005 A 
ENDBRANCH   1   2
BRANCH   1   5
HETATM    5  C6  UNL     1     -33.680   7.999   3.133  1.00 20.00     0.173 C 
BRANCH   5   6
HETATM    6  O9  UNL     1     -32.466   8.095   2.394  1.00 20.00    -0.396 OA
HETATM    7  C5  UNL     1     -32.390   9.320   1.679  1.00 20.00     0.201 C 
ENDBRANCH   5   6
ENDBRANCH   1   5
BRANCH   1   8
HETATM    8  C8  UNL     1     -33.917   5.470   2.992  1.00 20.00     0.084 C 
HETATM    9  C4  UNL     1     -32.921   5.397   1.839  1.00 20.00     0.027 C 
HETATM   10 CL10 UNL     1     -33.903   3.913   3.879  1.00 20.00    -0.125 Cl
ENDBRANCH   1   8
TORSDOF 4
