REMARK  1 active torsions:
REMARK  status: ('A' for Active; 'I' for Inactive)
REMARK    1  A    between atoms: C5_5  and  C6_6 
ROOT
HETATM    1  C3  UNL     1     -31.723   8.385   2.598  1.00 20.00     0.282 C 
HETATM    2  C4  UNL     1     -32.971   8.957   1.946  1.00 20.00     0.106 C 
HETATM    3  C6  UNL     1     -33.260   6.742   3.363  1.00 20.00     0.208 C 
HETATM    4  C8  UNL     1     -32.729   5.398   2.855  1.00 20.00     0.062 C 
HETATM    5  N9  UNL     1     -32.137   7.608   3.775  1.00 20.00     0.104 N 
HETATM    6  S10 UNL     1     -34.153   7.594   2.011  1.00 20.00    -0.126 SA
HETATM    7  H25 UNL     1     -31.354   7.022   4.052  1.00 20.00     0.318 HD
ENDROOT
BRANCH   3   8
HETATM    8  C5  UNL     1     -34.213   6.525   4.541  1.00 20.00     0.001 A 
HETATM    9  C1  UNL     1     -33.625   6.510   5.933  1.00 20.00     0.013 A 
HETATM   10  C2  UNL     1     -34.450   7.682   5.483  1.00 20.00     0.013 A 
HETATM   11  C7  UNL     1     -35.365   5.603   4.252  1.00 20.00     0.019 C 
ENDBRANCH   3   8
TORSDOF 1
