REMARK  3 active torsions:
REMARK  status: ('A' for Active; 'I' for Inactive)
REMARK    1  A    between atoms: C3_3  and  N7_7 
REMARK    2  A    between atoms: C4_4  and  C5_5 
REMARK    3  A    between atoms: C4_4  and  N7_7 
ROOT
HETATM    1  C1  UNL     1     -32.366   7.667   2.190  1.00 20.00     0.089 C 
HETATM    2  C3  UNL     1     -33.283   7.207   3.231  1.00 20.00     0.395 C 
HETATM    3  N6  UNL     1     -31.637   8.035   1.366  1.00 20.00    -0.195 NA
ENDROOT
BRANCH   2   4
HETATM    4  N7  UNL     1     -33.992   6.000   2.806  1.00 20.00     0.099 N 
HETATM    5  C2  UNL     1     -33.143   4.822   2.977  1.00 20.00     0.311 C 
BRANCH   4   6
HETATM    6  C4  UNL     1     -35.237   5.847   3.557  1.00 20.00     0.304 C 
BRANCH   6   7
HETATM    7  C5  UNL     1     -34.973   5.642   5.034  1.00 20.00     0.252 C 
HETATM    8  F8  UNL     1     -34.233   4.512   5.199  1.00 20.00    -0.254 F 
ENDBRANCH   6   7
ENDBRANCH   4   6
ENDBRANCH   2   4
TORSDOF 3
