REMARK  1 active torsions:
REMARK  status: ('A' for Active; 'I' for Inactive)
REMARK    1  A    between atoms: C3_3  and  C8_8 
ROOT
HETATM    1  C1  UNL     1     -34.177   7.125   3.917  1.00 20.00     0.111 C 
HETATM    2  C2  UNL     1     -32.935   6.375   3.442  1.00 20.00     0.227 C 
HETATM    3  C3  UNL     1     -32.493   8.458   2.375  1.00 20.00     0.205 C 
HETATM    4  C4  UNL     1     -33.226   4.893   3.229  1.00 20.00     0.043 C 
HETATM    5  C5  UNL     1     -31.127   8.918   2.894  1.00 20.00     0.062 C 
HETATM    6  N9  UNL     1     -32.494   6.996   2.180  1.00 20.00     0.108 N 
HETATM    7  S10 UNL     1     -33.780   8.859   3.611  1.00 20.00    -0.126 SA
HETATM    8  H27 UNL     1     -31.569   6.658   1.919  1.00 20.00     0.318 HD
ENDROOT
BRANCH   3   9
HETATM    9  C8  UNL     1     -32.822   9.162   1.055  1.00 20.00     0.026 C 
HETATM   10  C6  UNL     1     -32.895  10.673   1.258  1.00 20.00     0.013 C 
HETATM   11  C7  UNL     1     -31.787   8.811  -0.010  1.00 20.00     0.013 C 
ENDBRANCH   3   9
TORSDOF 1
