REMARK  2 active torsions:
REMARK  status: ('A' for Active; 'I' for Inactive)
REMARK    1  A    between atoms: C3_3  and  C7_7 
REMARK    2  A    between atoms: C3_3  and  C8_8 
ROOT
HETATM    1  C1  UNL     1     -31.594   8.122   2.495  1.00 20.00     0.286 C 
HETATM    2  C2  UNL     1     -32.682   8.993   1.876  1.00 20.00     0.074 C 
HETATM    3  C3  UNL     1     -33.429   7.278   3.751  1.00 20.00     0.205 C 
HETATM    4  C4  UNL     1     -32.546   9.124   0.369  1.00 20.00     0.023 C 
HETATM    5  N9  UNL     1     -32.041   7.756   3.841  1.00 20.00     0.104 N 
HETATM    6  S10 UNL     1     -34.215   8.143   2.341  1.00 20.00    -0.122 SA
HETATM    7  H27 UNL     1     -31.431   7.043   4.238  1.00 20.00     0.318 HD
ENDROOT
BRANCH   3   8
HETATM    8  C7  UNL     1     -33.485   5.766   3.512  1.00 20.00     0.048 C 
HETATM    9  C5  UNL     1     -34.891   5.282   3.398  1.00 20.00     0.009 C 
ENDBRANCH   3   8
BRANCH   3  10
HETATM   10  C8  UNL     1     -34.158   7.645   5.043  1.00 20.00     0.048 C 
HETATM   11  C6  UNL     1     -33.548   6.973   6.229  1.00 20.00     0.009 C 
ENDBRANCH   3  10
TORSDOF 2
