REMARK  4 active torsions:
REMARK  status: ('A' for Active; 'I' for Inactive)
REMARK    1  A    between atoms: C5_5  and  C6_6 
REMARK    2  A    between atoms: C5_5  and  C8_8 
REMARK    3  A    between atoms: C6_6  and  C7_7 
REMARK    4  A    between atoms: C6_6  and  N9_9 
ROOT
HETATM    1  C6  UNL     1     -34.467   5.996   3.883  1.00 20.00     0.285 C 
ENDROOT
BRANCH   1   2
HETATM    2  C5  UNL     1     -33.659   7.310   3.975  1.00 20.00     0.049 C 
BRANCH   2   3
HETATM    3  C8  UNL     1     -33.292   8.043   2.651  1.00 20.00    -0.049 C 
HETATM    4  C1  UNL     1     -31.888   7.646   2.166  1.00 20.00     0.014 C 
HETATM    5  C2  UNL     1     -34.315   7.611   1.578  1.00 20.00     0.014 C 
HETATM    6  C3  UNL     1     -33.365   9.573   2.783  1.00 20.00     0.014 C 
ENDBRANCH   2   3
ENDBRANCH   1   2
BRANCH   1   7
HETATM    7  C7  UNL     1     -33.537   4.806   3.643  1.00 20.00     0.386 C 
HETATM    8  F10 UNL     1     -34.163   3.644   3.952  1.00 20.00    -0.212 F 
HETATM    9  F11 UNL     1     -33.210   4.737   2.327  1.00 20.00    -0.212 F 
ENDBRANCH   1   7
BRANCH   1  10
HETATM   10  N9  UNL     1     -35.233   5.748   5.101  1.00 20.00     0.089 N 
HETATM   11  C4  UNL     1     -34.353   5.663   6.257  1.00 20.00     0.307 C 
HETATM   12  H28 UNL     1     -35.743   4.872   5.000  1.00 20.00     0.316 HD
ENDBRANCH   1  10
TORSDOF 4
