REMARK  4 active torsions:
REMARK  status: ('A' for Active; 'I' for Inactive)
REMARK    1  A    between atoms: C5_5  and  C8_8 
REMARK    2  A    between atoms: C6_6  and  C8_8 
REMARK    3  A    between atoms: C7_7  and  C8_8 
REMARK    4  A    between atoms: C8_8  and  N9_9 
ROOT
HETATM    1  C8  UNL     1     -33.321   6.799   4.046  1.00 20.00     0.217 C 
ENDROOT
BRANCH   1   2
HETATM    2  C5  UNL     1     -32.976   6.465   5.528  1.00 20.00     0.043 C 
HETATM    3  C1  UNL     1     -33.366   7.517   6.562  1.00 20.00     0.008 C 
ENDBRANCH   1   2
BRANCH   1   4
HETATM    4  C6  UNL     1     -32.623   8.110   3.537  1.00 20.00     0.021 C 
HETATM    5  C2  UNL     1     -32.976   8.494   2.093  1.00 20.00     0.012 C 
HETATM    6  C3  UNL     1     -31.089   8.081   3.667  1.00 20.00     0.012 C 
ENDBRANCH   1   4
BRANCH   1   7
HETATM    7  C7  UNL     1     -32.980   5.571   3.178  1.00 20.00     0.391 C 
HETATM    8  F10 UNL     1     -33.146   4.429   3.898  1.00 20.00    -0.212 F 
HETATM    9  F11 UNL     1     -33.832   5.475   2.127  1.00 20.00    -0.212 F 
ENDBRANCH   1   7
BRANCH   1  10
HETATM   10  N9  UNL     1     -34.782   6.978   3.933  1.00 20.00     0.094 N 
HETATM   11  C4  UNL     1     -35.468   5.764   4.329  1.00 20.00     0.307 C 
HETATM   12  H28 UNL     1     -35.000   7.202   2.969  1.00 20.00     0.316 HD
ENDBRANCH   1  10
TORSDOF 4
