REMARK  1 active torsions:
REMARK  status: ('A' for Active; 'I' for Inactive)
REMARK    1  A    between atoms: C4_4  and  C7_7 
ROOT
HETATM    1  C1  UNL     1     -34.177   5.176   5.989  1.00 20.00     0.040 C 
HETATM    2  C2  UNL     1     -34.432   4.677   4.568  1.00 20.00     0.272 C 
HETATM    3  C3  UNL     1     -34.229   6.693   6.113  1.00 20.00     0.078 C 
HETATM    4  C4  UNL     1     -33.413   6.629   3.450  1.00 20.00     0.201 C 
HETATM    5  C5  UNL     1     -34.718   7.183   2.858  1.00 20.00     0.061 C 
HETATM    6  N8  UNL     1     -33.446   5.167   3.607  1.00 20.00     0.102 N 
HETATM    7  S9  UNL     1     -33.016   7.492   5.024  1.00 20.00    -0.128 SA
HETATM    8  H24 UNL     1     -32.522   4.835   3.886  1.00 20.00     0.317 HD
ENDROOT
BRANCH   4   9
HETATM    9  C7  UNL     1     -32.265   6.947   2.474  1.00 20.00     0.048 C 
HETATM   10  C6  UNL     1     -32.123   8.416   2.266  1.00 20.00     0.009 C 
ENDBRANCH   4   9
TORSDOF 1
