REMARK  2 active torsions:
REMARK  status: ('A' for Active; 'I' for Inactive)
REMARK    1  A    between atoms: C6_6  and  C7_7 
REMARK    2  A    between atoms: C6_6  and  N9_9 
ROOT
HETATM    1  C1  UNL     1     -34.094   7.273   5.174  1.00 20.00     0.095 C 
HETATM    2  C2  UNL     1     -33.639   4.029   3.893  1.00 20.00     0.033 C 
HETATM    3  C3  UNL     1     -34.650   4.928   4.591  1.00 20.00     0.053 C 
HETATM    4  C4  UNL     1     -33.238   4.827   2.670  1.00 20.00     0.274 C 
HETATM    5  C5  UNL     1     -34.363   6.342   4.070  1.00 20.00     0.328 C 
HETATM    6  N8  UNL     1     -33.882   8.008   6.046  1.00 20.00    -0.195 NA
HETATM    7  N9  UNL     1     -33.182   6.188   3.205  1.00 20.00     0.108 N 
ENDROOT
BRANCH   7   8
HETATM    8  C6  UNL     1     -33.111   7.188   2.147  1.00 20.00     0.305 C 
BRANCH   8   9
HETATM    9  C7  UNL     1     -32.605   8.515   2.671  1.00 20.00     0.252 C 
HETATM   10  F10 UNL     1     -32.548   9.403   1.642  1.00 20.00    -0.254 F 
ENDBRANCH   8   9
ENDBRANCH   7   8
TORSDOF 2
