REMARK  4 active torsions:
REMARK  status: ('A' for Active; 'I' for Inactive)
REMARK    1  A    between atoms: C1_1  and  C4_4 
REMARK    2  A    between atoms: C1_1  and  C7_7 
REMARK    3  A    between atoms: C4_4  and  C5_5 
REMARK    4  A    between atoms: C5_5  and  C6_6 
ROOT
HETATM    1  C1  UNL     1     -33.166   7.021   4.394  1.00 20.00     0.130 C 
HETATM    2  O8  UNL     1     -33.248   7.355   5.576  1.00 20.00    -0.298 OA
ENDROOT
BRANCH   1   3
HETATM    3  C4  UNL     1     -32.221   7.720   3.426  1.00 20.00     0.081 C 
BRANCH   3   4
HETATM    4  C5  UNL     1     -32.933   8.375   2.244  1.00 20.00     0.038 C 
BRANCH   4   5
HETATM    5  C6  UNL     1     -31.972   9.074   1.294  1.00 20.00     0.222 C 
HETATM    6  F9  UNL     1     -32.674   9.599   0.255  1.00 20.00    -0.255 F 
ENDBRANCH   4   5
ENDBRANCH   3   4
ENDBRANCH   1   3
BRANCH   1   7
HETATM    7  C7  UNL     1     -33.968   5.847   3.833  1.00 20.00     0.047 C 
HETATM    8  C2  UNL     1     -33.189   5.170   2.712  1.00 20.00     0.017 C 
HETATM    9  C3  UNL     1     -34.318   4.844   4.930  1.00 20.00     0.017 C 
ENDBRANCH   1   7
TORSDOF 4
