REMARK  2 active torsions:
REMARK  status: ('A' for Active; 'I' for Inactive)
REMARK    1  A    between atoms: C3_3  and  C8_8 
REMARK    2  A    between atoms: C3_3  and  C9_9 
ROOT
HETATM    1  C1  UNL     1     -32.627  10.425   1.307  1.00 20.00     0.012 C 
HETATM    2  C2  UNL     1     -32.773   9.268   1.593  1.00 20.00    -0.110 C 
HETATM    3  C9  UNL     1     -32.954   7.853   1.934  1.00 20.00     0.172 C 
ENDROOT
BRANCH   3   4
HETATM    4  C3  UNL     1     -32.888   7.602   3.427  1.00 20.00     0.151 C 
HETATM    5  O10 UNL     1     -31.909   7.890   4.115  1.00 20.00    -0.296 OA
BRANCH   4   6
HETATM    6  C8  UNL     1     -34.098   6.974   4.042  1.00 20.00     0.117 C 
HETATM    7  C6  UNL     1     -33.904   6.800   5.550  1.00 20.00     0.023 C 
HETATM    8  C4  UNL     1     -34.832   5.751   6.152  1.00 20.00     0.002 C 
HETATM    9  C5  UNL     1     -34.518   4.332   5.674  1.00 20.00     0.010 C 
HETATM   10  C7  UNL     1     -33.792   4.236   4.336  1.00 20.00     0.075 C 
HETATM   11  S11 UNL     1     -34.423   5.428   3.126  1.00 20.00    -0.157 SA
ENDBRANCH   4   6
ENDBRANCH   3   4
TORSDOF 2
