REMARK  0 active torsions:
REMARK  status: ('A' for Active; 'I' for Inactive)
ROOT
HETATM    1  C1  UNL     1     -32.270   7.839   2.302  1.00 20.00     0.064 C 
HETATM    2  C2  UNL     1     -32.737   7.507   4.719  1.00 20.00     0.020 C 
HETATM    3  C3  UNL     1     -33.578   6.395   5.337  1.00 20.00     0.010 C 
HETATM    4  C4  UNL     1     -32.914   5.597   3.183  1.00 20.00     0.027 C 
HETATM    5  C5  UNL     1     -32.149   6.909   3.434  1.00 20.00     0.093 C 
HETATM    6  C6  UNL     1     -34.123   5.614   4.135  1.00 20.00    -0.046 C 
HETATM    7  C7  UNL     1     -34.544   4.197   4.535  1.00 20.00     0.015 C 
HETATM    8  C8  UNL     1     -35.325   6.330   3.497  1.00 20.00     0.015 C 
HETATM    9  N9  UNL     1     -32.366   8.573   1.409  1.00 20.00    -0.197 NA
ENDROOT
TORSDOF 0
