REMARK  2 active torsions:
REMARK  status: ('A' for Active; 'I' for Inactive)
REMARK    1  A    between atoms: C5_5  and  C6_6 
REMARK    2  A    between atoms: C5_5  and  N7_7 
ROOT
HETATM    1  C1  UNL     1     -33.518   5.091   3.444  1.00 20.00     0.052 C 
HETATM    2  C2  UNL     1     -32.639   5.930   2.534  1.00 20.00     0.274 C 
HETATM    3  C3  UNL     1     -33.800   7.469   3.863  1.00 20.00     0.292 C 
HETATM    4  C4  UNL     1     -34.485   6.111   4.037  1.00 20.00     0.112 C 
HETATM    5  N7  UNL     1     -32.471   7.144   3.332  1.00 20.00     0.092 N 
HETATM    6 CL9  UNL     1     -34.853   5.749   5.736  1.00 20.00    -0.123 Cl
ENDROOT
BRANCH   5   7
HETATM    7  C5  UNL     1     -31.888   8.238   2.572  1.00 20.00     0.303 C 
BRANCH   7   8
HETATM    8  C6  UNL     1     -32.736   8.591   1.368  1.00 20.00     0.252 C 
HETATM    9  F8  UNL     1     -32.152   9.625   0.703  1.00 20.00    -0.254 F 
ENDBRANCH   7   8
ENDBRANCH   5   7
TORSDOF 2
