REMARK  0 active torsions:
REMARK  status: ('A' for Active; 'I' for Inactive)
ROOT
HETATM    1  C1  UNL     1     -34.447   5.466   4.828  1.00 20.00     0.088 C 
HETATM    2  C2  UNL     1     -33.185   6.588   3.110  1.00 20.00    -0.069 C 
HETATM    3  C3  UNL     1     -34.119   5.700   3.467  1.00 20.00     0.096 C 
HETATM    4  C4  UNL     1     -32.390   7.422   4.075  1.00 20.00     0.036 C 
HETATM    5  C5  UNL     1     -32.805   6.905   1.690  1.00 20.00     0.043 C 
HETATM    6  C6  UNL     1     -31.358   8.108   3.181  1.00 20.00     0.013 C 
HETATM    7  C7  UNL     1     -32.043   8.238   1.809  1.00 20.00    -0.044 C 
HETATM    8  C8  UNL     1     -33.008   9.437   1.781  1.00 20.00     0.015 C 
HETATM    9  C9  UNL     1     -31.016   8.399   0.685  1.00 20.00     0.015 C 
HETATM   10  N10 UNL     1     -34.719   5.271   5.939  1.00 20.00    -0.192 NA
ENDROOT
TORSDOF 0
