REMARK  3 active torsions:
REMARK  status: ('A' for Active; 'I' for Inactive)
REMARK    1  A    between atoms: C2_2  and  C8_8 
REMARK    2  A    between atoms: C6_6  and  C8_8 
REMARK    3  A    between atoms: C8_8  and  N9_9 
ROOT
HETATM    1  C8  UNL     1     -33.341   7.456   2.795  1.00 20.00     0.255 C 
ENDROOT
BRANCH   1   2
HETATM    2  C2  UNL     1     -33.528   6.021   2.386  1.00 20.00    -0.001 C 
HETATM    3  C1  UNL     1     -32.803   5.006   2.869  1.00 20.00     0.009 C 
ENDBRANCH   1   2
BRANCH   1   4
HETATM    4  C6  UNL     1     -32.295   8.152   1.933  1.00 20.00     0.084 C 
HETATM    5  C4  UNL     1     -32.868   8.703   0.629  1.00 20.00     0.018 C 
HETATM    6  C3  UNL     1     -33.482  10.062   0.937  1.00 20.00     0.011 C 
HETATM    7  C5  UNL     1     -32.441  10.839   1.721  1.00 20.00     0.074 C 
HETATM    8  S10 UNL     1     -31.648   9.618   2.804  1.00 20.00    -0.162 SA
ENDBRANCH   1   4
BRANCH   1   9
HETATM    9  N9  UNL     1     -32.959   7.472   4.187  1.00 20.00     0.088 N 
HETATM   10  C7  UNL     1     -34.117   7.300   5.061  1.00 20.00     0.307 C 
HETATM   11  H25 UNL     1     -32.508   8.363   4.413  1.00 20.00     0.316 HD
ENDBRANCH   1   9
TORSDOF 3
