REMARK  4 active torsions:
REMARK  status: ('A' for Active; 'I' for Inactive)
REMARK    1  A    between atoms: C5_5  and  C6_6 
REMARK    2  A    between atoms: C6_6  and  C9_9 
REMARK    3  A    between atoms: C7_7  and  C8_8 
REMARK    4  A    between atoms: C7_7  and  N10_10 
ROOT
HETATM    1  C1  UNL     1     -31.330   8.297   4.118  1.00 20.00     0.028 C 
HETATM    2  C2  UNL     1     -32.740   7.725   4.230  1.00 20.00     0.008 C 
HETATM    3  C3  UNL     1     -31.170   9.161   2.876  1.00 20.00     0.235 C 
HETATM    4  C4  UNL     1     -32.964   7.845   1.719  1.00 20.00     0.239 C 
HETATM    5  C5  UNL     1     -33.134   6.964   2.958  1.00 20.00     0.012 C 
HETATM    6  N10 UNL     1     -31.544   8.356   1.655  1.00 20.00    -0.069 N 
HETATM    7  H30 UNL     1     -30.924   7.535   1.627  1.00 20.00     0.280 HD
ENDROOT
BRANCH   6   8
HETATM    8  C7  UNL     1     -31.288   9.123   0.386  1.00 20.00     0.266 C 
BRANCH   8   9
HETATM    9  C8  UNL     1     -32.417  10.103   0.165  1.00 20.00     0.249 C 
HETATM   10  F11 UNL     1     -32.501  10.937   1.236  1.00 20.00    -0.254 F 
ENDBRANCH   8   9
ENDBRANCH   6   8
BRANCH   5  11
HETATM   11  C6  UNL     1     -34.571   6.457   3.058  1.00 20.00     0.021 C 
BRANCH  11  12
HETATM   12  C9  UNL     1     -34.775   5.444   4.176  1.00 20.00     0.115 C 
HETATM   13 CL12 UNL     1     -33.736   4.013   3.979  1.00 20.00    -0.130 Cl
ENDBRANCH  11  12
ENDBRANCH   5  11
TORSDOF 4
