REMARK  2 active torsions:
REMARK  status: ('A' for Active; 'I' for Inactive)
REMARK    1  A    between atoms: C1_1  and  C5_5 
REMARK    2  A    between atoms: C1_1  and  C11_11 
ROOT
HETATM    1  C2  UNL     1     -33.557   7.643   4.505  1.00 20.00     0.013 C 
HETATM    2  C3  UNL     1     -33.559   6.144   4.790  1.00 20.00     0.009 C 
HETATM    3  C4  UNL     1     -33.994   6.362   2.455  1.00 20.00     0.021 C 
HETATM    4  C5  UNL     1     -33.721   7.775   2.986  1.00 20.00     0.056 C 
HETATM    5  C6  UNL     1     -34.425   5.537   3.679  1.00 20.00    -0.047 C 
HETATM    6  C7  UNL     1     -35.923   5.722   3.970  1.00 20.00     0.015 C 
HETATM    7  C8  UNL     1     -34.129   4.048   3.489  1.00 20.00     0.015 C 
ENDROOT
BRANCH   4   8
HETATM    8  C1  UNL     1     -32.499   8.365   2.351  1.00 20.00     0.134 C 
HETATM    9  O12 UNL     1     -31.389   8.212   2.862  1.00 20.00    -0.297 OA
BRANCH   8  10
HETATM   10  C11 UNL     1     -32.707   9.179   1.078  1.00 20.00     0.047 C 
HETATM   11  C9  UNL     1     -32.961  10.640   1.430  1.00 20.00     0.017 C 
HETATM   12  C10 UNL     1     -31.509   9.047   0.141  1.00 20.00     0.017 C 
ENDBRANCH   8  10
ENDBRANCH   4   8
TORSDOF 2
