REMARK  4 active torsions:
REMARK  status: ('A' for Active; 'I' for Inactive)
REMARK    1  A    between atoms: C2_2  and  C8_8 
REMARK    2  A    between atoms: C6_6  and  C9_9 
REMARK    3  A    between atoms: C8_8  and  C9_9 
REMARK    4  A    between atoms: C9_9  and  O10_10 
ROOT
HETATM    1  C1  UNL     1     -32.189   9.625   1.400  1.00 20.00    -0.111 C 
HETATM    2  C2  UNL     1     -31.971   8.742   2.184  1.00 20.00    -0.104 C 
HETATM    3  C7  UNL     1     -32.456  10.699   0.444  1.00 20.00     0.112 C 
ENDROOT
BRANCH   2   4
HETATM    4  C8  UNL     1     -31.701   7.662   3.147  1.00 20.00     0.126 C 
BRANCH   4   5
HETATM    5  C9  UNL     1     -32.741   6.545   3.036  1.00 20.00     0.143 C 
BRANCH   5   6
HETATM    6  C6  UNL     1     -34.044   6.936   3.723  1.00 20.00     0.077 C 
HETATM    7  C4  UNL     1     -35.134   5.876   3.582  1.00 20.00     0.018 C 
HETATM    8  C3  UNL     1     -34.904   4.835   4.668  1.00 20.00     0.011 C 
HETATM    9  C5  UNL     1     -34.722   5.599   5.967  1.00 20.00     0.074 C 
HETATM   10  S11 UNL     1     -33.779   7.083   5.522  1.00 20.00    -0.162 SA
ENDBRANCH   5   6
BRANCH   5  11
HETATM   11  O10 UNL     1     -33.011   6.304   1.656  1.00 20.00    -0.394 OA
HETATM   12  H25 UNL     1     -33.365   7.131   1.297  1.00 20.00     0.210 HD
ENDBRANCH   5  11
ENDBRANCH   4   5
ENDBRANCH   2   4
TORSDOF 4
