REMARK  3 active torsions:
REMARK  status: ('A' for Active; 'I' for Inactive)
REMARK    1  A    between atoms: C5_5  and  C8_8 
REMARK    2  A    between atoms: C6_6  and  C9_9 
REMARK    3  A    between atoms: C8_8  and  C10_10 
ROOT
HETATM    1  C1  UNL     1     -32.720   5.914   2.683  1.00 20.00     0.131 C 
HETATM    2  C2  UNL     1     -31.398   6.564   2.338  1.00 20.00     0.079 C 
HETATM    3  C3  UNL     1     -31.622   7.834   1.530  1.00 20.00     0.012 C 
HETATM    4  C4  UNL     1     -33.935   8.088   2.497  1.00 20.00     0.017 C 
HETATM    5  C5  UNL     1     -33.758   6.819   3.337  1.00 20.00     0.058 C 
HETATM    6  C6  UNL     1     -32.594   8.791   2.233  1.00 20.00    -0.014 C 
HETATM    7  O11 UNL     1     -32.894   4.707   2.521  1.00 20.00    -0.298 OA
ENDROOT
BRANCH   5   8
HETATM    8  C8  UNL     1     -35.093   6.105   3.523  1.00 20.00     0.043 C 
BRANCH   8   9
HETATM    9  C10 UNL     1     -35.064   5.174   4.720  1.00 20.00     0.223 C 
HETATM   10  F12 UNL     1     -34.093   4.240   4.539  1.00 20.00    -0.255 F 
ENDBRANCH   8   9
ENDBRANCH   5   8
BRANCH   6  11
HETATM   11  C9  UNL     1     -32.804  10.053   1.398  1.00 20.00     0.000 C 
HETATM   12  C7  UNL     1     -33.396   9.739   0.064  1.00 20.00     0.005 C 
ENDBRANCH   6  11
TORSDOF 3
