REMARK  1 active torsions:
REMARK  status: ('A' for Active; 'I' for Inactive)
REMARK    1  A    between atoms: C5_5  and  O11_11 
ROOT
HETATM    1  C1  UNL     1     -33.257   7.441   4.580  1.00 20.00     0.098 C 
HETATM    2  C2  UNL     1     -31.209   8.056   3.311  1.00 20.00     0.054 C 
HETATM    3  C3  UNL     1     -31.227   9.458   2.708  1.00 20.00     0.013 C 
HETATM    4  C4  UNL     1     -33.425   8.582   2.375  1.00 20.00     0.062 C 
HETATM    5  C5  UNL     1     -32.663   7.559   3.241  1.00 20.00     0.148 C 
HETATM    6  C6  UNL     1     -32.343   9.413   1.658  1.00 20.00    -0.044 C 
HETATM    7  C7  UNL     1     -32.846  10.818   1.317  1.00 20.00     0.015 C 
HETATM    8  C8  UNL     1     -31.875   8.723   0.366  1.00 20.00     0.015 C 
HETATM    9  N10 UNL     1     -33.727   7.348   5.637  1.00 20.00    -0.194 NA
ENDROOT
BRANCH   5  10
HETATM   10  O11 UNL     1     -32.674   6.282   2.608  1.00 20.00    -0.370 OA
HETATM   11  C9  UNL     1     -33.995   5.778   2.474  1.00 20.00     0.204 C 
ENDBRANCH   5  10
TORSDOF 1
