REMARK  1 active torsions:
REMARK  status: ('A' for Active; 'I' for Inactive)
REMARK    1  A    between atoms: C3_3  and  C8_8 
ROOT
HETATM    1  C1  UNL     1     -33.252   9.872   1.214  1.00 20.00     0.021 C 
HETATM    2  C2  UNL     1     -32.978   9.036   2.032  1.00 20.00    -0.037 C 
HETATM    3  C3  UNL     1     -32.648   8.033   3.015  1.00 20.00     0.235 C 
HETATM    4  O10 UNL     1     -31.643   8.161   3.703  1.00 20.00    -0.280 OA
ENDROOT
BRANCH   3   5
HETATM    5  C8  UNL     1     -33.593   6.871   3.124  1.00 20.00     0.129 C 
HETATM    6  C6  UNL     1     -34.172   6.812   4.542  1.00 20.00     0.047 C 
HETATM    7  C4  UNL     1     -34.804   5.457   4.845  1.00 20.00     0.006 C 
HETATM    8  C5  UNL     1     -33.836   4.333   4.498  1.00 20.00     0.026 C 
HETATM    9  C7  UNL     1     -33.319   4.483   3.075  1.00 20.00     0.169 C 
HETATM   10  O11 UNL     1     -32.723   5.763   2.870  1.00 20.00    -0.372 OA
HETATM   11  C9  UNL     1     -34.662   7.009   2.040  1.00 20.00     0.055 C 
ENDBRANCH   3   5
TORSDOF 1
