REMARK  3 active torsions:
REMARK  status: ('A' for Active; 'I' for Inactive)
REMARK    1  A    between atoms: C4_4  and  C5_5 
REMARK    2  A    between atoms: C6_6  and  C7_7 
REMARK    3  A    between atoms: C6_6  and  N8_8 
ROOT
HETATM    1  C1  UNL     1     -31.386   7.886   3.096  1.00 20.00     0.035 C 
HETATM    2  C2  UNL     1     -32.396   7.402   4.123  1.00 20.00     0.235 C 
HETATM    3  C3  UNL     1     -33.357   7.423   1.874  1.00 20.00     0.240 C 
HETATM    4  C4  UNL     1     -32.247   8.455   1.977  1.00 20.00     0.027 C 
HETATM    5  N8  UNL     1     -33.644   7.079   3.321  1.00 20.00    -0.068 N 
HETATM    6  H24 UNL     1     -34.380   7.724   3.642  1.00 20.00     0.280 HD
ENDROOT
BRANCH   5   7
HETATM    7  C6  UNL     1     -34.161   5.691   3.519  1.00 20.00     0.266 C 
BRANCH   7   8
HETATM    8  C7  UNL     1     -34.960   5.639   4.801  1.00 20.00     0.249 C 
HETATM    9  F9  UNL     1     -34.148   5.948   5.846  1.00 20.00    -0.254 F 
ENDBRANCH   7   8
ENDBRANCH   5   7
BRANCH   4  10
HETATM   10  C5  UNL     1     -31.490   8.644   0.675  1.00 20.00     0.121 C 
HETATM   11 CL10 UNL     1     -32.566   9.298  -0.576  1.00 20.00    -0.130 Cl
ENDBRANCH   4  10
TORSDOF 3
