REMARK  1 active torsions:
REMARK  status: ('A' for Active; 'I' for Inactive)
REMARK    1  A    between atoms: C4_4  and  C8_8 
ROOT
HETATM    1  C1  UNL     1     -32.426   7.674   4.325  1.00 20.00     0.006 C 
HETATM    2  C2  UNL     1     -33.390   6.562   4.728  1.00 20.00     0.009 C 
HETATM    3  C3  UNL     1     -33.247   6.775   2.284  1.00 20.00     0.014 C 
HETATM    4  C4  UNL     1     -32.936   8.111   2.957  1.00 20.00     0.000 C 
HETATM    5  C5  UNL     1     -33.851   5.900   3.406  1.00 20.00    -0.047 C 
HETATM    6  C6  UNL     1     -33.338   4.459   3.302  1.00 20.00     0.015 C 
HETATM    7  C7  UNL     1     -35.384   5.893   3.321  1.00 20.00     0.015 C 
ENDROOT
BRANCH   4   8
HETATM    8  C8  UNL     1     -31.931   8.950   2.186  1.00 20.00     0.119 C 
HETATM    9 CL9  UNL     1     -32.594   9.409   0.605  1.00 20.00    -0.130 Cl
ENDBRANCH   4   8
TORSDOF 1
