REMARK  0 active torsions:
REMARK  status: ('A' for Active; 'I' for Inactive)
ROOT
HETATM    1  C1  UNL     1     -32.575   7.841   4.177  1.00 20.00     0.016 C 
HETATM    2  C2  UNL     1     -34.030   7.517   4.494  1.00 20.00     0.010 C 
HETATM    3  C3  UNL     1     -33.318   6.224   2.530  1.00 20.00     0.024 C 
HETATM    4  C4  UNL     1     -32.426   7.450   2.718  1.00 20.00     0.058 C 
HETATM    5  C5  UNL     1     -34.320   6.220   3.714  1.00 20.00    -0.047 C 
HETATM    6  C6  UNL     1     -35.770   6.197   3.217  1.00 20.00     0.015 C 
HETATM    7  C7  UNL     1     -34.082   4.993   4.609  1.00 20.00     0.015 C 
HETATM    8 BR8  UNL     1     -33.027   8.907   1.560  1.00 20.00    -0.091 Br
ENDROOT
TORSDOF 0
