REMARK  0 active torsions:
REMARK  status: ('A' for Active; 'I' for Inactive)
ROOT
HETATM    1  C1  UNL     1     -32.710   7.985   2.312  1.00 20.00     0.064 C 
HETATM    2  C2  UNL     1     -32.547   5.508   2.382  1.00 20.00     0.020 C 
HETATM    3  C3  UNL     1     -33.279   4.577   3.342  1.00 20.00     0.010 C 
HETATM    4  C4  UNL     1     -33.266   6.726   4.390  1.00 20.00     0.027 C 
HETATM    5  C5  UNL     1     -32.365   6.826   3.147  1.00 20.00     0.093 C 
HETATM    6  C6  UNL     1     -34.179   5.507   4.165  1.00 20.00    -0.046 C 
HETATM    7  C7  UNL     1     -35.447   5.897   3.388  1.00 20.00     0.015 C 
HETATM    8  C8  UNL     1     -34.588   4.859   5.490  1.00 20.00     0.015 C 
HETATM    9  N9  UNL     1     -32.982   8.901   1.653  1.00 20.00    -0.197 NA
ENDROOT
TORSDOF 0
