REMARK  1 active torsions:
REMARK  status: ('A' for Active; 'I' for Inactive)
REMARK    1  A    between atoms: C4_4  and  S8_8 
ROOT
HETATM    1  C1  UNL     1     -32.581   7.805   4.906  1.00 20.00     0.015 C 
HETATM    2  C2  UNL     1     -34.075   7.510   4.906  1.00 20.00     0.010 C 
HETATM    3  C3  UNL     1     -32.924   5.991   3.350  1.00 20.00     0.023 C 
HETATM    4  C4  UNL     1     -32.088   7.256   3.572  1.00 20.00     0.045 C 
HETATM    5  C5  UNL     1     -34.204   6.138   4.213  1.00 20.00    -0.047 C 
HETATM    6  C6  UNL     1     -34.269   5.015   5.261  1.00 20.00     0.015 C 
HETATM    7  C7  UNL     1     -35.469   6.082   3.349  1.00 20.00     0.015 C 
ENDROOT
BRANCH   4   8
HETATM    8  S8  UNL     1     -32.316   8.460   2.215  1.00 20.00    -0.177 SA
HETATM    9  H22 UNL     1     -31.801   7.676   1.259  1.00 20.00     0.102 HD
ENDBRANCH   4   8
TORSDOF 1
