REMARK  1 active torsions:
REMARK  status: ('A' for Active; 'I' for Inactive)
REMARK    1  A    between atoms: C5_5  and  O9_9 
ROOT
HETATM    1  C1  UNL     1     -33.330   5.912   2.564  1.00 20.00     0.012 C 
HETATM    2  C2  UNL     1     -33.517   4.861   3.655  1.00 20.00     0.038 C 
HETATM    3  C3  UNL     1     -33.390   6.967   4.792  1.00 20.00     0.046 C 
HETATM    4  C4  UNL     1     -32.991   7.221   3.313  1.00 20.00    -0.045 C 
HETATM    5  C5  UNL     1     -34.168   5.648   4.788  1.00 20.00     0.055 C 
HETATM    6  C6  UNL     1     -33.778   8.398   2.722  1.00 20.00     0.015 C 
HETATM    7  C7  UNL     1     -31.489   7.526   3.213  1.00 20.00     0.015 C 
HETATM    8  C8  UNL     1     -34.123   4.925   6.126  1.00 20.00     0.045 C 
ENDROOT
BRANCH   5   9
HETATM    9  O9  UNL     1     -35.531   5.923   4.463  1.00 20.00    -0.390 OA
HETATM   10  H25 UNL     1     -35.896   6.421   5.210  1.00 20.00     0.210 HD
ENDBRANCH   5   9
TORSDOF 1
