REMARK  1 active torsions:
REMARK  status: ('A' for Active; 'I' for Inactive)
REMARK    1  A    between atoms: C7_7  and  N8_8 
ROOT
HETATM    1  C1  UNL     1     -33.626   4.888   2.879  1.00 20.00     0.048 C 
HETATM    2  C2  UNL     1     -32.669   6.003   2.476  1.00 20.00     0.274 C 
HETATM    3  C3  UNL     1     -34.387   7.075   3.613  1.00 20.00     0.288 C 
HETATM    4  C4  UNL     1     -34.736   5.594   3.650  1.00 20.00     0.087 C 
HETATM    5  N8  UNL     1     -33.547   7.174   2.417  1.00 20.00     0.093 N 
HETATM    6 BR9  UNL     1     -34.846   4.957   5.481  1.00 20.00    -0.089 Br
ENDROOT
BRANCH   5   7
HETATM    7  C7  UNL     1     -32.802   8.423   2.362  1.00 20.00     0.215 C 
HETATM    8  C5  UNL     1     -32.346   8.668   0.930  1.00 20.00     0.042 C 
HETATM    9  C6  UNL     1     -31.624   8.337   3.321  1.00 20.00     0.042 C 
ENDBRANCH   5   7
TORSDOF 1
