REMARK  5 active torsions:
REMARK  status: ('A' for Active; 'I' for Inactive)
REMARK    1  A    between atoms: C3_3  and  C4_4 
REMARK    2  A    between atoms: C3_3  and  N8_8 
REMARK    3  A    between atoms: C5_5  and  C7_7 
REMARK    4  A    between atoms: C6_6  and  C7_7 
REMARK    5  A    between atoms: C7_7  and  N8_8 
ROOT
HETATM    1  C7  UNL     1     -33.055   6.835   3.914  1.00 20.00     0.237 C 
ENDROOT
BRANCH   1   2
HETATM    2  C5  UNL     1     -33.873   7.663   4.911  1.00 20.00     0.150 C 
HETATM    3 CL10 UNL     1     -34.262   6.717   6.374  1.00 20.00    -0.128 Cl
ENDBRANCH   1   2
BRANCH   1   4
HETATM    4  C6  UNL     1     -33.950   5.897   3.064  1.00 20.00     0.011 C 
HETATM    5  C1  UNL     1     -34.756   4.896   3.897  1.00 20.00     0.012 C 
HETATM    6  C2  UNL     1     -33.129   5.149   2.007  1.00 20.00     0.012 C 
ENDBRANCH   1   4
BRANCH   1   7
HETATM    7  N8  UNL     1     -32.247   7.692   3.074  1.00 20.00     0.091 N 
HETATM    8  H25 UNL     1     -31.626   8.261   3.656  1.00 20.00     0.316 HD
BRANCH   7   9
HETATM    9  C3  UNL     1     -33.078   8.581   2.266  1.00 20.00     0.301 C 
BRANCH   9  10
HETATM   10  C4  UNL     1     -32.237   9.463   1.368  1.00 20.00     0.252 C 
HETATM   11  F9  UNL     1     -31.495   8.675   0.543  1.00 20.00    -0.254 F 
ENDBRANCH   9  10
ENDBRANCH   7   9
ENDBRANCH   1   7
TORSDOF 5
