REMARK  0 active torsions:
REMARK  status: ('A' for Active; 'I' for Inactive)
ROOT
HETATM    1  C1  UNL     1     -32.448   5.772   2.432  1.00 20.00     0.021 C 
HETATM    2  C2  UNL     1     -33.525   4.970   3.161  1.00 20.00     0.010 C 
HETATM    3  C3  UNL     1     -33.850   7.388   3.463  1.00 20.00     0.029 C 
HETATM    4  C4  UNL     1     -33.130   7.100   2.152  1.00 20.00     0.083 C 
HETATM    5  C5  UNL     1     -34.403   6.011   3.901  1.00 20.00    -0.046 C 
HETATM    6  C6  UNL     1     -34.298   5.845   5.421  1.00 20.00     0.015 C 
HETATM    7  C7  UNL     1     -35.873   5.862   3.480  1.00 20.00     0.015 C 
HETATM    8 CL8  UNL     1     -31.976   8.370   1.724  1.00 20.00    -0.125 Cl
ENDROOT
TORSDOF 0
