REMARK  2 active torsions:
REMARK  status: ('A' for Active; 'I' for Inactive)
REMARK    1  A    between atoms: C5_5  and  C6_6 
REMARK    2  A    between atoms: C5_5  and  N7_7 
ROOT
HETATM    1  C1  UNL     1     -34.278   5.508   3.220  1.00 20.00     0.048 C 
HETATM    2  C2  UNL     1     -33.086   6.145   2.517  1.00 20.00     0.273 C 
HETATM    3  C3  UNL     1     -33.262   7.279   4.536  1.00 20.00     0.288 C 
HETATM    4  C4  UNL     1     -34.371   6.237   4.556  1.00 20.00     0.087 C 
HETATM    5  N7  UNL     1     -33.048   7.486   3.101  1.00 20.00     0.091 N 
HETATM    6 BR9  UNL     1     -34.144   5.017   6.049  1.00 20.00    -0.089 Br
ENDROOT
BRANCH   5   7
HETATM    7  C5  UNL     1     -31.798   8.179   2.820  1.00 20.00     0.303 C 
BRANCH   7   8
HETATM    8  C6  UNL     1     -31.780   8.742   1.415  1.00 20.00     0.252 C 
HETATM    9  F8  UNL     1     -32.814   9.615   1.275  1.00 20.00    -0.254 F 
ENDBRANCH   7   8
ENDBRANCH   5   7
TORSDOF 2
