REMARK  2 active torsions:
REMARK  status: ('A' for Active; 'I' for Inactive)
REMARK    1  A    between atoms: C4_4  and  C10_10 
REMARK    2  A    between atoms: C10_10  and  C11_11 
ROOT
HETATM    1  C1  UNL     1     -31.955   7.721   3.653  1.00 20.00     0.007 C 
HETATM    2  C2  UNL     1     -31.517   8.950   2.861  1.00 20.00     0.009 C 
HETATM    3  C3  UNL     1     -33.409   7.819   1.776  1.00 20.00     0.015 C 
HETATM    4  C4  UNL     1     -33.424   7.557   3.281  1.00 20.00     0.005 C 
HETATM    5  C5  UNL     1     -32.401   8.976   1.590  1.00 20.00    -0.047 C 
HETATM    6  C6  UNL     1     -31.559   8.760   0.327  1.00 20.00     0.015 C 
HETATM    7  C7  UNL     1     -33.136  10.321   1.479  1.00 20.00     0.015 C 
ENDROOT
BRANCH   4   8
HETATM    8  C10 UNL     1     -33.982   6.193   3.645  1.00 20.00     0.089 C 
HETATM    9 CL12 UNL     1     -35.655   6.058   3.012  1.00 20.00    -0.124 Cl
BRANCH   8  10
HETATM   10  C11 UNL     1     -33.901   5.883   5.162  1.00 20.00    -0.004 C 
HETATM   11  C8  UNL     1     -34.632   6.898   6.048  1.00 20.00     0.011 C 
HETATM   12  C9  UNL     1     -34.392   4.467   5.484  1.00 20.00     0.011 C 
ENDBRANCH   8  10
ENDBRANCH   4   8
TORSDOF 2
