REMARK  4 active torsions:
REMARK  status: ('A' for Active; 'I' for Inactive)
REMARK    1  A    between atoms: C3_3  and  C5_5 
REMARK    2  A    between atoms: C3_3  and  N7_7 
REMARK    3  A    between atoms: C4_4  and  C6_6 
REMARK    4  A    between atoms: C4_4  and  N7_7 
ROOT
HETATM    1  C2  UNL     1     -33.368   4.647   2.789  1.00 20.00     0.310 C 
HETATM    2  N7  UNL     1     -33.277   5.965   3.415  1.00 20.00     0.087 N 
ENDROOT
BRANCH   2   3
HETATM    3  C3  UNL     1     -34.423   6.193   4.295  1.00 20.00     0.303 C 
BRANCH   3   4
HETATM    4  C5  UNL     1     -34.256   5.481   5.621  1.00 20.00     0.252 C 
HETATM    5  F8  UNL     1     -34.152   4.143   5.394  1.00 20.00    -0.254 F 
ENDBRANCH   3   4
ENDBRANCH   2   3
BRANCH   2   6
HETATM    6  C4  UNL     1     -33.199   7.011   2.396  1.00 20.00     0.291 C 
BRANCH   6   7
HETATM    7  C6  UNL     1     -32.589   8.301   2.945  1.00 20.00     0.106 C 
HETATM    8  C1  UNL     1     -31.180   8.113   3.495  1.00 20.00     0.028 C 
HETATM    9 CL9  UNL     1     -32.578   9.582   1.694  1.00 20.00    -0.124 Cl
ENDBRANCH   6   7
ENDBRANCH   2   6
TORSDOF 4
