REMARK  3 active torsions:
REMARK  status: ('A' for Active; 'I' for Inactive)
REMARK    1  A    between atoms: C2_2  and  C9_9 
REMARK    2  A    between atoms: C3_3  and  C6_6 
REMARK    3  A    between atoms: C7_7  and  C9_9 
ROOT
HETATM    1  C4  UNL     1     -33.794   4.856   3.405  1.00 20.00     0.016 C 
HETATM    2  C5  UNL     1     -33.760   6.089   2.480  1.00 20.00     0.007 C 
HETATM    3  C6  UNL     1     -33.007   5.681   4.453  1.00 20.00     0.091 C 
HETATM    4  C7  UNL     1     -32.518   6.570   3.271  1.00 20.00     0.004 C 
ENDROOT
BRANCH   4   5
HETATM    5  C9  UNL     1     -32.382   8.068   3.463  1.00 20.00     0.038 C 
BRANCH   5   6
HETATM    6  C2  UNL     1     -32.123   8.802   2.170  1.00 20.00    -0.093 C 
HETATM    7  C1  UNL     1     -31.439   8.231   1.166  1.00 20.00     0.014 C 
HETATM    8  C8  UNL     1     -32.631  10.211   2.069  1.00 20.00     0.042 C 
ENDBRANCH   5   6
ENDBRANCH   4   5
BRANCH   3   9
HETATM    9  C3  UNL     1     -33.847   6.352   5.488  1.00 20.00     0.177 C 
HETATM   10  O10 UNL     1     -34.828   5.677   5.908  1.00 20.00    -0.648 OA
HETATM   11  O11 UNL     1     -33.466   7.513   5.810  1.00 20.00    -0.648 OA
ENDBRANCH   3   9
TORSDOF 3
