REMARK  2 active torsions:
REMARK  status: ('A' for Active; 'I' for Inactive)
REMARK    1  A    between atoms: C1_1  and  C5_5 
REMARK    2  A    between atoms: C6_6  and  C10_10 
ROOT
HETATM    1  C2  UNL     1     -32.309   7.707   3.917  1.00 20.00     0.016 C 
HETATM    2  C3  UNL     1     -31.806   8.572   2.763  1.00 20.00     0.005 C 
HETATM    3  C4  UNL     1     -33.213   7.220   1.147  1.00 20.00     0.009 C 
HETATM    4  C5  UNL     1     -33.688   7.131   3.613  1.00 20.00     0.090 C 
HETATM    5  C6  UNL     1     -31.824   7.818   1.426  1.00 20.00    -0.014 C 
HETATM    6  C7  UNL     1     -33.730   6.337   2.298  1.00 20.00    -0.004 C 
HETATM    7  C8  UNL     1     -32.965   5.007   2.349  1.00 20.00     0.011 C 
ENDROOT
BRANCH   4   8
HETATM    8  C1  UNL     1     -34.134   6.273   4.783  1.00 20.00     0.177 C 
HETATM    9  O11 UNL     1     -33.649   6.593   5.903  1.00 20.00    -0.648 OA
HETATM   10  O12 UNL     1     -34.937   5.345   4.483  1.00 20.00    -0.648 OA
ENDBRANCH   4   8
BRANCH   5  11
HETATM   11  C10 UNL     1     -31.399   8.741   0.284  1.00 20.00     0.000 C 
HETATM   12  C9  UNL     1     -32.337   9.892   0.128  1.00 20.00     0.005 C 
ENDBRANCH   5  11
TORSDOF 2
