REMARK  3 active torsions:
REMARK  status: ('A' for Active; 'I' for Inactive)
REMARK    1  A    between atoms: C3_3  and  C7_7 
REMARK    2  A    between atoms: C6_6  and  C8_8 
REMARK    3  A    between atoms: C7_7  and  C8_8 
ROOT
HETATM    1  C1  UNL     1     -32.931  10.282   0.622  1.00 20.00     0.012 C 
HETATM    2  C2  UNL     1     -33.030   9.187   1.104  1.00 20.00    -0.117 C 
HETATM    3  C6  UNL     1     -33.150   7.842   1.687  1.00 20.00     0.098 C 
ENDROOT
BRANCH   3   4
HETATM    4  C8  UNL     1     -33.192   7.836   3.231  1.00 20.00     0.006 C 
HETATM    5  C5  UNL     1     -31.966   8.565   3.804  1.00 20.00     0.011 C 
BRANCH   4   6
HETATM    6  C7  UNL     1     -33.334   6.426   3.852  1.00 20.00     0.087 C 
HETATM    7  C4  UNL     1     -34.297   5.518   3.085  1.00 20.00     0.021 C 
BRANCH   6   8
HETATM    8  C3  UNL     1     -33.905   6.462   5.285  1.00 20.00     0.177 C 
HETATM    9  O9  UNL     1     -34.601   5.467   5.633  1.00 20.00    -0.648 OA
HETATM   10  O10 UNL     1     -33.600   7.497   5.946  1.00 20.00    -0.648 OA
ENDBRANCH   6   8
ENDBRANCH   4   6
ENDBRANCH   3   4
TORSDOF 3
