REMARK  3 active torsions:
REMARK  status: ('A' for Active; 'I' for Inactive)
REMARK    1  A    between atoms: C6_6  and  C7_7 
REMARK    2  A    between atoms: C6_6  and  C8_8 
REMARK    3  A    between atoms: C7_7  and  N9_9 
ROOT
HETATM    1  C1  UNL     1     -34.694   5.461   3.486  1.00 20.00     0.050 C 
HETATM    2  C2  UNL     1     -33.946   7.356   4.962  1.00 20.00     0.050 C 
HETATM    3  C3  UNL     1     -33.270   5.398   2.921  1.00 20.00     0.274 C 
HETATM    4  C4  UNL     1     -32.548   7.226   4.345  1.00 20.00     0.274 C 
HETATM    5  C5  UNL     1     -34.739   6.049   4.897  1.00 20.00     0.085 C 
HETATM    6  N9  UNL     1     -32.541   6.671   2.986  1.00 20.00     0.088 N 
HETATM    7 CL11 UNL     1     -34.094   4.871   6.084  1.00 20.00    -0.125 Cl
ENDROOT
BRANCH   6   8
HETATM    8  C7  UNL     1     -33.016   7.632   1.992  1.00 20.00     0.275 C 
BRANCH   8   9
HETATM    9  C6  UNL     1     -31.975   8.727   1.773  1.00 20.00     0.061 C 
BRANCH   9  10
HETATM   10  C8  UNL     1     -32.453   9.753   0.759  1.00 20.00     0.223 C 
HETATM   11  F10 UNL     1     -32.681   9.134  -0.429  1.00 20.00    -0.255 F 
ENDBRANCH   9  10
ENDBRANCH   8   9
ENDBRANCH   6   8
TORSDOF 3
