REMARK  3 active torsions:
REMARK  status: ('A' for Active; 'I' for Inactive)
REMARK    1  A    between atoms: C6_6  and  C7_7 
REMARK    2  A    between atoms: C6_6  and  C8_8 
REMARK    3  A    between atoms: C7_7  and  N9_9 
ROOT
HETATM    1  C1  UNL     1     -33.882   5.074   2.966  1.00 20.00     0.029 C 
HETATM    2  C2  UNL     1     -34.249   5.263   4.434  1.00 20.00     0.023 C 
HETATM    3  C3  UNL     1     -32.549   5.727   2.628  1.00 20.00     0.235 C 
HETATM    4  C4  UNL     1     -32.886   7.390   4.480  1.00 20.00     0.254 C 
HETATM    5  C5  UNL     1     -34.224   6.742   4.815  1.00 20.00     0.108 C 
HETATM    6  N9  UNL     1     -32.592   7.187   3.011  1.00 20.00    -0.070 N 
HETATM    7 CL11 UNL     1     -34.553   6.920   6.563  1.00 20.00    -0.123 Cl
HETATM    8  H27 UNL     1     -33.364   7.617   2.483  1.00 20.00     0.279 HD
ENDROOT
BRANCH   6   9
HETATM    9  C7  UNL     1     -31.340   7.907   2.592  1.00 20.00     0.237 C 
BRANCH   9  10
HETATM   10  C6  UNL     1     -31.416   8.214   1.103  1.00 20.00     0.059 C 
BRANCH  10  11
HETATM   11  C8  UNL     1     -32.640   9.052   0.776  1.00 20.00     0.223 C 
HETATM   12  F10 UNL     1     -32.578  10.222   1.466  1.00 20.00    -0.255 F 
ENDBRANCH  10  11
ENDBRANCH   9  10
ENDBRANCH   6   9
TORSDOF 3
