REMARK  1 active torsions:
REMARK  status: ('A' for Active; 'I' for Inactive)
REMARK    1  A    between atoms: C6_6  and  C8_8 
ROOT
HETATM    1  C1  UNL     1     -34.435   6.964   5.837  1.00 20.00     0.011 C 
HETATM    2  C2  UNL     1     -33.354   7.377   4.838  1.00 20.00     0.011 C 
HETATM    3  C3  UNL     1     -34.455   7.340   2.480  1.00 20.00     0.017 A 
HETATM    4  C4  UNL     1     -34.460   5.464   6.103  1.00 20.00     0.074 C 
HETATM    5  C5  UNL     1     -33.464   5.188   3.554  1.00 20.00     0.083 C 
HETATM    6  C6  UNL     1     -32.971   7.344   2.240  1.00 20.00     0.009 A 
HETATM    7  C7  UNL     1     -33.535   6.694   3.497  1.00 20.00    -0.027 A 
HETATM    8  S9  UNL     1     -34.796   4.524   4.585  1.00 20.00    -0.168 SA
ENDROOT
BRANCH   6   9
HETATM    9  C8  UNL     1     -32.210   8.625   2.257  1.00 20.00     0.120 C 
HETATM   10 CL10 UNL     1     -32.374   9.496   0.707  1.00 20.00    -0.130 Cl
ENDBRANCH   6   9
TORSDOF 1
