REMARK  2 active torsions:
REMARK  status: ('A' for Active; 'I' for Inactive)
REMARK    1  A    between atoms: C2_2  and  C6_6 
REMARK    2  A    between atoms: C3_3  and  C7_7 
ROOT
HETATM    1  C1  UNL     1     -31.601   8.518   3.514  1.00 20.00     0.011 A 
HETATM    2  C2  UNL     1     -31.789   8.281   2.038  1.00 20.00     0.004 A 
HETATM    3  C3  UNL     1     -32.135   7.195   3.030  1.00 20.00    -0.006 A 
ENDROOT
BRANCH   3   4
HETATM    4  C7  UNL     1     -33.541   6.799   3.325  1.00 20.00    -0.018 C 
HETATM    5  C4  UNL     1     -34.052   5.725   2.346  1.00 20.00     0.010 C 
HETATM    6  C5  UNL     1     -33.702   6.285   4.768  1.00 20.00     0.010 C 
ENDBRANCH   3   4
BRANCH   2   7
HETATM    7  C6  UNL     1     -32.829   9.034   1.283  1.00 20.00     0.119 C 
HETATM    8 CL8  UNL     1     -32.269  10.680   0.877  1.00 20.00    -0.130 Cl
ENDBRANCH   2   7
TORSDOF 2
