REMARK  4 active torsions:
REMARK  status: ('A' for Active; 'I' for Inactive)
REMARK    1  A    between atoms: C4_4  and  C6_6 
REMARK    2  A    between atoms: C5_5  and  C8_8 
REMARK    3  A    between atoms: C6_6  and  C9_9 
REMARK    4  A    between atoms: C9_9  and  O10_10 
ROOT
HETATM    1  C3  UNL     1     -31.795   7.248   3.406  1.00 20.00     0.019 A 
HETATM    2  C5  UNL     1     -32.416   7.828   2.167  1.00 20.00     0.011 A 
HETATM    3  C6  UNL     1     -33.290   7.089   3.180  1.00 20.00    -0.010 A 
ENDROOT
BRANCH   3   4
HETATM    4  C4  UNL     1     -33.873   5.718   2.803  1.00 20.00    -0.004 A 
HETATM    5  C1  UNL     1     -33.009   4.524   2.504  1.00 20.00     0.006 A 
HETATM    6  C2  UNL     1     -33.859   4.545   3.743  1.00 20.00     0.006 A 
ENDBRANCH   3   4
BRANCH   3   7
HETATM    7  C9  UNL     1     -34.198   7.893   4.078  1.00 20.00     0.177 C 
BRANCH   7   8
HETATM    8  O10 UNL     1     -34.326   7.229   5.328  1.00 20.00    -0.395 OA
HETATM    9  C7  UNL     1     -33.205   7.473   6.167  1.00 20.00     0.201 C 
ENDBRANCH   7   8
ENDBRANCH   3   7
BRANCH   2  10
HETATM   10  C8  UNL     1     -32.474   9.304   1.971  1.00 20.00     0.120 C 
HETATM   11 CL11 UNL     1     -33.250   9.720   0.418  1.00 20.00    -0.130 Cl
ENDBRANCH   2  10
TORSDOF 4
