REMARK  3 active torsions:
REMARK  status: ('A' for Active; 'I' for Inactive)
REMARK    1  A    between atoms: C2_2  and  C6_6 
REMARK    2  A    between atoms: C3_3  and  C7_7 
REMARK    3  A    between atoms: C3_3  and  C8_8 
ROOT
HETATM    1  C1  UNL     1     -34.164   8.141   2.631  1.00 20.00     0.016 A 
HETATM    2  C2  UNL     1     -32.788   8.671   2.327  1.00 20.00     0.009 A 
HETATM    3  C3  UNL     1     -32.953   7.468   3.241  1.00 20.00    -0.036 A 
ENDROOT
BRANCH   3   4
HETATM    4  C7  UNL     1     -32.587   6.092   2.750  1.00 20.00     0.005 C 
HETATM    5  C4  UNL     1     -33.685   5.093   2.974  1.00 20.00     0.006 C 
ENDBRANCH   3   4
BRANCH   3   6
HETATM    6  C8  UNL     1     -32.694   7.681   4.710  1.00 20.00     0.005 C 
HETATM    7  C5  UNL     1     -33.828   7.196   5.566  1.00 20.00     0.006 C 
ENDBRANCH   3   6
BRANCH   2   8
HETATM    8  C6  UNL     1     -32.228   8.566   0.950  1.00 20.00     0.120 C 
HETATM    9 CL9  UNL     1     -32.881   9.844  -0.113  1.00 20.00    -0.130 Cl
ENDBRANCH   2   8
TORSDOF 3
