REMARK  1 active torsions:
REMARK  status: ('A' for Active; 'I' for Inactive)
REMARK    1  A    between atoms: C5_5  and  C10_10 
ROOT
HETATM    1  C1  UNL     1     -33.042   7.571   5.358  1.00 20.00     0.036 C 
HETATM    2  C2  UNL     1     -31.549   7.604   3.259  1.00 20.00     0.016 A 
HETATM    3  C3  UNL     1     -33.215   5.679   3.719  1.00 20.00     0.047 C 
HETATM    4  C4  UNL     1     -34.471   7.264   5.778  1.00 20.00     0.169 C 
HETATM    5  C5  UNL     1     -32.874   8.160   2.819  1.00 20.00     0.009 A 
HETATM    6  C6  UNL     1     -32.817   7.123   3.933  1.00 20.00    -0.031 A 
HETATM    7  C7  UNL     1     -34.630   5.390   4.264  1.00 20.00     0.054 C 
HETATM    8  C8  UNL     1     -35.735   5.963   3.367  1.00 20.00     0.045 C 
HETATM    9  C9  UNL     1     -34.826   3.869   4.352  1.00 20.00     0.045 C 
HETATM   10  O11 UNL     1     -34.762   5.876   5.612  1.00 20.00    -0.381 OA
ENDROOT
BRANCH   5  11
HETATM   11  C10 UNL     1     -33.356   7.880   1.437  1.00 20.00     0.120 C 
HETATM   12 CL12 UNL     1     -32.587   8.970   0.250  1.00 20.00    -0.130 Cl
ENDBRANCH   5  11
TORSDOF 1
