REMARK  1 active torsions:
REMARK  status: ('A' for Active; 'I' for Inactive)
REMARK    1  A    between atoms: C5_5  and  C10_10 
ROOT
HETATM    1  C1  UNL     1     -34.962   5.315   4.048  1.00 20.00     0.019 C 
HETATM    2  C2  UNL     1     -31.916   7.458   3.492  1.00 20.00     0.017 A 
HETATM    3  C3  UNL     1     -34.225   5.154   5.372  1.00 20.00     0.075 C 
HETATM    4  C4  UNL     1     -34.123   7.866   4.770  1.00 20.00     0.084 C 
HETATM    5  C5  UNL     1     -32.750   8.383   2.662  1.00 20.00     0.006 A 
HETATM    6  C6  UNL     1     -33.437   7.314   3.532  1.00 20.00    -0.020 A 
HETATM    7  C7  UNL     1     -34.137   6.049   2.938  1.00 20.00    -0.038 C 
HETATM    8  C8  UNL     1     -35.151   6.449   1.845  1.00 20.00     0.015 C 
HETATM    9  C9  UNL     1     -33.156   5.017   2.344  1.00 20.00     0.015 C 
HETATM   10  S11 UNL     1     -33.902   6.749   6.181  1.00 20.00    -0.168 SA
ENDROOT
BRANCH   5  11
HETATM   11  C10 UNL     1     -32.588   8.378   1.185  1.00 20.00     0.090 C 
HETATM   12 BR12 UNL     1     -33.827   9.639   0.353  1.00 20.00    -0.096 Br
ENDBRANCH   5  11
TORSDOF 1
