REMARK  3 active torsions:
REMARK  status: ('A' for Active; 'I' for Inactive)
REMARK    1  A    between atoms: C4_4  and  C9_9 
REMARK    2  A    between atoms: C5_5  and  C6_6 
REMARK    3  A    between atoms: C9_9  and  O10_10 
ROOT
HETATM    1  C3  UNL     1     -32.996   5.509   2.513  1.00 20.00     0.018 A 
HETATM    2  C4  UNL     1     -33.078   6.693   3.432  1.00 20.00     0.019 A 
HETATM    3  C6  UNL     1     -34.129   5.588   3.523  1.00 20.00    -0.031 A 
HETATM    4  C8  UNL     1     -35.494   5.933   2.977  1.00 20.00     0.016 C 
ENDROOT
BRANCH   3   5
HETATM    5  C5  UNL     1     -34.180   4.610   4.704  1.00 20.00    -0.036 A 
HETATM    6  C1  UNL     1     -34.148   5.127   6.124  1.00 20.00     0.011 A 
HETATM    7  C2  UNL     1     -35.413   4.530   5.574  1.00 20.00     0.011 A 
HETATM    8  C7  UNL     1     -33.456   3.312   4.445  1.00 20.00     0.016 C 
ENDBRANCH   3   5
BRANCH   2   9
HETATM    9  C9  UNL     1     -32.048   6.893   4.491  1.00 20.00     0.169 C 
BRANCH   9  10
HETATM   10  O10 UNL     1     -32.549   7.774   5.496  1.00 20.00    -0.400 OA
HETATM   11  H26 UNL     1     -31.844   7.868   6.155  1.00 20.00     0.209 HD
ENDBRANCH   9  10
ENDBRANCH   2   9
TORSDOF 3
