REMARK  2 active torsions:
REMARK  status: ('A' for Active; 'I' for Inactive)
REMARK    1  A    between atoms: C4_4  and  C6_6 
REMARK    2  A    between atoms: C7_7  and  C8_8 
ROOT
HETATM    1  C1  UNL     1     -32.121  10.028   1.904  1.00 20.00     0.034 A 
HETATM    2  C2  UNL     1     -32.558  10.799   0.852  1.00 20.00     0.142 A 
HETATM    3  C3  UNL     1     -33.099   8.745   0.363  1.00 20.00     0.148 A 
HETATM    4  C4  UNL     1     -32.472   8.694   1.586  1.00 20.00    -0.029 A 
HETATM    5  O9  UNL     1     -33.155  10.024  -0.092  1.00 20.00    -0.334 OA
ENDROOT
BRANCH   4   6
HETATM    6  C6  UNL     1     -32.211   7.461   2.419  1.00 20.00     0.026 A 
HETATM    7  C5  UNL     1     -32.681   7.399   3.856  1.00 20.00     0.016 A 
HETATM    8  C7  UNL     1     -33.361   6.560   2.816  1.00 20.00     0.005 A 
BRANCH   8   9
HETATM    9  C8  UNL     1     -33.186   5.080   2.815  1.00 20.00     0.090 C 
HETATM   10 BR10 UNL     1     -34.315   4.257   4.178  1.00 20.00    -0.096 Br
ENDBRANCH   8   9
ENDBRANCH   4   6
TORSDOF 2
