REMARK  2 active torsions:
REMARK  status: ('A' for Active; 'I' for Inactive)
REMARK    1  A    between atoms: C3_3  and  C6_6 
REMARK    2  A    between atoms: C7_7  and  C9_9 
ROOT
HETATM    1  C1  UNL     1     -33.304   6.094   2.759  1.00 20.00     0.016 A 
HETATM    2  C2  UNL     1     -33.915   5.272   3.750  1.00 20.00     0.015 A 
HETATM    3  C3  UNL     1     -33.094   7.379   3.211  1.00 20.00    -0.013 A 
HETATM    4  C4  UNL     1     -34.148   5.959   4.921  1.00 20.00    -0.021 A 
HETATM    5  C8  UNL     1     -34.756   5.462   6.174  1.00 20.00     0.056 C 
HETATM    6  S10 UNL     1     -33.631   7.589   4.823  1.00 20.00    -0.099 SA
ENDROOT
BRANCH   3   7
HETATM    7  C6  UNL     1     -32.462   8.476   2.387  1.00 20.00     0.031 A 
HETATM    8  C5  UNL     1     -31.350   8.153   1.412  1.00 20.00     0.016 A 
HETATM    9  C7  UNL     1     -32.704   8.535   0.893  1.00 20.00     0.009 A 
BRANCH   9  10
HETATM   10  C9  UNL     1     -32.906   9.849   0.220  1.00 20.00     0.120 C 
HETATM   11 CL11 UNL     1     -32.006  11.147   1.052  1.00 20.00    -0.130 Cl
ENDBRANCH   9  10
ENDBRANCH   3   7
TORSDOF 2
