REMARK  2 active torsions:
REMARK  status: ('A' for Active; 'I' for Inactive)
REMARK    1  A    between atoms: C4_4  and  C6_6 
REMARK    2  A    between atoms: C5_5  and  C8_8 
ROOT
HETATM    1  C3  UNL     1     -32.276   6.365   2.907  1.00 20.00     0.016 A 
HETATM    2  C5  UNL     1     -32.786   7.561   2.155  1.00 20.00     0.009 A 
HETATM    3  C6  UNL     1     -32.594   7.642   3.668  1.00 20.00    -0.035 A 
HETATM    4  C7  UNL     1     -31.417   8.416   4.211  1.00 20.00     0.016 C 
ENDROOT
BRANCH   3   5
HETATM    5  C4  UNL     1     -33.833   7.713   4.575  1.00 20.00    -0.006 A 
HETATM    6  C1  UNL     1     -34.474   6.490   5.170  1.00 20.00     0.006 A 
HETATM    7  C2  UNL     1     -33.768   7.476   6.058  1.00 20.00     0.006 A 
ENDBRANCH   3   5
BRANCH   2   8
HETATM    8  C8  UNL     1     -31.906   8.276   1.187  1.00 20.00     0.120 C 
HETATM    9 CL9  UNL     1     -32.506   9.926   0.865  1.00 20.00    -0.130 Cl
ENDBRANCH   2   8
TORSDOF 2
