REMARK  3 active torsions:
REMARK  status: ('A' for Active; 'I' for Inactive)
REMARK    1  A    between atoms: C2_2  and  C5_5 
REMARK    2  A    between atoms: C3_3  and  C6_6 
REMARK    3  A    between atoms: C5_5  and  C7_7 
ROOT
HETATM    1  C1  UNL     1     -31.989   8.336   3.129  1.00 20.00     0.011 A 
HETATM    2  C2  UNL     1     -33.071   7.603   2.380  1.00 20.00    -0.009 A 
HETATM    3  C3  UNL     1     -31.902   8.189   1.633  1.00 20.00     0.004 A 
ENDROOT
BRANCH   2   4
HETATM    4  C5  UNL     1     -33.207   6.126   2.516  1.00 20.00     0.005 C 
BRANCH   4   5
HETATM    5  C7  UNL     1     -33.904   5.714   3.825  1.00 20.00    -0.004 C 
HETATM    6  C4  UNL     1     -34.074   4.208   3.947  1.00 20.00     0.005 C 
ENDBRANCH   4   5
ENDBRANCH   2   4
BRANCH   3   7
HETATM    7  C6  UNL     1     -32.097   9.375   0.752  1.00 20.00     0.119 C 
HETATM    8 CL8  UNL     1     -33.420  10.414   1.349  1.00 20.00    -0.130 Cl
ENDBRANCH   3   7
TORSDOF 3
