REMARK  1 active torsions:
REMARK  status: ('A' for Active; 'I' for Inactive)
REMARK    1  A    between atoms: C5_5  and  C10_10 
ROOT
HETATM    1  C1  UNL     1     -34.649   6.705   5.669  1.00 20.00     0.002 C 
HETATM    2  C2  UNL     1     -33.535   7.648   5.227  1.00 20.00     0.011 C 
HETATM    3  C3  UNL     1     -34.396   5.453   4.844  1.00 20.00     0.010 C 
HETATM    4  C4  UNL     1     -31.795   7.478   3.318  1.00 20.00     0.017 A 
HETATM    5  C5  UNL     1     -32.872   8.385   2.806  1.00 20.00     0.005 A 
HETATM    6  C6  UNL     1     -33.228   7.266   3.785  1.00 20.00    -0.029 A 
HETATM    7  C7  UNL     1     -34.021   5.992   3.436  1.00 20.00    -0.040 C 
HETATM    8  C8  UNL     1     -33.229   4.913   2.692  1.00 20.00     0.015 C 
HETATM    9  C9  UNL     1     -35.311   6.312   2.660  1.00 20.00     0.015 C 
ENDROOT
BRANCH   5  10
HETATM   10  C10 UNL     1     -33.174   8.387   1.349  1.00 20.00     0.090 C 
HETATM   11 BR11 UNL     1     -31.900   9.513   0.388  1.00 20.00    -0.096 Br
ENDBRANCH   5  10
TORSDOF 1
