REMARK  2 active torsions:
REMARK  status: ('A' for Active; 'I' for Inactive)
REMARK    1  A    between atoms: C2_2  and  C7_7 
REMARK    2  A    between atoms: C3_3  and  C8_8 
ROOT
HETATM    1  C1  UNL     1     -33.608   4.917   2.949  1.00 20.00     0.016 A 
HETATM    2  C2  UNL     1     -33.604   6.364   2.545  1.00 20.00     0.009 A 
HETATM    3  C3  UNL     1     -34.293   5.940   3.841  1.00 20.00    -0.036 A 
HETATM    4  C4  UNL     1     -35.799   5.962   3.858  1.00 20.00     0.016 C 
ENDROOT
BRANCH   3   5
HETATM    5  C8  UNL     1     -33.661   6.258   5.169  1.00 20.00    -0.014 C 
HETATM    6  C5  UNL     1     -33.926   7.713   5.580  1.00 20.00     0.010 C 
HETATM    7  C6  UNL     1     -34.161   5.310   6.267  1.00 20.00     0.010 C 
ENDBRANCH   3   5
BRANCH   2   8
HETATM    8  C7  UNL     1     -32.329   7.135   2.526  1.00 20.00     0.120 C 
HETATM    9 CL9  UNL     1     -32.600   8.820   2.001  1.00 20.00    -0.130 Cl
ENDBRANCH   2   8
TORSDOF 2
