REMARK  1 active torsions:
REMARK  status: ('A' for Active; 'I' for Inactive)
REMARK    1  A    between atoms: C6_6  and  C8_8 
ROOT
HETATM    1  C1  UNL     1     -33.383   7.719   4.776  1.00 20.00     0.036 C 
HETATM    2  C2  UNL     1     -34.437   5.655   3.802  1.00 20.00     0.036 C 
HETATM    3  C3  UNL     1     -32.106   6.414   2.920  1.00 20.00     0.016 A 
HETATM    4  C4  UNL     1     -33.277   6.950   6.090  1.00 20.00     0.168 C 
HETATM    5  C5  UNL     1     -34.263   5.007   5.171  1.00 20.00     0.168 C 
HETATM    6  C6  UNL     1     -33.147   7.229   2.200  1.00 20.00     0.005 A 
HETATM    7  C7  UNL     1     -33.408   6.748   3.617  1.00 20.00    -0.032 A 
HETATM    8  O9  UNL     1     -34.338   5.997   6.202  1.00 20.00    -0.391 OA
ENDROOT
BRANCH   6   9
HETATM    9  C8  UNL     1     -32.889   8.660   1.873  1.00 20.00     0.090 C 
HETATM   10 BR10 UNL     1     -31.734   8.804   0.307  1.00 20.00    -0.096 Br
ENDBRANCH   6   9
TORSDOF 1
