REMARK  2 active torsions:
REMARK  status: ('A' for Active; 'I' for Inactive)
REMARK    1  A    between atoms: C6_6  and  C10_10 
REMARK    2  A    between atoms: C7_7  and  C9_9 
ROOT
HETATM    1  C1  UNL     1     -32.443   7.703   5.593  1.00 20.00     0.001 C 
HETATM    2  C2  UNL     1     -33.828   7.227   6.025  1.00 20.00     0.013 C 
HETATM    3  C3  UNL     1     -32.498   8.468   4.273  1.00 20.00     0.010 C 
HETATM    4  C4  UNL     1     -34.558   7.149   3.603  1.00 20.00     0.023 C 
HETATM    5  C5  UNL     1     -32.338   6.809   2.270  1.00 20.00     0.016 A 
HETATM    6  C6  UNL     1     -34.536   6.397   4.943  1.00 20.00     0.094 C 
HETATM    7  C7  UNL     1     -33.015   8.041   1.736  1.00 20.00     0.009 A 
HETATM    8  C8  UNL     1     -33.187   7.655   3.198  1.00 20.00    -0.035 A 
ENDROOT
BRANCH   6   9
HETATM    9  C10 UNL     1     -33.920   5.002   4.804  1.00 20.00     0.391 C 
HETATM   10  F11 UNL     1     -34.599   4.288   3.894  1.00 20.00    -0.171 F 
HETATM   11  F12 UNL     1     -32.640   5.102   4.411  1.00 20.00    -0.171 F 
HETATM   12  F13 UNL     1     -33.964   4.360   5.981  1.00 20.00    -0.171 F 
ENDBRANCH   6   9
BRANCH   7  13
HETATM   13  C9  UNL     1     -32.206   9.214   1.300  1.00 20.00     0.120 C 
HETATM   14 CL14 UNL     1     -33.194  10.700   1.252  1.00 20.00    -0.130 Cl
ENDBRANCH   7  13
TORSDOF 2
