REMARK  1 active torsions:
REMARK  status: ('A' for Active; 'I' for Inactive)
REMARK    1  A    between atoms: C4_4  and  C8_8 
ROOT
HETATM    1  C1  UNL     1     -33.017   7.729   4.740  1.00 20.00     0.136 C 
HETATM    2  C2  UNL     1     -31.699   8.360   4.255  1.00 20.00     0.084 C 
HETATM    3  C3  UNL     1     -31.844   7.509   2.963  1.00 20.00     0.004 C 
HETATM    4  C4  UNL     1     -33.354   7.196   3.311  1.00 20.00     0.020 C 
HETATM    5  C5  UNL     1     -31.515   8.224   1.664  1.00 20.00     0.011 C 
HETATM    6  C6  UNL     1     -34.430   8.024   2.612  1.00 20.00     0.024 C 
HETATM    7  O9  UNL     1     -33.574   7.680   5.816  1.00 20.00    -0.297 OA
ENDROOT
BRANCH   4   8
HETATM    8  C8  UNL     1     -33.683   5.706   3.274  1.00 20.00     0.013 C 
HETATM    9  C7  UNL     1     -34.865   5.379   4.126  1.00 20.00     0.006 C 
ENDBRANCH   4   8
TORSDOF 1
