REMARK  3 active torsions:
REMARK  status: ('A' for Active; 'I' for Inactive)
REMARK    1  A    between atoms: C2_2  and  C7_7 
REMARK    2  A    between atoms: C3_3  and  C9_9 
REMARK    3  A    between atoms: C8_8  and  C9_9 
ROOT
HETATM    1  C1  UNL     1     -31.765   7.624   3.609  1.00 20.00     0.016 A 
HETATM    2  C2  UNL     1     -32.104   7.313   2.180  1.00 20.00     0.009 A 
HETATM    3  C3  UNL     1     -32.694   6.460   3.302  1.00 20.00    -0.036 A 
HETATM    4  C4  UNL     1     -32.151   5.065   3.463  1.00 20.00     0.016 C 
ENDROOT
BRANCH   3   5
HETATM    5  C9  UNL     1     -34.147   6.598   3.668  1.00 20.00    -0.010 C 
HETATM    6  C6  UNL     1     -35.033   5.838   2.665  1.00 20.00     0.011 C 
BRANCH   5   7
HETATM    7  C8  UNL     1     -34.466   6.098   5.098  1.00 20.00     0.000 C 
HETATM    8  C5  UNL     1     -33.720   6.864   6.181  1.00 20.00     0.005 C 
ENDBRANCH   5   7
ENDBRANCH   3   5
BRANCH   2   9
HETATM    9  C7  UNL     1     -32.923   8.266   1.378  1.00 20.00     0.120 C 
HETATM   10 CL10 UNL     1     -31.932   9.623   0.777  1.00 20.00    -0.130 Cl
ENDBRANCH   2   9
TORSDOF 3
