REMARK  1 active torsions:
REMARK  status: ('A' for Active; 'I' for Inactive)
REMARK    1  A    between atoms: C6_6  and  C8_8 
ROOT
HETATM    1  C1  UNL     1     -34.183   5.773   5.658  1.00 20.00     0.011 C 
HETATM    2  C2  UNL     1     -34.352   6.991   4.754  1.00 20.00     0.011 C 
HETATM    3  C3  UNL     1     -32.118   7.256   3.442  1.00 20.00     0.017 A 
HETATM    4  C4  UNL     1     -34.666   4.483   5.005  1.00 20.00     0.074 C 
HETATM    5  C5  UNL     1     -34.008   5.678   2.606  1.00 20.00     0.083 C 
HETATM    6  C6  UNL     1     -33.142   8.144   2.791  1.00 20.00     0.009 A 
HETATM    7  C7  UNL     1     -33.577   6.846   3.458  1.00 20.00    -0.027 A 
HETATM    8  S9  UNL     1     -33.738   4.115   3.486  1.00 20.00    -0.168 SA
ENDROOT
BRANCH   6   9
HETATM    9  C8  UNL     1     -33.138   8.337   1.313  1.00 20.00     0.120 C 
HETATM   10 CL10 UNL     1     -31.911   9.536   0.820  1.00 20.00    -0.130 Cl
ENDBRANCH   6   9
TORSDOF 1
