REMARK  2 active torsions:
REMARK  status: ('A' for Active; 'I' for Inactive)
REMARK    1  A    between atoms: C6_6  and  C7_7 
REMARK    2  A    between atoms: C8_8  and  C9_9 
ROOT
HETATM    1  C1  UNL     1     -34.566   6.372   5.333  1.00 20.00     0.031 C 
HETATM    2  C2  UNL     1     -34.265   5.524   2.989  1.00 20.00     0.031 C 
HETATM    3  C4  UNL     1     -34.038   5.025   5.813  1.00 20.00     0.168 C 
HETATM    4  C5  UNL     1     -33.754   4.224   3.601  1.00 20.00     0.168 C 
HETATM    5  C6  UNL     1     -34.063   6.721   3.927  1.00 20.00    -0.006 C 
HETATM    6  O10 UNL     1     -34.351   3.995   4.876  1.00 20.00    -0.391 OA
ENDROOT
BRANCH   5   7
HETATM    7  C7  UNL     1     -32.603   7.181   3.948  1.00 20.00    -0.005 A 
HETATM    8  C3  UNL     1     -32.275   8.607   4.272  1.00 20.00     0.011 A 
HETATM    9  C8  UNL     1     -32.034   8.076   2.883  1.00 20.00     0.004 A 
BRANCH   9  10
HETATM   10  C9  UNL     1     -32.838   8.581   1.735  1.00 20.00     0.119 C 
HETATM   11 CL11 UNL     1     -32.229  10.159   1.163  1.00 20.00    -0.130 Cl
ENDBRANCH   9  10
ENDBRANCH   5   7
TORSDOF 2
