REMARK  1 active torsions:
REMARK  status: ('A' for Active; 'I' for Inactive)
REMARK    1  A    between atoms: C5_5  and  C7_7 
ROOT
HETATM    1  C1  UNL     1     -34.279   4.012   4.063  1.00 20.00     0.002 C 
HETATM    2  C2  UNL     1     -33.332   4.725   3.083  1.00 20.00     0.010 C 
HETATM    3  C3  UNL     1     -35.103   5.309   4.134  1.00 20.00     0.010 C 
HETATM    4  C4  UNL     1     -33.067   6.980   4.461  1.00 20.00     0.016 A 
HETATM    5  C5  UNL     1     -33.730   7.370   3.163  1.00 20.00     0.005 A 
HETATM    6  C6  UNL     1     -33.858   5.975   3.681  1.00 20.00    -0.036 A 
ENDROOT
BRANCH   5   7
HETATM    7  C7  UNL     1     -32.900   7.671   1.963  1.00 20.00     0.090 C 
HETATM    8 BR8  UNL     1     -32.224   9.500   2.042  1.00 20.00    -0.096 Br
ENDBRANCH   5   7
TORSDOF 1
