REMARK  1 active torsions:
REMARK  status: ('A' for Active; 'I' for Inactive)
REMARK    1  A    between atoms: C4_4  and  C9_9 
ROOT
HETATM    1  C1  UNL     1     -33.725   5.577   3.809  1.00 20.00     0.131 C 
HETATM    2  C2  UNL     1     -32.534   5.856   2.875  1.00 20.00     0.084 C 
HETATM    3  C3  UNL     1     -34.274   7.014   3.634  1.00 20.00     0.056 C 
HETATM    4  C4  UNL     1     -33.282   7.142   2.426  1.00 20.00     0.011 C 
HETATM    5  C5  UNL     1     -34.101   7.903   4.852  1.00 20.00     0.018 C 
HETATM    6  O10 UNL     1     -34.087   4.608   4.441  1.00 20.00    -0.298 OA
ENDROOT
BRANCH   4   7
HETATM    7  C9  UNL     1     -32.426   8.391   2.303  1.00 20.00    -0.047 C 
HETATM    8  C6  UNL     1     -33.314   9.612   1.992  1.00 20.00     0.015 C 
HETATM    9  C7  UNL     1     -31.399   8.219   1.168  1.00 20.00     0.015 C 
HETATM   10  C8  UNL     1     -31.672   8.646   3.623  1.00 20.00     0.015 C 
ENDBRANCH   4   7
TORSDOF 1
