REMARK  1 active torsions:
REMARK  status: ('A' for Active; 'I' for Inactive)
REMARK    1  A    between atoms: C5_5  and  C10_10 
ROOT
HETATM    1  C1  UNL     1     -32.846   7.965   4.376  1.00 20.00     0.036 C 
HETATM    2  C2  UNL     1     -34.181   8.153   2.144  1.00 20.00     0.016 A 
HETATM    3  C3  UNL     1     -33.465   5.854   3.162  1.00 20.00     0.047 C 
HETATM    4  C4  UNL     1     -33.780   7.522   5.494  1.00 20.00     0.169 C 
HETATM    5  C5  UNL     1     -32.750   7.901   1.753  1.00 20.00     0.009 A 
HETATM    6  C6  UNL     1     -33.284   7.354   3.067  1.00 20.00    -0.031 A 
HETATM    7  C7  UNL     1     -34.337   5.460   4.370  1.00 20.00     0.054 C 
HETATM    8  C8  UNL     1     -35.824   5.767   4.141  1.00 20.00     0.045 C 
HETATM    9  C9  UNL     1     -34.192   3.952   4.620  1.00 20.00     0.045 C 
HETATM   10  O11 UNL     1     -33.856   6.099   5.566  1.00 20.00    -0.381 OA
ENDROOT
BRANCH   5  11
HETATM   11  C10 UNL     1     -31.781   9.031   1.685  1.00 20.00     0.120 C 
HETATM   12 CL12 UNL     1     -31.950   9.936   0.155  1.00 20.00    -0.130 Cl
ENDBRANCH   5  11
TORSDOF 1
