REMARK  2 active torsions:
REMARK  status: ('A' for Active; 'I' for Inactive)
REMARK    1  A    between atoms: C4_4  and  C6_6 
REMARK    2  A    between atoms: C7_7  and  C8_8 
ROOT
HETATM    1  C1  UNL     1     -33.666   7.032   5.031  1.00 20.00     0.015 A 
HETATM    2  C2  UNL     1     -34.835   6.335   5.247  1.00 20.00     0.050 A 
HETATM    3  C3  UNL     1     -33.964   5.996   2.972  1.00 20.00     0.057 A 
HETATM    4  C4  UNL     1     -33.162   6.836   3.713  1.00 20.00    -0.047 A 
HETATM    5  S9  UNL     1     -35.319   5.448   3.864  1.00 20.00    -0.113 SA
ENDROOT
BRANCH   4   6
HETATM    6  C6  UNL     1     -31.872   7.485   3.182  1.00 20.00     0.024 A 
HETATM    7  C5  UNL     1     -31.727   8.988   3.283  1.00 20.00     0.016 A 
HETATM    8  C7  UNL     1     -31.901   8.351   1.936  1.00 20.00     0.004 A 
BRANCH   8   9
HETATM    9  C8  UNL     1     -33.148   8.586   1.153  1.00 20.00     0.090 C 
HETATM   10 BR10 UNL     1     -33.091  10.335   0.290  1.00 20.00    -0.096 Br
ENDBRANCH   8   9
ENDBRANCH   4   6
TORSDOF 2
