REMARK  1 active torsions:
REMARK  status: ('A' for Active; 'I' for Inactive)
REMARK    1  A    between atoms: C5_5  and  C10_10 
ROOT
HETATM    1  C1  UNL     1     -31.611   7.750   3.261  1.00 20.00     0.017 A 
HETATM    2  C2  UNL     1     -34.132   7.505   3.899  1.00 20.00     0.020 C 
HETATM    3  C3  UNL     1     -33.284   6.528   1.702  1.00 20.00     0.083 C 
HETATM    4  C4  UNL     1     -33.609   4.996   4.020  1.00 20.00     0.082 C 
HETATM    5  C5  UNL     1     -32.382   8.831   2.559  1.00 20.00     0.009 A 
HETATM    6  C6  UNL     1     -33.045   7.485   2.835  1.00 20.00    -0.026 A 
HETATM    7  C7  UNL     1     -34.634   6.104   4.338  1.00 20.00    -0.038 C 
HETATM    8  C8  UNL     1     -34.854   6.117   5.868  1.00 20.00     0.015 C 
HETATM    9  C9  UNL     1     -36.001   5.797   3.689  1.00 20.00     0.015 C 
HETATM   10  S11 UNL     1     -33.190   4.804   2.255  1.00 20.00    -0.168 SA
ENDROOT
BRANCH   5  11
HETATM   11  C10 UNL     1     -31.977   9.280   1.197  1.00 20.00     0.120 C 
HETATM   12 CL12 UNL     1     -33.323  10.102   0.360  1.00 20.00    -0.130 Cl
ENDBRANCH   5  11
TORSDOF 1
