REMARK  2 active torsions:
REMARK  status: ('A' for Active; 'I' for Inactive)
REMARK    1  A    between atoms: C3_3  and  C7_7 
REMARK    2  A    between atoms: C4_4  and  O8_8 
ROOT
HETATM    1  C1  UNL     1     -31.785   8.049   4.267  1.00 20.00     0.037 C 
HETATM    2  C2  UNL     1     -32.674   8.258   3.018  1.00 20.00    -0.010 C 
HETATM    3  C3  UNL     1     -33.754   7.376   3.723  1.00 20.00     0.018 C 
HETATM    4  C4  UNL     1     -33.074   7.760   5.070  1.00 20.00     0.122 C 
HETATM    5  C5  UNL     1     -32.087   7.816   1.692  1.00 20.00     0.010 C 
ENDROOT
BRANCH   3   6
HETATM    6  C7  UNL     1     -33.808   5.892   3.386  1.00 20.00     0.003 C 
HETATM    7  C6  UNL     1     -34.729   5.147   4.300  1.00 20.00     0.005 C 
ENDBRANCH   3   6
BRANCH   4   8
HETATM    8  O8  UNL     1     -32.983   6.729   6.069  1.00 20.00    -0.395 OA
HETATM    9  H22 UNL     1     -32.303   7.021   6.689  1.00 20.00     0.210 HD
ENDBRANCH   4   8
TORSDOF 2
