REMARK  1 active torsions:
REMARK  status: ('A' for Active; 'I' for Inactive)
REMARK    1  A    between atoms: C5_5  and  C9_9 
ROOT
HETATM    1  C1  UNL     1     -33.635   8.193   4.342  1.00 20.00     0.036 C 
HETATM    2  C2  UNL     1     -31.837   7.430   2.622  1.00 20.00     0.016 A 
HETATM    3  C3  UNL     1     -33.984   6.033   3.103  1.00 20.00     0.041 C 
HETATM    4  C4  UNL     1     -33.494   7.355   5.609  1.00 20.00     0.169 C 
HETATM    5  C5  UNL     1     -32.953   8.024   1.805  1.00 20.00     0.009 A 
HETATM    6  C6  UNL     1     -33.811   5.315   4.445  1.00 20.00     0.118 C 
HETATM    7  C7  UNL     1     -33.259   7.362   3.136  1.00 20.00    -0.031 A 
HETATM    8  C8  UNL     1     -34.625   4.029   4.487  1.00 20.00     0.039 C 
HETATM    9  O10 UNL     1     -34.270   6.159   5.510  1.00 20.00    -0.386 OA
ENDROOT
BRANCH   5  10
HETATM   10  C9  UNL     1     -33.034   9.498   1.603  1.00 20.00     0.120 C 
HETATM   11 CL11 UNL     1     -31.905  10.040   0.331  1.00 20.00    -0.130 Cl
ENDBRANCH   5  10
TORSDOF 1
