REMARK  2 active torsions:
REMARK  status: ('A' for Active; 'I' for Inactive)
REMARK    1  A    between atoms: C2_2  and  C6_6 
REMARK    2  A    between atoms: C7_7  and  C10_10 
ROOT
HETATM    1  C1  UNL     1     -33.850   6.889   3.037  1.00 20.00     0.022 A 
HETATM    2  C2  UNL     1     -32.890   7.771   3.612  1.00 20.00    -0.040 A 
HETATM    3  C3  UNL     1     -34.519   6.157   3.993  1.00 20.00    -0.020 A 
HETATM    4  C4  UNL     1     -32.862   7.680   4.987  1.00 20.00    -0.014 A 
HETATM    5  C8  UNL     1     -35.579   5.144   3.802  1.00 20.00     0.056 C 
HETATM    6  C9  UNL     1     -32.015   8.418   5.950  1.00 20.00     0.057 C 
HETATM    7  S11 UNL     1     -33.990   6.534   5.577  1.00 20.00    -0.100 SA
ENDROOT
BRANCH   2   8
HETATM    8  C6  UNL     1     -32.011   8.693   2.800  1.00 20.00     0.025 A 
HETATM    9  C5  UNL     1     -31.489   8.255   1.449  1.00 20.00     0.016 A 
HETATM   10  C7  UNL     1     -32.544   9.318   1.528  1.00 20.00     0.004 A 
BRANCH  10  11
HETATM   11  C10 UNL     1     -32.210  10.731   1.192  1.00 20.00     0.090 C 
HETATM   12 BR12 UNL     1     -33.554  11.942   1.924  1.00 20.00    -0.096 Br
ENDBRANCH  10  11
ENDBRANCH   2   8
TORSDOF 2
