REMARK  2 active torsions:
REMARK  status: ('A' for Active; 'I' for Inactive)
REMARK    1  A    between atoms: C4_4  and  C6_6 
REMARK    2  A    between atoms: C7_7  and  C8_8 
ROOT
HETATM    1  C1  UNL     1     -34.096   6.175   2.578  1.00 20.00     0.034 A 
HETATM    2  C2  UNL     1     -35.152   5.649   3.286  1.00 20.00     0.142 A 
HETATM    3  C3  UNL     1     -33.707   6.329   4.769  1.00 20.00     0.148 A 
HETATM    4  C4  UNL     1     -33.158   6.616   3.541  1.00 20.00    -0.029 A 
HETATM    5  O9  UNL     1     -34.922   5.738   4.622  1.00 20.00    -0.334 OA
ENDROOT
BRANCH   4   6
HETATM    6  C6  UNL     1     -31.797   7.282   3.273  1.00 20.00     0.026 A 
HETATM    7  C5  UNL     1     -31.501   8.611   3.934  1.00 20.00     0.016 A 
HETATM    8  C7  UNL     1     -31.710   8.554   2.450  1.00 20.00     0.005 A 
BRANCH   8   9
HETATM    9  C8  UNL     1     -32.908   9.197   1.839  1.00 20.00     0.090 C 
HETATM   10 BR10 UNL     1     -32.653  11.127   1.705  1.00 20.00    -0.096 Br
ENDBRANCH   8   9
ENDBRANCH   4   6
TORSDOF 2
