REMARK  3 active torsions:
REMARK  status: ('A' for Active; 'I' for Inactive)
REMARK    1  A    between atoms: C2_2  and  C6_6 
REMARK    2  A    between atoms: C3_3  and  C7_7 
REMARK    3  A    between atoms: C7_7  and  C8_8 
ROOT
HETATM    1  C1  UNL     1     -32.476   6.368   2.491  1.00 20.00     0.016 A 
HETATM    2  C2  UNL     1     -33.248   7.626   2.213  1.00 20.00     0.008 A 
HETATM    3  C3  UNL     1     -33.397   6.926   3.563  1.00 20.00    -0.039 A 
HETATM    4  C4  UNL     1     -32.770   7.523   4.795  1.00 20.00     0.015 C 
ENDROOT
BRANCH   3   5
HETATM    5  C7  UNL     1     -34.692   6.203   3.825  1.00 20.00     0.009 C 
BRANCH   5   6
HETATM    6  C8  UNL     1     -34.486   4.947   4.678  1.00 20.00    -0.004 C 
HETATM    7  C5  UNL     1     -33.578   3.937   3.994  1.00 20.00     0.005 C 
ENDBRANCH   5   6
ENDBRANCH   3   5
BRANCH   2   8
HETATM    8  C6  UNL     1     -32.537   8.925   2.055  1.00 20.00     0.120 C 
HETATM    9 CL9  UNL     1     -31.830   9.080   0.422  1.00 20.00    -0.130 Cl
ENDBRANCH   2   8
TORSDOF 3
