REMARK  0 active torsions:
REMARK  status: ('A' for Active; 'I' for Inactive)
ROOT
HETATM    1  C1  UNL     1     -31.736   8.472   2.094  1.00 20.00     0.006 C 
HETATM    2  C2  UNL     1     -33.175   8.413   2.637  1.00 20.00     0.038 C 
HETATM    3  C3  UNL     1     -31.286   7.743   3.371  1.00 20.00     0.038 C 
HETATM    4  C4  UNL     1     -35.223   6.063   3.773  1.00 20.00     0.042 C 
HETATM    5  C5  UNL     1     -33.234   7.158   4.951  1.00 20.00     0.053 C 
HETATM    6  C6  UNL     1     -34.281   5.452   2.735  1.00 20.00     0.170 C 
HETATM    7  C7  UNL     1     -34.529   6.354   5.097  1.00 20.00     0.062 C 
HETATM    8  C8  UNL     1     -32.736   7.186   3.502  1.00 20.00     0.062 C 
HETATM    9  O9  UNL     1     -32.932   5.889   2.890  1.00 20.00    -0.380 OA
HETATM   10 BR10 UNL     1     -34.151   4.650   6.010  1.00 20.00    -0.091 Br
ENDROOT
TORSDOF 0
