REMARK  3 active torsions:
REMARK  status: ('A' for Active; 'I' for Inactive)
REMARK    1  A    between atoms: C2_2  and  C10_10 
REMARK    2  A    between atoms: C3_3  and  C9_9 
REMARK    3  A    between atoms: C4_4  and  O11_11 
ROOT
HETATM    1  C1  UNL     1     -31.483   7.969   3.474  1.00 20.00     0.038 C 
HETATM    2  C2  UNL     1     -32.350   7.749   2.213  1.00 20.00     0.002 C 
HETATM    3  C3  UNL     1     -33.474   7.208   3.144  1.00 20.00     0.019 C 
HETATM    4  C4  UNL     1     -32.767   7.928   4.327  1.00 20.00     0.123 C 
ENDROOT
BRANCH   2   5
HETATM    5  C10 UNL     1     -32.697   9.003   1.424  1.00 20.00    -0.047 C 
HETATM    6  C6  UNL     1     -33.737   8.675   0.334  1.00 20.00     0.015 C 
HETATM    7  C7  UNL     1     -31.433   9.572   0.748  1.00 20.00     0.015 C 
HETATM    8  C8  UNL     1     -33.284  10.076   2.363  1.00 20.00     0.015 C 
ENDBRANCH   2   5
BRANCH   3   9
HETATM    9  C9  UNL     1     -33.577   5.691   3.213  1.00 20.00     0.003 C 
HETATM   10  C5  UNL     1     -34.516   5.240   4.289  1.00 20.00     0.005 C 
ENDBRANCH   3   9
BRANCH   4  11
HETATM   11  O11 UNL     1     -32.676   7.208   5.569  1.00 20.00    -0.395 OA
HETATM   12  H31 UNL     1     -31.987   7.653   6.078  1.00 20.00     0.210 HD
ENDBRANCH   4  11
TORSDOF 3
