REMARK  1 active torsions:
REMARK  status: ('A' for Active; 'I' for Inactive)
REMARK    1  A    between atoms: C4_4  and  C10_10 
ROOT
HETATM    1  C1  UNL     1     -31.649   8.432   3.984  1.00 20.00     0.007 C 
HETATM    2  C2  UNL     1     -32.187   9.329   2.868  1.00 20.00     0.009 C 
HETATM    3  C3  UNL     1     -33.404   7.338   1.873  1.00 20.00     0.013 C 
HETATM    4  C4  UNL     1     -32.569   7.240   4.292  1.00 20.00     0.003 C 
HETATM    5  C5  UNL     1     -32.858   6.441   2.999  1.00 20.00    -0.013 C 
HETATM    6  C6  UNL     1     -32.511   8.563   1.567  1.00 20.00    -0.047 C 
HETATM    7  C7  UNL     1     -33.796   5.253   3.233  1.00 20.00     0.010 C 
HETATM    8  C8  UNL     1     -33.266   9.505   0.609  1.00 20.00     0.015 C 
HETATM    9  C9  UNL     1     -31.211   8.123   0.864  1.00 20.00     0.015 C 
ENDROOT
BRANCH   4  10
HETATM   10  C10 UNL     1     -33.830   7.703   5.032  1.00 20.00     0.119 C 
HETATM   11 CL11 UNL     1     -34.581   6.332   5.861  1.00 20.00    -0.130 Cl
ENDBRANCH   4  10
TORSDOF 1
