REMARK  2 active torsions:
REMARK  status: ('A' for Active; 'I' for Inactive)
REMARK    1  A    between atoms: C4_4  and  C7_7 
REMARK    2  A    between atoms: C6_6  and  C10_10 
ROOT
HETATM    1  C1  UNL     1     -34.736   5.268   4.911  1.00 20.00     0.015 A 
HETATM    2  C2  UNL     1     -35.165   4.880   3.661  1.00 20.00     0.051 A 
HETATM    3  C3  UNL     1     -33.939   6.448   4.861  1.00 20.00    -0.048 A 
HETATM    4  C4  UNL     1     -33.789   6.917   3.574  1.00 20.00    -0.003 A 
HETATM    5  C8  UNL     1     -33.348   7.083   6.064  1.00 20.00     0.049 C 
HETATM    6  S11 UNL     1     -34.606   5.935   2.434  1.00 20.00    -0.105 SA
ENDROOT
BRANCH   4   7
HETATM    7  C7  UNL     1     -32.976   8.183   3.180  1.00 20.00    -0.005 A 
HETATM    8  C5  UNL     1     -31.497   8.180   3.534  1.00 20.00     0.021 A 
HETATM    9  C6  UNL     1     -31.907   7.975   2.106  1.00 20.00     0.010 A 
HETATM   10  C9  UNL     1     -33.728   9.480   3.265  1.00 20.00     0.021 C 
BRANCH   9  11
HETATM   11  C10 UNL     1     -31.594   9.007   1.078  1.00 20.00     0.091 C 
HETATM   12 BR12 UNL     1     -32.718   8.764  -0.498  1.00 20.00    -0.096 Br
ENDBRANCH   9  11
ENDBRANCH   4   7
TORSDOF 2
