REMARK  2 active torsions:
REMARK  status: ('A' for Active; 'I' for Inactive)
REMARK    1  A    between atoms: C5_5  and  C8_8 
REMARK    2  A    between atoms: C9_9  and  C10_10 
ROOT
HETATM    1  C1  UNL     1     -32.437   5.833   2.517  1.00 20.00     0.009 A 
HETATM    2  C2  UNL     1     -33.434   7.495   3.960  1.00 20.00     0.009 A 
HETATM    3  C3  UNL     1     -33.321   4.874   3.011  1.00 20.00     0.024 A 
HETATM    4  C4  UNL     1     -34.318   6.536   4.454  1.00 20.00     0.024 A 
HETATM    5  C5  UNL     1     -32.493   7.143   2.992  1.00 20.00    -0.053 A 
HETATM    6  C6  UNL     1     -34.262   5.225   3.979  1.00 20.00     0.034 A 
HETATM    7 CL11 UNL     1     -35.353   4.042   4.589  1.00 20.00    -0.084 Cl
ENDROOT
BRANCH   5   8
HETATM    8  C8  UNL     1     -31.548   8.167   2.464  1.00 20.00     0.024 A 
HETATM    9  C7  UNL     1     -31.987   9.611   2.412  1.00 20.00     0.016 A 
HETATM   10  C9  UNL     1     -31.797   8.847   1.135  1.00 20.00     0.008 A 
BRANCH  10  11
HETATM   11  C10 UNL     1     -32.972   8.530   0.273  1.00 20.00     0.119 C 
HETATM   12 CL12 UNL     1     -33.447   9.938  -0.715  1.00 20.00    -0.130 Cl
ENDBRANCH  10  11
ENDBRANCH   5   8
TORSDOF 2
