REMARK  2 active torsions:
REMARK  status: ('A' for Active; 'I' for Inactive)
REMARK    1  A    between atoms: C5_5  and  C8_8 
REMARK    2  A    between atoms: C9_9  and  C10_10 
ROOT
HETATM    1  C1  UNL     1     -32.884   5.674   2.343  1.00 20.00     0.009 A 
HETATM    2  C2  UNL     1     -33.011   7.541   3.871  1.00 20.00     0.009 A 
HETATM    3  C3  UNL     1     -33.653   4.906   3.217  1.00 20.00     0.019 A 
HETATM    4  C4  UNL     1     -33.780   6.773   4.746  1.00 20.00     0.019 A 
HETATM    5  C5  UNL     1     -32.562   6.991   2.670  1.00 20.00    -0.053 A 
HETATM    6  C6  UNL     1     -34.101   5.455   4.419  1.00 20.00     0.011 A 
HETATM    7 BR12 UNL     1     -35.143   4.415   5.603  1.00 20.00    -0.051 Br
ENDROOT
BRANCH   5   8
HETATM    8  C8  UNL     1     -31.729   7.823   1.723  1.00 20.00     0.024 A 
HETATM    9  C7  UNL     1     -30.824   8.911   2.259  1.00 20.00     0.016 A 
HETATM   10  C9  UNL     1     -32.065   9.283   1.504  1.00 20.00     0.008 A 
BRANCH  10  11
HETATM   11  C10 UNL     1     -31.965   9.876   0.141  1.00 20.00     0.119 C 
HETATM   12 CL11 UNL     1     -33.495   9.690  -0.760  1.00 20.00    -0.130 Cl
ENDBRANCH  10  11
ENDBRANCH   5   8
TORSDOF 2
