REMARK  2 active torsions:
REMARK  status: ('A' for Active; 'I' for Inactive)
REMARK    1  A    between atoms: C2_2  and  C6_6 
REMARK    2  A    between atoms: C7_7  and  C10_10 
ROOT
HETATM    1  C1  UNL     1     -33.836   6.172   3.027  1.00 20.00     0.022 A 
HETATM    2  C2  UNL     1     -33.325   7.437   3.439  1.00 20.00    -0.040 A 
HETATM    3  C3  UNL     1     -34.215   5.394   4.099  1.00 20.00    -0.020 A 
HETATM    4  C4  UNL     1     -33.334   7.578   4.809  1.00 20.00    -0.014 A 
HETATM    5  C8  UNL     1     -34.786   4.029   4.089  1.00 20.00     0.056 C 
HETATM    6  C9  UNL     1     -32.892   8.728   5.628  1.00 20.00     0.057 C 
HETATM    7  S11 UNL     1     -33.955   6.188   5.594  1.00 20.00    -0.100 SA
ENDROOT
BRANCH   2   8
HETATM    8  C6  UNL     1     -32.834   8.493   2.476  1.00 20.00     0.025 A 
HETATM    9  C5  UNL     1     -31.361   8.599   2.147  1.00 20.00     0.016 A 
HETATM   10  C7  UNL     1     -32.318   8.089   1.110  1.00 20.00     0.008 A 
BRANCH  10  11
HETATM   11  C10 UNL     1     -32.639   8.918  -0.085  1.00 20.00     0.119 C 
HETATM   12 CL12 UNL     1     -32.821  10.640   0.351  1.00 20.00    -0.130 Cl
ENDBRANCH  10  11
ENDBRANCH   2   8
TORSDOF 2
