REMARK  1 active torsions:
REMARK  status: ('A' for Active; 'I' for Inactive)
REMARK    1  A    between atoms: C5_5  and  C10_10 
ROOT
HETATM    1  C1  UNL     1     -31.428   7.312   2.006  1.00 20.00     0.017 A 
HETATM    2  C2  UNL     1     -32.725   5.610   3.447  1.00 20.00     0.020 C 
HETATM    3  C3  UNL     1     -32.073   7.862   4.428  1.00 20.00     0.083 C 
HETATM    4  C4  UNL     1     -33.908   6.210   5.632  1.00 20.00     0.082 C 
HETATM    5  C5  UNL     1     -32.871   7.714   1.908  1.00 20.00     0.005 A 
HETATM    6  C6  UNL     1     -32.352   7.060   3.184  1.00 20.00    -0.026 A 
HETATM    7  C7  UNL     1     -34.007   5.437   4.298  1.00 20.00    -0.038 C 
HETATM    8  C8  UNL     1     -35.258   5.865   3.504  1.00 20.00     0.015 C 
HETATM    9  C9  UNL     1     -34.160   3.936   4.629  1.00 20.00     0.015 C 
HETATM   10  S11 UNL     1     -33.566   7.988   5.439  1.00 20.00    -0.168 SA
ENDROOT
BRANCH   5  11
HETATM   11  C10 UNL     1     -33.243   9.155   1.826  1.00 20.00     0.090 C 
HETATM   12 BR12 UNL     1     -32.960   9.830   0.017  1.00 20.00    -0.096 Br
ENDBRANCH   5  11
TORSDOF 1
