REMARK  1 active torsions:
REMARK  status: ('A' for Active; 'I' for Inactive)
REMARK    1  A    between atoms: C5_5  and  C7_7 
ROOT
HETATM    1  C1  UNL     1     -33.831   6.801   4.718  1.00 20.00     0.020 C 
HETATM    2  C2  UNL     1     -31.847   8.024   3.585  1.00 20.00     0.017 A 
HETATM    3  C3  UNL     1     -34.862   5.755   4.346  1.00 20.00     0.075 C 
HETATM    4  C4  UNL     1     -32.618   5.653   2.864  1.00 20.00     0.083 C 
HETATM    5  C5  UNL     1     -33.043   8.257   2.707  1.00 20.00     0.005 A 
HETATM    6  C6  UNL     1     -32.934   6.973   3.519  1.00 20.00    -0.026 A 
HETATM    7  S8  UNL     1     -33.910   4.507   3.449  1.00 20.00    -0.168 SA
ENDROOT
BRANCH   5   8
HETATM    8  C7  UNL     1     -32.878   8.301   1.227  1.00 20.00     0.090 C 
HETATM    9 BR9  UNL     1     -32.254  10.061   0.663  1.00 20.00    -0.096 Br
ENDBRANCH   5   8
TORSDOF 1
