REMARK  2 active torsions:
REMARK  status: ('A' for Active; 'I' for Inactive)
REMARK    1  A    between atoms: C3_3  and  C9_9 
REMARK    2  A    between atoms: C4_4  and  C10_10 
ROOT
HETATM    1  C1  UNL     1     -33.647   5.402   3.608  1.00 20.00     0.131 C 
HETATM    2  C2  UNL     1     -32.683   5.521   2.414  1.00 20.00     0.084 C 
HETATM    3  C3  UNL     1     -34.047   6.893   3.509  1.00 20.00     0.060 C 
HETATM    4  C4  UNL     1     -33.356   6.886   2.100  1.00 20.00     0.011 C 
HETATM    5  O11 UNL     1     -33.964   4.491   4.343  1.00 20.00    -0.298 OA
ENDROOT
BRANCH   4   6
HETATM    6  C10 UNL     1     -32.410   8.016   1.736  1.00 20.00    -0.047 C 
HETATM    7  C6  UNL     1     -33.193   9.336   1.591  1.00 20.00     0.015 C 
HETATM    8  C7  UNL     1     -31.704   7.707   0.402  1.00 20.00     0.015 C 
HETATM    9  C8  UNL     1     -31.343   8.188   2.836  1.00 20.00     0.015 C 
ENDBRANCH   4   6
BRANCH   3  10
HETATM   10  C9  UNL     1     -33.489   7.766   4.619  1.00 20.00     0.008 C 
HETATM   11  C5  UNL     1     -34.083   7.427   5.951  1.00 20.00     0.006 C 
ENDBRANCH   3  10
TORSDOF 2
