REMARK  3 active torsions:
REMARK  status: ('A' for Active; 'I' for Inactive)
REMARK    1  A    between atoms: C1_1  and  C9_9 
REMARK    2  A    between atoms: C5_5  and  C8_8 
REMARK    3  A    between atoms: C6_6  and  C9_9 
ROOT
HETATM    1  C2  UNL     1     -32.035   8.425   3.231  1.00 20.00     0.005 C 
HETATM    2  C3  UNL     1     -32.793   7.394   4.074  1.00 20.00     0.008 C 
HETATM    3  C4  UNL     1     -33.863   7.551   1.929  1.00 20.00     0.012 C 
HETATM    4  C5  UNL     1     -32.956   8.772   2.057  1.00 20.00    -0.014 C 
HETATM    5  C6  UNL     1     -34.147   7.200   3.386  1.00 20.00     0.030 C 
ENDROOT
BRANCH   5   6
HETATM    6  C9  UNL     1     -34.716   5.803   3.565  1.00 20.00     0.274 C 
HETATM    7  F12 UNL     1     -35.278   5.737   4.802  1.00 20.00    -0.238 F 
BRANCH   6   8
HETATM    8  C1  UNL     1     -33.708   4.659   3.501  1.00 20.00     0.208 C 
HETATM    9  O10 UNL     1     -33.925   3.676   4.262  1.00 20.00    -0.646 OA
HETATM   10  O11 UNL     1     -32.757   4.848   2.689  1.00 20.00    -0.646 OA
ENDBRANCH   6   8
ENDBRANCH   5   6
BRANCH   4  11
HETATM   11  C8  UNL     1     -32.203   9.095   0.778  1.00 20.00     0.000 C 
HETATM   12  C7  UNL     1     -33.130   9.409  -0.354  1.00 20.00     0.005 C 
ENDBRANCH   4  11
TORSDOF 3
