REMARK  3 active torsions:
REMARK  status: ('A' for Active; 'I' for Inactive)
REMARK    1  A    between atoms: C1_1  and  C5_5 
REMARK    2  A    between atoms: C5_5  and  C7_7 
REMARK    3  A    between atoms: C6_6  and  C7_7 
ROOT
HETATM    1  C5  UNL     1     -33.488   7.184   2.421  1.00 20.00     0.274 C 
HETATM    2  F10 UNL     1     -32.428   6.345   2.236  1.00 20.00    -0.238 F 
ENDROOT
BRANCH   1   3
HETATM    3  C1  UNL     1     -34.135   6.691   3.717  1.00 20.00     0.208 C 
HETATM    4  O8  UNL     1     -33.425   6.838   4.751  1.00 20.00    -0.646 OA
HETATM    5  O9  UNL     1     -35.297   6.212   3.598  1.00 20.00    -0.646 OA
ENDBRANCH   1   3
BRANCH   1   6
HETATM    6  C7  UNL     1     -32.959   8.627   2.476  1.00 20.00     0.029 C 
HETATM    7  C4  UNL     1     -31.661   8.655   3.295  1.00 20.00     0.014 C 
BRANCH   6   8
HETATM    8  C6  UNL     1     -32.811   9.267   1.065  1.00 20.00    -0.016 C 
HETATM    9  C2  UNL     1     -32.319  10.716   1.146  1.00 20.00     0.010 C 
HETATM   10  C3  UNL     1     -31.913   8.473   0.112  1.00 20.00     0.010 C 
ENDBRANCH   6   8
ENDBRANCH   1   6
TORSDOF 3
