REMARK  1 active torsions:
REMARK  status: ('A' for Active; 'I' for Inactive)
REMARK    1  A    between atoms: C4_4  and  C10_10 
ROOT
HETATM    1  C1  UNL     1     -32.421   5.865   2.521  1.00 20.00     0.006 C 
HETATM    2  C2  UNL     1     -33.603   5.022   3.013  1.00 20.00     0.009 C 
HETATM    3  C3  UNL     1     -33.744   6.908   4.708  1.00 20.00     0.013 C 
HETATM    4  C4  UNL     1     -32.797   7.339   2.350  1.00 20.00    -0.001 C 
HETATM    5  C5  UNL     1     -33.245   7.968   3.699  1.00 20.00    -0.013 C 
HETATM    6  C6  UNL     1     -34.494   5.722   4.070  1.00 20.00    -0.047 C 
HETATM    7  C7  UNL     1     -32.184   8.833   4.389  1.00 20.00     0.010 C 
HETATM    8  C8  UNL     1     -35.816   6.199   3.434  1.00 20.00     0.015 C 
HETATM    9  C9  UNL     1     -34.855   4.709   5.176  1.00 20.00     0.015 C 
ENDROOT
BRANCH   4  10
HETATM   10  C10 UNL     1     -31.684   8.099   1.625  1.00 20.00     0.090 C 
HETATM   11 BR11 UNL     1     -32.419   9.706   0.833  1.00 20.00    -0.096 Br
ENDBRANCH   4  10
TORSDOF 1
