REMARK  1 active torsions:
REMARK  status: ('A' for Active; 'I' for Inactive)
REMARK    1  A    between atoms: C5_5  and  C10_10 
ROOT
HETATM    1  C1  UNL     1     -33.853   6.253   5.901  1.00 20.00     0.002 C 
HETATM    2  C2  UNL     1     -33.522   7.644   5.371  1.00 20.00     0.011 C 
HETATM    3  C3  UNL     1     -34.866   5.727   4.897  1.00 20.00     0.010 C 
HETATM    4  C4  UNL     1     -34.145   8.833   3.157  1.00 20.00     0.017 A 
HETATM    5  C5  UNL     1     -32.740   8.346   2.975  1.00 20.00     0.009 A 
HETATM    6  C6  UNL     1     -33.705   7.558   3.861  1.00 20.00    -0.028 A 
HETATM    7  C7  UNL     1     -34.313   6.184   3.519  1.00 20.00    -0.040 C 
HETATM    8  C8  UNL     1     -33.242   5.183   3.050  1.00 20.00     0.015 C 
HETATM    9  C9  UNL     1     -35.465   6.212   2.511  1.00 20.00     0.015 C 
ENDROOT
BRANCH   5  10
HETATM   10  C10 UNL     1     -32.291   7.943   1.615  1.00 20.00     0.120 C 
HETATM   11 CL11 UNL     1     -31.871   9.367   0.622  1.00 20.00    -0.130 Cl
ENDBRANCH   5  10
TORSDOF 1
