REMARK  1 active torsions:
REMARK  status: ('A' for Active; 'I' for Inactive)
REMARK    1  A    between atoms: C5_5  and  C7_7 
ROOT
HETATM    1  C1  UNL     1     -34.384   6.906   5.070  1.00 20.00     0.038 C 
HETATM    2  C2  UNL     1     -32.203   7.666   3.872  1.00 20.00     0.018 A 
HETATM    3  C3  UNL     1     -35.185   5.625   4.919  1.00 20.00     0.168 C 
HETATM    4  C4  UNL     1     -33.468   5.429   3.397  1.00 20.00     0.177 C 
HETATM    5  C5  UNL     1     -33.335   8.031   2.953  1.00 20.00     0.007 A 
HETATM    6  C6  UNL     1     -33.473   6.844   3.887  1.00 20.00    -0.012 A 
HETATM    7  O8  UNL     1     -34.265   4.686   4.339  1.00 20.00    -0.390 OA
ENDROOT
BRANCH   5   8
HETATM    8  C7  UNL     1     -33.173   7.870   1.481  1.00 20.00     0.090 C 
HETATM    9 BR9  UNL     1     -32.210   9.393   0.730  1.00 20.00    -0.096 Br
ENDBRANCH   5   8
TORSDOF 1
