REMARK  1 active torsions:
REMARK  status: ('A' for Active; 'I' for Inactive)
REMARK    1  A    between atoms: C6_6  and  C8_8 
ROOT
HETATM    1  C1  UNL     1     -33.947   5.045   3.360  1.00 20.00     0.027 C 
HETATM    2  C2  UNL     1     -33.899   6.279   2.462  1.00 20.00     0.014 C 
HETATM    3  C3  UNL     1     -31.841   7.737   3.089  1.00 20.00     0.018 A 
HETATM    4  C4  UNL     1     -34.612   5.373   4.691  1.00 20.00     0.167 C 
HETATM    5  C5  UNL     1     -33.973   7.654   4.572  1.00 20.00     0.177 C 
HETATM    6  C6  UNL     1     -32.843   8.687   2.489  1.00 20.00     0.011 A 
HETATM    7  C7  UNL     1     -33.321   7.448   3.226  1.00 20.00    -0.014 A 
HETATM    8  O9  UNL     1     -33.926   6.447   5.338  1.00 20.00    -0.390 OA
ENDROOT
BRANCH   6   9
HETATM    9  C8  UNL     1     -32.949   8.833   1.010  1.00 20.00     0.120 C 
HETATM   10 CL10 UNL     1     -31.676   9.910   0.373  1.00 20.00    -0.130 Cl
ENDBRANCH   6   9
TORSDOF 1
