REMARK  2 active torsions:
REMARK  status: ('A' for Active; 'I' for Inactive)
REMARK    1  A    between atoms: C5_5  and  C6_6 
REMARK    2  A    between atoms: C7_7  and  C8_8 
ROOT
HETATM    1  C4  UNL     1     -31.444   8.406   3.799  1.00 20.00     0.011 A 
HETATM    2  C6  UNL     1     -32.445   7.347   3.440  1.00 20.00    -0.005 A 
HETATM    3  C7  UNL     1     -32.229   8.512   2.518  1.00 20.00     0.000 A 
ENDROOT
BRANCH   2   4
HETATM    4  C5  UNL     1     -33.733   7.143   4.210  1.00 20.00    -0.010 C 
HETATM    5  C2  UNL     1     -33.595   6.735   5.701  1.00 20.00     0.005 C 
HETATM    6  C1  UNL     1     -34.836   5.842   5.494  1.00 20.00     0.001 C 
HETATM    7  C3  UNL     1     -34.463   5.791   3.998  1.00 20.00     0.005 C 
ENDBRANCH   2   4
BRANCH   3   8
HETATM    8  C8  UNL     1     -31.555   8.306   1.206  1.00 20.00     0.090 C 
HETATM    9 BR9  UNL     1     -32.629   9.057  -0.240  1.00 20.00    -0.096 Br
ENDBRANCH   3   8
TORSDOF 2
