REMARK  2 active torsions:
REMARK  status: ('A' for Active; 'I' for Inactive)
REMARK    1  A    between atoms: C4_4  and  C8_8 
REMARK    2  A    between atoms: C8_8  and  O9_9 
ROOT
HETATM    1  C1  UNL     1     -31.797   7.667   3.287  1.00 20.00     0.018 A 
HETATM    2  C2  UNL     1     -34.327   7.480   3.878  1.00 20.00     0.025 C 
HETATM    3  C3  UNL     1     -33.125   5.442   3.054  1.00 20.00     0.084 C 
HETATM    4  C4  UNL     1     -32.526   7.720   1.976  1.00 20.00     0.019 A 
HETATM    5  C5  UNL     1     -34.647   6.507   5.008  1.00 20.00     0.044 C 
HETATM    6  C6  UNL     1     -33.124   6.947   3.139  1.00 20.00    -0.025 A 
HETATM    7  C7  UNL     1     -33.747   6.692   6.224  1.00 20.00     0.021 C 
HETATM    8  S10 UNL     1     -34.367   4.878   4.258  1.00 20.00    -0.164 SA
ENDROOT
BRANCH   4   9
HETATM    9  C8  UNL     1     -33.104   9.005   1.492  1.00 20.00     0.169 C 
BRANCH   9  10
HETATM   10  O9  UNL     1     -32.078   9.813   0.916  1.00 20.00    -0.400 OA
HETATM   11  H24 UNL     1     -32.506  10.631   0.620  1.00 20.00     0.209 HD
ENDBRANCH   9  10
ENDBRANCH   4   9
TORSDOF 2
