REMARK  2 active torsions:
REMARK  status: ('A' for Active; 'I' for Inactive)
REMARK    1  A    between atoms: C1_1  and  C11_11 
REMARK    2  A    between atoms: C5_5  and  C11_11 
ROOT
HETATM    1  C2  UNL     1     -33.121   9.330   3.046  1.00 20.00     0.006 C 
HETATM    2  C3  UNL     1     -32.065   9.628   1.980  1.00 20.00     0.009 C 
HETATM    3  C4  UNL     1     -32.055   7.215   1.178  1.00 20.00     0.013 C 
HETATM    4  C5  UNL     1     -33.447   7.833   3.213  1.00 20.00    -0.001 C 
HETATM    5  C6  UNL     1     -32.299   6.952   2.681  1.00 20.00    -0.013 C 
HETATM    6  C7  UNL     1     -32.145   8.705   0.752  1.00 20.00    -0.047 C 
HETATM    7  C8  UNL     1     -32.532   5.454   2.900  1.00 20.00     0.010 C 
HETATM    8  C9  UNL     1     -33.456   8.959  -0.021  1.00 20.00     0.015 C 
HETATM    9  C10 UNL     1     -30.977   9.036  -0.197  1.00 20.00     0.015 C 
ENDROOT
BRANCH   4  10
HETATM   10  C11 UNL     1     -33.812   7.548   4.673  1.00 20.00     0.118 C 
BRANCH  10  11
HETATM   11  C1  UNL     1     -34.688   6.318   4.886  1.00 20.00     0.172 C 
HETATM   12  O12 UNL     1     -35.500   6.023   3.967  1.00 20.00    -0.648 OA
HETATM   13  O13 UNL     1     -34.480   5.735   5.989  1.00 20.00    -0.648 OA
ENDBRANCH  10  11
ENDBRANCH   4  10
TORSDOF 2
