REMARK  3 active torsions:
REMARK  status: ('A' for Active; 'I' for Inactive)
REMARK    1  A    between atoms: C4_4  and  C6_6 
REMARK    2  A    between atoms: C5_5  and  C8_8 
REMARK    3  A    between atoms: C6_6  and  C9_9 
ROOT
HETATM    1  C3  UNL     1     -31.644   7.562   3.001  1.00 20.00     0.017 A 
HETATM    2  C5  UNL     1     -32.575   8.594   2.431  1.00 20.00     0.009 A 
HETATM    3  C6  UNL     1     -33.144   7.393   3.175  1.00 20.00    -0.032 A 
ENDROOT
BRANCH   3   4
HETATM    4  C4  UNL     1     -33.790   7.606   4.554  1.00 20.00    -0.006 A 
HETATM    5  C1  UNL     1     -34.669   6.576   5.206  1.00 20.00     0.006 A 
HETATM    6  C2  UNL     1     -33.320   6.890   5.789  1.00 20.00     0.006 A 
ENDBRANCH   3   4
BRANCH   3   7
HETATM    7  C9  UNL     1     -33.797   6.287   2.381  1.00 20.00     0.006 C 
HETATM    8  C7  UNL     1     -33.235   4.938   2.717  1.00 20.00     0.006 C 
ENDBRANCH   3   7
BRANCH   2   9
HETATM    9  C8  UNL     1     -32.699   8.766   0.956  1.00 20.00     0.120 C 
HETATM   10 CL10 UNL     1     -31.356   9.745   0.304  1.00 20.00    -0.130 Cl
ENDBRANCH   2   9
TORSDOF 3
