REMARK  0 active torsions:
REMARK  status: ('A' for Active; 'I' for Inactive)
ROOT
HETATM    1  C1  UNL     1     -32.512   8.974  -0.123  1.00 20.00     0.006 C 
HETATM    2  C2  UNL     1     -32.778   9.430   1.321  1.00 20.00     0.038 C 
HETATM    3  C3  UNL     1     -31.514   7.948   0.438  1.00 20.00     0.038 C 
HETATM    4  C4  UNL     1     -32.997   7.280   4.513  1.00 20.00     0.046 C 
HETATM    5  C5  UNL     1     -33.292   6.950   2.032  1.00 20.00     0.058 C 
HETATM    6  C6  UNL     1     -31.958   8.353   4.211  1.00 20.00     0.170 C 
HETATM    7  C7  UNL     1     -34.005   7.180   3.366  1.00 20.00     0.087 C 
HETATM    8  C8  UNL     1     -32.244   8.049   1.811  1.00 20.00     0.062 C 
HETATM    9  O9  UNL     1     -31.345   8.098   2.949  1.00 20.00    -0.380 OA
HETATM   10 CL10 UNL     1     -35.155   5.852   3.681  1.00 20.00    -0.125 Cl
ENDROOT
TORSDOF 0
