REMARK  2 active torsions:
REMARK  status: ('A' for Active; 'I' for Inactive)
REMARK    1  A    between atoms: C4_4  and  C7_7 
REMARK    2  A    between atoms: C6_6  and  C9_9 
ROOT
HETATM    1  C5  UNL     1     -32.750   6.421   2.647  1.00 20.00     0.021 A 
HETATM    2  C6  UNL     1     -33.775   7.242   3.374  1.00 20.00     0.009 A 
HETATM    3  C7  UNL     1     -32.474   7.895   2.905  1.00 20.00    -0.012 A 
HETATM    4  C8  UNL     1     -31.403   8.257   3.894  1.00 20.00     0.021 C 
ENDROOT
BRANCH   3   5
HETATM    5  C4  UNL     1     -32.603   8.851   1.686  1.00 20.00    -0.043 A 
HETATM    6  C1  UNL     1     -32.380  10.257   1.750  1.00 20.00     0.015 A 
HETATM    7  C2  UNL     1     -32.562  10.867   0.528  1.00 20.00     0.050 A 
HETATM    8  S10 UNL     1     -33.001   9.746  -0.690  1.00 20.00    -0.113 SA
HETATM    9  C3  UNL     1     -32.948   8.440   0.417  1.00 20.00     0.057 A 
ENDBRANCH   3   5
BRANCH   2  10
HETATM   10  C9  UNL     1     -34.067   6.979   4.811  1.00 20.00     0.090 C 
HETATM   11 BR11 UNL     1     -35.303   5.480   4.993  1.00 20.00    -0.096 Br
ENDBRANCH   2  10
TORSDOF 2
