REMARK  2 active torsions:
REMARK  status: ('A' for Active; 'I' for Inactive)
REMARK    1  A    between atoms: C5_5  and  C6_6 
REMARK    2  A    between atoms: C7_7  and  C8_8 
ROOT
HETATM    1  C1  UNL     1     -34.483   6.074   3.368  1.00 20.00     0.033 C 
HETATM    2  C3  UNL     1     -35.518   5.735   4.420  1.00 20.00     0.168 C 
HETATM    3  C4  UNL     1     -33.592   6.477   5.500  1.00 20.00     0.172 C 
HETATM    4  C5  UNL     1     -33.615   7.073   4.103  1.00 20.00     0.016 C 
HETATM    5  O9  UNL     1     -34.867   5.846   5.695  1.00 20.00    -0.391 OA
ENDROOT
BRANCH   4   6
HETATM    6  C6  UNL     1     -32.239   7.265   3.497  1.00 20.00    -0.003 A 
HETATM    7  C2  UNL     1     -31.473   8.536   3.746  1.00 20.00     0.011 A 
HETATM    8  C7  UNL     1     -31.983   8.227   2.363  1.00 20.00     0.000 A 
BRANCH   8   9
HETATM    9  C8  UNL     1     -33.061   9.057   1.756  1.00 20.00     0.090 C 
HETATM   10 BR10 UNL     1     -32.332  10.737   1.082  1.00 20.00    -0.096 Br
ENDBRANCH   8   9
ENDBRANCH   4   6
TORSDOF 2
