REMARK  1 active torsions:
REMARK  status: ('A' for Active; 'I' for Inactive)
REMARK    1  A    between atoms: C5_5  and  C10_10 
ROOT
HETATM    1  C1  UNL     1     -34.055   5.647   5.006  1.00 20.00     0.019 C 
HETATM    2  C2  UNL     1     -31.537   7.837   4.022  1.00 20.00     0.018 A 
HETATM    3  C3  UNL     1     -34.286   4.738   3.807  1.00 20.00     0.075 C 
HETATM    4  C4  UNL     1     -33.125   6.721   2.320  1.00 20.00     0.084 C 
HETATM    5  C5  UNL     1     -32.442   8.930   3.526  1.00 20.00     0.010 A 
HETATM    6  C6  UNL     1     -32.965   7.493   3.619  1.00 20.00    -0.020 A 
HETATM    7  C7  UNL     1     -34.039   7.172   4.706  1.00 20.00    -0.038 C 
HETATM    8  C8  UNL     1     -33.792   7.872   6.066  1.00 20.00     0.015 C 
HETATM    9  C9  UNL     1     -35.427   7.647   4.218  1.00 20.00     0.015 C 
HETATM   10  S11 UNL     1     -32.976   4.940   2.578  1.00 20.00    -0.168 SA
ENDROOT
BRANCH   5  11
HETATM   11  C10 UNL     1     -32.156   9.611   2.230  1.00 20.00     0.120 C 
HETATM   12 CL12 UNL     1     -33.616  10.411   1.586  1.00 20.00    -0.130 Cl
ENDBRANCH   5  11
TORSDOF 1
