REMARK  3 active torsions:
REMARK  status: ('A' for Active; 'I' for Inactive)
REMARK    1  A    between atoms: C4_4  and  C6_6 
REMARK    2  A    between atoms: C5_5  and  C8_8 
REMARK    3  A    between atoms: C6_6  and  C9_9 
ROOT
HETATM    1  C3  UNL     1     -31.961   6.866   2.778  1.00 20.00     0.017 A 
HETATM    2  C5  UNL     1     -33.026   7.417   1.873  1.00 20.00     0.009 A 
HETATM    3  C6  UNL     1     -33.410   6.852   3.240  1.00 20.00    -0.032 A 
ENDROOT
BRANCH   3   4
HETATM    4  C4  UNL     1     -34.186   5.528   3.310  1.00 20.00    -0.006 A 
HETATM    5  C1  UNL     1     -33.681   4.330   4.064  1.00 20.00     0.006 A 
HETATM    6  C2  UNL     1     -34.895   5.068   4.553  1.00 20.00     0.006 A 
ENDBRANCH   3   4
BRANCH   3   7
HETATM    7  C9  UNL     1     -33.775   7.813   4.346  1.00 20.00     0.006 C 
HETATM    8  C7  UNL     1     -32.989   7.564   5.599  1.00 20.00     0.006 C 
ENDBRANCH   3   7
BRANCH   2   9
HETATM    9  C8  UNL     1     -33.069   8.872   1.556  1.00 20.00     0.120 C 
HETATM   10 CL10 UNL     1     -31.877   9.296   0.297  1.00 20.00    -0.130 Cl
ENDBRANCH   2   9
TORSDOF 3
