REMARK  2 active torsions:
REMARK  status: ('A' for Active; 'I' for Inactive)
REMARK    1  A    between atoms: C6_6  and  C8_8 
REMARK    2  A    between atoms: C8_8  and  O9_9 
ROOT
HETATM    1  C1  UNL     1     -34.374   4.648   4.069  1.00 20.00     0.011 C 
HETATM    2  C2  UNL     1     -34.424   5.689   2.953  1.00 20.00     0.011 C 
HETATM    3  C3  UNL     1     -32.097   6.860   2.925  1.00 20.00     0.018 A 
HETATM    4  C4  UNL     1     -34.874   5.190   5.403  1.00 20.00     0.074 C 
HETATM    5  C5  UNL     1     -34.000   7.651   4.511  1.00 20.00     0.083 C 
HETATM    6  C6  UNL     1     -33.033   7.675   2.077  1.00 20.00     0.019 A 
HETATM    7  C7  UNL     1     -33.572   6.902   3.274  1.00 20.00    -0.026 A 
HETATM    8  S10 UNL     1     -33.864   6.589   5.975  1.00 20.00    -0.168 SA
ENDROOT
BRANCH   6   9
HETATM    9  C8  UNL     1     -32.921   9.161   2.051  1.00 20.00     0.169 C 
BRANCH   9  10
HETATM   10  O9  UNL     1     -31.853   9.554   1.189  1.00 20.00    -0.400 OA
HETATM   11  H24 UNL     1     -31.826  10.522   1.210  1.00 20.00     0.209 HD
ENDBRANCH   9  10
ENDBRANCH   6   9
TORSDOF 2
