REMARK  1 active torsions:
REMARK  status: ('A' for Active; 'I' for Inactive)
REMARK    1  A    between atoms: C1_1  and  C5_5 
ROOT
HETATM    1  C2  UNL     1     -33.400   7.837   3.517  1.00 20.00     0.013 C 
HETATM    2  C3  UNL     1     -33.862   7.080   4.762  1.00 20.00     0.009 C 
HETATM    3  C4  UNL     1     -33.142   4.900   3.663  1.00 20.00     0.013 C 
HETATM    4  C5  UNL     1     -32.238   7.114   2.836  1.00 20.00     0.051 C 
HETATM    5  C6  UNL     1     -32.586   5.667   2.446  1.00 20.00    -0.007 C 
HETATM    6  C7  UNL     1     -34.248   5.611   4.484  1.00 20.00    -0.047 C 
HETATM    7  C8  UNL     1     -33.488   5.552   1.212  1.00 20.00     0.011 C 
HETATM    8  C9  UNL     1     -35.618   5.538   3.784  1.00 20.00     0.015 C 
HETATM    9  C10 UNL     1     -34.395   4.876   5.835  1.00 20.00     0.015 C 
ENDROOT
BRANCH   4  10
HETATM   10  C1  UNL     1     -31.751   7.904   1.658  1.00 20.00     0.236 C 
HETATM   11  O11 UNL     1     -32.275   8.946   1.279  1.00 20.00    -0.306 OA
ENDBRANCH   4  10
TORSDOF 1
