REMARK  2 active torsions:
REMARK  status: ('A' for Active; 'I' for Inactive)
REMARK    1  A    between atoms: C4_4  and  C9_9 
REMARK    2  A    between atoms: C5_5  and  C6_6 
ROOT
HETATM    1  C3  UNL     1     -31.815   7.458   3.409  1.00 20.00     0.017 A 
HETATM    2  C4  UNL     1     -33.033   8.130   2.843  1.00 20.00     0.009 A 
HETATM    3  C6  UNL     1     -33.192   7.052   3.907  1.00 20.00    -0.032 A 
HETATM    4  C8  UNL     1     -33.580   7.539   5.283  1.00 20.00     0.016 C 
ENDROOT
BRANCH   3   5
HETATM    5  C5  UNL     1     -33.752   5.662   3.579  1.00 20.00    -0.036 A 
HETATM    6  C1  UNL     1     -32.940   4.687   2.760  1.00 20.00     0.011 A 
HETATM    7  C2  UNL     1     -33.159   4.431   4.223  1.00 20.00     0.011 A 
HETATM    8  C7  UNL     1     -35.244   5.649   3.355  1.00 20.00     0.016 C 
ENDBRANCH   3   5
BRANCH   2   9
HETATM    9  C9  UNL     1     -33.422   7.904   1.423  1.00 20.00     0.120 C 
HETATM   10 CL10 UNL     1     -32.453   8.917   0.317  1.00 20.00    -0.130 Cl
ENDBRANCH   2   9
TORSDOF 2
