REMARK  1 active torsions:
REMARK  status: ('A' for Active; 'I' for Inactive)
REMARK    1  A    between atoms: C1_1  and  C5_5 
ROOT
HETATM    1  C2  UNL     1     -34.197   7.435   1.823  1.00 20.00     0.013 C 
HETATM    2  C3  UNL     1     -35.008   6.713   2.896  1.00 20.00     0.009 C 
HETATM    3  C4  UNL     1     -33.019   6.775   4.447  1.00 20.00     0.013 C 
HETATM    4  C5  UNL     1     -33.092   8.306   2.426  1.00 20.00     0.059 C 
HETATM    5  C6  UNL     1     -32.185   7.511   3.382  1.00 20.00    -0.007 C 
HETATM    6  C7  UNL     1     -34.137   5.884   3.862  1.00 20.00    -0.047 C 
HETATM    7  C9  UNL     1     -31.166   8.425   4.077  1.00 20.00     0.011 C 
HETATM    8  C10 UNL     1     -35.021   5.369   5.015  1.00 20.00     0.015 C 
HETATM    9  C11 UNL     1     -33.537   4.660   3.144  1.00 20.00     0.015 C 
ENDROOT
BRANCH   4  10
HETATM   10  C1  UNL     1     -32.296   8.882   1.291  1.00 20.00     0.127 C 
HETATM   11  C8  UNL     1     -32.795  10.173   0.701  1.00 20.00     0.091 C 
HETATM   12  O12 UNL     1     -31.284   8.326   0.866  1.00 20.00    -0.298 OA
ENDBRANCH   4  10
TORSDOF 1
