REMARK  3 active torsions:
REMARK  status: ('A' for Active; 'I' for Inactive)
REMARK    1  A    between atoms: C2_2  and  C6_6 
REMARK    2  A    between atoms: C3_3  and  C7_7 
REMARK    3  A    between atoms: C6_6  and  O8_8 
ROOT
HETATM    1  C1  UNL     1     -33.950   6.331   2.353  1.00 20.00     0.017 A 
HETATM    2  C2  UNL     1     -32.832   6.441   3.350  1.00 20.00     0.018 A 
HETATM    3  C3  UNL     1     -34.054   5.593   3.678  1.00 20.00    -0.038 A 
HETATM    4  C4  UNL     1     -33.876   4.097   3.667  1.00 20.00     0.015 C 
ENDROOT
BRANCH   2   5
HETATM    5  C6  UNL     1     -32.550   7.740   4.024  1.00 20.00     0.169 C 
BRANCH   5   6
HETATM    6  O8  UNL     1     -31.789   8.582   3.159  1.00 20.00    -0.400 OA
HETATM    7  H22 UNL     1     -31.635   9.406   3.645  1.00 20.00     0.209 HD
ENDBRANCH   5   6
ENDBRANCH   2   5
BRANCH   3   8
HETATM    8  C7  UNL     1     -35.064   6.082   4.682  1.00 20.00     0.005 C 
HETATM    9  C5  UNL     1     -35.061   5.265   5.942  1.00 20.00     0.006 C 
ENDBRANCH   3   8
TORSDOF 3
