REMARK  4 active torsions:
REMARK  status: ('A' for Active; 'I' for Inactive)
REMARK    1  A    between atoms: C2_2  and  C6_6 
REMARK    2  A    between atoms: C3_3  and  C7_7 
REMARK    3  A    between atoms: C7_7  and  C8_8 
REMARK    4  A    between atoms: C8_8  and  O9_9 
ROOT
HETATM    1  C1  UNL     1     -34.953   5.715   3.983  1.00 20.00     0.016 A 
HETATM    2  C2  UNL     1     -33.887   4.765   4.448  1.00 20.00     0.008 A 
HETATM    3  C3  UNL     1     -33.548   6.234   4.238  1.00 20.00    -0.037 A 
HETATM    4  C4  UNL     1     -33.318   7.069   5.470  1.00 20.00     0.015 C 
ENDROOT
BRANCH   3   5
HETATM    5  C7  UNL     1     -32.724   6.656   3.051  1.00 20.00     0.035 C 
BRANCH   5   6
HETATM    6  C8  UNL     1     -33.058   8.071   2.588  1.00 20.00     0.167 C 
BRANCH   6   7
HETATM    7  O9  UNL     1     -32.255   8.400   1.463  1.00 20.00    -0.396 OA
HETATM    8  C5  UNL     1     -32.515   9.719   1.003  1.00 20.00     0.201 C 
ENDBRANCH   6   7
ENDBRANCH   5   6
ENDBRANCH   3   5
BRANCH   2   9
HETATM    9  C6  UNL     1     -33.393   3.688   3.543  1.00 20.00     0.120 C 
HETATM   10 CL10 UNL     1     -34.507   2.294   3.528  1.00 20.00    -0.130 Cl
ENDBRANCH   2   9
TORSDOF 4
