REMARK  2 active torsions:
REMARK  status: ('A' for Active; 'I' for Inactive)
REMARK    1  A    between atoms: C7_7  and  C10_10 
REMARK    2  A    between atoms: C7_7  and  C11_11 
ROOT
HETATM    1  C1  UNL     1     -34.116   7.441   4.108  1.00 20.00     0.140 C 
HETATM    2  C2  UNL     1     -33.492   4.434   3.849  1.00 20.00     0.001 C 
HETATM    3  C3  UNL     1     -34.848   4.947   4.309  1.00 20.00     0.013 C 
HETATM    4  C4  UNL     1     -33.426   4.859   2.387  1.00 20.00     0.007 C 
HETATM    5  C5  UNL     1     -35.002   6.285   3.604  1.00 20.00     0.061 C 
HETATM    6  C6  UNL     1     -34.112   6.229   2.330  1.00 20.00     0.013 C 
HETATM    7  C7  UNL     1     -33.373   7.561   2.748  1.00 20.00     0.025 C 
HETATM    8  O12 UNL     1     -34.037   8.030   5.166  1.00 20.00    -0.297 OA
ENDROOT
BRANCH   7   9
HETATM    9  C10 UNL     1     -33.820   8.777   1.933  1.00 20.00     0.013 C 
HETATM   10  C8  UNL     1     -33.090   8.866   0.635  1.00 20.00     0.006 C 
ENDBRANCH   7   9
BRANCH   7  11
HETATM   11  C11 UNL     1     -31.853   7.510   2.862  1.00 20.00     0.013 C 
HETATM   12  C9  UNL     1     -31.323   8.617   3.714  1.00 20.00     0.006 C 
ENDBRANCH   7  11
TORSDOF 2
