REMARK  3 active torsions:
REMARK  status: ('A' for Active; 'I' for Inactive)
REMARK    1  A    between atoms: C1_1  and  C6_6 
REMARK    2  A    between atoms: C6_6  and  C7_7 
REMARK    3  A    between atoms: C7_7  and  C8_8 
ROOT
HETATM    1  C2  UNL     1     -32.220   7.821   4.385  1.00 20.00     0.014 C 
HETATM    2  C7  UNL     1     -32.943   6.879   3.403  1.00 20.00     0.034 C 
ENDROOT
BRANCH   2   3
HETATM    3  C6  UNL     1     -33.565   7.716   2.267  1.00 20.00     0.275 C 
HETATM    4  F11 UNL     1     -34.540   8.515   2.782  1.00 20.00    -0.237 F 
BRANCH   3   5
HETATM    5  C1  UNL     1     -32.616   8.642   1.494  1.00 20.00     0.208 C 
HETATM    6  O9  UNL     1     -31.432   8.225   1.360  1.00 20.00    -0.646 OA
HETATM    7  O10 UNL     1     -33.129   9.729   1.103  1.00 20.00    -0.646 OA
ENDBRANCH   3   5
ENDBRANCH   2   3
BRANCH   2   8
HETATM    8  C8  UNL     1     -33.971   5.914   4.110  1.00 20.00    -0.045 C 
HETATM    9  C3  UNL     1     -33.536   4.441   3.937  1.00 20.00     0.015 C 
HETATM   10  C4  UNL     1     -34.007   6.196   5.629  1.00 20.00     0.015 C 
HETATM   11  C5  UNL     1     -35.403   6.056   3.562  1.00 20.00     0.015 C 
ENDBRANCH   2   8
TORSDOF 3
