REMARK  3 active torsions:
REMARK  status: ('A' for Active; 'I' for Inactive)
REMARK    1  A    between atoms: C3_3  and  O10_10 
REMARK    2  A    between atoms: C4_4  and  C8_8 
REMARK    3  A    between atoms: C4_4  and  C9_9 
ROOT
HETATM    1  C1  UNL     1     -34.239   6.245   6.113  1.00 20.00     0.037 C 
HETATM    2  C2  UNL     1     -33.118   7.134   5.519  1.00 20.00    -0.005 C 
HETATM    3  C3  UNL     1     -34.811   6.067   4.691  1.00 20.00     0.127 C 
HETATM    4  C4  UNL     1     -33.409   6.468   4.125  1.00 20.00    -0.012 C 
HETATM    5  C5  UNL     1     -33.340   8.630   5.697  1.00 20.00     0.011 C 
ENDROOT
BRANCH   4   6
HETATM    6  C8  UNL     1     -33.489   7.396   2.915  1.00 20.00     0.008 C 
HETATM    7  C6  UNL     1     -32.212   8.141   2.705  1.00 20.00     0.006 C 
ENDBRANCH   4   6
BRANCH   4   8
HETATM    8  C9  UNL     1     -32.468   5.292   3.834  1.00 20.00     0.008 C 
HETATM    9  C7  UNL     1     -32.760   4.676   2.508  1.00 20.00     0.006 C 
ENDBRANCH   4   8
BRANCH   3  10
HETATM   10  O10 UNL     1     -35.292   4.751   4.364  1.00 20.00    -0.395 OA
HETATM   11  H28 UNL     1     -35.995   4.563   4.999  1.00 20.00     0.210 HD
ENDBRANCH   3  10
TORSDOF 3
