REMARK  1 active torsions:
REMARK  status: ('A' for Active; 'I' for Inactive)
REMARK    1  A    between atoms: C6_6  and  C8_8 
ROOT
HETATM    1  C1  UNL     1     -33.835   6.528   5.156  1.00 20.00     0.027 C 
HETATM    2  C2  UNL     1     -33.896   7.663   4.135  1.00 20.00     0.014 C 
HETATM    3  C3  UNL     1     -32.024   7.344   2.360  1.00 20.00     0.018 A 
HETATM    4  C4  UNL     1     -34.568   5.297   4.636  1.00 20.00     0.167 C 
HETATM    5  C5  UNL     1     -34.174   5.884   2.372  1.00 20.00     0.177 C 
HETATM    6  C6  UNL     1     -33.106   8.132   1.671  1.00 20.00     0.011 A 
HETATM    7  C7  UNL     1     -33.468   7.155   2.777  1.00 20.00    -0.014 A 
HETATM    8  O9  UNL     1     -34.018   4.885   3.384  1.00 20.00    -0.390 OA
ENDROOT
BRANCH   6   9
HETATM    9  C8  UNL     1     -33.187   9.609   1.845  1.00 20.00     0.120 C 
HETATM   10 CL10 UNL     1     -32.007  10.449   0.802  1.00 20.00    -0.130 Cl
ENDBRANCH   6   9
TORSDOF 1
