REMARK  3 active torsions:
REMARK  status: ('A' for Active; 'I' for Inactive)
REMARK    1  A    between atoms: C2_2  and  C7_7 
REMARK    2  A    between atoms: C3_3  and  C9_9 
REMARK    3  A    between atoms: C8_8  and  C9_9 
ROOT
HETATM    1  C1  UNL     1     -34.969   4.730   6.371  1.00 20.00     0.016 A 
HETATM    2  C2  UNL     1     -33.872   5.713   6.077  1.00 20.00     0.009 A 
HETATM    3  C3  UNL     1     -34.583   5.002   4.926  1.00 20.00    -0.036 A 
HETATM    4  C4  UNL     1     -33.810   3.938   4.192  1.00 20.00     0.016 C 
ENDROOT
BRANCH   3   5
HETATM    5  C9  UNL     1     -35.559   5.756   4.063  1.00 20.00    -0.010 C 
HETATM    6  C6  UNL     1     -36.914   5.030   4.013  1.00 20.00     0.011 C 
BRANCH   5   7
HETATM    7  C8  UNL     1     -35.059   5.966   2.613  1.00 20.00     0.000 C 
HETATM    8  C5  UNL     1     -33.773   6.776   2.533  1.00 20.00     0.005 C 
ENDBRANCH   5   7
ENDBRANCH   3   5
BRANCH   2   9
HETATM    9  C7  UNL     1     -34.063   7.162   6.369  1.00 20.00     0.120 C 
HETATM   10 CL10 UNL     1     -32.910   8.165   5.446  1.00 20.00    -0.130 Cl
ENDBRANCH   2   9
TORSDOF 3
