REMARK  1 active torsions:
REMARK  status: ('A' for Active; 'I' for Inactive)
REMARK    1  A    between atoms: C4_4  and  C10_10 
ROOT
HETATM    1  C1  UNL     1     -33.630   6.584   1.730  1.00 20.00     0.007 C 
HETATM    2  C2  UNL     1     -33.775   5.378   2.660  1.00 20.00     0.009 C 
HETATM    3  C3  UNL     1     -33.279   6.785   4.720  1.00 20.00     0.013 C 
HETATM    4  C4  UNL     1     -33.102   7.857   2.422  1.00 20.00     0.003 C 
HETATM    5  C5  UNL     1     -32.348   7.511   3.721  1.00 20.00    -0.013 C 
HETATM    6  C6  UNL     1     -34.236   5.743   4.082  1.00 20.00    -0.047 C 
HETATM    7  C7  UNL     1     -31.728   8.732   4.406  1.00 20.00     0.010 C 
HETATM    8  C8  UNL     1     -35.677   6.294   4.050  1.00 20.00     0.015 C 
HETATM    9  C9  UNL     1     -34.248   4.466   4.945  1.00 20.00     0.015 C 
ENDROOT
BRANCH   4  10
HETATM   10  C10 UNL     1     -32.268   8.670   1.428  1.00 20.00     0.119 C 
HETATM   11 CL11 UNL     1     -33.260   9.124   0.034  1.00 20.00    -0.130 Cl
ENDBRANCH   4  10
TORSDOF 1
