REMARK  3 active torsions:
REMARK  status: ('A' for Active; 'I' for Inactive)
REMARK    1  A    between atoms: C4_4  and  C6_6 
REMARK    2  A    between atoms: C5_5  and  C8_8 
REMARK    3  A    between atoms: C6_6  and  C9_9 
ROOT
HETATM    1  C3  UNL     1     -31.789   7.448   3.511  1.00 20.00     0.017 A 
HETATM    2  C5  UNL     1     -32.766   8.331   2.787  1.00 20.00     0.009 A 
HETATM    3  C6  UNL     1     -33.280   7.197   3.664  1.00 20.00    -0.032 A 
ENDROOT
BRANCH   3   4
HETATM    4  C4  UNL     1     -33.915   5.932   3.069  1.00 20.00    -0.006 A 
HETATM    5  C1  UNL     1     -33.149   4.970   2.204  1.00 20.00     0.006 A 
HETATM    6  C2  UNL     1     -33.600   4.552   3.575  1.00 20.00     0.006 A 
ENDBRANCH   3   4
BRANCH   3   7
HETATM    7  C9  UNL     1     -33.901   7.611   4.977  1.00 20.00     0.006 C 
HETATM    8  C7  UNL     1     -33.286   6.899   6.146  1.00 20.00     0.006 C 
ENDBRANCH   3   7
BRANCH   2   9
HETATM    9  C8  UNL     1     -32.857   8.286   1.301  1.00 20.00     0.120 C 
HETATM   10 CL10 UNL     1     -31.557   9.246   0.543  1.00 20.00    -0.130 Cl
ENDBRANCH   2   9
TORSDOF 3
