REMARK  1 active torsions:
REMARK  status: ('A' for Active; 'I' for Inactive)
REMARK    1  A    between atoms: C7_7  and  C11_11 
ROOT
HETATM    1  C1  UNL     1     -33.792   4.831   3.482  1.00 20.00     0.005 C 
HETATM    2  C2  UNL     1     -32.887   5.729   2.637  1.00 20.00     0.010 C 
HETATM    3  C3  UNL     1     -34.394   7.519   3.651  1.00 20.00     0.014 C 
HETATM    4  C4  UNL     1     -31.920   8.103   3.118  1.00 20.00     0.016 A 
HETATM    5  C5  UNL     1     -33.860   5.339   4.925  1.00 20.00    -0.015 C 
HETATM    6  C6  UNL     1     -34.480   6.759   4.990  1.00 20.00    -0.014 C 
HETATM    7  C7  UNL     1     -32.637   8.156   1.802  1.00 20.00     0.009 A 
HETATM    8  C8  UNL     1     -33.125   7.208   2.891  1.00 20.00    -0.035 A 
HETATM    9  C9  UNL     1     -34.637   4.357   5.805  1.00 20.00     0.010 C 
HETATM   10  C10 UNL     1     -33.845   7.568   6.127  1.00 20.00     0.010 C 
ENDROOT
BRANCH   7  11
HETATM   11  C11 UNL     1     -33.387   9.379   1.400  1.00 20.00     0.120 C 
HETATM   12 CL12 UNL     1     -32.286  10.636   0.772  1.00 20.00    -0.130 Cl
ENDBRANCH   7  11
TORSDOF 1
