REMARK  3 active torsions:
REMARK  status: ('A' for Active; 'I' for Inactive)
REMARK    1  A    between atoms: C4_4  and  C5_5 
REMARK    2  A    between atoms: C6_6  and  C7_7 
REMARK    3  A    between atoms: C7_7  and  O8_8 
ROOT
HETATM    1  C3  UNL     1     -32.825   5.827   2.551  1.00 20.00     0.012 A 
HETATM    2  C5  UNL     1     -33.218   7.230   2.172  1.00 20.00    -0.004 A 
HETATM    3  C6  UNL     1     -33.664   6.653   3.490  1.00 20.00     0.014 A 
ENDROOT
BRANCH   2   4
HETATM    4  C4  UNL     1     -32.211   8.366   2.079  1.00 20.00    -0.010 A 
HETATM    5  C1  UNL     1     -31.688   8.881   0.767  1.00 20.00     0.005 A 
HETATM    6  C2  UNL     1     -32.585   9.745   1.609  1.00 20.00     0.005 A 
ENDBRANCH   2   4
BRANCH   3   7
HETATM    7  C7  UNL     1     -35.096   6.309   3.715  1.00 20.00     0.169 C 
BRANCH   7   8
HETATM    8  O8  UNL     1     -35.198   5.222   4.635  1.00 20.00    -0.400 OA
HETATM    9  H20 UNL     1     -36.144   5.043   4.743  1.00 20.00     0.209 HD
ENDBRANCH   7   8
ENDBRANCH   3   7
TORSDOF 3
