REMARK  2 active torsions:
REMARK  status: ('A' for Active; 'I' for Inactive)
REMARK    1  A    between atoms: C3_3  and  O9_9 
REMARK    2  A    between atoms: C4_4  and  C8_8 
ROOT
HETATM    1  C1  UNL     1     -33.968   5.466   4.416  1.00 20.00     0.037 C 
HETATM    2  C2  UNL     1     -34.281   6.981   4.495  1.00 20.00    -0.006 C 
HETATM    3  C3  UNL     1     -33.556   5.678   2.942  1.00 20.00     0.127 C 
HETATM    4  C4  UNL     1     -33.286   7.181   3.294  1.00 20.00    -0.015 C 
HETATM    5  C5  UNL     1     -34.008   7.655   5.826  1.00 20.00     0.011 C 
HETATM    6  C6  UNL     1     -31.834   7.501   3.660  1.00 20.00     0.018 C 
ENDROOT
BRANCH   4   7
HETATM    7  C8  UNL     1     -33.805   8.156   2.238  1.00 20.00     0.007 C 
HETATM    8  C7  UNL     1     -32.833   8.320   1.116  1.00 20.00     0.006 C 
ENDBRANCH   4   7
BRANCH   3   9
HETATM    9  O9  UNL     1     -32.430   4.911   2.478  1.00 20.00    -0.395 OA
HETATM   10  H25 UNL     1     -32.679   3.985   2.590  1.00 20.00     0.210 HD
ENDBRANCH   3   9
TORSDOF 2
