REMARK  1 active torsions:
REMARK  status: ('A' for Active; 'I' for Inactive)
REMARK    1  A    between atoms: C5_5  and  C10_10 
ROOT
HETATM    1  C1  UNL     1     -33.031   6.030   2.171  1.00 20.00     0.011 C 
HETATM    2  C2  UNL     1     -33.517   4.927   3.114  1.00 20.00     0.009 C 
HETATM    3  C3  UNL     1     -31.541   8.006   3.019  1.00 20.00     0.016 A 
HETATM    4  C4  UNL     1     -33.471   6.946   4.421  1.00 20.00     0.018 C 
HETATM    5  C5  UNL     1     -32.811   8.640   2.530  1.00 20.00     0.005 A 
HETATM    6  C6  UNL     1     -32.835   7.223   3.075  1.00 20.00    -0.035 A 
HETATM    7  C7  UNL     1     -34.315   5.672   4.200  1.00 20.00    -0.047 C 
HETATM    8  C8  UNL     1     -35.727   6.030   3.707  1.00 20.00     0.015 C 
HETATM    9  C9  UNL     1     -34.423   4.838   5.479  1.00 20.00     0.015 C 
ENDROOT
BRANCH   5  10
HETATM   10  C10 UNL     1     -32.981   8.935   1.079  1.00 20.00     0.090 C 
HETATM   11 BR11 UNL     1     -32.093  10.610   0.616  1.00 20.00    -0.096 Br
ENDBRANCH   5  10
TORSDOF 1
