REMARK  2 active torsions:
REMARK  status: ('A' for Active; 'I' for Inactive)
REMARK    1  A    between atoms: C3_3  and  C6_6 
REMARK    2  A    between atoms: C7_7  and  C9_9 
ROOT
HETATM    1  C1  UNL     1     -32.765   6.412   2.410  1.00 20.00     0.016 A 
HETATM    2  C2  UNL     1     -33.337   5.439   3.279  1.00 20.00     0.015 A 
HETATM    3  C3  UNL     1     -32.875   7.688   2.917  1.00 20.00    -0.013 A 
HETATM    4  C4  UNL     1     -33.863   6.008   4.418  1.00 20.00    -0.021 A 
HETATM    5  C8  UNL     1     -34.534   5.341   5.554  1.00 20.00     0.056 C 
HETATM    6  S10 UNL     1     -33.666   7.709   4.436  1.00 20.00    -0.099 SA
ENDROOT
BRANCH   3   7
HETATM    7  C6  UNL     1     -32.349   8.949   2.210  1.00 20.00     0.031 A 
HETATM    8  C5  UNL     1     -31.539   8.780   0.943  1.00 20.00     0.016 A 
HETATM    9  C7  UNL     1     -32.915   9.372   0.867  1.00 20.00     0.005 A 
BRANCH   9  10
HETATM   10  C9  UNL     1     -34.013   8.626   0.190  1.00 20.00     0.090 C 
HETATM   11 BR11 UNL     1     -33.916   8.877  -1.743  1.00 20.00    -0.096 Br
ENDBRANCH   9  10
ENDBRANCH   3   7
TORSDOF 2
