REMARK  3 active torsions:
REMARK  status: ('A' for Active; 'I' for Inactive)
REMARK    1  A    between atoms: C2_2  and  C6_6 
REMARK    2  A    between atoms: C3_3  and  C7_7 
REMARK    3  A    between atoms: C6_6  and  O8_8 
ROOT
HETATM    1  C1  UNL     1     -32.486   7.501   4.727  1.00 20.00     0.017 A 
HETATM    2  C2  UNL     1     -33.952   7.196   4.611  1.00 20.00     0.018 A 
HETATM    3  C3  UNL     1     -33.093   7.284   3.351  1.00 20.00    -0.038 A 
HETATM    4  C4  UNL     1     -32.723   6.031   2.603  1.00 20.00     0.015 C 
ENDROOT
BRANCH   2   5
HETATM    5  C6  UNL     1     -34.495   5.908   5.128  1.00 20.00     0.169 C 
BRANCH   5   6
HETATM    6  O8  UNL     1     -35.761   5.639   4.527  1.00 20.00    -0.400 OA
HETATM    7  H22 UNL     1     -36.066   4.796   4.896  1.00 20.00     0.209 HD
ENDBRANCH   5   6
ENDBRANCH   2   5
BRANCH   3   8
HETATM    8  C7  UNL     1     -33.286   8.489   2.469  1.00 20.00     0.005 C 
HETATM    9  C5  UNL     1     -31.995   9.193   2.169  1.00 20.00     0.006 C 
ENDBRANCH   3   8
TORSDOF 3
