REMARK  1 active torsions:
REMARK  status: ('A' for Active; 'I' for Inactive)
REMARK    1  A    between atoms: C3_3  and  O10_10 
ROOT
HETATM    1  C1  UNL     1     -33.895   5.741   4.700  1.00 20.00     0.143 C 
HETATM    2  C2  UNL     1     -33.067   6.999   5.019  1.00 20.00     0.082 C 
HETATM    3  C3  UNL     1     -32.433   6.870   3.599  1.00 20.00     0.146 C 
HETATM    4  C4  UNL     1     -33.393   5.683   3.233  1.00 20.00     0.040 C 
HETATM    5  C5  UNL     1     -33.884   8.239   5.330  1.00 20.00     0.020 C 
HETATM    6  C6  UNL     1     -34.489   5.993   2.215  1.00 20.00     0.026 C 
HETATM    7  C7  UNL     1     -32.660   4.388   2.889  1.00 20.00     0.026 C 
HETATM    8  O9  UNL     1     -34.660   5.062   5.353  1.00 20.00    -0.297 OA
ENDROOT
BRANCH   3   9
HETATM    9  O10 UNL     1     -32.506   8.040   2.760  1.00 20.00    -0.389 OA
HETATM   10  C8  UNL     1     -31.541   7.978   1.729  1.00 20.00     0.202 C 
ENDBRANCH   3   9
TORSDOF 1
