REMARK  0 active torsions:
REMARK  status: ('A' for Active; 'I' for Inactive)
ROOT
HETATM    1  C1  UNL     1     -32.742   8.878   0.355  1.00 20.00     0.068 C 
HETATM    2  C2  UNL     1     -32.346   6.080   2.047  1.00 20.00     0.010 A 
HETATM    3  C3  UNL     1     -32.966   5.130   2.863  1.00 20.00     0.019 A 
HETATM    4  C4  UNL     1     -33.968   6.883   4.220  1.00 20.00     0.026 A 
HETATM    5  C5  UNL     1     -32.541   7.422   2.334  1.00 20.00    -0.034 A 
HETATM    6  C6  UNL     1     -33.340   7.818   3.414  1.00 20.00    -0.049 A 
HETATM    7  C7  UNL     1     -33.772   5.529   3.940  1.00 20.00     0.011 A 
HETATM    8  C8  UNL     1     -33.426   9.309   3.498  1.00 20.00     0.041 C 
HETATM    9  C9  UNL     1     -32.219   9.726   2.640  1.00 20.00     0.028 C 
HETATM   10  C10 UNL     1     -32.000   8.612   1.594  1.00 20.00     0.126 C 
HETATM   11  N11 UNL     1     -33.329   9.088  -0.624  1.00 20.00    -0.197 NA
HETATM   12 BR12 UNL     1     -34.607   4.219   5.019  1.00 20.00    -0.051 Br
ENDROOT
TORSDOF 0
