REMARK  0 active torsions:
REMARK  status: ('A' for Active; 'I' for Inactive)
ROOT
HETATM    1  C1  UNL     1     -33.249   4.506   2.928  1.00 20.00     0.007 C 
HETATM    2  C2  UNL     1     -34.412   4.298   3.908  1.00 20.00     0.027 C 
HETATM    3  C3  UNL     1     -33.292   6.971   3.339  1.00 20.00     0.027 C 
HETATM    4  C4  UNL     1     -35.101   5.843   2.242  1.00 20.00     0.032 C 
HETATM    5  C5  UNL     1     -33.570   5.871   2.294  1.00 20.00    -0.011 C 
HETATM    6  C6  UNL     1     -34.483   6.832   4.304  1.00 20.00     0.106 C 
HETATM    7  C7  UNL     1     -35.226   5.596   3.749  1.00 20.00     0.054 C 
HETATM    8 CL8  UNL     1     -33.980   6.695   5.998  1.00 20.00    -0.123 Cl
HETATM    9 CL9  UNL     1     -36.880   5.451   4.323  1.00 20.00    -0.118 Cl
ENDROOT
TORSDOF 0
