REMARK  1 active torsions:
REMARK  status: ('A' for Active; 'I' for Inactive)
REMARK    1  A    between atoms: C1_1  and  C5_5 
ROOT
HETATM    1  C1  UNL     1     -32.677   8.078   1.909  1.00 20.00    -0.089 C 
HETATM    2  C2  UNL     1     -33.230   7.253   2.583  1.00 20.00    -0.023 C 
HETATM    3 BR6  UNL     1     -34.106   5.947   3.651  1.00 20.00     0.010 Br
ENDROOT
BRANCH   1   4
HETATM    4  C5  UNL     1     -32.016   9.062   1.104  1.00 20.00     0.066 A 
HETATM    5  C3  UNL     1     -32.438  10.502   1.227  1.00 20.00     0.018 A 
HETATM    6  C4  UNL     1     -32.784   9.724  -0.009  1.00 20.00     0.018 A 
ENDBRANCH   1   4
TORSDOF 1
