REMARK  2 active torsions:
REMARK  status: ('A' for Active; 'I' for Inactive)
REMARK    1  A    between atoms: C1_1  and  C3_3 
REMARK    2  A    between atoms: C2_2  and  C5_5 
ROOT
HETATM    1  C1  UNL     1     -33.366   7.873   3.242  1.00 20.00     0.005 C 
HETATM    2  C2  UNL     1     -33.897   6.891   3.982  1.00 20.00     0.068 C 
ENDROOT
BRANCH   1   3
HETATM    3  C3  UNL     1     -32.484   7.619   2.124  1.00 20.00    -0.004 C 
HETATM    4  C4  UNL     1     -31.947   8.594   1.376  1.00 20.00    -0.031 C 
HETATM    5  C6  UNL     1     -32.195  10.049   1.609  1.00 20.00     0.036 C 
ENDBRANCH   1   3
BRANCH   2   6
HETATM    6  C5  UNL     1     -33.598   5.458   3.682  1.00 20.00     0.241 C 
HETATM    7  O7  UNL     1     -32.858   5.155   2.749  1.00 20.00    -0.275 OA
HETATM    8 CL8  UNL     1     -34.366   4.289   4.737  1.00 20.00    -0.039 Cl
ENDBRANCH   2   6
TORSDOF 2
