REMARK  0 active torsions:
REMARK  status: ('A' for Active; 'I' for Inactive)
ROOT
HETATM    1  C1  UNL     1     -32.450   5.612   2.754  1.00 20.00     0.005 C 
HETATM    2  C2  UNL     1     -34.693   6.564   2.008  1.00 20.00     0.005 C 
HETATM    3  C3  UNL     1     -33.420   7.655   3.927  1.00 20.00     0.005 C 
HETATM    4  C4  UNL     1     -33.189   4.344   3.162  1.00 20.00     0.006 C 
HETATM    5  C5  UNL     1     -35.792   6.223   3.006  1.00 20.00     0.006 C 
HETATM    6  C6  UNL     1     -33.512   6.814   5.193  1.00 20.00     0.006 C 
HETATM    7  C7  UNL     1     -33.317   6.870   2.614  1.00 20.00    -0.014 C 
HETATM    8  C8  UNL     1     -34.203   4.448   4.250  1.00 20.00    -0.006 A 
HETATM    9  C9  UNL     1     -35.454   5.295   4.124  1.00 20.00    -0.006 A 
HETATM   10  C10 UNL     1     -34.417   5.628   5.178  1.00 20.00    -0.006 A 
ENDROOT
TORSDOF 0
