REMARK  4 active torsions:
REMARK  status: ('A' for Active; 'I' for Inactive)
REMARK    1  A    between atoms: C2_2  and  C4_4 
REMARK    2  A    between atoms: C3_3  and  C7_7 
REMARK    3  A    between atoms: C6_6  and  O10_10 
REMARK    4  A    between atoms: C7_7  and  O10_10 
ROOT
HETATM    1  C2  UNL     1     -32.331   9.124   2.307  1.00 20.00     0.006 C 
HETATM    2  C3  UNL     1     -32.420   7.866   1.854  1.00 20.00     0.082 C 
ENDROOT
BRANCH   2   3
HETATM    3  C7  UNL     1     -32.840   6.780   2.771  1.00 20.00     0.287 C 
HETATM    4  O9  UNL     1     -32.486   5.614   2.684  1.00 20.00    -0.260 OA
BRANCH   3   5
HETATM    5  O10 UNL     1     -33.684   7.337   3.692  1.00 20.00    -0.289 OA
BRANCH   5   6
HETATM    6  C6  UNL     1     -34.174   6.437   4.619  1.00 20.00     0.135 C 
HETATM    7  C1  UNL     1     -33.990   6.522   5.938  1.00 20.00     0.038 C 
ENDBRANCH   5   6
ENDBRANCH   3   5
ENDBRANCH   2   3
BRANCH   1   8
HETATM    8  C4  UNL     1     -31.926  10.229   1.467  1.00 20.00    -0.004 C 
HETATM    9  C5  UNL     1     -32.322  10.366   0.193  1.00 20.00    -0.031 C 
HETATM   10  C8  UNL     1     -33.223   9.399  -0.503  1.00 20.00     0.036 C 
ENDBRANCH   1   8
TORSDOF 4
