REMARK  3 active torsions:
REMARK  status: ('A' for Active; 'I' for Inactive)
REMARK    1  A    between atoms: C3_3  and  C5_5 
REMARK    2  A    between atoms: C4_4  and  C5_5 
REMARK    3  A    between atoms: C5_5  and  O6_6 
ROOT
HETATM    1  C5  UNL     1     -33.408   6.497   4.882  1.00 20.00     0.132 C 
ENDROOT
BRANCH   1   2
HETATM    2  C3  UNL     1     -33.774   7.258   3.655  1.00 20.00     0.015 A 
HETATM    3  C1  UNL     1     -32.701   7.843   2.779  1.00 20.00     0.007 A 
HETATM    4  C2  UNL     1     -33.511   6.672   2.295  1.00 20.00     0.007 A 
ENDBRANCH   1   2
BRANCH   1   5
HETATM    5  C4  UNL     1     -34.574   5.648   5.380  1.00 20.00     0.117 C 
HETATM    6 BR7  UNL     1     -34.677   3.971   4.385  1.00 20.00    -0.094 Br
ENDBRANCH   1   5
BRANCH   1   7
HETATM    7  O6  UNL     1     -33.048   7.415   5.919  1.00 20.00    -0.394 OA
HETATM    8  H16 UNL     1     -33.826   7.970   6.072  1.00 20.00     0.210 HD
ENDBRANCH   1   7
TORSDOF 3
