REMARK  0 active torsions:
REMARK  status: ('A' for Active; 'I' for Inactive)
ROOT
HETATM    1  C1  UNL     1     -33.214   6.907   3.329  1.00 20.00     0.198 C 
HETATM    2  C2  UNL     1     -33.785   7.536   4.580  1.00 20.00     0.085 C 
HETATM    3  C3  UNL     1     -33.665   6.661   5.825  1.00 20.00     0.008 C 
HETATM    4  C4  UNL     1     -34.595   5.446   5.825  1.00 20.00     0.000 C 
HETATM    5  C5  UNL     1     -33.974   4.114   5.394  1.00 20.00     0.000 C 
HETATM    6  C6  UNL     1     -32.945   4.109   4.266  1.00 20.00     0.006 C 
HETATM    7  C7  UNL     1     -33.448   4.439   2.861  1.00 20.00     0.087 C 
HETATM    8  C8  UNL     1     -34.023   5.831   2.642  1.00 20.00     0.302 C 
HETATM    9  O9  UNL     1     -32.114   7.249   2.891  1.00 20.00    -0.291 OA
HETATM   10  F10 UNL     1     -34.053   6.059   1.296  1.00 20.00    -0.198 F 
HETATM   11  F11 UNL     1     -35.326   5.844   3.029  1.00 20.00    -0.198 F 
ENDROOT
TORSDOF 0
