REMARK  0 active torsions:
REMARK  status: ('A' for Active; 'I' for Inactive)
ROOT
HETATM    1  C1  UNL     1     -33.707   6.942   4.712  1.00 20.00     0.078 C 
HETATM    2  C2  UNL     1     -32.403   6.232   2.826  1.00 20.00     0.152 C 
HETATM    3  C3  UNL     1     -32.688   7.198   3.893  1.00 20.00     0.134 C 
HETATM    4  C4  UNL     1     -33.634   4.563   3.917  1.00 20.00     0.213 C 
HETATM    5  C5  UNL     1     -34.469   5.661   4.585  1.00 20.00     0.217 C 
HETATM    6  N6  UNL     1     -32.845   5.025   2.762  1.00 20.00    -0.294 NA
HETATM    7  F7  UNL     1     -31.980   8.339   3.908  1.00 20.00    -0.205 F 
HETATM    8  F8  UNL     1     -34.833   5.211   5.819  1.00 20.00    -0.219 F 
HETATM    9 CL9  UNL     1     -35.961   5.971   3.648  1.00 20.00    -0.076 Cl
ENDROOT
TORSDOF 0
