REMARK  3 active torsions:
REMARK  status: ('A' for Active; 'I' for Inactive)
REMARK    1  A    between atoms: C5_5  and  C8_8 
REMARK    2  A    between atoms: C6_6  and  C7_7 
REMARK    3  A    between atoms: C6_6  and  C8_8 
ROOT
HETATM    1  C4  UNL     1     -33.099   7.606   4.417  1.00 20.00     0.032 C 
HETATM    2  C8  UNL     1     -33.771   7.030   3.156  1.00 20.00     0.033 C 
HETATM    3 CL9  UNL     1     -32.575   5.866   2.454  1.00 20.00    -0.120 Cl
ENDROOT
BRANCH   2   4
HETATM    4  C5  UNL     1     -35.037   6.229   3.530  1.00 20.00     0.021 C 
HETATM    5  C1  UNL     1     -34.803   5.041   4.456  1.00 20.00     0.007 C 
ENDBRANCH   2   4
BRANCH   2   6
HETATM    6  C6  UNL     1     -34.024   8.191   2.156  1.00 20.00     0.029 C 
BRANCH   6   7
HETATM    7  C7  UNL     1     -32.897   9.218   1.888  1.00 20.00    -0.021 C 
HETATM    8  C2  UNL     1     -31.673   8.481   1.327  1.00 20.00     0.009 C 
HETATM    9  C3  UNL     1     -33.282  10.342   0.928  1.00 20.00     0.009 C 
ENDBRANCH   6   7
ENDBRANCH   2   6
TORSDOF 3
