REMARK  1 active torsions:
REMARK  status: ('A' for Active; 'I' for Inactive)
REMARK    1  A    between atoms: C2_2  and  C4_4 
ROOT
HETATM    1  C1  UNL     1     -32.790   8.451   1.304  1.00 20.00    -0.102 C 
HETATM    2  C2  UNL     1     -33.075   7.521   2.009  1.00 20.00     0.008 C 
HETATM    3  C3  UNL     1     -32.442   9.583   0.447  1.00 20.00     0.112 C 
ENDROOT
BRANCH   2   4
HETATM    4  C4  UNL     1     -33.421   6.397   2.860  1.00 20.00     0.459 C 
HETATM    5  F5  UNL     1     -32.638   5.330   2.589  1.00 20.00    -0.159 F 
HETATM    6  F6  UNL     1     -34.708   6.030   2.673  1.00 20.00    -0.159 F 
HETATM    7  F7  UNL     1     -33.261   6.714   4.164  1.00 20.00    -0.159 F 
ENDBRANCH   2   4
TORSDOF 1
