REMARK  0 active torsions:
REMARK  status: ('A' for Active; 'I' for Inactive)
ROOT
HETATM    1  C1  UNL     1     -33.022   7.512   4.639  1.00 20.00     0.078 C 
HETATM    2  C2  UNL     1     -34.376   5.617   4.054  1.00 20.00     0.152 C 
HETATM    3  C3  UNL     1     -33.878   6.576   5.047  1.00 20.00     0.134 C 
HETATM    4  C4  UNL     1     -32.620   6.122   2.588  1.00 20.00     0.213 C 
HETATM    5  C5  UNL     1     -32.530   7.514   3.225  1.00 20.00     0.217 C 
HETATM    6  N6  UNL     1     -33.866   5.399   2.892  1.00 20.00    -0.294 NA
HETATM    7  F7  UNL     1     -34.403   6.526   6.282  1.00 20.00    -0.205 F 
HETATM    8  F8  UNL     1     -31.225   7.903   3.187  1.00 20.00    -0.219 F 
HETATM    9 CL9  UNL     1     -33.487   8.696   2.285  1.00 20.00    -0.076 Cl
ENDROOT
TORSDOF 0
