REMARK  1 active torsions:
REMARK  status: ('A' for Active; 'I' for Inactive)
REMARK    1  A    between atoms: C5_5  and  C7_7 
ROOT
HETATM    1  C1  UNL     1     -32.812   7.866   4.039  1.00 20.00     0.019 C 
HETATM    2  C2  UNL     1     -35.580   5.900   4.385  1.00 20.00     0.292 C 
HETATM    3  C3  UNL     1     -34.412   4.738   5.667  1.00 20.00     0.292 C 
HETATM    4  C4  UNL     1     -32.928   8.442   5.441  1.00 20.00     0.075 C 
HETATM    5  C5  UNL     1     -32.913   6.347   4.182  1.00 20.00     0.037 C 
HETATM    6  C6  UNL     1     -34.174   6.121   5.014  1.00 20.00     0.066 C 
HETATM    7  N8  UNL     1     -35.390   4.449   4.595  1.00 20.00     0.086 N 
HETATM    8  S10 UNL     1     -34.250   7.500   6.262  1.00 20.00    -0.155 SA
HETATM    9  H22 UNL     1     -36.222   3.946   4.898  1.00 20.00     0.316 HD
ENDROOT
BRANCH   5  10
HETATM   10  C7  UNL     1     -32.914   5.649   2.830  1.00 20.00     0.228 C 
HETATM   11  F9  UNL     1     -33.993   6.078   2.130  1.00 20.00    -0.255 F 
ENDBRANCH   5  10
TORSDOF 1
