REMARK  1 active torsions:
REMARK  status: ('A' for Active; 'I' for Inactive)
REMARK    1  A    between atoms: C6_6  and  C11_11 
ROOT
HETATM    1  C1  UNL     1     -34.370   6.601   5.678  1.00 20.00    -0.004 C 
HETATM    2  C2  UNL     1     -33.096   7.270   5.614  1.00 20.00    -0.003 C 
HETATM    3  C3  UNL     1     -35.088   6.376   4.570  1.00 20.00    -0.025 C 
HETATM    4  C4  UNL     1     -32.479   7.487   4.444  1.00 20.00    -0.013 C 
HETATM    5  C7  UNL     1     -34.608   6.802   3.209  1.00 20.00     0.044 C 
HETATM    6  C11 UNL     1     -33.071   7.060   3.109  1.00 20.00    -0.000 C 
HETATM    7  C12 UNL     1     -32.352   5.772   2.668  1.00 20.00     0.025 C 
ENDROOT
BRANCH   6   8
HETATM    8  C6  UNL     1     -32.824   8.118   2.062  1.00 20.00    -0.071 C 
HETATM    9  C5  UNL     1     -31.769   8.212   1.244  1.00 20.00    -0.023 C 
HETATM   10  C8  UNL     1     -31.890   9.370   0.312  1.00 20.00     0.027 C 
HETATM   11  C10 UNL     1     -33.040  10.174   0.916  1.00 20.00     0.008 C 
HETATM   12  C9  UNL     1     -33.818   9.207   1.807  1.00 20.00     0.035 C 
ENDBRANCH   6   8
TORSDOF 1
