REMARK  0 active torsions:
REMARK  status: ('A' for Active; 'I' for Inactive)
ROOT
HETATM    1  C1  UNL     1     -33.321   4.804   3.200  1.00 20.00     0.047 C 
HETATM    2  C2  UNL     1     -32.689   5.865   2.681  1.00 20.00    -0.014 C 
HETATM    3  C3  UNL     1     -34.081   4.968   4.466  1.00 20.00     0.149 C 
HETATM    4  C4  UNL     1     -34.183   6.352   5.085  1.00 20.00     0.084 C 
HETATM    5  C5  UNL     1     -32.961   7.212   4.777  1.00 20.00     0.021 C 
HETATM    6  C6  UNL     1     -31.736   8.247   2.740  1.00 20.00     0.014 A 
HETATM    7  C7  UNL     1     -33.205   8.355   2.454  1.00 20.00     0.014 A 
HETATM    8  C8  UNL     1     -32.684   7.208   3.292  1.00 20.00    -0.022 A 
HETATM    9  O9  UNL     1     -34.660   3.999   4.957  1.00 20.00    -0.293 OA
ENDROOT
TORSDOF 0
