REMARK  1 active torsions:
REMARK  status: ('A' for Active; 'I' for Inactive)
REMARK    1  A    between atoms: C1_1  and  C3_3 
ROOT
HETATM    1  C1  UNL     1     -34.323   4.821   5.632  1.00 20.00     0.072 C 
HETATM    2  C2  UNL     1     -33.948   4.029   4.628  1.00 20.00     0.189 C 
HETATM    3  F4  UNL     1     -33.753   4.510   3.386  1.00 20.00    -0.220 F 
ENDROOT
BRANCH   1   4
HETATM    4  C3  UNL     1     -34.563   6.286   5.503  1.00 20.00     0.378 C 
HETATM    5  F5  UNL     1     -33.729   7.023   6.285  1.00 20.00    -0.210 F 
HETATM    6  F6  UNL     1     -34.347   6.696   4.225  1.00 20.00    -0.210 F 
ENDBRANCH   1   4
TORSDOF 1
