REMARK  0 active torsions:
REMARK  status: ('A' for Active; 'I' for Inactive)
ROOT
HETATM    1  C1  UNL     1     -34.175   5.265   4.089  1.00 20.00     0.017 C 
HETATM    2  C2  UNL     1     -32.937   5.505   3.232  1.00 20.00     0.027 C 
HETATM    3  C3  UNL     1     -34.394   6.640   4.724  1.00 20.00     0.123 C 
HETATM    4  C4  UNL     1     -33.199   6.919   2.732  1.00 20.00     0.197 C 
HETATM    5  C5  UNL     1     -34.055   4.099   5.058  1.00 20.00     0.013 C 
HETATM    6  C6  UNL     1     -32.756   4.494   2.109  1.00 20.00     0.014 C 
HETATM    7  C7  UNL     1     -33.616   6.917   6.005  1.00 20.00     0.040 C 
HETATM    8  O8  UNL     1     -33.969   7.596   3.734  1.00 20.00    -0.369 OA
HETATM    9 BR9  UNL     1     -31.538   7.879   2.424  1.00 20.00    -0.061 Br
ENDROOT
TORSDOF 0
