REMARK  2 active torsions:
REMARK  status: ('A' for Active; 'I' for Inactive)
REMARK    1  A    between atoms: C2_2  and  C9_9 
REMARK    2  A    between atoms: C3_3  and  C10_10 
ROOT
HETATM    1  C1  UNL     1     -32.947   7.685   5.323  1.00 20.00     0.079 A 
HETATM    2  C2  UNL     1     -33.754   7.073   4.387  1.00 20.00     0.046 A 
HETATM    3  C3  UNL     1     -32.599   8.359   3.037  1.00 20.00     0.079 A 
HETATM    4  N11 UNL     1     -33.556   7.458   3.076  1.00 20.00    -0.249 NA
HETATM    5  S12 UNL     1     -31.893   8.789   4.541  1.00 20.00    -0.084 SA
ENDROOT
BRANCH   3   6
HETATM    6  C10 UNL     1     -32.122   9.013   1.675  1.00 20.00     0.045 C 
HETATM    7  C7  UNL     1     -32.941   8.737   0.378  1.00 20.00     0.011 C 
HETATM    8  C4  UNL     1     -32.567  10.160  -0.079  1.00 20.00     0.002 C 
HETATM    9  C8  UNL     1     -32.430  10.518   1.413  1.00 20.00     0.011 C 
ENDBRANCH   3   6
BRANCH   2  10
HETATM   10  C9  UNL     1     -34.807   6.029   4.771  1.00 20.00     0.038 A 
HETATM   11  C5  UNL     1     -34.373   4.808   5.553  1.00 20.00     0.011 A 
HETATM   12  C6  UNL     1     -34.757   4.666   4.114  1.00 20.00     0.011 A 
ENDBRANCH   2  10
TORSDOF 2
