REMARK  2 active torsions:
REMARK  status: ('A' for Active; 'I' for Inactive)
REMARK    1  A    between atoms: C2_2  and  C9_9 
REMARK    2  A    between atoms: C3_3  and  C6_6 
ROOT
HETATM    1  C1  UNL     1     -33.611   5.471   2.823  1.00 20.00     0.079 A 
HETATM    2  C2  UNL     1     -34.004   6.335   3.825  1.00 20.00     0.045 A 
HETATM    3  C3  UNL     1     -32.953   7.772   2.544  1.00 20.00     0.079 A 
HETATM    4  N10 UNL     1     -33.627   7.654   3.666  1.00 20.00    -0.249 NA
HETATM    5  S11 UNL     1     -32.735   6.336   1.629  1.00 20.00    -0.084 SA
ENDROOT
BRANCH   2   6
HETATM    6  C9  UNL     1     -34.800   5.956   5.060  1.00 20.00     0.030 C 
HETATM    7  C7  UNL     1     -34.499   6.892   6.232  1.00 20.00     0.016 C 
HETATM    8  C8  UNL     1     -34.566   4.495   5.454  1.00 20.00     0.016 C 
ENDBRANCH   2   6
BRANCH   3   9
HETATM    9  C6  UNL     1     -32.390   9.123   2.075  1.00 20.00     0.045 A 
HETATM   10  C4  UNL     1     -33.289  10.047   1.286  1.00 20.00     0.012 A 
HETATM   11  C5  UNL     1     -32.165   9.340   0.596  1.00 20.00     0.012 A 
ENDBRANCH   3   9
TORSDOF 2
