REMARK  0 active torsions:
REMARK  status: ('A' for Active; 'I' for Inactive)
ROOT
HETATM    1  C1  UNL     1     -32.932   5.395   2.543  1.00 20.00     0.184 A 
HETATM    2  C2  UNL     1     -32.806   6.669   3.129  1.00 20.00     0.175 A 
HETATM    3  C3  UNL     1     -33.478   6.566   4.323  1.00 20.00     0.162 A 
HETATM    4  C4  UNL     1     -34.719   4.675   5.436  1.00 20.00     0.181 C 
HETATM    5  N5  UNL     1     -33.628   4.545   3.302  1.00 20.00    -0.181 NA
HETATM    6  N6  UNL     1     -33.946   5.286   4.378  1.00 20.00    -0.260 N 
HETATM    7  F7  UNL     1     -32.180   7.733   2.638  1.00 20.00    -0.201 F 
HETATM    8 CL8  UNL     1     -33.763   7.673   5.573  1.00 20.00    -0.059 Cl
ENDROOT
TORSDOF 0
