REMARK  1 active torsions:
REMARK  status: ('A' for Active; 'I' for Inactive)
REMARK    1  A    between atoms: C7_7  and  N8_8 
ROOT
HETATM    1  C1  UNL     1     -34.182   7.349   4.783  1.00 20.00     0.065 C 
HETATM    2  C2  UNL     1     -32.700   7.218   4.410  1.00 20.00     0.275 C 
HETATM    3  C3  UNL     1     -32.987   5.291   2.964  1.00 20.00     0.306 C 
HETATM    4  C4  UNL     1     -34.982   6.146   4.408  1.00 20.00     0.154 A 
HETATM    5  C5  UNL     1     -34.392   5.141   3.457  1.00 20.00     0.179 A 
HETATM    6  N8  UNL     1     -32.462   6.660   3.071  1.00 20.00     0.090 N 
HETATM    7  O9  UNL     1     -34.479   4.893   4.875  1.00 20.00    -0.374 OA
ENDROOT
BRANCH   6   8
HETATM    8  C7  UNL     1     -32.960   7.525   2.004  1.00 20.00     0.268 C 
HETATM    9  C6  UNL     1     -32.297   8.860   2.041  1.00 20.00     0.037 C 
ENDBRANCH   6   8
TORSDOF 1
