REMARK  0 active torsions:
REMARK  status: ('A' for Active; 'I' for Inactive)
ROOT
HETATM    1  C1  UNL     1     -33.294   7.031   4.524  1.00 20.00     0.016 C 
HETATM    2  C2  UNL     1     -34.344   6.034   4.047  1.00 20.00     0.016 C 
HETATM    3  C3  UNL     1     -33.212   7.959   3.314  1.00 20.00     0.122 C 
HETATM    4  C4  UNL     1     -33.978   5.870   2.568  1.00 20.00     0.122 C 
HETATM    5  C5  UNL     1     -33.653   7.750   5.815  1.00 20.00     0.013 C 
HETATM    6  C6  UNL     1     -34.416   4.753   4.862  1.00 20.00     0.013 C 
HETATM    7  C7  UNL     1     -31.886   8.689   3.190  1.00 20.00     0.040 C 
HETATM    8  C8  UNL     1     -32.963   4.779   2.249  1.00 20.00     0.040 C 
HETATM    9  O9  UNL     1     -33.403   7.127   2.156  1.00 20.00    -0.381 OA
ENDROOT
TORSDOF 0
