REMARK  0 active torsions:
REMARK  status: ('A' for Active; 'I' for Inactive)
ROOT
HETATM    1  C1  UNL     1     -32.872   6.211   3.288  1.00 20.00     0.094 A 
HETATM    2  C2  UNL     1     -33.076   4.876   2.891  1.00 20.00     0.073 A 
HETATM    3  C3  UNL     1     -33.490   6.305   4.511  1.00 20.00     0.225 A 
HETATM    4  C4  UNL     1     -32.623   4.212   1.656  1.00 20.00     0.074 C 
HETATM    5  C5  UNL     1     -34.749   4.675   5.936  1.00 20.00     0.183 C 
HETATM    6  N6  UNL     1     -33.770   4.172   3.790  1.00 20.00    -0.174 NA
HETATM    7  N7  UNL     1     -34.006   5.068   4.763  1.00 20.00    -0.247 N 
HETATM    8  F8  UNL     1     -33.574   7.381   5.294  1.00 20.00    -0.183 F 
HETATM    9 BR9  UNL     1     -31.961   7.533   2.340  1.00 20.00    -0.044 Br
ENDROOT
TORSDOF 0
