REMARK  1 active torsions:
REMARK  status: ('A' for Active; 'I' for Inactive)
REMARK    1  A    between atoms: C4_4  and  C10_10 
ROOT
HETATM    1  C1  UNL     1     -33.882   5.148   4.263  1.00 20.00     0.016 C 
HETATM    2  C2  UNL     1     -33.927   5.218   2.741  1.00 20.00     0.017 C 
HETATM    3  C3  UNL     1     -34.829   6.287   4.630  1.00 20.00     0.122 C 
HETATM    4  C4  UNL     1     -33.964   6.730   2.494  1.00 20.00     0.129 C 
HETATM    5  C5  UNL     1     -34.298   3.804   4.841  1.00 20.00     0.013 C 
HETATM    6  C6  UNL     1     -32.815   4.455   2.039  1.00 20.00     0.013 C 
HETATM    7  C7  UNL     1     -34.572   6.880   6.004  1.00 20.00     0.040 C 
HETATM    8  O11 UNL     1     -34.639   7.306   3.632  1.00 20.00    -0.380 OA
ENDROOT
BRANCH   4   9
HETATM    9  C10 UNL     1     -32.610   7.419   2.371  1.00 20.00     0.007 C 
HETATM   10  C8  UNL     1     -32.746   8.747   1.626  1.00 20.00     0.012 C 
HETATM   11  C9  UNL     1     -31.989   7.640   3.749  1.00 20.00     0.012 C 
ENDBRANCH   4   9
TORSDOF 1
