REMARK  1 active torsions:
REMARK  status: ('A' for Active; 'I' for Inactive)
REMARK    1  A    between atoms: C4_4  and  C10_10 
ROOT
HETATM    1  C1  UNL     1     -34.772   5.787   3.773  1.00 20.00     0.016 C 
HETATM    2  C2  UNL     1     -33.881   5.993   2.544  1.00 20.00     0.017 C 
HETATM    3  C3  UNL     1     -34.341   6.904   4.737  1.00 20.00     0.122 C 
HETATM    4  C4  UNL     1     -33.741   7.517   2.566  1.00 20.00     0.129 C 
HETATM    5  C5  UNL     1     -34.832   4.380   4.347  1.00 20.00     0.013 C 
HETATM    6  C6  UNL     1     -32.549   5.243   2.594  1.00 20.00     0.013 C 
HETATM    7  C7  UNL     1     -33.469   6.504   5.917  1.00 20.00     0.040 C 
HETATM    8  O11 UNL     1     -33.617   7.872   3.952  1.00 20.00    -0.380 OA
ENDROOT
BRANCH   4   9
HETATM    9  C10 UNL     1     -32.583   8.109   1.785  1.00 20.00     0.007 C 
HETATM   10  C8  UNL     1     -32.849   9.577   1.448  1.00 20.00     0.012 C 
HETATM   11  C9  UNL     1     -31.275   7.971   2.564  1.00 20.00     0.012 C 
ENDBRANCH   4   9
TORSDOF 1
