REMARK  2 active torsions:
REMARK  status: ('A' for Active; 'I' for Inactive)
REMARK    1  A    between atoms: C6_6  and  C7_7 
REMARK    2  A    between atoms: C6_6  and  C8_8 
ROOT
HETATM    1  C1  UNL     1     -32.485   9.726   1.552  1.00 20.00     0.012 C 
HETATM    2  C2  UNL     1     -32.434   8.586   1.926  1.00 20.00    -0.117 C 
HETATM    3  C7  UNL     1     -32.364   7.192   2.376  1.00 20.00     0.103 C 
ENDROOT
BRANCH   3   4
HETATM    4  C6  UNL     1     -33.307   6.946   3.553  1.00 20.00    -0.021 C 
HETATM    5  C4  UNL     1     -33.671   5.448   3.777  1.00 20.00     0.011 C 
HETATM    6  C3  UNL     1     -34.926   5.672   2.912  1.00 20.00     0.002 C 
HETATM    7  C5  UNL     1     -34.812   7.176   3.224  1.00 20.00     0.011 C 
BRANCH   4   8
HETATM    8  C8  UNL     1     -32.830   7.664   4.811  1.00 20.00     0.095 C 
HETATM    9 BR9  UNL     1     -33.930   7.128   6.315  1.00 20.00    -0.096 Br
ENDBRANCH   4   8
ENDBRANCH   3   4
TORSDOF 2
