REMARK  0 active torsions:
REMARK  status: ('A' for Active; 'I' for Inactive)
ROOT
HETATM    1  C1  UNL     1     -33.270   7.542   4.785  1.00 20.00     0.217 C 
HETATM    2  C2  UNL     1     -34.089   7.651   3.517  1.00 20.00     0.108 C 
HETATM    3  C3  UNL     1     -31.572   8.754   3.467  1.00 20.00     0.131 C 
HETATM    4  C4  UNL     1     -33.262   7.178   2.308  1.00 20.00    -0.001 C 
HETATM    5  C5  UNL     1     -31.965   8.053   2.140  1.00 20.00    -0.028 C 
HETATM    6  C6  UNL     1     -33.018   5.663   2.419  1.00 20.00     0.011 C 
HETATM    7  C7  UNL     1     -32.255   9.161   1.100  1.00 20.00     0.016 C 
HETATM    8  C8  UNL     1     -30.757   7.250   1.618  1.00 20.00     0.016 C 
HETATM    9  N9  UNL     1     -31.983   8.022   4.646  1.00 20.00    -0.360 N 
HETATM   10  O10 UNL     1     -33.724   7.078   5.827  1.00 20.00    -0.274 OA
HETATM   11  H25 UNL     1     -31.330   7.861   5.367  1.00 20.00     0.162 HD
ENDROOT
TORSDOF 0
