REMARK  0 active torsions:
REMARK  status: ('A' for Active; 'I' for Inactive)
ROOT
HETATM    1  C1  UNL     1     -32.905   7.744   2.970  1.00 20.00     0.105 C 
HETATM    2  C2  UNL     1     -32.716   7.920   4.291  1.00 20.00     0.056 C 
HETATM    3  C3  UNL     1     -33.709   6.585   2.506  1.00 20.00     0.196 C 
HETATM    4  C4  UNL     1     -33.925   6.067   4.967  1.00 20.00     0.035 C 
HETATM    5  C5  UNL     1     -34.370   5.754   3.565  1.00 20.00     0.205 C 
HETATM    6  C6  UNL     1     -31.929   9.074   4.866  1.00 20.00     0.072 C 
HETATM    7  C7  UNL     1     -34.382   5.155   6.081  1.00 20.00     0.068 C 
HETATM    8  N8  UNL     1     -33.181   7.080   5.280  1.00 20.00    -0.259 NA
HETATM    9  O9  UNL     1     -33.854   6.339   1.310  1.00 20.00    -0.289 OA
HETATM   10 CL10 UNL     1     -32.287   8.783   1.742  1.00 20.00    -0.078 Cl
HETATM   11 CL11 UNL     1     -36.115   6.065   3.457  1.00 20.00    -0.110 Cl
ENDROOT
TORSDOF 0
