REMARK  2 active torsions:
REMARK  status: ('A' for Active; 'I' for Inactive)
REMARK    1  A    between atoms: C2_2  and  O6_6 
REMARK    2  A    between atoms: C5_5  and  O6_6 
ROOT
HETATM    1  C1  UNL     1     -33.618   4.945   3.206  1.00 20.00     0.099 A 
HETATM    2  C2  UNL     1     -33.457   6.387   2.816  1.00 20.00     0.181 A 
HETATM    3  C3  UNL     1     -34.465   5.998   3.862  1.00 20.00     0.207 A 
HETATM    4  F7  UNL     1     -35.796   6.039   3.460  1.00 20.00    -0.223 F 
HETATM    5 CL8  UNL     1     -34.177   6.372   5.551  1.00 20.00    -0.080 Cl
ENDROOT
BRANCH   2   6
HETATM    6  O6  UNL     1     -32.250   7.028   3.259  1.00 20.00    -0.382 OA
BRANCH   6   7
HETATM    7  C5  UNL     1     -32.393   8.436   3.251  1.00 20.00     0.164 C 
HETATM    8  C4  UNL     1     -32.703   8.893   1.842  1.00 20.00     0.033 C 
ENDBRANCH   6   7
ENDBRANCH   2   6
TORSDOF 2
