REMARK  1 active torsions:
REMARK  status: ('A' for Active; 'I' for Inactive)
REMARK    1  A    between atoms: C2_2  and  C6_6 
ROOT
HETATM    1  C3  UNL     1     -32.498  10.010   2.829  1.00 20.00     0.006 C 
HETATM    2  C4  UNL     1     -33.278   9.776   1.529  1.00 20.00     0.006 C 
HETATM    3  C5  UNL     1     -31.383   8.382   1.515  1.00 20.00     0.010 C 
HETATM    4  C6  UNL     1     -32.532   7.506   3.388  1.00 20.00     0.025 C 
HETATM    5  C7  UNL     1     -31.667   8.721   2.981  1.00 20.00    -0.005 C 
HETATM    6  C8  UNL     1     -32.874   8.342   1.143  1.00 20.00    -0.006 C 
HETATM    7  C9  UNL     1     -33.453   7.288   2.148  1.00 20.00    -0.036 C 
HETATM    8  C11 UNL     1     -33.261   5.863   1.585  1.00 20.00     0.016 C 
HETATM    9  C12 UNL     1     -34.959   7.472   2.402  1.00 20.00     0.016 C 
ENDROOT
BRANCH   4  10
HETATM   10  C2  UNL     1     -33.186   7.652   4.726  1.00 20.00    -0.088 C 
HETATM   11  C1  UNL     1     -33.068   8.772   5.455  1.00 20.00     0.014 C 
HETATM   12  C10 UNL     1     -33.980   6.474   5.206  1.00 20.00     0.043 C 
ENDBRANCH   4  10
TORSDOF 1
