REMARK  2 active torsions:
REMARK  status: ('A' for Active; 'I' for Inactive)
REMARK    1  A    between atoms: C1_1  and  P9_9 
REMARK    2  A    between atoms: C2_2  and  P9_9 
ROOT
HETATM    1  P9  UNL     1     -33.116   6.435   5.060  1.00 20.00     0.209 P 
HETATM    2 CL10 UNL     1     -34.247   7.929   6.003  1.00 20.00    -0.077 Cl
ENDROOT
BRANCH   1   3
HETATM    3  C1  UNL     1     -34.308   5.163   4.812  1.00 20.00     0.429 C 
HETATM    4  F3  UNL     1     -33.757   4.303   3.954  1.00 20.00    -0.165 F 
HETATM    5  F4  UNL     1     -34.507   4.612   6.011  1.00 20.00    -0.165 F 
HETATM    6  F5  UNL     1     -35.414   5.726   4.325  1.00 20.00    -0.165 F 
ENDBRANCH   1   3
BRANCH   1   7
HETATM    7  C2  UNL     1     -32.863   7.113   3.455  1.00 20.00     0.429 C 
HETATM    8  F6  UNL     1     -31.961   8.085   3.604  1.00 20.00    -0.165 F 
HETATM    9  F7  UNL     1     -34.049   7.589   3.070  1.00 20.00    -0.165 F 
HETATM   10  F8  UNL     1     -32.429   6.136   2.659  1.00 20.00    -0.165 F 
ENDBRANCH   1   7
TORSDOF 2
