REMARK  0 active torsions:
REMARK  status: ('A' for Active; 'I' for Inactive)
ROOT
HETATM    1  C1  UNL     1     -33.611   6.655   4.364  1.00 20.00    -0.071 C 
HETATM    2  C2  UNL     1     -33.782   7.090   5.617  1.00 20.00    -0.027 C 
HETATM    3  C3  UNL     1     -33.057   7.948   2.335  1.00 20.00     0.009 C 
HETATM    4  C4  UNL     1     -33.841   6.944   1.469  1.00 20.00     0.006 C 
HETATM    5  C5  UNL     1     -32.230   5.747   2.705  1.00 20.00     0.014 C 
HETATM    6  C6  UNL     1     -32.473   7.061   3.447  1.00 20.00     0.015 C 
HETATM    7  C7  UNL     1     -33.694   5.620   2.253  1.00 20.00    -0.002 C 
HETATM    8  C8  UNL     1     -34.472   5.646   3.611  1.00 20.00    -0.021 C 
HETATM    9  C9  UNL     1     -32.864   8.049   6.300  1.00 20.00     0.036 C 
HETATM   10  C10 UNL     1     -35.932   6.101   3.469  1.00 20.00     0.020 C 
HETATM   11  C11 UNL     1     -34.454   4.260   4.281  1.00 20.00     0.020 C 
ENDROOT
TORSDOF 0
