REMARK  1 active torsions:
REMARK  status: ('A' for Active; 'I' for Inactive)
REMARK    1  A    between atoms: C2_2  and  C3_3 
ROOT
HETATM    1  C1  UNL     1     -35.555   5.841   3.657  1.00 20.00     0.051 C 
HETATM    2  C3  UNL     1     -34.124   5.671   4.164  1.00 20.00     0.122 C 
HETATM    3 CL5  UNL     1     -34.132   4.609   5.612  1.00 20.00    -0.101 Cl
HETATM    4 CL6  UNL     1     -33.170   4.834   2.885  1.00 20.00    -0.101 Cl
ENDROOT
BRANCH   2   5
HETATM    5  C2  UNL     1     -33.429   7.003   4.476  1.00 20.00     0.156 C 
HETATM    6 CL4  UNL     1     -33.286   8.082   3.061  1.00 20.00    -0.127 Cl
ENDBRANCH   2   5
TORSDOF 1
