REMARK  1 active torsions:
REMARK  status: ('A' for Active; 'I' for Inactive)
REMARK    1  A    between atoms: C1_1  and  C2_2 
ROOT
HETATM    1  C1  UNL     1     -33.277   6.340   3.885  1.00 20.00     0.314 C 
HETATM    2  F3  UNL     1     -33.230   7.670   3.607  1.00 20.00    -0.228 F 
HETATM    3 CL5  UNL     1     -33.700   5.463   2.398  1.00 20.00    -0.085 Cl
ENDROOT
BRANCH   1   4
HETATM    4  C2  UNL     1     -34.309   6.089   4.966  1.00 20.00     0.314 C 
HETATM    5  F4  UNL     1     -33.966   6.778   6.086  1.00 20.00    -0.228 F 
HETATM    6 CL6  UNL     1     -34.391   4.359   5.365  1.00 20.00    -0.085 Cl
ENDBRANCH   1   4
TORSDOF 1
