REMARK  0 active torsions:
REMARK  status: ('A' for Active; 'I' for Inactive)
ROOT
HETATM    1  C1  UNL     1     -34.043   5.579   3.956  1.00 20.00     0.227 C 
HETATM    2 CL2  UNL     1     -35.713   5.984   3.518  1.00 20.00    -0.076 Cl
HETATM    3 CL3  UNL     1     -33.283   4.625   2.668  1.00 20.00    -0.076 Cl
HETATM    4 BR4  UNL     1     -33.036   7.233   4.189  1.00 20.00    -0.037 Br
HETATM    5 BR5  UNL     1     -34.064   4.518   5.593  1.00 20.00    -0.037 Br
ENDROOT
TORSDOF 0
