REMARK  2 active torsions:
REMARK  status: ('A' for Active; 'I' for Inactive)
REMARK    1  A    between atoms: C1_1  and  C2_2 
REMARK    2  A    between atoms: C1_1  and  C3_3 
ROOT
HETATM    1  C1  UNL     1     -35.298   6.136   3.841  1.00 20.00     0.168 C 
ENDROOT
BRANCH   1   2
HETATM    2  C2  UNL     1     -33.945   6.819   3.776  1.00 20.00     0.360 C 
HETATM    3  F4  UNL     1     -33.527   7.094   5.039  1.00 20.00    -0.214 F 
HETATM    4  F5  UNL     1     -33.027   5.978   3.241  1.00 20.00    -0.214 F 
ENDBRANCH   1   2
BRANCH   1   5
HETATM    5  C3  UNL     1     -35.306   4.837   4.632  1.00 20.00     0.325 C 
HETATM    6  F6  UNL     1     -34.444   3.952   4.070  1.00 20.00    -0.188 F 
HETATM    7  F7  UNL     1     -34.838   5.086   5.884  1.00 20.00    -0.188 F 
HETATM    8 CL8  UNL     1     -36.915   4.110   4.751  1.00 20.00    -0.048 Cl
ENDBRANCH   1   5
TORSDOF 2
