REMARK  0 active torsions:
REMARK  status: ('A' for Active; 'I' for Inactive)
ROOT
HETATM    1  C1  UNL     1     -33.190   7.078   3.115  1.00 20.00    -0.071 C 
HETATM    2  C2  UNL     1     -33.023   7.904   2.076  1.00 20.00    -0.027 C 
HETATM    3  C3  UNL     1     -33.993   7.593   5.392  1.00 20.00     0.009 C 
HETATM    4  C4  UNL     1     -34.596   6.181   5.509  1.00 20.00     0.006 C 
HETATM    5  C5  UNL     1     -32.311   5.961   4.976  1.00 20.00     0.014 C 
HETATM    6  C6  UNL     1     -32.737   7.360   4.535  1.00 20.00     0.015 C 
HETATM    7  C7  UNL     1     -33.666   5.329   4.616  1.00 20.00    -0.002 C 
HETATM    8  C8  UNL     1     -33.814   5.686   3.098  1.00 20.00    -0.021 C 
HETATM    9  C9  UNL     1     -32.360   9.237   2.168  1.00 20.00     0.036 C 
HETATM   10  C10 UNL     1     -33.011   4.706   2.223  1.00 20.00     0.020 C 
HETATM   11  C11 UNL     1     -35.270   5.694   2.613  1.00 20.00     0.020 C 
ENDROOT
TORSDOF 0
