REMARK  1 active torsions:
REMARK  status: ('A' for Active; 'I' for Inactive)
REMARK    1  A    between atoms: C1_1  and  C2_2 
ROOT
HETATM    1  C1  UNL     1     -33.475   6.718   4.701  1.00 20.00     0.314 C 
HETATM    2  F3  UNL     1     -33.692   7.443   5.830  1.00 20.00    -0.228 F 
HETATM    3 CL5  UNL     1     -33.626   7.796   3.296  1.00 20.00    -0.085 Cl
ENDROOT
BRANCH   1   4
HETATM    4  C2  UNL     1     -34.488   5.593   4.622  1.00 20.00     0.314 C 
HETATM    5  F4  UNL     1     -34.272   4.869   3.492  1.00 20.00    -0.228 F 
HETATM    6 CL6  UNL     1     -34.335   4.511   6.024  1.00 20.00    -0.085 Cl
ENDBRANCH   1   4
TORSDOF 1
