REMARK  2 active torsions:
REMARK  status: ('A' for Active; 'I' for Inactive)
REMARK    1  A    between atoms: C3_3  and  C9_9 
REMARK    2  A    between atoms: C3_3  and  C10_10 
ROOT
HETATM    1  C3  UNL     1     -32.650   8.077   3.369  1.00 20.00     0.135 C 
HETATM    2  O11 UNL     1     -31.720   8.483   4.064  1.00 20.00    -0.297 OA
ENDROOT
BRANCH   1   3
HETATM    3  C9  UNL     1     -33.747   7.172   3.942  1.00 20.00     0.063 C 
HETATM    4  C4  UNL     1     -33.813   5.713   3.414  1.00 20.00     0.045 C 
HETATM    5  C1  UNL     1     -34.107   5.354   4.852  1.00 20.00    -0.088 C 
HETATM    6  C2  UNL     1     -34.649   4.282   5.431  1.00 20.00     0.014 C 
HETATM    7  C5  UNL     1     -33.553   6.651   5.393  1.00 20.00     0.045 C 
ENDBRANCH   1   3
BRANCH   1   8
HETATM    8  C10 UNL     1     -32.766   8.438   1.945  1.00 20.00     0.056 C 
HETATM    9  C7  UNL     1     -32.628   9.948   1.621  1.00 20.00     0.012 C 
HETATM   10  C6  UNL     1     -31.864   9.528   0.348  1.00 20.00     0.002 C 
HETATM   11  C8  UNL     1     -31.488   8.230   1.093  1.00 20.00     0.012 C 
ENDBRANCH   1   8
TORSDOF 2
