REMARK  2 active torsions:
REMARK  status: ('A' for Active; 'I' for Inactive)
REMARK    1  A    between atoms: C2_2  and  O6_6 
REMARK    2  A    between atoms: C5_5  and  O6_6 
ROOT
HETATM    1  C1  UNL     1     -34.068   7.379   4.706  1.00 20.00     0.099 A 
HETATM    2  C2  UNL     1     -33.015   6.643   3.926  1.00 20.00     0.181 A 
HETATM    3  C3  UNL     1     -34.352   6.001   4.179  1.00 20.00     0.207 A 
HETATM    4  F7  UNL     1     -35.221   5.933   3.095  1.00 20.00    -0.223 F 
HETATM    5 CL8  UNL     1     -34.444   4.668   5.314  1.00 20.00    -0.080 Cl
ENDROOT
BRANCH   2   6
HETATM    6  O6  UNL     1     -32.781   7.112   2.589  1.00 20.00    -0.382 OA
BRANCH   6   7
HETATM    7  C5  UNL     1     -31.953   8.260   2.593  1.00 20.00     0.164 C 
HETATM    8  C4  UNL     1     -31.734   8.716   1.166  1.00 20.00     0.033 C 
ENDBRANCH   6   7
ENDBRANCH   2   6
TORSDOF 2
