REMARK  1 active torsions:
REMARK  status: ('A' for Active; 'I' for Inactive)
REMARK    1  A    between atoms: C4_4  and  C8_8 
ROOT
HETATM    1  C1  UNL     1     -34.205   6.618   2.087  1.00 20.00     0.030 A 
HETATM    2  C2  UNL     1     -33.120   7.691   3.947  1.00 20.00     0.055 A 
HETATM    3  C3  UNL     1     -34.922   5.869   3.007  1.00 20.00     0.119 A 
HETATM    4  C4  UNL     1     -33.289   7.544   2.574  1.00 20.00    -0.010 A 
HETATM    5  C5  UNL     1     -33.886   6.894   4.783  1.00 20.00     0.126 A 
HETATM    6  N9  UNL     1     -34.785   5.984   4.347  1.00 20.00    -0.249 NA
HETATM    7 CL12 UNL     1     -33.745   7.007   6.489  1.00 20.00    -0.062 Cl
ENDROOT
BRANCH   4   8
HETATM    8  C8  UNL     1     -32.460   8.409   1.591  1.00 20.00     0.173 C 
HETATM    9  C6  UNL     1     -33.101   8.753   0.237  1.00 20.00     0.218 C 
HETATM   10  O10 UNL     1     -32.727  10.144   0.386  1.00 20.00    -0.384 OA
HETATM   11  C7  UNL     1     -32.481   9.932   1.797  1.00 20.00     0.218 C 
HETATM   12  F11 UNL     1     -31.228   7.861   1.515  1.00 20.00    -0.233 F 
ENDBRANCH   4   8
TORSDOF 1
