REMARK  0 active torsions:
REMARK  status: ('A' for Active; 'I' for Inactive)
ROOT
HETATM    1  C1  UNL     1     -34.055   7.626   1.934  1.00 20.00     0.023 C 
HETATM    2  C2  UNL     1     -33.277   8.456   1.228  1.00 20.00     0.047 C 
HETATM    3  C3  UNL     1     -33.341   6.788   2.981  1.00 20.00     0.040 C 
HETATM    4  C4  UNL     1     -33.688   9.362   0.128  1.00 20.00     0.076 C 
HETATM    5  C5  UNL     1     -33.340   5.325   2.522  1.00 20.00     0.029 C 
HETATM    6  C6  UNL     1     -34.030   6.896   4.340  1.00 20.00     0.029 C 
HETATM    7  O7  UNL     1     -31.934   8.452   1.576  1.00 20.00    -0.305 OA
HETATM    8  P8  UNL     1     -31.660   7.547   2.912  1.00 20.00     0.165 P 
HETATM    9  S9  UNL     1     -30.051   6.474   2.933  1.00 20.00    -0.049 SA
HETATM   10 CL10 UNL     1     -31.584   8.980   4.323  1.00 20.00    -0.054 Cl
ENDROOT
TORSDOF 0
