REMARK  2 active torsions:
REMARK  status: ('A' for Active; 'I' for Inactive)
REMARK    1  A    between atoms: C3_3  and  C4_4 
REMARK    2  A    between atoms: C5_5  and  C9_9 
ROOT
HETATM    1  C1  UNL     1     -33.805   4.911   3.532  1.00 20.00    -0.024 C 
HETATM    2  C2  UNL     1     -34.328   5.133   4.749  1.00 20.00    -0.087 C 
HETATM    3  C6  UNL     1     -33.247   5.993   2.653  1.00 20.00     0.036 C 
HETATM    4  C7  UNL     1     -34.432   6.521   5.330  1.00 20.00     0.034 C 
HETATM    5  C8  UNL     1     -34.206   7.636   4.304  1.00 20.00     0.013 C 
HETATM    6  C9  UNL     1     -33.012   7.320   3.394  1.00 20.00     0.018 C 
HETATM    7  C10 UNL     1     -34.839   4.016   5.610  1.00 20.00     0.043 C 
ENDROOT
BRANCH   6   8
HETATM    8  C5  UNL     1     -32.757   8.436   2.426  1.00 20.00    -0.076 C 
HETATM    9  C3  UNL     1     -32.207   8.325   1.204  1.00 20.00     0.044 C 
HETATM   10  C11 UNL     1     -33.181   9.791   2.933  1.00 20.00     0.044 C 
BRANCH   9  11
HETATM   11  C4  UNL     1     -31.967   9.446   0.270  1.00 20.00     0.259 C 
HETATM   12  O12 UNL     1     -32.686  10.439   0.260  1.00 20.00    -0.302 OA
ENDBRANCH   9  11
ENDBRANCH   6   8
TORSDOF 2
