REMARK  2 active torsions:
REMARK  status: ('A' for Active; 'I' for Inactive)
REMARK    1  A    between atoms: C7_7  and  O10_10 
REMARK    2  A    between atoms: C9_9  and  O10_10 
ROOT
HETATM    1  C1  UNL     1     -32.569   8.189   5.037  1.00 20.00     0.000 C 
HETATM    2  C2  UNL     1     -33.651   7.241   5.164  1.00 20.00     0.022 C 
HETATM    3  C3  UNL     1     -31.790   8.211   3.945  1.00 20.00     0.008 C 
HETATM    4  C4  UNL     1     -33.752   6.201   4.324  1.00 20.00     0.048 C 
HETATM    5  C7  UNL     1     -31.978   7.237   2.815  1.00 20.00     0.184 C 
HETATM    6  C8  UNL     1     -32.762   5.969   3.215  1.00 20.00     0.247 C 
HETATM    7  F11 UNL     1     -33.369   5.470   2.100  1.00 20.00    -0.240 F 
HETATM    8 CL12 UNL     1     -35.016   5.041   4.494  1.00 20.00    -0.086 Cl
ENDROOT
BRANCH   5   9
HETATM    9  O10 UNL     1     -32.669   7.931   1.776  1.00 20.00    -0.373 OA
BRANCH   9  10
HETATM   10  C9  UNL     1     -31.954   9.085   1.363  1.00 20.00     0.122 A 
HETATM   11  C5  UNL     1     -32.539   9.849   0.210  1.00 20.00     0.034 A 
HETATM   12  C6  UNL     1     -32.634  10.402   1.601  1.00 20.00     0.034 A 
ENDBRANCH   9  10
ENDBRANCH   5   9
TORSDOF 2
