REMARK  1 active torsions:
REMARK  status: ('A' for Active; 'I' for Inactive)
REMARK    1  A    between atoms: C2_2  and  C7_7 
ROOT
HETATM    1  C1  UNL     1     -33.144   5.700   2.698  1.00 20.00     0.149 A 
HETATM    2  C2  UNL     1     -32.700   6.882   3.359  1.00 20.00    -0.001 A 
HETATM    3  C3  UNL     1     -33.233   6.762   4.611  1.00 20.00     0.039 A 
HETATM    4  C4  UNL     1     -33.327   7.425   5.923  1.00 20.00     0.061 C 
HETATM    5  C5  UNL     1     -34.483   6.631   6.597  1.00 20.00     0.028 C 
HETATM    6  C6  UNL     1     -34.567   5.276   5.866  1.00 20.00     0.151 C 
HETATM    7  N8  UNL     1     -33.896   4.903   3.478  1.00 20.00    -0.184 NA
HETATM    8  N9  UNL     1     -33.916   5.593   4.613  1.00 20.00    -0.274 N 
ENDROOT
BRANCH   2   9
HETATM    9  C7  UNL     1     -31.867   7.966   2.819  1.00 20.00     0.156 C 
HETATM   10 CL10 UNL     1     -32.801   9.015   1.716  1.00 20.00    -0.125 Cl
ENDBRANCH   2   9
TORSDOF 1
