REMARK  0 active torsions:
REMARK  status: ('A' for Active; 'I' for Inactive)
ROOT
HETATM    1  C1  UNL     1     -32.679   5.879   2.465  1.00 20.00     0.047 C 
HETATM    2  C2  UNL     1     -33.309   4.823   3.241  1.00 20.00     0.042 C 
HETATM    3  C3  UNL     1     -34.457   6.935   6.049  1.00 20.00     0.010 C 
HETATM    4  C4  UNL     1     -33.605   7.952   6.219  1.00 20.00     0.114 C 
HETATM    5  C5  UNL     1     -32.624   7.135   2.922  1.00 20.00     0.142 C 
HETATM    6  C6  UNL     1     -34.117   5.111   4.277  1.00 20.00     0.107 C 
HETATM    7  C7  UNL     1     -33.259   7.401   4.222  1.00 20.00     0.087 C 
HETATM    8  C8  UNL     1     -34.442   6.527   4.620  1.00 20.00     0.127 C 
HETATM    9  N9  UNL     1     -32.869   8.267   5.105  1.00 20.00    -0.262 NA
HETATM   10  F10 UNL     1     -31.946   8.129   2.329  1.00 20.00    -0.204 F 
HETATM   11  F11 UNL     1     -34.681   4.102   4.976  1.00 20.00    -0.210 F 
ENDROOT
TORSDOF 0
