REMARK  2 active torsions:
REMARK  status: ('A' for Active; 'I' for Inactive)
REMARK    1  A    between atoms: C1_1  and  C4_4 
REMARK    2  A    between atoms: C4_4  and  C5_5 
ROOT
HETATM    1  C2  UNL     1     -34.491   4.525   5.513  1.00 20.00     0.027 A 
HETATM    2  C3  UNL     1     -33.030   4.794   5.707  1.00 20.00     0.027 A 
HETATM    3  C4  UNL     1     -33.855   5.724   4.841  1.00 20.00     0.110 A 
ENDROOT
BRANCH   3   4
HETATM    4  C1  UNL     1     -34.175   7.058   5.403  1.00 20.00     0.249 C 
HETATM    5  O6  UNL     1     -33.329   7.824   5.851  1.00 20.00    -0.306 OA
ENDBRANCH   3   4
BRANCH   3   6
HETATM    6  C5  UNL     1     -33.642   5.640   3.350  1.00 20.00     0.401 C 
HETATM    7  F7  UNL     1     -32.617   6.429   2.968  1.00 20.00    -0.170 F 
HETATM    8  F8  UNL     1     -33.360   4.376   2.977  1.00 20.00    -0.170 F 
HETATM    9  F9  UNL     1     -34.746   6.037   2.686  1.00 20.00    -0.170 F 
ENDBRANCH   3   6
TORSDOF 2
