REMARK  1 active torsions:
REMARK  status: ('A' for Active; 'I' for Inactive)
REMARK    1  A    between atoms: C1_1  and  C4_4 
ROOT
HETATM    1  C2  UNL     1     -34.434   5.929   2.358  1.00 20.00     0.026 C 
HETATM    2  C3  UNL     1     -34.090   7.391   4.295  1.00 20.00     0.026 C 
HETATM    3  C4  UNL     1     -34.856   6.155   3.813  1.00 20.00     0.088 C 
HETATM    4  C5  UNL     1     -33.064   6.535   2.255  1.00 20.00     0.069 A 
HETATM    5  C6  UNL     1     -32.852   7.433   3.445  1.00 20.00     0.069 A 
HETATM    6  C7  UNL     1     -32.872   7.997   2.070  1.00 20.00     0.252 A 
HETATM    7  F10 UNL     1     -33.906   8.802   1.646  1.00 20.00    -0.205 F 
HETATM    8  F11 UNL     1     -31.716   8.481   1.500  1.00 20.00    -0.205 F 
ENDROOT
BRANCH   3   9
HETATM    9  C1  UNL     1     -34.417   4.957   4.640  1.00 20.00     0.177 C 
HETATM   10  O8  UNL     1     -34.101   5.214   5.835  1.00 20.00    -0.648 OA
HETATM   11  O9  UNL     1     -34.424   3.856   4.022  1.00 20.00    -0.648 OA
ENDBRANCH   3   9
TORSDOF 1
