REMARK  0 active torsions:
REMARK  status: ('A' for Active; 'I' for Inactive)
ROOT
HETATM    1  C1  UNL     1     -34.347   4.420   3.766  1.00 20.00     0.050 C 
HETATM    2  C2  UNL     1     -34.137   4.078   5.228  1.00 20.00     0.171 C 
HETATM    3  C3  UNL     1     -35.275   5.612   3.833  1.00 20.00     0.128 C 
HETATM    4  C4  UNL     1     -34.811   6.313   5.100  1.00 20.00     0.235 C 
HETATM    5  O5  UNL     1     -34.292   5.296   5.971  1.00 20.00    -0.369 OA
HETATM    6 CL6  UNL     1     -36.969   5.061   4.032  1.00 20.00    -0.121 Cl
HETATM    7 CL7  UNL     1     -33.486   7.460   4.749  1.00 20.00    -0.094 Cl
ENDROOT
TORSDOF 0
