REMARK  1 active torsions:
REMARK  status: ('A' for Active; 'I' for Inactive)
REMARK    1  A    between atoms: C5_5  and  C7_7 
ROOT
HETATM    1  C1  UNL     1     -33.101   7.630   3.969  1.00 20.00     0.071 A 
HETATM    2  C2  UNL     1     -34.164   5.187   3.379  1.00 20.00     0.126 A 
HETATM    3  C3  UNL     1     -34.219   5.627   4.692  1.00 20.00    -0.006 A 
HETATM    4  C4  UNL     1     -33.675   6.872   4.984  1.00 20.00     0.125 A 
HETATM    5  C5  UNL     1     -33.096   7.100   2.688  1.00 20.00     0.051 A 
HETATM    6  C6  UNL     1     -34.840   4.790   5.753  1.00 20.00     0.053 C 
HETATM    7  N8  UNL     1     -33.615   5.894   2.366  1.00 20.00    -0.264 NA
HETATM    8  F9  UNL     1     -33.700   7.350   6.236  1.00 20.00    -0.205 F 
ENDROOT
BRANCH   5   9
HETATM    9  C7  UNL     1     -32.488   7.886   1.575  1.00 20.00     0.173 C 
HETATM   10 CL10 UNL     1     -32.246   9.579   2.060  1.00 20.00    -0.124 Cl
ENDBRANCH   5   9
TORSDOF 1
