REMARK  2 active torsions:
REMARK  status: ('A' for Active; 'I' for Inactive)
REMARK    1  A    between atoms: C7_7  and  O10_10 
REMARK    2  A    between atoms: C8_8  and  O10_10 
ROOT
HETATM    1  C1  UNL     1     -34.027   5.867   3.962  1.00 20.00     0.155 C 
HETATM    2  C2  UNL     1     -34.380   5.927   5.458  1.00 20.00     0.084 C 
HETATM    3  C3  UNL     1     -33.851   7.380   5.449  1.00 20.00     0.047 C 
HETATM    4  C7  UNL     1     -33.793   7.389   3.899  1.00 20.00     0.191 C 
HETATM    5  O9  UNL     1     -33.954   4.969   3.151  1.00 20.00    -0.295 OA
ENDROOT
BRANCH   4   6
HETATM    6  O10 UNL     1     -32.554   7.750   3.317  1.00 20.00    -0.373 OA
BRANCH   6   7
HETATM    7  C8  UNL     1     -32.720   8.097   1.932  1.00 20.00     0.122 C 
HETATM    8  C5  UNL     1     -32.781   9.611   1.619  1.00 20.00     0.032 C 
HETATM    9  C4  UNL     1     -31.959   9.316   0.350  1.00 20.00     0.005 C 
HETATM   10  C6  UNL     1     -31.442   8.051   1.061  1.00 20.00     0.032 C 
ENDBRANCH   6   7
ENDBRANCH   4   6
TORSDOF 2
