REMARK  0 active torsions:
REMARK  status: ('A' for Active; 'I' for Inactive)
ROOT
HETATM    1  C1  UNL     1     -33.973   4.158   4.550  1.00 20.00     0.004 A 
HETATM    2  C2  UNL     1     -33.668   5.283   3.908  1.00 20.00    -0.036 A 
HETATM    3  C3  UNL     1     -33.811   6.298   4.955  1.00 20.00     0.035 A 
HETATM    4  C4  UNL     1     -34.340   4.430   5.968  1.00 20.00     0.177 A 
HETATM    5  C5  UNL     1     -33.253   5.579   2.521  1.00 20.00     0.040 C 
HETATM    6  C6  UNL     1     -33.468   7.733   4.663  1.00 20.00     0.059 C 
HETATM    7  C7  UNL     1     -32.575   6.948   2.426  1.00 20.00     0.005 C 
HETATM    8  C8  UNL     1     -33.380   8.020   3.165  1.00 20.00     0.006 C 
HETATM    9  N9  UNL     1     -34.189   5.894   6.135  1.00 20.00    -0.290 NA
ENDROOT
TORSDOF 0
