REMARK  1 active torsions:
REMARK  status: ('A' for Active; 'I' for Inactive)
REMARK    1  A    between atoms: C1_1  and  C4_4 
ROOT
HETATM    1  C2  UNL     1     -34.312   5.240   5.589  1.00 20.00     0.038 C 
HETATM    2  C3  UNL     1     -34.342   6.618   6.222  1.00 20.00     0.169 C 
HETATM    3  C4  UNL     1     -33.310   6.783   4.143  1.00 20.00     0.190 C 
HETATM    4  C5  UNL     1     -34.221   5.550   4.098  1.00 20.00    -0.013 C 
HETATM    5  C6  UNL     1     -35.624   5.843   3.535  1.00 20.00     0.018 C 
HETATM    6  C7  UNL     1     -33.593   4.400   3.309  1.00 20.00     0.018 C 
HETATM    7  O9  UNL     1     -33.641   7.502   5.336  1.00 20.00    -0.378 OA
ENDROOT
BRANCH   3   8
HETATM    8  C1  UNL     1     -33.459   7.724   2.991  1.00 20.00     0.263 C 
HETATM    9  O8  UNL     1     -32.752   7.683   1.989  1.00 20.00    -0.304 OA
ENDBRANCH   3   8
TORSDOF 1
