REMARK  2 active torsions:
REMARK  status: ('A' for Active; 'I' for Inactive)
REMARK    1  A    between atoms: C7_7  and  O10_10 
REMARK    2  A    between atoms: C8_8  and  O10_10 
ROOT
HETATM    1  C1  UNL     1     -33.951   5.192   4.489  1.00 20.00     0.153 C 
HETATM    2  C2  UNL     1     -32.938   5.907   2.583  1.00 20.00     0.121 C 
HETATM    3  C3  UNL     1     -34.075   6.409   5.029  1.00 20.00     0.114 C 
HETATM    4  C4  UNL     1     -33.664   7.636   4.292  1.00 20.00     0.109 C 
HETATM    5  C7  UNL     1     -32.765   7.317   3.102  1.00 20.00     0.168 C 
HETATM    6  N9  UNL     1     -33.473   4.922   3.236  1.00 20.00    -0.272 NA
HETATM    7  F11 UNL     1     -34.579   6.527   6.276  1.00 20.00    -0.209 F 
ENDROOT
BRANCH   5   8
HETATM    8  O10 UNL     1     -33.079   8.199   2.035  1.00 20.00    -0.375 OA
BRANCH   8   9
HETATM    9  C8  UNL     1     -31.957   8.986   1.661  1.00 20.00     0.122 A 
HETATM   10  C5  UNL     1     -31.017   8.370   0.665  1.00 20.00     0.034 A 
HETATM   11  C6  UNL     1     -31.938   9.477   0.242  1.00 20.00     0.034 A 
ENDBRANCH   8   9
ENDBRANCH   5   8
TORSDOF 2
