REMARK  0 active torsions:
REMARK  status: ('A' for Active; 'I' for Inactive)
ROOT
HETATM    1  C1  UNL     1     -34.059   6.109   6.048  1.00 20.00     0.032 A 
HETATM    2  C2  UNL     1     -33.256   7.648   4.186  1.00 20.00     0.037 A 
HETATM    3  C3  UNL     1     -33.072   6.618   1.976  1.00 20.00     0.003 A 
HETATM    4  C4  UNL     1     -34.384   4.811   5.925  1.00 20.00     0.118 A 
HETATM    5  C5  UNL     1     -33.677   6.510   4.736  1.00 20.00    -0.008 A 
HETATM    6  C6  UNL     1     -32.947   7.696   2.771  1.00 20.00     0.031 A 
HETATM    7  C7  UNL     1     -33.838   5.289   3.926  1.00 20.00     0.048 A 
HETATM    8  C8  UNL     1     -33.537   5.268   2.457  1.00 20.00     0.088 A 
HETATM    9  N9  UNL     1     -34.260   4.281   4.647  1.00 20.00    -0.264 NA
HETATM   10 CL10 UNL     1     -32.406   9.203   2.121  1.00 20.00    -0.085 Cl
ENDROOT
TORSDOF 0
