REMARK  1 active torsions:
REMARK  status: ('A' for Active; 'I' for Inactive)
REMARK    1  A    between atoms: C2_2  and  C4_4 
ROOT
HETATM    1  C1  UNL     1     -34.488   4.375   4.411  1.00 20.00     0.026 A 
HETATM    2  C2  UNL     1     -34.422   5.588   3.862  1.00 20.00     0.068 A 
HETATM    3  C3  UNL     1     -34.649   4.616   5.861  1.00 20.00     0.203 A 
HETATM    4  N5  UNL     1     -34.523   6.592   4.792  1.00 20.00    -0.159 NA
HETATM    5  N6  UNL     1     -34.654   6.098   5.949  1.00 20.00    -0.189 NA
ENDROOT
BRANCH   2   6
HETATM    6  C4  UNL     1     -34.259   5.916   2.423  1.00 20.00     0.175 C 
HETATM    7 CL7  UNL     1     -32.787   6.881   2.267  1.00 20.00    -0.124 Cl
ENDBRANCH   2   6
TORSDOF 1
