REMARK  0 active torsions:
REMARK  status: ('A' for Active; 'I' for Inactive)
ROOT
HETATM    1  C1  UNL     1     -33.936   4.569   4.155  1.00 20.00     0.047 C 
HETATM    2  C2  UNL     1     -34.334   5.554   5.148  1.00 20.00     0.042 C 
HETATM    3  C3  UNL     1     -32.886   8.513   3.474  1.00 20.00     0.010 C 
HETATM    4  C4  UNL     1     -32.917   8.335   2.150  1.00 20.00     0.114 C 
HETATM    5  C5  UNL     1     -33.304   4.935   3.033  1.00 20.00     0.142 C 
HETATM    6  C6  UNL     1     -33.825   6.798   5.135  1.00 20.00     0.107 C 
HETATM    7  C7  UNL     1     -33.004   6.366   2.872  1.00 20.00     0.087 C 
HETATM    8  C8  UNL     1     -32.785   7.186   4.137  1.00 20.00     0.127 C 
HETATM    9  N9  UNL     1     -32.975   7.024   1.754  1.00 20.00    -0.262 NA
HETATM   10  F10 UNL     1     -33.028   4.106   2.015  1.00 20.00    -0.204 F 
HETATM   11  F11 UNL     1     -34.223   7.685   6.073  1.00 20.00    -0.210 F 
ENDROOT
TORSDOF 0
