REMARK  1 active torsions:
REMARK  status: ('A' for Active; 'I' for Inactive)
REMARK    1  A    between atoms: C3_3  and  C6_6 
ROOT
HETATM    1  C1  UNL     1     -33.433   7.205   2.316  1.00 20.00     0.068 A 
HETATM    2  C2  UNL     1     -31.847   8.255   3.743  1.00 20.00     0.126 A 
HETATM    3  C3  UNL     1     -32.305   8.004   2.460  1.00 20.00    -0.023 A 
HETATM    4  C4  UNL     1     -34.060   6.688   3.444  1.00 20.00     0.212 A 
HETATM    5  C5  UNL     1     -33.524   6.998   4.684  1.00 20.00     0.175 A 
HETATM    6  N7  UNL     1     -32.430   7.771   4.863  1.00 20.00    -0.244 NA
HETATM    7  O8  UNL     1     -35.100   5.951   3.307  1.00 20.00    -0.285 OA
HETATM    8 CL9  UNL     1     -34.179   6.438   6.183  1.00 20.00    -0.058 Cl
ENDROOT
BRANCH   3   9
HETATM    9  C6  UNL     1     -31.611   8.573   1.273  1.00 20.00     0.154 C 
HETATM   10 CL10 UNL     1     -32.534   9.932   0.592  1.00 20.00    -0.126 Cl
ENDBRANCH   3   9
TORSDOF 1
