REMARK  0 active torsions:
REMARK  status: ('A' for Active; 'I' for Inactive)
ROOT
HETATM    1  C1  UNL     1     -34.090   6.945   6.431  1.00 20.00     0.124 C 
HETATM    2  C2  UNL     1     -34.160   6.284   4.325  1.00 20.00     0.044 C 
HETATM    3  C3  UNL     1     -34.229   5.250   3.269  1.00 20.00     0.057 C 
HETATM    4  C4  UNL     1     -34.537   4.023   4.146  1.00 20.00     0.007 C 
HETATM    5  C5  UNL     1     -34.304   4.453   5.612  1.00 20.00     0.016 C 
HETATM    6  C6  UNL     1     -34.754   5.895   5.621  1.00 20.00     0.077 C 
HETATM    7  N7  UNL     1     -33.465   7.826   5.714  1.00 20.00    -0.166 NA
HETATM    8  N8  UNL     1     -33.508   7.399   4.339  1.00 20.00    -0.159 NA
ENDROOT
TORSDOF 0
