REMARK  0 active torsions:
REMARK  status: ('A' for Active; 'I' for Inactive)
ROOT
HETATM    1  C1  UNL     1     -34.159   4.312   5.599  1.00 20.00     0.012 C 
HETATM    2  C2  UNL     1     -34.423   5.129   4.761  1.00 20.00    -0.110 C 
HETATM    3  C3  UNL     1     -34.056   5.824   2.420  1.00 20.00     0.045 C 
HETATM    4  C4  UNL     1     -32.684   6.440   2.606  1.00 20.00     0.169 C 
HETATM    5  C5  UNL     1     -34.158   7.489   4.078  1.00 20.00     0.184 C 
HETATM    6  C6  UNL     1     -34.747   6.131   3.732  1.00 20.00     0.090 C 
HETATM    7  O7  UNL     1     -32.840   7.542   3.509  1.00 20.00    -0.390 OA
ENDROOT
TORSDOF 0
