REMARK  1 active torsions:
REMARK  status: ('A' for Active; 'I' for Inactive)
REMARK    1  A    between atoms: C1_1  and  C4_4 
ROOT
HETATM    1  C2  UNL     1     -34.089   4.291   4.001  1.00 20.00     0.038 C 
HETATM    2  C3  UNL     1     -33.191   4.305   2.778  1.00 20.00     0.169 C 
HETATM    3  C4  UNL     1     -33.203   6.437   3.711  1.00 20.00     0.190 C 
HETATM    4  C5  UNL     1     -34.507   5.752   4.135  1.00 20.00    -0.013 C 
HETATM    5  C6  UNL     1     -34.903   6.106   5.570  1.00 20.00     0.018 C 
HETATM    6  C7  UNL     1     -35.692   6.049   3.197  1.00 20.00     0.018 C 
HETATM    7  O9  UNL     1     -32.610   5.615   2.700  1.00 20.00    -0.378 OA
ENDROOT
BRANCH   3   8
HETATM    8  C1  UNL     1     -33.364   7.810   3.142  1.00 20.00     0.263 C 
HETATM    9  O8  UNL     1     -33.085   8.098   1.983  1.00 20.00    -0.304 OA
ENDBRANCH   3   8
TORSDOF 1
