REMARK  1 active torsions:
REMARK  status: ('A' for Active; 'I' for Inactive)
REMARK    1  A    between atoms: C4_4  and  C6_6 
ROOT
HETATM    1  C1  UNL     1     -33.479   5.924   3.161  1.00 20.00     0.070 A 
HETATM    2  C2  UNL     1     -33.854   7.673   4.728  1.00 20.00     0.129 A 
HETATM    3  C3  UNL     1     -34.468   5.531   5.288  1.00 20.00     0.170 A 
HETATM    4  C4  UNL     1     -33.386   7.272   3.487  1.00 20.00     0.027 A 
HETATM    5  C5  UNL     1     -34.029   5.030   4.073  1.00 20.00     0.190 A 
HETATM    6  N7  UNL     1     -34.394   6.835   5.640  1.00 20.00    -0.268 NA
HETATM    7  O8  UNL     1     -34.127   3.784   3.799  1.00 20.00    -0.287 OA
ENDROOT
BRANCH   4   8
HETATM    8  C6  UNL     1     -32.802   8.254   2.534  1.00 20.00     0.388 C 
HETATM    9  F9  UNL     1     -31.846   7.673   1.760  1.00 20.00    -0.209 F 
HETATM   10  F10 UNL     1     -32.191   9.272   3.197  1.00 20.00    -0.209 F 
ENDBRANCH   4   8
TORSDOF 1
