REMARK  1 active torsions:
REMARK  status: ('A' for Active; 'I' for Inactive)
REMARK    1  A    between atoms: C4_4  and  C9_9 
ROOT
HETATM    1  C1  UNL     1     -32.930   7.345   2.044  1.00 20.00     0.065 A 
HETATM    2  C2  UNL     1     -32.588   7.829   4.361  1.00 20.00     0.095 A 
HETATM    3  C3  UNL     1     -31.728   9.293   2.739  1.00 20.00     0.142 A 
HETATM    4  C4  UNL     1     -33.113   7.001   3.380  1.00 20.00    -0.031 A 
HETATM    5  C5  UNL     1     -32.230   8.502   1.716  1.00 20.00     0.187 A 
HETATM    6  N10 UNL     1     -31.919   8.938   4.017  1.00 20.00    -0.371 N 
HETATM    7  O11 UNL     1     -32.051   8.834   0.493  1.00 20.00    -0.287 OA
HETATM    8  H24 UNL     1     -31.540   9.532   4.754  1.00 20.00     0.164 HD
ENDROOT
BRANCH   4   9
HETATM    9  C9  UNL     1     -33.883   5.727   3.765  1.00 20.00    -0.023 C 
HETATM   10  C6  UNL     1     -33.173   4.491   3.170  1.00 20.00     0.019 C 
HETATM   11  C7  UNL     1     -35.322   5.801   3.211  1.00 20.00     0.019 C 
HETATM   12  C8  UNL     1     -33.993   5.499   5.290  1.00 20.00     0.019 C 
ENDBRANCH   4   9
TORSDOF 1
