REMARK  0 active torsions:
REMARK  status: ('A' for Active; 'I' for Inactive)
ROOT
HETATM    1  C1  UNL     1     -34.793   6.674   3.707  1.00 20.00     0.029 C 
HETATM    2  C2  UNL     1     -33.119   7.159   5.002  1.00 20.00     0.029 C 
HETATM    3  C3  UNL     1     -33.037   8.279   2.656  1.00 20.00     0.179 A 
HETATM    4  C4  UNL     1     -32.457   6.285   2.653  1.00 20.00     0.179 A 
HETATM    5  C5  UNL     1     -34.415   6.314   5.174  1.00 20.00     0.059 C 
HETATM    6  C6  UNL     1     -33.364   7.105   3.518  1.00 20.00     0.005 A 
HETATM    7  O7  UNL     1     -32.159   7.455   1.836  1.00 20.00    -0.389 OA
HETATM    8 BR8  UNL     1     -34.127   4.420   5.511  1.00 20.00    -0.091 Br
ENDROOT
TORSDOF 0
