REMARK  2 active torsions:
REMARK  status: ('A' for Active; 'I' for Inactive)
REMARK    1  A    between atoms: C7_7  and  P9_9 
REMARK    2  A    between atoms: C8_8  and  P9_9 
ROOT
HETATM    1  P9  UNL     1     -33.921   8.137   4.047  1.00 20.00    -0.001 P 
HETATM    2 CL10 UNL     1     -32.226   8.019   5.269  1.00 20.00    -0.094 Cl
ENDROOT
BRANCH   1   3
HETATM    3  C7  UNL     1     -34.425   6.323   4.070  1.00 20.00    -0.014 C 
HETATM    4  C1  UNL     1     -33.429   5.517   3.224  1.00 20.00     0.021 C 
HETATM    5  C2  UNL     1     -34.404   5.818   5.521  1.00 20.00     0.021 C 
HETATM    6  C3  UNL     1     -35.839   6.175   3.489  1.00 20.00     0.021 C 
ENDBRANCH   1   3
BRANCH   1   7
HETATM    7  C8  UNL     1     -33.147   8.167   2.391  1.00 20.00    -0.014 C 
HETATM    8  C4  UNL     1     -34.196   7.772   1.342  1.00 20.00     0.021 C 
HETATM    9  C5  UNL     1     -32.635   9.587   2.106  1.00 20.00     0.021 C 
HETATM   10  C6  UNL     1     -31.975   7.175   2.355  1.00 20.00     0.021 C 
ENDBRANCH   1   7
TORSDOF 2
