REMARK  0 active torsions:
REMARK  status: ('A' for Active; 'I' for Inactive)
ROOT
HETATM    1  C1  UNL     1     -32.873   8.111   2.192  1.00 20.00     0.013 C 
HETATM    2  C2  UNL     1     -33.524   7.261   2.736  1.00 20.00    -0.107 C 
HETATM    3  C3  UNL     1     -34.427   6.536   4.912  1.00 20.00     0.048 C 
HETATM    4  C4  UNL     1     -33.628   4.849   3.229  1.00 20.00     0.048 C 
HETATM    5  C5  UNL     1     -34.969   5.363   5.722  1.00 20.00     0.169 C 
HETATM    6  C6  UNL     1     -34.217   3.773   4.137  1.00 20.00     0.169 C 
HETATM    7  C7  UNL     1     -34.327   6.213   3.406  1.00 20.00     0.023 C 
HETATM    8  C8  UNL     1     -35.724   6.197   2.759  1.00 20.00     0.029 C 
HETATM    9  O9  UNL     1     -34.189   4.190   5.500  1.00 20.00    -0.391 OA
ENDROOT
TORSDOF 0
