REMARK  0 active torsions:
REMARK  status: ('A' for Active; 'I' for Inactive)
ROOT
HETATM    1  C1  UNL     1     -34.625   5.485   6.107  1.00 20.00     0.002 C 
HETATM    2  C2  UNL     1     -34.743   4.716   5.014  1.00 20.00     0.028 C 
HETATM    3  C3  UNL     1     -33.831   6.701   6.123  1.00 20.00    -0.003 C 
HETATM    4  C4  UNL     1     -33.438   7.291   4.981  1.00 20.00    -0.011 C 
HETATM    5  C5  UNL     1     -32.745   5.366   2.164  1.00 20.00     0.132 C 
HETATM    6  C6  UNL     1     -32.866   6.636   2.559  1.00 20.00     0.020 C 
HETATM    7  C7  UNL     1     -34.025   5.220   3.827  1.00 20.00     0.046 C 
HETATM    8  C8  UNL     1     -33.861   6.729   3.661  1.00 20.00     0.102 C 
HETATM    9  N9  UNL     1     -33.461   4.478   2.922  1.00 20.00    -0.263 NA
HETATM   10 BR10 UNL     1     -32.103   8.129   1.814  1.00 20.00    -0.053 Br
ENDROOT
TORSDOF 0
