REMARK  2 active torsions:
REMARK  status: ('A' for Active; 'I' for Inactive)
REMARK    1  A    between atoms: C8_8  and  O11_11 
REMARK    2  A    between atoms: C9_9  and  O11_11 
ROOT
HETATM    1  C1  UNL     1     -34.474   5.473   3.363  1.00 20.00     0.092 C 
HETATM    2  C2  UNL     1     -33.749   6.794   5.098  1.00 20.00     0.027 C 
HETATM    3  C3  UNL     1     -33.966   7.250   6.342  1.00 20.00     0.040 C 
HETATM    4  C4  UNL     1     -33.826   6.304   2.289  1.00 20.00     0.079 C 
HETATM    5  C5  UNL     1     -32.758   7.478   4.194  1.00 20.00     0.090 C 
HETATM    6  C8  UNL     1     -33.369   7.653   2.812  1.00 20.00     0.132 C 
HETATM    7  N10 UNL     1     -34.431   5.692   4.640  1.00 20.00    -0.270 NA
ENDROOT
BRANCH   6   8
HETATM    8  O11 UNL     1     -32.402   8.190   1.919  1.00 20.00    -0.380 OA
BRANCH   8   9
HETATM    9  C9  UNL     1     -32.444   9.609   1.904  1.00 20.00     0.122 A 
HETATM   10  C6  UNL     1     -31.963  10.273   0.645  1.00 20.00     0.034 A 
HETATM   11  C7  UNL     1     -33.431  10.230   0.957  1.00 20.00     0.034 A 
ENDBRANCH   8   9
ENDBRANCH   6   8
TORSDOF 2
