REMARK  1 active torsions:
REMARK  status: ('A' for Active; 'I' for Inactive)
REMARK    1  A    between atoms: C1_1  and  C3_3 
ROOT
HETATM    1  C2  UNL     1     -34.345   5.915   2.506  1.00 20.00     0.098 A 
HETATM    2  C3  UNL     1     -32.976   6.198   3.089  1.00 20.00     0.133 A 
HETATM    3  C4  UNL     1     -34.108   5.795   3.965  1.00 20.00     0.255 A 
HETATM    4  F7  UNL     1     -34.683   6.688   4.841  1.00 20.00    -0.205 F 
HETATM    5  F8  UNL     1     -34.116   4.560   4.573  1.00 20.00    -0.205 F 
ENDROOT
BRANCH   2   6
HETATM    6  C1  UNL     1     -32.485   7.579   3.123  1.00 20.00     0.133 C 
HETATM    7  C5  UNL     1     -32.466   8.323   1.815  1.00 20.00     0.091 C 
HETATM    8  O6  UNL     1     -32.110   8.104   4.170  1.00 20.00    -0.298 OA
ENDBRANCH   2   6
TORSDOF 1
