REMARK  2 active torsions:
REMARK  status: ('A' for Active; 'I' for Inactive)
REMARK    1  A    between atoms: C7_7  and  O10_10 
REMARK    2  A    between atoms: C8_8  and  O10_10 
ROOT
HETATM    1  C1  UNL     1     -32.746   5.683   2.869  1.00 20.00     0.024 C 
HETATM    2  C2  UNL     1     -33.540   5.078   3.763  1.00 20.00     0.118 C 
HETATM    3  C3  UNL     1     -33.614   6.835   5.197  1.00 20.00     0.188 C 
HETATM    4  C4  UNL     1     -32.474   7.543   4.510  1.00 20.00     0.127 C 
HETATM    5  C7  UNL     1     -32.321   7.103   3.058  1.00 20.00     0.154 C 
HETATM    6  N9  UNL     1     -34.084   5.673   4.871  1.00 20.00    -0.237 NA
HETATM    7  F11 UNL     1     -34.152   7.435   6.269  1.00 20.00    -0.189 F 
ENDROOT
BRANCH   5   8
HETATM    8  O10 UNL     1     -33.115   7.945   2.227  1.00 20.00    -0.376 OA
BRANCH   8   9
HETATM    9  C8  UNL     1     -32.392   9.095   1.811  1.00 20.00     0.122 A 
HETATM   10  C5  UNL     1     -31.550   8.937   0.577  1.00 20.00     0.034 A 
HETATM   11  C6  UNL     1     -32.831   9.717   0.517  1.00 20.00     0.034 A 
ENDBRANCH   8   9
ENDBRANCH   5   8
TORSDOF 2
