REMARK  1 active torsions:
REMARK  status: ('A' for Active; 'I' for Inactive)
REMARK    1  A    between atoms: C6_6  and  C8_8 
ROOT
HETATM    1  C1  UNL     1     -33.437   9.028   0.600  1.00 20.00     0.099 C 
HETATM    2  C2  UNL     1     -33.910   7.523   2.469  1.00 20.00     0.031 A 
HETATM    3  C3  UNL     1     -31.885   8.841   2.481  1.00 20.00     0.046 A 
HETATM    4  C4  UNL     1     -32.367   7.351   4.321  1.00 20.00     0.032 A 
HETATM    5  C5  UNL     1     -33.074   8.459   1.860  1.00 20.00     0.046 A 
HETATM    6  C6  UNL     1     -33.556   6.969   3.700  1.00 20.00    -0.041 A 
HETATM    7  C7  UNL     1     -31.531   8.287   3.712  1.00 20.00     0.036 A 
HETATM    8  N9  UNL     1     -33.731   9.490  -0.423  1.00 20.00    -0.191 NA
HETATM    9 CL10 UNL     1     -30.066   8.760   4.481  1.00 20.00    -0.084 Cl
ENDROOT
BRANCH   6  10
HETATM   10  C8  UNL     1     -34.451   5.969   4.352  1.00 20.00     0.153 C 
HETATM   11 CL11 UNL     1     -34.323   4.391   3.543  1.00 20.00    -0.126 Cl
ENDBRANCH   6  10
TORSDOF 1
