REMARK  0 active torsions:
REMARK  status: ('A' for Active; 'I' for Inactive)
ROOT
HETATM    1  C1  UNL     1     -32.411   8.163   3.658  1.00 20.00     0.057 A 
HETATM    2  C2  UNL     1     -33.423   7.016   5.712  1.00 20.00     0.008 A 
HETATM    3  C3  UNL     1     -34.503   5.159   3.868  1.00 20.00     0.143 A 
HETATM    4  C4  UNL     1     -33.144   7.220   4.431  1.00 20.00    -0.005 A 
HETATM    5  C5  UNL     1     -32.564   7.743   2.388  1.00 20.00     0.127 A 
HETATM    6  C6  UNL     1     -33.675   6.294   3.443  1.00 20.00     0.085 A 
HETATM    7  C7  UNL     1     -34.271   5.856   6.156  1.00 20.00     0.176 A 
HETATM    8  N8  UNL     1     -34.778   4.954   5.103  1.00 20.00    -0.296 NA
HETATM    9  N9  UNL     1     -33.336   6.595   2.221  1.00 20.00    -0.235 NA
HETATM   10 CL10 UNL     1     -31.878   8.530   1.036  1.00 20.00    -0.062 Cl
ENDROOT
TORSDOF 0
