REMARK  0 active torsions:
REMARK  status: ('A' for Active; 'I' for Inactive)
ROOT
HETATM    1  C1  UNL     1     -32.794   8.331   5.039  1.00 20.00     0.006 A 
HETATM    2  C2  UNL     1     -33.507   7.220   4.878  1.00 20.00    -0.008 A 
HETATM    3  C3  UNL     1     -32.891   6.610   3.699  1.00 20.00     0.038 A 
HETATM    4  C4  UNL     1     -31.716   8.427   4.014  1.00 20.00     0.177 A 
HETATM    5  C5  UNL     1     -34.663   6.615   5.572  1.00 20.00     0.310 C 
HETATM    6  C6  UNL     1     -33.486   5.349   3.137  1.00 20.00     0.089 C 
HETATM    7  C7  UNL     1     -34.445   4.683   4.129  1.00 20.00     0.276 C 
HETATM    8  N8  UNL     1     -31.878   7.225   3.160  1.00 20.00    -0.290 NA
HETATM    9  N9  UNL     1     -35.380   5.645   4.730  1.00 20.00     0.087 N 
HETATM   10  H19 UNL     1     -36.055   5.143   5.306  1.00 20.00     0.316 HD
ENDROOT
TORSDOF 0
