REMARK  1 active torsions:
REMARK  status: ('A' for Active; 'I' for Inactive)
REMARK    1  A    between atoms: C3_3  and  C6_6 
ROOT
HETATM    1  C1  UNL     1     -33.307   7.573   1.862  1.00 20.00     0.055 A 
HETATM    2  C2  UNL     1     -33.165   6.979   4.161  1.00 20.00     0.160 A 
HETATM    3  C3  UNL     1     -32.121   8.285   2.004  1.00 20.00    -0.001 A 
HETATM    4  C4  UNL     1     -33.846   6.905   2.956  1.00 20.00     0.134 A 
HETATM    5  C5  UNL     1     -31.518   8.298   3.251  1.00 20.00     0.133 A 
HETATM    6  N7  UNL     1     -32.011   7.661   4.337  1.00 20.00    -0.245 NA
HETATM    7  F8  UNL     1     -34.986   6.213   2.849  1.00 20.00    -0.205 F 
HETATM    8 CL9  UNL     1     -30.051   9.143   3.554  1.00 20.00    -0.062 Cl
ENDROOT
BRANCH   3   9
HETATM    9  C6  UNL     1     -31.548   8.998   0.828  1.00 20.00     0.156 C 
HETATM   10 CL10 UNL     1     -32.467  10.480   0.481  1.00 20.00    -0.125 Cl
ENDBRANCH   3   9
TORSDOF 1
