REMARK  2 active torsions:
REMARK  status: ('A' for Active; 'I' for Inactive)
REMARK    1  A    between atoms: C1_1  and  C3_3 
REMARK    2  A    between atoms: C1_1  and  C5_5 
ROOT
HETATM    1  C2  UNL     1     -32.853   5.857   2.765  1.00 20.00     0.098 A 
HETATM    2  C3  UNL     1     -33.402   7.245   2.509  1.00 20.00     0.134 A 
HETATM    3  C4  UNL     1     -33.779   6.491   3.734  1.00 20.00     0.255 A 
HETATM    4  F7  UNL     1     -35.059   6.011   3.892  1.00 20.00    -0.205 F 
HETATM    5  F8  UNL     1     -33.330   6.879   4.976  1.00 20.00    -0.205 F 
ENDROOT
BRANCH   2   6
HETATM    6  C1  UNL     1     -32.503   8.399   2.613  1.00 20.00     0.146 C 
HETATM    7  O6  UNL     1     -31.604   8.413   3.452  1.00 20.00    -0.297 OA
BRANCH   6   8
HETATM    8  C5  UNL     1     -32.770   9.520   1.637  1.00 20.00     0.164 C 
HETATM    9 BR9  UNL     1     -31.719   9.273   0.028  1.00 20.00    -0.089 Br
ENDBRANCH   6   8
ENDBRANCH   2   6
TORSDOF 2
