REMARK  2 active torsions:
REMARK  status: ('A' for Active; 'I' for Inactive)
REMARK    1  A    between atoms: C4_4  and  C6_6 
REMARK    2  A    between atoms: C6_6  and  O7_7 
ROOT
HETATM    1  C1  UNL     1     -33.606   7.011   4.734  1.00 20.00     0.013 C 
HETATM    2  C2  UNL     1     -32.585   7.908   4.052  1.00 20.00     0.079 C 
HETATM    3  C3  UNL     1     -33.182   6.216   2.450  1.00 20.00     0.085 C 
HETATM    4  C4  UNL     1     -33.678   5.766   3.837  1.00 20.00     0.015 C 
HETATM    5  C5  UNL     1     -32.916   7.703   2.591  1.00 20.00     0.244 C 
HETATM    6  F8  UNL     1     -34.032   8.402   2.270  1.00 20.00    -0.206 F 
HETATM    7  F9  UNL     1     -31.927   8.120   1.781  1.00 20.00    -0.206 F 
ENDROOT
BRANCH   4   8
HETATM    8  C6  UNL     1     -35.072   5.158   3.801  1.00 20.00     0.168 C 
BRANCH   8   9
HETATM    9  O7  UNL     1     -35.436   4.771   5.116  1.00 20.00    -0.400 OA
HETATM   10  H19 UNL     1     -36.327   4.387   5.062  1.00 20.00     0.209 HD
ENDBRANCH   8   9
ENDBRANCH   4   8
TORSDOF 2
