REMARK  0 active torsions:
REMARK  status: ('A' for Active; 'I' for Inactive)
ROOT
HETATM    1  C1  UNL     1     -33.962   5.422   4.551  1.00 20.00     0.116 A 
HETATM    2  C2  UNL     1     -33.567   6.294   2.316  1.00 20.00     0.084 A 
HETATM    3  C3  UNL     1     -33.877   5.225   3.230  1.00 20.00     0.124 A 
HETATM    4  C4  UNL     1     -33.359   7.519   2.811  1.00 20.00     0.109 A 
HETATM    5  C5  UNL     1     -33.729   6.793   5.099  1.00 20.00     0.249 A 
HETATM    6  N6  UNL     1     -33.436   7.769   4.158  1.00 20.00    -0.314 N 
HETATM    7  O7  UNL     1     -33.802   6.999   6.307  1.00 20.00    -0.268 OA
HETATM    8  F8  UNL     1     -34.084   3.996   2.714  1.00 20.00    -0.206 F 
HETATM    9 CL9  UNL     1     -32.983   8.883   1.853  1.00 20.00    -0.064 Cl
HETATM   10  H12 UNL     1     -33.267   8.721   4.469  1.00 20.00     0.170 HD
ENDROOT
TORSDOF 0
