REMARK  2 active torsions:
REMARK  status: ('A' for Active; 'I' for Inactive)
REMARK    1  A    between atoms: C4_4  and  O9_9 
REMARK    2  A    between atoms: C7_7  and  O9_9 
ROOT
HETATM    1  C1  UNL     1     -33.890   6.604   4.255  1.00 20.00     0.155 C 
HETATM    2  C2  UNL     1     -33.918   5.072   4.392  1.00 20.00     0.084 C 
HETATM    3  C3  UNL     1     -33.131   5.013   3.063  1.00 20.00     0.047 C 
HETATM    4  C4  UNL     1     -33.383   6.521   2.803  1.00 20.00     0.191 C 
HETATM    5  O8  UNL     1     -34.157   7.519   5.004  1.00 20.00    -0.295 OA
ENDROOT
BRANCH   4   6
HETATM    6  O9  UNL     1     -32.223   7.328   2.550  1.00 20.00    -0.374 OA
BRANCH   6   7
HETATM    7  C7  UNL     1     -32.424   8.167   1.427  1.00 20.00     0.114 C 
HETATM    8  C5  UNL     1     -33.051   9.475   1.885  1.00 20.00     0.039 C 
HETATM    9  C6  UNL     1     -31.093   8.392   0.725  1.00 20.00     0.039 C 
ENDBRANCH   6   7
ENDBRANCH   4   6
TORSDOF 2
