REMARK  1 active torsions:
REMARK  status: ('A' for Active; 'I' for Inactive)
REMARK    1  A    between atoms: C1_1  and  C5_5 
ROOT
HETATM    1  C3  UNL     1     -33.018   9.610  -0.090  1.00 20.00     0.009 A 
HETATM    2  C4  UNL     1     -31.998  10.536   0.502  1.00 20.00     0.009 A 
HETATM    3  C5  UNL     1     -31.954   9.066   0.825  1.00 20.00     0.009 A 
ENDROOT
BRANCH   3   4
HETATM    4  C1  UNL     1     -32.329   8.626   2.159  1.00 20.00    -0.015 C 
HETATM    5  C2  UNL     1     -32.794   7.402   2.430  1.00 20.00     0.052 C 
HETATM    6 BR6  UNL     1     -33.277   6.818   4.122  1.00 20.00    -0.064 Br
ENDBRANCH   3   4
TORSDOF 1
