REMARK  0 active torsions:
REMARK  status: ('A' for Active; 'I' for Inactive)
ROOT
HETATM    1  C1  UNL     1     -34.355   6.911   6.040  1.00 20.00     0.032 A 
HETATM    2  C2  UNL     1     -33.264   8.354   4.149  1.00 20.00     0.040 A 
HETATM    3  C3  UNL     1     -32.561   6.929   2.359  1.00 20.00     0.142 A 
HETATM    4  C4  UNL     1     -34.548   5.548   6.103  1.00 20.00     0.093 A 
HETATM    5  C5  UNL     1     -33.719   7.198   4.803  1.00 20.00     0.013 A 
HETATM    6  C6  UNL     1     -32.672   8.204   2.897  1.00 20.00     0.052 A 
HETATM    7  C7  UNL     1     -33.545   5.982   4.148  1.00 20.00     0.139 A 
HETATM    8  C8  UNL     1     -34.069   3.582   4.641  1.00 20.00     0.157 C 
HETATM    9  N9  UNL     1     -32.981   5.781   2.942  1.00 20.00    -0.241 NA
HETATM   10  N10 UNL     1     -34.052   4.994   4.951  1.00 20.00    -0.345 N 
HETATM   11 CL11 UNL     1     -32.092   9.572   2.036  1.00 20.00    -0.083 Cl
ENDROOT
TORSDOF 0
