REMARK  0 active torsions:
REMARK  status: ('A' for Active; 'I' for Inactive)
ROOT
HETATM    1  C1  UNL     1     -33.309   8.379   2.528  1.00 20.00    -0.025 C 
HETATM    2  C2  UNL     1     -33.917   8.613   3.702  1.00 20.00    -0.025 C 
HETATM    3  C3  UNL     1     -33.255   4.553   2.795  1.00 20.00    -0.024 C 
HETATM    4  C4  UNL     1     -33.661   3.983   3.933  1.00 20.00    -0.025 C 
HETATM    5  C5  UNL     1     -32.230   7.104   4.116  1.00 20.00     0.018 C 
HETATM    6  C6  UNL     1     -32.634   7.031   2.638  1.00 20.00     0.016 C 
HETATM    7  C7  UNL     1     -33.652   7.414   4.593  1.00 20.00     0.014 C 
HETATM    8  C8  UNL     1     -33.749   5.956   2.651  1.00 20.00     0.021 C 
HETATM    9  C9  UNL     1     -34.516   4.889   4.767  1.00 20.00     0.009 C 
HETATM   10  C10 UNL     1     -34.487   6.237   4.012  1.00 20.00     0.009 C 
HETATM   11  C11 UNL     1     -34.082   4.939   6.225  1.00 20.00     0.014 C 
ENDROOT
TORSDOF 0
