REMARK  0 active torsions:
REMARK  status: ('A' for Active; 'I' for Inactive)
ROOT
HETATM    1  C1  UNL     1     -34.637   6.272   4.219  1.00 20.00     0.031 C 
HETATM    2  C2  UNL     1     -34.683   5.137   5.228  1.00 20.00     0.075 C 
HETATM    3  C3  UNL     1     -33.142   4.732   3.061  1.00 20.00     0.094 C 
HETATM    4  C4  UNL     1     -33.281   6.171   3.533  1.00 20.00     0.092 C 
HETATM    5  S5  UNL     1     -33.860   3.743   4.406  1.00 20.00    -0.168 SA
HETATM    6 CL6  UNL     1     -33.162   7.305   2.171  1.00 20.00    -0.124 Cl
ENDROOT
TORSDOF 0
