REMARK  1 active torsions:
REMARK  status: ('A' for Active; 'I' for Inactive)
REMARK    1  A    between atoms: C4_4  and  C11_11 
ROOT
HETATM    1  C1  UNL     1     -33.616   7.784   6.010  1.00 20.00     0.003 A 
HETATM    2  C2  UNL     1     -32.860   8.351   4.972  1.00 20.00     0.008 A 
HETATM    3  C3  UNL     1     -34.231   6.540   5.846  1.00 20.00     0.029 A 
HETATM    4  C4  UNL     1     -32.712   7.685   3.754  1.00 20.00    -0.045 A 
HETATM    5  C5  UNL     1     -33.319   6.450   3.611  1.00 20.00    -0.024 A 
HETATM    6  C6  UNL     1     -34.057   5.872   4.647  1.00 20.00     0.035 A 
HETATM    7  C7  UNL     1     -33.371   5.561   2.412  1.00 20.00     0.061 C 
HETATM    8  C10 UNL     1     -34.001   4.282   3.005  1.00 20.00     0.124 C 
HETATM    9  N12 UNL     1     -34.627   4.658   4.267  1.00 20.00    -0.389 N 
HETATM   10  H25 UNL     1     -34.953   3.984   4.945  1.00 20.00     0.159 HD
ENDROOT
BRANCH   4  11
HETATM   11  C11 UNL     1     -31.931   8.301   2.647  1.00 20.00     0.019 A 
HETATM   12  C8  UNL     1     -32.306   9.679   2.161  1.00 20.00     0.010 A 
HETATM   13  C9  UNL     1     -32.584   8.486   1.300  1.00 20.00     0.010 A 
ENDBRANCH   4  11
TORSDOF 1
