REMARK  0 active torsions:
REMARK  status: ('A' for Active; 'I' for Inactive)
ROOT
HETATM    1  C1  UNL     1     -31.848   7.981   3.020  1.00 20.00    -0.025 C 
HETATM    2  C2  UNL     1     -32.250   6.919   2.296  1.00 20.00    -0.025 C 
HETATM    3  C3  UNL     1     -33.528   7.257   6.121  1.00 20.00    -0.024 C 
HETATM    4  C4  UNL     1     -34.219   6.101   6.252  1.00 20.00    -0.025 C 
HETATM    5  C5  UNL     1     -34.078   8.233   2.520  1.00 20.00     0.018 C 
HETATM    6  C6  UNL     1     -33.071   8.597   3.657  1.00 20.00     0.016 C 
HETATM    7  C7  UNL     1     -33.746   6.733   2.550  1.00 20.00     0.014 C 
HETATM    8  C8  UNL     1     -33.751   7.739   4.736  1.00 20.00     0.021 C 
HETATM    9  C9  UNL     1     -34.794   5.625   4.906  1.00 20.00     0.009 C 
HETATM   10  C10 UNL     1     -33.780   6.351   4.043  1.00 20.00     0.009 C 
HETATM   11  C11 UNL     1     -34.754   4.118   4.723  1.00 20.00     0.014 C 
ENDROOT
TORSDOF 0
