REMARK  1 active torsions:
REMARK  status: ('A' for Active; 'I' for Inactive)
REMARK    1  A    between atoms: C3_3  and  C6_6 
ROOT
HETATM    1  C1  UNL     1     -34.087   5.963   2.388  1.00 20.00    -0.025 C 
HETATM    2  C2  UNL     1     -34.231   6.221   3.696  1.00 20.00    -0.026 C 
HETATM    3  C4  UNL     1     -33.657   6.985   1.363  1.00 20.00     0.015 C 
HETATM    4  C5  UNL     1     -33.957   7.569   4.318  1.00 20.00     0.008 C 
HETATM    5  C6  UNL     1     -33.612   8.410   1.967  1.00 20.00     0.066 C 
HETATM    6  C7  UNL     1     -33.067   8.470   3.415  1.00 20.00     0.000 C 
HETATM    7  C9  UNL     1     -32.368   6.519   0.677  1.00 20.00     0.015 C 
HETATM    8  C10 UNL     1     -33.403   7.412   5.737  1.00 20.00     0.014 C 
HETATM    9  C11 UNL     1     -31.572   8.140   3.524  1.00 20.00     0.011 C 
ENDROOT
BRANCH   5  10
HETATM   10  C3  UNL     1     -32.962   9.418   1.062  1.00 20.00     0.128 C 
HETATM   11  C8  UNL     1     -32.999  10.854   1.512  1.00 20.00     0.091 C 
HETATM   12  O12 UNL     1     -32.424   9.086   0.007  1.00 20.00    -0.298 OA
ENDBRANCH   5  10
TORSDOF 1
