REMARK  0 active torsions:
REMARK  status: ('A' for Active; 'I' for Inactive)
ROOT
HETATM    1  C1  UNL     1     -31.886   8.146   1.532  1.00 20.00     0.104 C 
HETATM    2  C2  UNL     1     -33.332   6.910   4.729  1.00 20.00     0.107 A 
HETATM    3  C3  UNL     1     -33.673   6.557   2.045  1.00 20.00     0.145 A 
HETATM    4  C4  UNL     1     -32.695   7.441   2.472  1.00 20.00     0.100 A 
HETATM    5  C5  UNL     1     -32.527   7.615   3.841  1.00 20.00     0.142 A 
HETATM    6  C6  UNL     1     -34.282   6.051   4.202  1.00 20.00     0.212 A 
HETATM    7  N7  UNL     1     -31.228   8.721   0.768  1.00 20.00    -0.191 NA
HETATM    8  N8  UNL     1     -34.474   5.855   2.878  1.00 20.00    -0.231 NA
HETATM    9  F9  UNL     1     -31.597   8.456   4.317  1.00 20.00    -0.204 F 
HETATM   10  F10 UNL     1     -35.065   5.364   5.048  1.00 20.00    -0.184 F 
ENDROOT
TORSDOF 0
