REMARK  0 active torsions:
REMARK  status: ('A' for Active; 'I' for Inactive)
ROOT
HETATM    1  C1  UNL     1     -32.910   5.976   2.485  1.00 20.00    -0.026 C 
HETATM    2  C2  UNL     1     -33.819   5.284   3.185  1.00 20.00    -0.025 C 
HETATM    3  C3  UNL     1     -32.956   7.795   4.233  1.00 20.00     0.012 C 
HETATM    4  C4  UNL     1     -32.238   7.219   3.001  1.00 20.00     0.004 C 
HETATM    5  C5  UNL     1     -34.250   5.642   4.588  1.00 20.00     0.007 C 
HETATM    6  C6  UNL     1     -33.313   6.692   5.242  1.00 20.00    -0.011 C 
HETATM    7  C7  UNL     1     -32.143   8.282   1.905  1.00 20.00     0.014 C 
HETATM    8  C8  UNL     1     -34.337   4.368   5.436  1.00 20.00     0.014 C 
HETATM    9  C9  UNL     1     -33.938   7.316   6.494  1.00 20.00     0.010 C 
ENDROOT
TORSDOF 0
