REMARK  0 active torsions:
REMARK  status: ('A' for Active; 'I' for Inactive)
ROOT
HETATM    1  C1  UNL     1     -33.731   5.530   4.074  1.00 20.00     0.008 C 
HETATM    2  C2  UNL     1     -33.332   5.516   2.793  1.00 20.00     0.028 C 
HETATM    3  C3  UNL     1     -32.775   7.713   4.580  1.00 20.00    -0.005 C 
HETATM    4  C4  UNL     1     -31.873   8.833   2.466  1.00 20.00     0.015 C 
HETATM    5  C5  UNL     1     -33.592   6.701   4.937  1.00 20.00    -0.065 C 
HETATM    6  C6  UNL     1     -32.311   8.532   1.236  1.00 20.00     0.028 C 
HETATM    7  C7  UNL     1     -32.724   6.775   2.325  1.00 20.00     0.046 C 
HETATM    8  C8  UNL     1     -31.965   7.625   3.329  1.00 20.00     0.085 C 
HETATM    9  C9  UNL     1     -34.381   6.703   6.210  1.00 20.00     0.048 C 
HETATM   10  C10 UNL     1     -32.332   9.439   0.058  1.00 20.00     0.070 C 
HETATM   11  N11 UNL     1     -32.824   7.261   1.126  1.00 20.00    -0.258 NA
ENDROOT
TORSDOF 0
