REMARK  0 active torsions:
REMARK  status: ('A' for Active; 'I' for Inactive)
ROOT
HETATM    1  C1  UNL     1     -34.027   3.873   5.047  1.00 20.00     0.002 C 
HETATM    2  C2  UNL     1     -33.997   4.138   3.731  1.00 20.00     0.030 C 
HETATM    3  C3  UNL     1     -33.963   4.916   6.057  1.00 20.00    -0.001 C 
HETATM    4  C4  UNL     1     -34.179   6.205   5.742  1.00 20.00     0.006 C 
HETATM    5  C5  UNL     1     -33.923   5.569   3.405  1.00 20.00     0.066 C 
HETATM    6  C6  UNL     1     -33.369   7.464   2.726  1.00 20.00     0.219 C 
HETATM    7  C7  UNL     1     -34.535   6.578   4.343  1.00 20.00     0.186 C 
HETATM    8  N8  UNL     1     -33.340   6.130   2.405  1.00 20.00    -0.221 NA
HETATM    9  N9  UNL     1     -33.936   7.827   3.839  1.00 20.00    -0.245 NA
HETATM   10 CL10 UNL     1     -32.604   8.585   1.706  1.00 20.00    -0.041 Cl
ENDROOT
TORSDOF 0
