REMARK  2 active torsions:
REMARK  status: ('A' for Active; 'I' for Inactive)
REMARK    1  A    between atoms: C6_6  and  C7_7 
REMARK    2  A    between atoms: C7_7  and  N8_8 
ROOT
HETATM    1  C1  UNL     1     -32.502   8.567   1.809  1.00 20.00     0.332 C 
HETATM    2  N8  UNL     1     -32.589   7.979   2.823  1.00 20.00    -0.247 NA
HETATM    3  O9  UNL     1     -32.415   9.156   0.795  1.00 20.00    -0.260 OA
ENDROOT
BRANCH   2   4
HETATM    4  C7  UNL     1     -33.105   6.620   2.693  1.00 20.00     0.161 C 
BRANCH   4   5
HETATM    5  C6  UNL     1     -34.380   6.496   3.518  1.00 20.00     0.028 C 
HETATM    6  C3  UNL     1     -34.268   7.224   4.823  1.00 20.00    -0.024 C 
HETATM    7  C2  UNL     1     -34.160   6.385   5.858  1.00 20.00    -0.030 C 
HETATM    8  C4  UNL     1     -34.176   4.960   5.421  1.00 20.00     0.027 C 
HETATM    9  C5  UNL     1     -34.654   5.054   3.970  1.00 20.00     0.014 C 
ENDBRANCH   4   5
ENDBRANCH   2   4
TORSDOF 2
