REMARK  1 active torsions:
REMARK  status: ('A' for Active; 'I' for Inactive)
REMARK    1  A    between atoms: C3_3  and  C7_7 
ROOT
HETATM    1  C1  UNL     1     -32.699   6.796   2.298  1.00 20.00     0.024 A 
HETATM    2  C2  UNL     1     -33.445   8.461   3.824  1.00 20.00     0.131 A 
HETATM    3  C3  UNL     1     -32.812   8.141   2.633  1.00 20.00     0.024 A 
HETATM    4  C4  UNL     1     -33.215   5.827   3.151  1.00 20.00    -0.021 A 
HETATM    5  C5  UNL     1     -33.829   6.251   4.318  1.00 20.00     0.131 A 
HETATM    6  C6  UNL     1     -33.090   4.387   2.787  1.00 20.00     0.051 C 
HETATM    7  N8  UNL     1     -33.958   7.548   4.678  1.00 20.00    -0.248 NA
HETATM    8 CL11 UNL     1     -34.504   5.148   5.453  1.00 20.00    -0.062 Cl
ENDROOT
BRANCH   3   9
HETATM    9  C7  UNL     1     -32.270   9.202   1.743  1.00 20.00     0.388 C 
HETATM   10  F9  UNL     1     -33.008  10.341   1.836  1.00 20.00    -0.209 F 
HETATM   11  F10 UNL     1     -32.323   8.818   0.439  1.00 20.00    -0.209 F 
ENDBRANCH   3   9
TORSDOF 1
