REMARK  0 active torsions:
REMARK  status: ('A' for Active; 'I' for Inactive)
ROOT
HETATM    1  C1  UNL     1     -32.310   8.691   0.580  1.00 20.00    -0.025 C 
HETATM    2  C2  UNL     1     -33.239   9.488   1.142  1.00 20.00    -0.025 C 
HETATM    3  C3  UNL     1     -32.716   5.751   2.639  1.00 20.00    -0.024 C 
HETATM    4  C4  UNL     1     -33.707   5.719   3.560  1.00 20.00    -0.025 C 
HETATM    5  C5  UNL     1     -31.566   9.342   2.656  1.00 20.00     0.018 C 
HETATM    6  C6  UNL     1     -31.459   8.119   1.689  1.00 20.00     0.016 C 
HETATM    7  C7  UNL     1     -33.104   9.350   2.658  1.00 20.00     0.014 C 
HETATM    8  C8  UNL     1     -32.174   7.130   2.625  1.00 20.00     0.021 C 
HETATM    9  C9  UNL     1     -34.077   7.119   4.074  1.00 20.00     0.009 C 
HETATM   10  C10 UNL     1     -33.507   7.881   2.892  1.00 20.00     0.009 C 
HETATM   11  C11 UNL     1     -33.506   7.469   5.437  1.00 20.00     0.014 C 
ENDROOT
TORSDOF 0
