REMARK  0 active torsions:
REMARK  status: ('A' for Active; 'I' for Inactive)
ROOT
HETATM    1  C1  UNL     1     -34.078   3.643   4.696  1.00 20.00     0.002 C 
HETATM    2  C2  UNL     1     -33.564   4.042   3.522  1.00 20.00     0.028 C 
HETATM    3  C3  UNL     1     -34.563   4.578   5.697  1.00 20.00    -0.003 C 
HETATM    4  C4  UNL     1     -34.818   5.861   5.386  1.00 20.00    -0.012 C 
HETATM    5  C5  UNL     1     -34.004   7.653   3.751  1.00 20.00     0.032 C 
HETATM    6  C6  UNL     1     -32.939   7.479   2.962  1.00 20.00     0.123 C 
HETATM    7  C7  UNL     1     -33.555   5.504   3.321  1.00 20.00     0.047 C 
HETATM    8  C8  UNL     1     -34.652   6.333   3.979  1.00 20.00     0.086 C 
HETATM    9  N9  UNL     1     -32.652   6.171   2.670  1.00 20.00    -0.241 NA
HETATM   10 CL10 UNL     1     -31.943   8.744   2.398  1.00 20.00    -0.063 Cl
ENDROOT
TORSDOF 0
