REMARK  2 active torsions:
REMARK  status: ('A' for Active; 'I' for Inactive)
REMARK    1  A    between atoms: C5_5  and  C6_6 
REMARK    2  A    between atoms: C7_7  and  O8_8 
ROOT
HETATM    1  C3  UNL     1     -33.971   6.401   2.486  1.00 20.00     0.010 C 
HETATM    2  C4  UNL     1     -33.736   6.219   3.997  1.00 20.00     0.032 C 
HETATM    3  C6  UNL     1     -33.227   7.758   2.594  1.00 20.00     0.018 C 
HETATM    4  C7  UNL     1     -32.528   7.174   3.860  1.00 20.00     0.122 C 
ENDROOT
BRANCH   3   5
HETATM    5  C5  UNL     1     -32.377   8.228   1.437  1.00 20.00    -0.008 A 
HETATM    6  C1  UNL     1     -32.922   9.036   0.292  1.00 20.00     0.005 A 
HETATM    7  C2  UNL     1     -31.954   9.660   1.258  1.00 20.00     0.005 A 
ENDBRANCH   3   5
BRANCH   4   8
HETATM    8  O8  UNL     1     -32.303   8.090   4.945  1.00 20.00    -0.395 OA
HETATM    9  H20 UNL     1     -32.161   7.542   5.728  1.00 20.00     0.210 HD
ENDBRANCH   4   8
TORSDOF 2
