REMARK  0 active torsions:
REMARK  status: ('A' for Active; 'I' for Inactive)
ROOT
HETATM    1  C1  UNL     1     -34.285   4.192   5.420  1.00 20.00     0.011 A 
HETATM    2  C2  UNL     1     -34.207   5.588   6.046  1.00 20.00     0.011 A 
HETATM    3  C3  UNL     1     -35.614   5.842   3.743  1.00 20.00     0.027 A 
HETATM    4  C4  UNL     1     -34.133   5.923   3.344  1.00 20.00     0.067 A 
HETATM    5  C5  UNL     1     -34.551   5.399   4.640  1.00 20.00    -0.026 A 
HETATM    6 BR6  UNL     1     -33.339   7.654   3.251  1.00 20.00    -0.090 Br
ENDROOT
TORSDOF 0
