REMARK  1 active torsions:
REMARK  status: ('A' for Active; 'I' for Inactive)
REMARK    1  A    between atoms: C4_4  and  C8_8 
ROOT
HETATM    1  C1  UNL     1     -34.055   5.395   4.136  1.00 20.00     0.079 A 
HETATM    2  C2  UNL     1     -32.924   7.639   4.132  1.00 20.00     0.088 A 
HETATM    3  C3  UNL     1     -33.492   5.214   2.941  1.00 20.00     0.146 A 
HETATM    4  C4  UNL     1     -32.412   7.339   2.925  1.00 20.00     0.064 A 
HETATM    5  C5  UNL     1     -33.795   6.670   4.831  1.00 20.00     0.176 A 
HETATM    6  O10 UNL     1     -34.275   6.913   5.932  1.00 20.00    -0.288 OA
HETATM    7  O11 UNL     1     -32.685   6.121   2.301  1.00 20.00    -0.326 OA
ENDROOT
BRANCH   4   8
HETATM    8  C8  UNL     1     -31.535   8.272   2.180  1.00 20.00     0.006 A 
HETATM    9  C6  UNL     1     -32.124   9.616   1.828  1.00 20.00     0.017 A 
HETATM   10  C7  UNL     1     -31.933   8.585   0.758  1.00 20.00     0.017 A 
HETATM   11  C9  UNL     1     -30.075   8.197   2.512  1.00 20.00     0.022 C 
ENDBRANCH   4   8
TORSDOF 1
