REMARK  0 active torsions:
REMARK  status: ('A' for Active; 'I' for Inactive)
ROOT
HETATM    1  C1  UNL     1     -34.317   7.400   5.185  1.00 20.00     0.147 A 
HETATM    2  C2  UNL     1     -33.738   7.568   3.915  1.00 20.00    -0.015 A 
HETATM    3  C3  UNL     1     -32.430   7.902   4.178  1.00 20.00     0.036 A 
HETATM    4  C4  UNL     1     -34.287   7.468   2.543  1.00 20.00     0.043 C 
HETATM    5  C5  UNL     1     -31.358   8.170   3.187  1.00 20.00     0.068 C 
HETATM    6  C6  UNL     1     -33.147   7.398   1.503  1.00 20.00     0.014 C 
HETATM    7  C7  UNL     1     -31.974   8.398   1.769  1.00 20.00    -0.042 C 
HETATM    8  C8  UNL     1     -30.879   8.171   0.711  1.00 20.00     0.015 C 
HETATM    9  C9  UNL     1     -32.472   9.852   1.635  1.00 20.00     0.015 C 
HETATM   10  N10 UNL     1     -33.444   7.606   6.178  1.00 20.00    -0.186 NA
HETATM   11  N11 UNL     1     -32.301   7.910   5.533  1.00 20.00    -0.282 N 
HETATM   12  H25 UNL     1     -31.476   8.113   6.084  1.00 20.00     0.189 HD
ENDROOT
TORSDOF 0
