REMARK  0 active torsions:
REMARK  status: ('A' for Active; 'I' for Inactive)
ROOT
HETATM    1  C1  UNL     1     -35.783   6.056   3.604  1.00 20.00     0.108 C 
HETATM    2  C2  UNL     1     -36.064   5.104   4.782  1.00 20.00     0.241 C 
HETATM    3  C3  UNL     1     -34.554   4.758   4.778  1.00 20.00     0.321 C 
HETATM    4  C4  UNL     1     -34.310   6.146   4.092  1.00 20.00     0.249 C 
HETATM    5  O5  UNL     1     -36.888   4.024   4.442  1.00 20.00    -0.229 OA
HETATM    6  F6  UNL     1     -34.171   3.695   4.030  1.00 20.00    -0.198 F 
HETATM    7  F7  UNL     1     -33.989   4.593   5.996  1.00 20.00    -0.198 F 
HETATM    8  F8  UNL     1     -33.394   6.107   3.092  1.00 20.00    -0.219 F 
HETATM    9 CL9  UNL     1     -33.922   7.512   5.182  1.00 20.00    -0.076 Cl
ENDROOT
TORSDOF 0
