REMARK  0 active torsions:
REMARK  status: ('A' for Active; 'I' for Inactive)
ROOT
HETATM    1  C1  UNL     1     -34.128   6.153   2.472  1.00 20.00     0.032 C 
HETATM    2  C2  UNL     1     -33.375   7.257   2.426  1.00 20.00     0.028 C 
HETATM    3  C3  UNL     1     -34.524   5.727   6.053  1.00 20.00     0.026 C 
HETATM    4  C4  UNL     1     -34.641   4.493   5.552  1.00 20.00     0.115 C 
HETATM    5  C5  UNL     1     -34.404   5.667   3.828  1.00 20.00     0.062 C 
HETATM    6  C6  UNL     1     -32.814   7.788   3.708  1.00 20.00     0.026 C 
HETATM    7  C7  UNL     1     -34.458   6.697   4.930  1.00 20.00     0.184 C 
HETATM    8  C8  UNL     1     -31.616   8.694   3.580  1.00 20.00     0.070 C 
HETATM    9  N9  UNL     1     -34.585   4.434   4.185  1.00 20.00    -0.263 NA
HETATM   10  N10 UNL     1     -33.256   7.516   4.894  1.00 20.00    -0.279 NA
ENDROOT
TORSDOF 0
