REMARK  0 active torsions:
REMARK  status: ('A' for Active; 'I' for Inactive)
ROOT
HETATM    1  C1  UNL     1     -34.327   4.856   6.086  1.00 20.00     0.002 C 
HETATM    2  C2  UNL     1     -34.263   6.167   5.807  1.00 20.00     0.028 C 
HETATM    3  C3  UNL     1     -34.090   3.830   5.084  1.00 20.00    -0.003 C 
HETATM    4  C4  UNL     1     -34.107   4.122   3.772  1.00 20.00    -0.012 C 
HETATM    5  C5  UNL     1     -33.611   6.097   2.223  1.00 20.00     0.027 C 
HETATM    6  C6  UNL     1     -33.053   7.234   2.654  1.00 20.00     0.100 C 
HETATM    7  C7  UNL     1     -33.958   6.481   4.397  1.00 20.00     0.047 C 
HETATM    8  C8  UNL     1     -34.424   5.509   3.322  1.00 20.00     0.085 C 
HETATM    9  N9  UNL     1     -33.268   7.498   3.983  1.00 20.00    -0.245 NA
HETATM   10 BR10 UNL     1     -32.009   8.374   1.647  1.00 20.00    -0.029 Br
ENDROOT
TORSDOF 0
