REMARK  0 active torsions:
REMARK  status: ('A' for Active; 'I' for Inactive)
ROOT
HETATM    1  C1  UNL     1     -34.535   6.032   6.469  1.00 20.00     0.002 C 
HETATM    2  C2  UNL     1     -34.650   4.956   5.675  1.00 20.00     0.028 C 
HETATM    3  C3  UNL     1     -33.938   7.278   6.017  1.00 20.00    -0.003 C 
HETATM    4  C4  UNL     1     -33.758   7.530   4.709  1.00 20.00    -0.012 C 
HETATM    5  C5  UNL     1     -33.330   6.250   2.536  1.00 20.00     0.007 C 
HETATM    6  C6  UNL     1     -33.072   4.938   2.506  1.00 20.00     0.114 C 
HETATM    7  C7  UNL     1     -34.143   5.149   4.301  1.00 20.00     0.045 C 
HETATM    8  C8  UNL     1     -34.221   6.542   3.690  1.00 20.00     0.084 C 
HETATM    9  N9  UNL     1     -33.575   4.239   3.571  1.00 20.00    -0.265 NA
ENDROOT
TORSDOF 0
