REMARK  0 active torsions:
REMARK  status: ('A' for Active; 'I' for Inactive)
ROOT
HETATM    1  C1  UNL     1     -33.308   4.804   3.048  1.00 20.00    -0.011 A 
HETATM    2  C2  UNL     1     -33.410   6.133   3.204  1.00 20.00    -0.011 A 
HETATM    3  C3  UNL     1     -34.328   4.122   3.927  1.00 20.00     0.033 A 
HETATM    4  C4  UNL     1     -34.381   6.171   5.596  1.00 20.00     0.016 A 
HETATM    5  C5  UNL     1     -34.459   6.553   4.144  1.00 20.00     0.030 A 
HETATM    6  C6  UNL     1     -35.067   5.247   4.626  1.00 20.00    -0.002 A 
HETATM    7 BR7  UNL     1     -32.383   7.421   2.383  1.00 20.00    -0.056 Br
ENDROOT
TORSDOF 0
