REMARK  0 active torsions:
REMARK  status: ('A' for Active; 'I' for Inactive)
ROOT
HETATM    1  C1  UNL     1     -34.216   6.217   5.522  1.00 20.00    -0.075 C 
HETATM    2  C2  UNL     1     -33.940   7.117   6.468  1.00 20.00     0.015 C 
HETATM    3  C3  UNL     1     -34.187   4.706   5.504  1.00 20.00     0.036 C 
HETATM    4  C4  UNL     1     -35.058   4.846   4.239  1.00 20.00     0.024 C 
HETATM    5  C5  UNL     1     -34.680   6.338   4.085  1.00 20.00     0.086 C 
HETATM    6 BR6  UNL     1     -33.241   6.725   2.850  1.00 20.00    -0.086 Br
ENDROOT
TORSDOF 0
