REMARK  1 active torsions:
REMARK  status: ('A' for Active; 'I' for Inactive)
REMARK    1  A    between atoms: C9_9  and  C10_10 
ROOT
HETATM    1  C1  UNL     1     -32.804   9.968   0.470  1.00 20.00     0.001 A 
HETATM    2  C2  UNL     1     -31.544   9.231   0.321  1.00 20.00     0.001 A 
HETATM    3  C3  UNL     1     -33.634   9.767   1.514  1.00 20.00     0.012 A 
HETATM    4  C4  UNL     1     -31.140   8.309   1.219  1.00 20.00     0.012 A 
HETATM    5  C5  UNL     1     -33.872   8.392   3.623  1.00 20.00     0.009 A 
HETATM    6  C6  UNL     1     -31.846   7.207   3.383  1.00 20.00     0.009 A 
HETATM    7  C7  UNL     1     -33.248   8.791   2.505  1.00 20.00    -0.028 A 
HETATM    8  C8  UNL     1     -31.994   8.057   2.357  1.00 20.00    -0.028 A 
HETATM    9  C10 UNL     1     -33.029   7.346   4.312  1.00 20.00     0.082 A 
HETATM   10  C11 UNL     1     -32.635   7.734   5.727  1.00 20.00     0.035 C 
ENDROOT
BRANCH   9  11
HETATM   11  C9  UNL     1     -33.794   6.040   4.305  1.00 20.00     0.189 C 
HETATM   12  O12 UNL     1     -34.543   5.849   5.302  1.00 20.00    -0.647 OA
HETATM   13  O13 UNL     1     -33.582   5.308   3.297  1.00 20.00    -0.647 OA
ENDBRANCH   9  11
TORSDOF 1
