REMARK  0 active torsions:
REMARK  status: ('A' for Active; 'I' for Inactive)
ROOT
HETATM    1  C1  UNL     1     -34.619   4.808   4.071  1.00 20.00     0.001 C 
HETATM    2  C2  UNL     1     -32.136   8.306   1.607  1.00 20.00     0.001 C 
HETATM    3  C3  UNL     1     -33.645   5.105   2.922  1.00 20.00     0.005 C 
HETATM    4  C4  UNL     1     -32.521   6.845   1.443  1.00 20.00     0.005 C 
HETATM    5  C5  UNL     1     -34.130   5.267   5.447  1.00 20.00     0.005 C 
HETATM    6  C6  UNL     1     -31.931   8.489   3.110  1.00 20.00     0.005 C 
HETATM    7  C7  UNL     1     -33.282   7.576   6.314  1.00 20.00     0.010 A 
HETATM    8  C8  UNL     1     -33.413   6.595   2.657  1.00 20.00    -0.010 C 
HETATM    9  C9  UNL     1     -34.350   6.733   5.669  1.00 20.00    -0.010 A 
HETATM   10  C10 UNL     1     -32.661   7.317   3.788  1.00 20.00    -0.006 C 
HETATM   11  C11 UNL     1     -33.610   7.766   4.857  1.00 20.00    -0.006 A 
ENDROOT
TORSDOF 0
