REMARK  0 active torsions:
REMARK  status: ('A' for Active; 'I' for Inactive)
ROOT
HETATM    1  C1  UNL     1     -33.202   7.128   2.106  1.00 20.00     0.017 A 
HETATM    2  C2  UNL     1     -33.912   6.010   2.306  1.00 20.00     0.054 A 
HETATM    3  C3  UNL     1     -33.643   6.288   4.789  1.00 20.00     0.060 A 
HETATM    4  C4  UNL     1     -32.929   7.411   4.603  1.00 20.00    -0.044 A 
HETATM    5  C5  UNL     1     -32.631   7.951   3.224  1.00 20.00     0.221 A 
HETATM    6  C6  UNL     1     -34.211   5.465   3.669  1.00 20.00     0.280 A 
HETATM    7  C7  UNL     1     -32.382   8.203   5.755  1.00 20.00     0.046 C 
HETATM    8  F8  UNL     1     -31.281   8.057   3.054  1.00 20.00    -0.240 F 
HETATM    9  F9  UNL     1     -35.561   5.359   3.827  1.00 20.00    -0.197 F 
HETATM   10  F10 UNL     1     -33.735   4.190   3.760  1.00 20.00    -0.197 F 
ENDROOT
TORSDOF 0
