REMARK  0 active torsions:
REMARK  status: ('A' for Active; 'I' for Inactive)
ROOT
HETATM    1  C1  UNL     1     -32.098   7.524   1.888  1.00 20.00     0.021 A 
HETATM    2  C2  UNL     1     -33.362   6.872   2.247  1.00 20.00     0.029 A 
HETATM    3  C3  UNL     1     -34.899   5.269   5.037  1.00 20.00     0.025 A 
HETATM    4  C4  UNL     1     -31.338   8.069   2.862  1.00 20.00     0.107 A 
HETATM    5  C5  UNL     1     -33.506   7.243   5.763  1.00 20.00     0.101 C 
HETATM    6  C6  UNL     1     -34.840   6.332   4.258  1.00 20.00     0.038 A 
HETATM    7  C7  UNL     1     -34.638   6.495   5.738  1.00 20.00     0.028 A 
HETATM    8  C8  UNL     1     -33.676   6.822   3.553  1.00 20.00     0.044 A 
HETATM    9  N9  UNL     1     -31.717   8.016   4.191  1.00 20.00    -0.306 N 
HETATM   10  N10 UNL     1     -32.858   7.369   4.544  1.00 20.00    -0.274 N 
HETATM   11  H16 UNL     1     -31.094   8.384   4.900  1.00 20.00     0.186 HD
ENDROOT
TORSDOF 0
