REMARK  0 active torsions:
REMARK  status: ('A' for Active; 'I' for Inactive)
ROOT
HETATM    1  C1  UNL     1     -32.162   8.566   1.057  1.00 20.00     0.003 A 
HETATM    2  C2  UNL     1     -31.828   9.055   2.260  1.00 20.00     0.034 A 
HETATM    3  C3  UNL     1     -32.969   7.372   1.148  1.00 20.00     0.018 A 
HETATM    4  C4  UNL     1     -34.443   5.178   5.870  1.00 20.00     0.014 A 
HETATM    5  C5  UNL     1     -33.692   6.288   5.848  1.00 20.00     0.118 A 
HETATM    6  C6  UNL     1     -33.166   7.077   2.424  1.00 20.00     0.042 A 
HETATM    7  C7  UNL     1     -32.458   8.121   3.187  1.00 20.00     0.091 A 
HETATM    8  C8  UNL     1     -33.737   6.229   3.463  1.00 20.00     0.158 A 
HETATM    9  C9  UNL     1     -34.890   4.521   4.581  1.00 20.00     0.180 A 
HETATM   10  N10 UNL     1     -32.544   7.989   4.475  1.00 20.00    -0.166 NA
HETATM   11  N11 UNL     1     -34.452   5.172   3.313  1.00 20.00    -0.267 NA
HETATM   12  N12 UNL     1     -33.324   6.835   4.651  1.00 20.00    -0.226 N 
ENDROOT
TORSDOF 0
