REMARK  1 active torsions:
REMARK  status: ('A' for Active; 'I' for Inactive)
REMARK    1  A    between atoms: C4_4  and  C7_7 
ROOT
HETATM    1  C1  UNL     1     -34.095   7.317   5.991  1.00 20.00     0.014 C 
HETATM    2  C2  UNL     1     -33.522   7.212   4.942  1.00 20.00    -0.091 C 
HETATM    3  C3  UNL     1     -31.546   7.847   3.495  1.00 20.00     0.046 A 
HETATM    4  C4  UNL     1     -32.787   8.297   2.776  1.00 20.00     0.024 A 
HETATM    5  C5  UNL     1     -32.838   7.087   3.687  1.00 20.00     0.103 A 
HETATM    6 CL8  UNL     1     -32.937   5.467   2.992  1.00 20.00    -0.105 Cl
ENDROOT
BRANCH   4   7
HETATM    7  C7  UNL     1     -32.864   8.197   1.291  1.00 20.00     0.003 C 
HETATM    8  C6  UNL     1     -32.180   9.341   0.588  1.00 20.00     0.005 C 
ENDBRANCH   4   7
TORSDOF 1
