REMARK  0 active torsions:
REMARK  status: ('A' for Active; 'I' for Inactive)
ROOT
HETATM    1  C1  UNL     1     -35.908   6.049   3.452  1.00 20.00     0.005 C 
HETATM    2  C2  UNL     1     -33.977   4.622   4.151  1.00 20.00     0.005 C 
HETATM    3  C3  UNL     1     -35.306   6.171   2.044  1.00 20.00     0.011 C 
HETATM    4  C4  UNL     1     -33.377   4.747   2.743  1.00 20.00     0.011 C 
HETATM    5  C5  UNL     1     -33.862   7.107   4.431  1.00 20.00     0.084 C 
HETATM    6  C6  UNL     1     -34.792   5.880   4.499  1.00 20.00    -0.009 C 
HETATM    7  C7  UNL     1     -33.771   6.095   2.117  1.00 20.00     0.058 C 
HETATM    8  C8  UNL     1     -33.270   7.221   3.027  1.00 20.00     0.247 C 
HETATM    9  F9  UNL     1     -33.593   8.425   2.491  1.00 20.00    -0.206 F 
HETATM   10  F10 UNL     1     -31.915   7.188   3.098  1.00 20.00    -0.206 F 
ENDROOT
TORSDOF 0
