REMARK  1 active torsions:
REMARK  status: ('A' for Active; 'I' for Inactive)
REMARK    1  A    between atoms: C7_7  and  C11_11 
ROOT
HETATM    1  C1  UNL     1     -33.907   5.173   4.285  1.00 20.00    -0.084 C 
HETATM    2  C2  UNL     1     -34.115   3.942   4.765  1.00 20.00     0.014 C 
HETATM    3  C3  UNL     1     -33.015   5.499   3.107  1.00 20.00     0.044 C 
HETATM    4  C4  UNL     1     -34.727   7.287   2.276  1.00 20.00     0.016 A 
HETATM    5  C5  UNL     1     -34.602   6.438   4.760  1.00 20.00     0.014 C 
HETATM    6  C6  UNL     1     -34.303   7.489   3.708  1.00 20.00     0.003 A 
HETATM    7  C7  UNL     1     -33.324   6.931   2.716  1.00 20.00    -0.029 A 
HETATM    8  C8  UNL     1     -34.090   6.877   6.130  1.00 20.00     0.015 C 
ENDROOT
BRANCH   7   9
HETATM    9  C11 UNL     1     -32.181   7.768   2.236  1.00 20.00    -0.014 C 
HETATM   10  C9  UNL     1     -32.639   9.182   1.842  1.00 20.00     0.010 C 
HETATM   11  C10 UNL     1     -31.068   7.868   3.293  1.00 20.00     0.010 C 
ENDBRANCH   7   9
TORSDOF 1
