REMARK  0 active torsions:
REMARK  status: ('A' for Active; 'I' for Inactive)
ROOT
HETATM    1  C1  UNL     1     -33.691   6.806   5.061  1.00 20.00    -0.007 A 
HETATM    2  C2  UNL     1     -33.684   6.786   3.720  1.00 20.00    -0.014 A 
HETATM    3  C3  UNL     1     -34.543   5.658   3.208  1.00 20.00     0.051 A 
HETATM    4  C4  UNL     1     -34.192   4.301   5.450  1.00 20.00     0.014 A 
HETATM    5  C5  UNL     1     -34.528   5.751   5.654  1.00 20.00     0.014 A 
HETATM    6  C6  UNL     1     -35.090   4.996   4.461  1.00 20.00    -0.002 A 
HETATM    7 BR7  UNL     1     -32.795   7.894   2.562  1.00 20.00    -0.056 Br
ENDROOT
TORSDOF 0
