REMARK  0 active torsions:
REMARK  status: ('A' for Active; 'I' for Inactive)
ROOT
HETATM    1  C1  UNL     1     -34.325   4.831   4.490  1.00 20.00    -0.064 A 
HETATM    2  C2  UNL     1     -33.868   3.634   4.777  1.00 20.00     0.016 C 
HETATM    3  C3  UNL     1     -33.472   7.097   5.346  1.00 20.00     0.017 A 
HETATM    4  C4  UNL     1     -32.982   6.931   3.886  1.00 20.00     0.017 A 
HETATM    5  C5  UNL     1     -35.427   5.622   4.021  1.00 20.00     0.099 A 
HETATM    6  C6  UNL     1     -34.118   6.199   4.411  1.00 20.00     0.000 A 
HETATM    7 BR7  UNL     1     -36.903   5.813   5.201  1.00 20.00    -0.085 Br
ENDROOT
TORSDOF 0
