REMARK  2 active torsions:
REMARK  status: ('A' for Active; 'I' for Inactive)
REMARK    1  A    between atoms: C1_1  and  C6_6 
REMARK    2  A    between atoms: C2_2  and  C8_8 
ROOT
HETATM    1  C1  UNL     1     -32.928   8.120   2.519  1.00 20.00    -0.100 C 
HETATM    2  C2  UNL     1     -33.344   7.045   2.855  1.00 20.00    -0.088 C 
ENDROOT
BRANCH   1   3
HETATM    3  C6  UNL     1     -32.432   9.403   2.117  1.00 20.00     0.069 A 
HETATM    4  C5  UNL     1     -33.237  10.216   1.135  1.00 20.00     0.023 A 
HETATM    5  C7  UNL     1     -31.920   9.629   0.714  1.00 20.00    -0.002 A 
HETATM    6  C9  UNL     1     -31.879   8.548  -0.314  1.00 20.00     0.011 C 
ENDBRANCH   1   3
BRANCH   2   7
HETATM    7  C8  UNL     1     -33.850   5.736   3.266  1.00 20.00     0.055 A 
HETATM    8  C3  UNL     1     -35.244   5.529   3.620  1.00 20.00    -0.003 A 
HETATM    9  C4  UNL     1     -34.353   5.495   4.609  1.00 20.00    -0.003 A 
HETATM   10  C10 UNL     1     -33.135   4.599   2.583  1.00 20.00     0.038 C 
ENDBRANCH   2   7
TORSDOF 2
