REMARK  1 active torsions:
REMARK  status: ('A' for Active; 'I' for Inactive)
REMARK    1  A    between atoms: C8_8  and  C11_11 
ROOT
HETATM    1  C1  UNL     1     -33.277   6.904   4.426  1.00 20.00    -0.081 C 
HETATM    2  C2  UNL     1     -32.922   7.309   5.644  1.00 20.00     0.015 C 
HETATM    3  C3  UNL     1     -34.446   5.202   3.380  1.00 20.00     0.010 C 
HETATM    4  C4  UNL     1     -32.956   5.129   2.987  1.00 20.00     0.010 C 
HETATM    5  C5  UNL     1     -34.552   7.592   2.620  1.00 20.00     0.014 C 
HETATM    6  C6  UNL     1     -34.630   6.656   3.837  1.00 20.00     0.014 C 
HETATM    7  C7  UNL     1     -32.445   6.558   3.230  1.00 20.00     0.018 C 
HETATM    8  C8  UNL     1     -33.068   7.500   2.176  1.00 20.00    -0.002 C 
ENDROOT
BRANCH   8   9
HETATM    9  C11 UNL     1     -32.398   8.871   2.141  1.00 20.00    -0.018 C 
HETATM   10  C9  UNL     1     -30.932   8.743   1.735  1.00 20.00     0.010 C 
HETATM   11  C10 UNL     1     -33.139   9.806   1.188  1.00 20.00     0.010 C 
ENDBRANCH   8   9
TORSDOF 1
