REMARK  0 active torsions:
REMARK  status: ('A' for Active; 'I' for Inactive)
ROOT
HETATM    1  C1  UNL     1     -33.974   3.788   3.946  1.00 20.00     0.001 C 
HETATM    2  C2  UNL     1     -34.386   4.935   4.884  1.00 20.00     0.005 C 
HETATM    3  C3  UNL     1     -33.250   4.435   2.754  1.00 20.00     0.005 C 
HETATM    4  C4  UNL     1     -34.031   7.505   4.774  1.00 20.00     0.011 C 
HETATM    5  C5  UNL     1     -33.732   8.619   3.763  1.00 20.00     0.079 C 
HETATM    6  C6  UNL     1     -32.693   6.903   2.170  1.00 20.00     0.084 C 
HETATM    7  C7  UNL     1     -34.203   6.185   4.037  1.00 20.00    -0.010 C 
HETATM    8  C8  UNL     1     -32.948   5.847   3.234  1.00 20.00    -0.005 C 
HETATM    9  C9  UNL     1     -32.567   8.272   2.836  1.00 20.00     0.244 C 
HETATM   10  F10 UNL     1     -31.413   8.306   3.555  1.00 20.00    -0.206 F 
HETATM   11  F11 UNL     1     -32.450   9.229   1.882  1.00 20.00    -0.206 F 
ENDROOT
TORSDOF 0
