REMARK  0 active torsions:
REMARK  status: ('A' for Active; 'I' for Inactive)
ROOT
HETATM    1  C1  UNL     1     -32.695   8.297   2.595  1.00 20.00     0.013 C 
HETATM    2  C2  UNL     1     -33.201   7.243   2.868  1.00 20.00    -0.104 C 
HETATM    3  C3  UNL     1     -35.244   6.008   3.677  1.00 20.00     0.069 A 
HETATM    4  C4  UNL     1     -33.810   5.976   3.196  1.00 20.00     0.057 A 
HETATM    5  C5  UNL     1     -34.146   5.686   4.656  1.00 20.00     0.133 A 
HETATM    6  C6  UNL     1     -33.411   4.855   2.270  1.00 20.00     0.032 C 
HETATM    7 CL7  UNL     1     -34.059   4.037   5.279  1.00 20.00    -0.100 Cl
HETATM    8 CL8  UNL     1     -33.801   6.888   5.907  1.00 20.00    -0.100 Cl
ENDROOT
TORSDOF 0
