REMARK  1 active torsions:
REMARK  status: ('A' for Active; 'I' for Inactive)
REMARK    1  A    between atoms: C6_6  and  C11_11 
ROOT
HETATM    1  C1  UNL     1     -33.279   5.285   2.387  1.00 20.00     0.003 C 
HETATM    2  C2  UNL     1     -32.493   6.231   1.852  1.00 20.00    -0.016 C 
HETATM    3  C3  UNL     1     -34.442   6.852   3.817  1.00 20.00    -0.019 C 
HETATM    4  C4  UNL     1     -34.184   5.576   3.480  1.00 20.00    -0.066 C 
HETATM    5  C5  UNL     1     -33.816   8.014   3.095  1.00 20.00     0.041 C 
HETATM    6  C6  UNL     1     -32.498   7.669   2.340  1.00 20.00    -0.020 C 
HETATM    7  C7  UNL     1     -34.819   4.408   4.169  1.00 20.00     0.048 C 
HETATM    8  C8  UNL     1     -31.292   7.854   3.281  1.00 20.00     0.020 C 
ENDROOT
BRANCH   6   9
HETATM    9  C11 UNL     1     -32.343   8.623   1.145  1.00 20.00    -0.011 C 
HETATM   10  C9  UNL     1     -32.382  10.069   1.620  1.00 20.00     0.010 C 
HETATM   11  C10 UNL     1     -31.048   8.325   0.402  1.00 20.00     0.010 C 
ENDBRANCH   6   9
TORSDOF 1
