REMARK  0 active torsions:
REMARK  status: ('A' for Active; 'I' for Inactive)
ROOT
HETATM    1  C1  UNL     1     -31.996   8.538   2.444  1.00 20.00     0.012 C 
HETATM    2  C2  UNL     1     -32.270   7.555   3.075  1.00 20.00    -0.112 C 
HETATM    3  C3  UNL     1     -34.317   4.377   4.995  1.00 20.00    -0.026 C 
HETATM    4  C4  UNL     1     -33.607   4.102   3.888  1.00 20.00    -0.024 C 
HETATM    5  C5  UNL     1     -35.569   6.177   3.869  1.00 20.00     0.009 C 
HETATM    6  C6  UNL     1     -34.756   5.847   2.595  1.00 20.00     0.010 C 
HETATM    7  C7  UNL     1     -33.461   6.696   5.102  1.00 20.00     0.026 C 
HETATM    8  C8  UNL     1     -32.606   6.349   3.850  1.00 20.00     0.072 C 
HETATM    9  C9  UNL     1     -34.741   5.826   5.124  1.00 20.00     0.009 C 
HETATM   10  C10 UNL     1     -33.361   5.299   2.988  1.00 20.00     0.023 C 
ENDROOT
TORSDOF 0
