REMARK  1 active torsions:
REMARK  status: ('A' for Active; 'I' for Inactive)
REMARK    1  A    between atoms: C1_1  and  C6_6 
ROOT
HETATM    1  C1  UNL     1     -32.873   7.061   2.718  1.00 20.00    -0.029 A 
HETATM    2  C2  UNL     1     -33.278   7.009   4.000  1.00 20.00     0.168 A 
HETATM    3  C3  UNL     1     -33.654   5.837   2.310  1.00 20.00     0.124 A 
HETATM    4  C7  UNL     1     -34.121   5.758   3.785  1.00 20.00     0.300 A 
HETATM    5  F8  UNL     1     -33.031   7.769   5.075  1.00 20.00    -0.204 F 
HETATM    6  F9  UNL     1     -33.750   4.629   4.435  1.00 20.00    -0.198 F 
HETATM    7  F10 UNL     1     -35.461   5.864   3.959  1.00 20.00    -0.198 F 
ENDROOT
BRANCH   1   8
HETATM    8  C6  UNL     1     -31.952   8.038   1.979  1.00 20.00     0.018 A 
HETATM    9  C4  UNL     1     -32.344   8.780   0.700  1.00 20.00     0.010 A 
HETATM   10  C5  UNL     1     -32.146   9.555   1.968  1.00 20.00     0.010 A 
ENDBRANCH   1   8
TORSDOF 1
