REMARK  0 active torsions:
REMARK  status: ('A' for Active; 'I' for Inactive)
ROOT
HETATM    1  C1  UNL     1     -32.416   6.215   2.452  1.00 20.00    -0.025 C 
HETATM    2  C2  UNL     1     -33.319   5.224   2.328  1.00 20.00    -0.025 C 
HETATM    3  C3  UNL     1     -33.819   7.398   5.852  1.00 20.00    -0.022 C 
HETATM    4  C4  UNL     1     -34.559   6.446   6.466  1.00 20.00     0.007 C 
HETATM    5  C5  UNL     1     -34.429   7.238   2.294  1.00 20.00     0.018 C 
HETATM    6  C6  UNL     1     -33.129   7.405   3.095  1.00 20.00     0.017 C 
HETATM    7  C7  UNL     1     -34.660   5.767   2.759  1.00 20.00     0.016 C 
HETATM    8  C8  UNL     1     -33.434   6.870   4.517  1.00 20.00     0.023 C 
HETATM    9  C9  UNL     1     -34.916   5.305   5.514  1.00 20.00     0.198 C 
HETATM   10  C10 UNL     1     -34.759   6.104   4.247  1.00 20.00     0.039 C 
HETATM   11  F11 UNL     1     -34.016   4.297   5.580  1.00 20.00    -0.245 F 
ENDROOT
TORSDOF 0
