REMARK  1 active torsions:
REMARK  status: ('A' for Active; 'I' for Inactive)
REMARK    1  A    between atoms: C8_8  and  N9_9 
ROOT
HETATM    1  C1  UNL     1     -33.349   5.515   3.155  1.00 20.00     0.050 C 
HETATM    2  C2  UNL     1     -33.863   4.348   3.559  1.00 20.00     0.136 C 
HETATM    3  C3  UNL     1     -33.552   6.688   4.034  1.00 20.00     0.033 C 
HETATM    4  C4  UNL     1     -34.442   6.495   5.235  1.00 20.00     0.085 C 
HETATM    5  C7  UNL     1     -34.245   5.081   5.755  1.00 20.00     0.180 C 
HETATM    6  N9  UNL     1     -33.047   7.853   3.794  1.00 20.00    -0.289 NA
HETATM    7  O10 UNL     1     -34.495   4.093   4.749  1.00 20.00    -0.363 OA
ENDROOT
BRANCH   6   8
HETATM    8  C8  UNL     1     -32.255   7.924   2.576  1.00 20.00     0.108 A 
HETATM    9  C5  UNL     1     -32.976   8.189   1.285  1.00 20.00     0.029 A 
HETATM   10  C6  UNL     1     -32.127   9.261   1.902  1.00 20.00     0.029 A 
ENDBRANCH   6   8
TORSDOF 1
