REMARK  0 active torsions:
REMARK  status: ('A' for Active; 'I' for Inactive)
ROOT
HETATM    1  C1  UNL     1     -33.059   7.124   4.341  1.00 20.00     0.129 C 
HETATM    2  C2  UNL     1     -33.662   6.120   3.692  1.00 20.00     0.136 C 
HETATM    3  C3  UNL     1     -33.252   7.402   5.799  1.00 20.00     0.073 C 
HETATM    4  C4  UNL     1     -34.444   6.657   6.401  1.00 20.00     0.008 C 
HETATM    5  C5  UNL     1     -34.499   5.213   5.901  1.00 20.00     0.016 C 
HETATM    6  C6  UNL     1     -34.591   5.124   4.356  1.00 20.00     0.009 C 
HETATM    7  C7  UNL     1     -36.028   5.415   3.888  1.00 20.00     0.022 C 
HETATM    8  C8  UNL     1     -34.211   3.697   3.922  1.00 20.00     0.022 C 
HETATM    9  F9  UNL     1     -32.246   7.945   3.638  1.00 20.00    -0.208 F 
HETATM   10  F10 UNL     1     -33.422   5.990   2.365  1.00 20.00    -0.207 F 
ENDROOT
TORSDOF 0
