REMARK  1 active torsions:
REMARK  status: ('A' for Active; 'I' for Inactive)
REMARK    1  A    between atoms: C3_3  and  C8_8 
ROOT
HETATM    1  C1  UNL     1     -33.315   7.440   2.606  1.00 20.00    -0.025 C 
HETATM    2  C2  UNL     1     -33.836   6.301   2.127  1.00 20.00    -0.024 C 
HETATM    3  C4  UNL     1     -32.617   5.742   3.995  1.00 20.00     0.018 C 
HETATM    4  C5  UNL     1     -33.024   7.217   4.071  1.00 20.00     0.013 C 
HETATM    5  C6  UNL     1     -33.907   5.319   3.279  1.00 20.00     0.024 C 
HETATM    6  C7  UNL     1     -34.388   7.148   4.821  1.00 20.00     0.004 C 
HETATM    7  C8  UNL     1     -34.994   5.784   4.299  1.00 20.00     0.020 C 
HETATM    8  C9  UNL     1     -34.203   7.261   6.332  1.00 20.00     0.012 C 
HETATM    9  C10 UNL     1     -35.250   4.714   5.367  1.00 20.00     0.024 C 
ENDROOT
BRANCH   7  10
HETATM   10  C3  UNL     1     -36.320   6.017   3.618  1.00 20.00     0.241 C 
HETATM   11  O11 UNL     1     -36.897   7.100   3.616  1.00 20.00    -0.306 OA
ENDBRANCH   7  10
TORSDOF 1
