REMARK  0 active torsions:
REMARK  status: ('A' for Active; 'I' for Inactive)
ROOT
HETATM    1  C1  UNL     1     -33.428   7.482   5.226  1.00 20.00     0.017 A 
HETATM    2  C2  UNL     1     -34.055   6.307   5.082  1.00 20.00     0.054 A 
HETATM    3  C3  UNL     1     -33.815   6.490   2.586  1.00 20.00     0.060 A 
HETATM    4  C4  UNL     1     -33.183   7.670   2.717  1.00 20.00    -0.044 A 
HETATM    5  C5  UNL     1     -32.922   8.292   4.068  1.00 20.00     0.221 A 
HETATM    6  C6  UNL     1     -34.318   5.681   3.746  1.00 20.00     0.280 A 
HETATM    7  C7  UNL     1     -32.700   8.445   1.527  1.00 20.00     0.046 C 
HETATM    8  F8  UNL     1     -31.582   8.502   4.224  1.00 20.00    -0.240 F 
HETATM    9  F9  UNL     1     -33.751   4.441   3.710  1.00 20.00    -0.197 F 
HETATM   10  F10 UNL     1     -35.658   5.470   3.602  1.00 20.00    -0.197 F 
ENDROOT
TORSDOF 0
