REMARK  1 active torsions:
REMARK  status: ('A' for Active; 'I' for Inactive)
REMARK    1  A    between atoms: C8_8  and  C9_9 
ROOT
HETATM    1  C1  UNL     1     -33.457   7.968   5.906  1.00 20.00     0.014 C 
HETATM    2  C2  UNL     1     -32.315   8.670   1.706  1.00 20.00     0.014 C 
HETATM    3  C3  UNL     1     -33.411   7.527   4.791  1.00 20.00    -0.094 C 
HETATM    4  C4  UNL     1     -32.789   7.909   2.504  1.00 20.00    -0.094 C 
HETATM    5  C7  UNL     1     -33.073   5.526   3.290  1.00 20.00     0.043 A 
HETATM    6  C9  UNL     1     -34.449   6.056   2.981  1.00 20.00     0.025 A 
HETATM    7  C10 UNL     1     -33.357   6.999   3.458  1.00 20.00     0.089 A 
ENDROOT
BRANCH   6   8
HETATM    8  C8  UNL     1     -35.673   5.673   3.803  1.00 20.00    -0.008 A 
HETATM    9  C5  UNL     1     -36.927   6.502   3.825  1.00 20.00     0.005 A 
HETATM   10  C6  UNL     1     -36.935   5.143   3.180  1.00 20.00     0.005 A 
ENDBRANCH   6   8
TORSDOF 1
