REMARK  0 active torsions:
REMARK  status: ('A' for Active; 'I' for Inactive)
ROOT
HETATM    1  C1  UNL     1     -32.863   7.730   4.331  1.00 20.00    -0.012 C 
HETATM    2  C2  UNL     1     -33.039   7.327   5.604  1.00 20.00    -0.016 C 
HETATM    3  C3  UNL     1     -32.979   5.825   2.863  1.00 20.00    -0.010 C 
HETATM    4  C4  UNL     1     -33.253   4.375   3.203  1.00 20.00     0.014 C 
HETATM    5  C5  UNL     1     -33.664   6.792   3.555  1.00 20.00     0.051 C 
HETATM    6  C6  UNL     1     -34.023   6.233   5.630  1.00 20.00     0.034 C 
HETATM    7  C7  UNL     1     -34.753   6.275   4.475  1.00 20.00     0.224 C 
HETATM    8  C8  UNL     1     -34.090   4.187   4.278  1.00 20.00     0.216 C 
HETATM    9  C9  UNL     1     -33.579   4.752   5.685  1.00 20.00     0.066 C 
HETATM   10  N10 UNL     1     -35.236   5.007   4.129  1.00 20.00     0.115 N 
HETATM   11  H17 UNL     1     -36.054   4.701   4.649  1.00 20.00     0.318 HD
ENDROOT
TORSDOF 0
