REMARK  0 active torsions:
REMARK  status: ('A' for Active; 'I' for Inactive)
ROOT
HETATM    1  C1  UNL     1     -32.529   8.472   1.197  1.00 20.00     0.014 C 
HETATM    2  C2  UNL     1     -32.889   7.761   2.094  1.00 20.00    -0.091 C 
HETATM    3  C3  UNL     1     -35.088   5.474   4.058  1.00 20.00     0.003 C 
HETATM    4  C4  UNL     1     -33.820   4.632   3.901  1.00 20.00     0.003 C 
HETATM    5  C5  UNL     1     -34.848   6.754   3.259  1.00 20.00     0.039 C 
HETATM    6  C6  UNL     1     -32.880   5.445   3.012  1.00 20.00     0.039 C 
HETATM    7  C7  UNL     1     -33.329   6.894   3.188  1.00 20.00     0.099 C 
HETATM    8 CL8  UNL     1     -32.686   7.572   4.714  1.00 20.00    -0.105 Cl
ENDROOT
TORSDOF 0
