REMARK  1 active torsions:
REMARK  status: ('A' for Active; 'I' for Inactive)
REMARK    1  A    between atoms: C1_1  and  C5_5 
ROOT
HETATM    1  C2  UNL     1     -33.135   9.053   4.038  1.00 20.00     0.006 C 
HETATM    2  C3  UNL     1     -33.298   8.784   2.537  1.00 20.00     0.006 C 
HETATM    3  C4  UNL     1     -31.307   7.761   3.260  1.00 20.00     0.011 C 
HETATM    4  C5  UNL     1     -32.887   6.548   4.536  1.00 20.00     0.084 C 
HETATM    5  C6  UNL     1     -32.189   7.927   4.500  1.00 20.00    -0.001 C 
HETATM    6  C7  UNL     1     -32.503   7.482   2.336  1.00 20.00    -0.006 C 
HETATM    7  C8  UNL     1     -33.202   6.265   3.035  1.00 20.00    -0.032 C 
HETATM    8  C9  UNL     1     -32.533   4.946   2.592  1.00 20.00     0.016 C 
HETATM    9  C10 UNL     1     -34.696   6.152   2.691  1.00 20.00     0.016 C 
ENDROOT
BRANCH   4  10
HETATM   10  C1  UNL     1     -34.041   6.504   5.491  1.00 20.00     0.224 C 
HETATM   11  O11 UNL     1     -34.390   7.494   6.127  1.00 20.00    -0.279 OA
HETATM   12 CL12 UNL     1     -34.774   4.930   5.561  1.00 20.00    -0.043 Cl
ENDBRANCH   4  10
TORSDOF 1
