REMARK  1 active torsions:
REMARK  status: ('A' for Active; 'I' for Inactive)
REMARK    1  A    between atoms: C3_3  and  C6_6 
ROOT
HETATM    1  C1  UNL     1     -32.537  11.947   1.153  1.00 20.00     0.013 C 
HETATM    2  C2  UNL     1     -32.456  10.750   1.105  1.00 20.00    -0.107 C 
HETATM    3  C5  UNL     1     -31.002   8.699   1.315  1.00 20.00     0.033 A 
HETATM    4  C6  UNL     1     -32.078   8.600   2.362  1.00 20.00     0.030 A 
HETATM    5  C7  UNL     1     -32.358   9.312   1.046  1.00 20.00     0.027 A 
HETATM    6  C10 UNL     1     -33.220   8.669  -0.008  1.00 20.00     0.030 C 
ENDROOT
BRANCH   4   7
HETATM    7  C3  UNL     1     -32.666   7.299   2.649  1.00 20.00    -0.018 C 
HETATM    8  C4  UNL     1     -33.040   6.810   3.848  1.00 20.00    -0.091 C 
HETATM    9  C8  UNL     1     -33.637   5.436   3.975  1.00 20.00     0.042 C 
HETATM   10  C9  UNL     1     -32.901   7.566   5.139  1.00 20.00     0.042 C 
ENDBRANCH   4   7
TORSDOF 1
