REMARK  2 active torsions:
REMARK  status: ('A' for Active; 'I' for Inactive)
REMARK    1  A    between atoms: C7_7  and  C9_9 
REMARK    2  A    between atoms: C8_8  and  C10_10 
ROOT
HETATM    1  C1  UNL     1     -31.669   8.537   1.290  1.00 20.00     0.012 C 
HETATM    2  C2  UNL     1     -32.558   7.995   1.888  1.00 20.00    -0.112 C 
HETATM    3  C6  UNL     1     -33.620   7.347   2.603  1.00 20.00     0.074 A 
HETATM    4  C9  UNL     1     -33.347   5.985   3.204  1.00 20.00     0.011 A 
HETATM    5  C10 UNL     1     -33.473   7.180   4.100  1.00 20.00     0.011 A 
ENDROOT
BRANCH   4   6
HETATM    6  C7  UNL     1     -34.425   5.031   3.713  1.00 20.00    -0.008 C 
HETATM    7  C3  UNL     1     -33.942   4.485   5.077  1.00 20.00     0.005 C 
HETATM    8  C4  UNL     1     -34.071   5.720   6.004  1.00 20.00     0.005 C 
HETATM    9  C8  UNL     1     -34.612   6.809   5.047  1.00 20.00    -0.008 C 
HETATM   10  C5  UNL     1     -35.556   5.962   4.178  1.00 20.00     0.010 C 
ENDBRANCH   4   6
TORSDOF 2
