REMARK  1 active torsions:
REMARK  status: ('A' for Active; 'I' for Inactive)
REMARK    1  A    between atoms: C4_4  and  C6_6 
ROOT
HETATM    1  C1  UNL     1     -34.061   8.009   2.922  1.00 20.00     0.062 C 
HETATM    2  C2  UNL     1     -32.901   6.402   2.146  1.00 20.00     0.062 C 
HETATM    3  C3  UNL     1     -32.010   7.819   3.461  1.00 20.00     0.062 C 
HETATM    4  C4  UNL     1     -32.732   7.974   2.059  1.00 20.00     0.067 C 
HETATM    5  C5  UNL     1     -33.235   6.877   3.582  1.00 20.00     0.106 C 
HETATM    6  F7  UNL     1     -33.577   6.130   4.620  1.00 20.00    -0.243 F 
ENDROOT
BRANCH   4   7
HETATM    7  C6  UNL     1     -32.350   8.808   0.900  1.00 20.00     0.395 C 
HETATM    8  F8  UNL     1     -32.311  10.130   1.214  1.00 20.00    -0.170 F 
HETATM    9  F9  UNL     1     -31.122   8.481   0.420  1.00 20.00    -0.170 F 
HETATM   10  F10 UNL     1     -33.224   8.675  -0.133  1.00 20.00    -0.170 F 
ENDBRANCH   4   7
TORSDOF 1
