REMARK  1 active torsions:
REMARK  status: ('A' for Active; 'I' for Inactive)
REMARK    1  A    between atoms: C5_5  and  C6_6 
ROOT
HETATM    1  C1  UNL     1     -35.034   6.022   2.995  1.00 20.00     0.024 A 
HETATM    2  C2  UNL     1     -34.069   4.112   4.509  1.00 20.00     0.275 C 
HETATM    3  C3  UNL     1     -34.641   6.160   5.575  1.00 20.00     0.285 C 
HETATM    4  C4  UNL     1     -33.877   5.204   3.510  1.00 20.00     0.030 A 
HETATM    5  C5  UNL     1     -34.208   6.490   4.174  1.00 20.00     0.051 A 
HETATM    6  N7  UNL     1     -34.880   4.700   5.594  1.00 20.00     0.084 N 
HETATM    7  H18 UNL     1     -35.864   4.543   5.370  1.00 20.00     0.315 HD
ENDROOT
BRANCH   5   8
HETATM    8  C6  UNL     1     -33.319   7.681   4.001  1.00 20.00     0.363 C 
HETATM    9  F8  UNL     1     -32.867   7.741   2.720  1.00 20.00    -0.214 F 
HETATM   10  F9  UNL     1     -32.220   7.560   4.791  1.00 20.00    -0.214 F 
ENDBRANCH   5   8
TORSDOF 1
