REMARK  2 active torsions:
REMARK  status: ('A' for Active; 'I' for Inactive)
REMARK    1  A    between atoms: C8_8  and  C10_10 
REMARK    2  A    between atoms: C10_10  and  C11_11 
ROOT
HETATM    1  C1  UNL     1     -32.919  10.076   1.443  1.00 20.00     0.012 C 
HETATM    2  C2  UNL     1     -32.318   9.156   1.926  1.00 20.00    -0.113 C 
HETATM    3  C3  UNL     1     -31.256   8.293   3.994  1.00 20.00     0.017 C 
HETATM    4  C4  UNL     1     -32.358   6.713   2.352  1.00 20.00     0.017 C 
HETATM    5  C5  UNL     1     -32.482   8.198   4.905  1.00 20.00     0.006 C 
HETATM    6  C6  UNL     1     -33.582   6.621   3.267  1.00 20.00     0.006 C 
HETATM    7  C7  UNL     1     -31.581   8.024   2.520  1.00 20.00     0.064 C 
HETATM    8  C8  UNL     1     -33.212   6.860   4.736  1.00 20.00    -0.014 C 
ENDROOT
BRANCH   8   9
HETATM    9  C10 UNL     1     -34.457   6.809   5.620  1.00 20.00     0.004 C 
BRANCH   9  10
HETATM   10  C11 UNL     1     -35.214   5.499   5.433  1.00 20.00    -0.004 C 
HETATM   11  C9  UNL     1     -34.336   4.304   5.767  1.00 20.00     0.005 C 
ENDBRANCH   9  10
ENDBRANCH   8   9
TORSDOF 2
