REMARK  0 active torsions:
REMARK  status: ('A' for Active; 'I' for Inactive)
ROOT
HETATM    1  C1  UNL     1     -33.063   7.452   4.833  1.00 20.00     0.022 A 
HETATM    2  C2  UNL     1     -33.189   6.735   2.424  1.00 20.00     0.022 A 
HETATM    3  C3  UNL     1     -33.793   6.385   5.186  1.00 20.00     0.054 A 
HETATM    4  C4  UNL     1     -33.919   5.670   2.782  1.00 20.00     0.054 A 
HETATM    5  C5  UNL     1     -32.689   7.766   3.405  1.00 20.00     0.135 A 
HETATM    6  C6  UNL     1     -34.317   5.385   4.199  1.00 20.00     0.280 A 
HETATM    7  C7  UNL     1     -33.222   9.147   3.022  1.00 20.00     0.061 C 
HETATM    8  F8  UNL     1     -31.326   7.828   3.316  1.00 20.00    -0.234 F 
HETATM    9  F9  UNL     1     -35.677   5.332   4.286  1.00 20.00    -0.197 F 
HETATM   10  F10 UNL     1     -33.884   4.139   4.547  1.00 20.00    -0.197 F 
ENDROOT
TORSDOF 0
