REMARK  0 active torsions:
REMARK  status: ('A' for Active; 'I' for Inactive)
ROOT
HETATM    1  C1  UNL     1     -33.414   7.447   6.188  1.00 20.00     0.013 C 
HETATM    2  C2  UNL     1     -33.862   6.580   5.489  1.00 20.00    -0.106 C 
HETATM    3  C3  UNL     1     -35.596   5.900   3.796  1.00 20.00     0.041 A 
HETATM    4  C4  UNL     1     -34.268   5.640   3.142  1.00 20.00     0.079 A 
HETATM    5  C5  UNL     1     -34.400   5.540   4.649  1.00 20.00     0.033 A 
HETATM    6  C6  UNL     1     -34.363   4.165   5.259  1.00 20.00     0.030 C 
HETATM    7 BR7  UNL     1     -33.374   7.113   2.315  1.00 20.00    -0.089 Br
ENDROOT
TORSDOF 0
