REMARK  1 active torsions:
REMARK  status: ('A' for Active; 'I' for Inactive)
REMARK    1  A    between atoms: C6_6  and  C10_10 
ROOT
HETATM    1  C1  UNL     1     -32.743   5.981   2.532  1.00 20.00     0.142 A 
HETATM    2  C2  UNL     1     -32.203   9.154   2.522  1.00 20.00     0.006 C 
HETATM    3  C3  UNL     1     -32.110   8.187   3.708  1.00 20.00     0.019 C 
HETATM    4  C4  UNL     1     -33.315   7.132   1.871  1.00 20.00     0.076 A 
HETATM    5  C5  UNL     1     -32.478   8.252   1.304  1.00 20.00    -0.006 C 
HETATM    6  C6  UNL     1     -33.118   7.105   3.376  1.00 20.00     0.034 A 
HETATM    7  C7  UNL     1     -33.169   9.002   0.178  1.00 20.00     0.011 C 
HETATM    8  O11 UNL     1     -33.039   4.804   2.540  1.00 20.00    -0.297 OA
ENDROOT
BRANCH   6   9
HETATM    9  C10 UNL     1     -34.326   7.043   4.263  1.00 20.00    -0.006 C 
HETATM   10  C8  UNL     1     -35.428   6.162   3.654  1.00 20.00     0.011 C 
HETATM   11  C9  UNL     1     -33.970   6.526   5.666  1.00 20.00     0.011 C 
ENDBRANCH   6   9
TORSDOF 1
