REMARK  0 active torsions:
REMARK  status: ('A' for Active; 'I' for Inactive)
ROOT
HETATM    1  C1  UNL     1     -34.368   4.956   6.092  1.00 20.00    -0.004 C 
HETATM    2  C2  UNL     1     -34.327   6.393   6.207  1.00 20.00    -0.003 C 
HETATM    3  C3  UNL     1     -34.496   4.357   4.900  1.00 20.00    -0.025 C 
HETATM    4  C4  UNL     1     -34.208   7.174   5.123  1.00 20.00    -0.011 C 
HETATM    5  C5  UNL     1     -34.589   5.137   3.615  1.00 20.00     0.047 C 
HETATM    6  C6  UNL     1     -34.139   6.604   3.736  1.00 20.00     0.084 C 
HETATM    7 BR7  UNL     1     -32.263   6.759   3.170  1.00 20.00    -0.087 Br
ENDROOT
TORSDOF 0
