REMARK  0 active torsions:
REMARK  status: ('A' for Active; 'I' for Inactive)
ROOT
HETATM    1  C1  UNL     1     -33.496   6.747   4.958  1.00 20.00    -0.059 A 
HETATM    2  C2  UNL     1     -33.891   5.516   4.575  1.00 20.00    -0.055 A 
HETATM    3  C3  UNL     1     -33.110   7.173   3.553  1.00 20.00     0.138 A 
HETATM    4  C4  UNL     1     -33.451   5.710   3.116  1.00 20.00     0.077 A 
HETATM    5  C5  UNL     1     -33.503   7.486   6.312  1.00 20.00     0.045 C 
HETATM    6  C6  UNL     1     -34.498   4.316   5.332  1.00 20.00     0.046 C 
HETATM    7  C7  UNL     1     -32.274   4.810   2.723  1.00 20.00     0.039 C 
HETATM    8 CL8  UNL     1     -31.445   7.843   3.291  1.00 20.00    -0.118 Cl
HETATM    9 CL9  UNL     1     -34.772   5.573   1.882  1.00 20.00    -0.113 Cl
ENDROOT
TORSDOF 0
