REMARK  0 active torsions:
REMARK  status: ('A' for Active; 'I' for Inactive)
ROOT
HETATM    1  C1  UNL     1     -34.237   4.390   3.853  1.00 20.00     0.001 C 
HETATM    2  C2  UNL     1     -32.808   8.064   1.519  1.00 20.00     0.001 C 
HETATM    3  C3  UNL     1     -32.981   4.529   3.001  1.00 20.00     0.005 C 
HETATM    4  C4  UNL     1     -33.355   6.631   1.532  1.00 20.00     0.005 C 
HETATM    5  C5  UNL     1     -34.058   4.957   5.258  1.00 20.00     0.005 C 
HETATM    6  C6  UNL     1     -31.930   8.202   2.773  1.00 20.00     0.005 C 
HETATM    7  C7  UNL     1     -33.467   7.398   5.972  1.00 20.00     0.010 A 
HETATM    8  C8  UNL     1     -32.517   5.927   2.597  1.00 20.00    -0.010 C 
HETATM    9  C9  UNL     1     -34.363   6.412   5.279  1.00 20.00    -0.010 A 
HETATM   10  C10 UNL     1     -32.325   7.010   3.669  1.00 20.00    -0.006 C 
HETATM   11  C11 UNL     1     -33.555   7.385   4.464  1.00 20.00    -0.006 A 
ENDROOT
TORSDOF 0
