REMARK  0 active torsions:
REMARK  status: ('A' for Active; 'I' for Inactive)
ROOT
HETATM    1  C1  UNL     1     -33.626   4.367   2.507  1.00 20.00     0.001 C 
HETATM    2  C2  UNL     1     -31.489   8.186   3.230  1.00 20.00     0.001 C 
HETATM    3  C3  UNL     1     -32.775   5.554   2.068  1.00 20.00     0.005 C 
HETATM    4  C4  UNL     1     -32.308   8.005   1.943  1.00 20.00     0.005 C 
HETATM    5  C5  UNL     1     -33.683   4.219   4.022  1.00 20.00     0.005 C 
HETATM    6  C6  UNL     1     -32.331   7.588   4.364  1.00 20.00     0.005 C 
HETATM    7  C7  UNL     1     -34.468   5.944   5.810  1.00 20.00     0.010 A 
HETATM    8  C8  UNL     1     -33.378   6.954   2.294  1.00 20.00    -0.010 C 
HETATM    9  C9  UNL     1     -34.744   5.083   4.608  1.00 20.00    -0.010 A 
HETATM   10  C10 UNL     1     -33.702   7.378   3.733  1.00 20.00    -0.006 C 
HETATM   11  C11 UNL     1     -34.731   6.583   4.467  1.00 20.00    -0.006 A 
ENDROOT
TORSDOF 0
