REMARK  4 active torsions:
REMARK  status: ('A' for Active; 'I' for Inactive)
REMARK    1  A    between atoms: C1_1  and  C7_7 
REMARK    2  A    between atoms: C2_2  and  C9_9 
REMARK    3  A    between atoms: C9_9  and  C11_11 
REMARK    4  A    between atoms: C10_10  and  C11_11 
ROOT
HETATM    1  C1  UNL     1     -33.678   6.639   3.240  1.00 20.00    -0.098 C 
HETATM    2  C2  UNL     1     -32.806   7.409   2.939  1.00 20.00    -0.106 C 
ENDROOT
BRANCH   1   3
HETATM    3  C7  UNL     1     -34.742   5.698   3.605  1.00 20.00     0.087 C 
HETATM    4  C4  UNL     1     -34.223   4.295   3.574  1.00 20.00    -0.014 C 
HETATM    5  C3  UNL     1     -34.062   3.790   4.801  1.00 20.00    -0.029 C 
HETATM    6  C5  UNL     1     -34.436   4.773   5.858  1.00 20.00     0.028 C 
HETATM    7  C6  UNL     1     -35.179   5.854   5.068  1.00 20.00     0.025 C 
ENDBRANCH   1   3
BRANCH   2   8
HETATM    8  C9  UNL     1     -31.739   8.351   2.575  1.00 20.00     0.094 C 
BRANCH   8   9
HETATM    9  C11 UNL     1     -31.465   8.319   1.072  1.00 20.00     0.012 C 
BRANCH   9  10
HETATM   10  C10 UNL     1     -32.700   8.734   0.272  1.00 20.00    -0.004 C 
HETATM   11  C8  UNL     1     -33.168  10.129   0.654  1.00 20.00     0.005 C 
ENDBRANCH   9  10
ENDBRANCH   8   9
ENDBRANCH   2   8
TORSDOF 4
