REMARK  0 active torsions:
REMARK  status: ('A' for Active; 'I' for Inactive)
ROOT
HETATM    1  C1  UNL     1     -33.193   6.761   3.326  1.00 20.00     0.041 A 
HETATM    2  C2  UNL     1     -33.760   6.766   4.546  1.00 20.00     0.101 A 
HETATM    3  C3  UNL     1     -33.831   5.452   2.926  1.00 20.00     0.138 A 
HETATM    4  C4  UNL     1     -34.489   5.446   4.326  1.00 20.00     0.287 A 
HETATM    5  F5  UNL     1     -34.142   4.396   5.109  1.00 20.00    -0.199 F 
HETATM    6  F6  UNL     1     -35.843   5.467   4.313  1.00 20.00    -0.199 F 
HETATM    7 CL7  UNL     1     -32.106   7.870   2.492  1.00 20.00    -0.087 Cl
HETATM    8 CL8  UNL     1     -33.695   7.881   5.910  1.00 20.00    -0.081 Cl
ENDROOT
TORSDOF 0
