REMARK  1 active torsions:
REMARK  status: ('A' for Active; 'I' for Inactive)
REMARK    1  A    between atoms: C4_4  and  C6_6 
ROOT
HETATM    1  C1  UNL     1     -36.970   5.725   3.491  1.00 20.00     0.012 C 
HETATM    2  C2  UNL     1     -35.889   5.533   3.978  1.00 20.00    -0.109 C 
HETATM    3  C3  UNL     1     -33.519   5.933   3.697  1.00 20.00    -0.003 C 
HETATM    4  C4  UNL     1     -32.793   7.007   4.056  1.00 20.00    -0.061 C 
HETATM    5  C7  UNL     1     -32.987   7.707   5.377  1.00 20.00     0.038 C 
HETATM    6  C8  UNL     1     -34.283   7.313   6.090  1.00 20.00     0.006 C 
HETATM    7  C9  UNL     1     -34.515   5.804   6.024  1.00 20.00     0.021 C 
HETATM    8  C10 UNL     1     -34.563   5.296   4.575  1.00 20.00     0.087 C 
ENDROOT
BRANCH   4   9
HETATM    9  C6  UNL     1     -31.781   7.553   3.184  1.00 20.00    -0.004 C 
HETATM   10  C5  UNL     1     -32.013   7.624   1.863  1.00 20.00     0.012 C 
ENDBRANCH   4   9
TORSDOF 1
