REMARK  1 active torsions:
REMARK  status: ('A' for Active; 'I' for Inactive)
REMARK    1  A    between atoms: C1_1  and  C5_5 
ROOT
HETATM    1  C1  UNL     1     -32.970   7.539   3.382  1.00 20.00    -0.097 C 
HETATM    2  C2  UNL     1     -32.384   8.161   2.539  1.00 20.00    -0.110 C 
HETATM    3  C7  UNL     1     -31.669   8.919   1.513  1.00 20.00     0.112 C 
ENDROOT
BRANCH   1   4
HETATM    4  C5  UNL     1     -33.684   6.781   4.407  1.00 20.00     0.027 C 
HETATM    5  C3  UNL     1     -35.235   6.902   4.279  1.00 20.00     0.024 C 
HETATM    6  C4  UNL     1     -35.241   5.598   3.458  1.00 20.00     0.012 C 
HETATM    7  C6  UNL     1     -33.870   5.226   4.099  1.00 20.00    -0.029 C 
HETATM    8  C9  UNL     1     -32.892   4.589   3.108  1.00 20.00     0.016 C 
HETATM    9  C10 UNL     1     -34.038   4.307   5.319  1.00 20.00     0.016 C 
HETATM   10  C8  UNL     1     -33.149   7.167   5.785  1.00 20.00     0.030 C 
ENDBRANCH   1   4
TORSDOF 1
