REMARK  1 active torsions:
REMARK  status: ('A' for Active; 'I' for Inactive)
REMARK    1  A    between atoms: C2_2  and  C6_6 
ROOT
HETATM    1  C3  UNL     1     -33.002   5.358   2.879  1.00 20.00     0.006 C 
HETATM    2  C4  UNL     1     -34.111   6.171   2.190  1.00 20.00     0.006 C 
HETATM    3  C5  UNL     1     -31.900   7.452   3.609  1.00 20.00     0.014 C 
HETATM    4  C6  UNL     1     -33.009   8.312   2.954  1.00 20.00     0.012 C 
HETATM    5  C7  UNL     1     -32.677   6.214   4.125  1.00 20.00    -0.006 C 
HETATM    6  C8  UNL     1     -34.262   7.402   3.119  1.00 20.00     0.001 C 
HETATM    7  C9  UNL     1     -34.056   6.789   4.533  1.00 20.00    -0.040 C 
HETATM    8  C10 UNL     1     -34.008   7.806   5.689  1.00 20.00     0.015 C 
HETATM    9  C11 UNL     1     -35.103   5.732   4.935  1.00 20.00     0.015 C 
ENDROOT
BRANCH   4  10
HETATM   10  C2  UNL     1     -32.698   8.747   1.560  1.00 20.00    -0.032 C 
HETATM   11  C1  UNL     1     -33.151   9.880   1.011  1.00 20.00     0.007 C 
ENDBRANCH   4  10
TORSDOF 1
