REMARK  1 active torsions:
REMARK  status: ('A' for Active; 'I' for Inactive)
REMARK    1  A    between atoms: C3_3  and  C6_6 
ROOT
HETATM    1  C1  UNL     1     -35.028   5.444   5.319  1.00 20.00     0.013 C 
HETATM    2  C2  UNL     1     -34.276   5.782   4.447  1.00 20.00    -0.107 C 
HETATM    3  C5  UNL     1     -32.405   7.308   3.714  1.00 20.00     0.033 A 
HETATM    4  C6  UNL     1     -33.586   7.582   2.823  1.00 20.00     0.030 A 
HETATM    5  C7  UNL     1     -33.372   6.189   3.399  1.00 20.00     0.027 A 
HETATM    6  C10 UNL     1     -32.879   5.064   2.526  1.00 20.00     0.030 C 
ENDROOT
BRANCH   4   7
HETATM    7  C3  UNL     1     -33.360   7.851   1.410  1.00 20.00    -0.018 C 
HETATM    8  C4  UNL     1     -33.003   9.019   0.841  1.00 20.00    -0.091 C 
HETATM    9  C8  UNL     1     -32.807   9.132  -0.645  1.00 20.00     0.042 C 
HETATM   10  C9  UNL     1     -32.772  10.288   1.612  1.00 20.00     0.042 C 
ENDBRANCH   4   7
TORSDOF 1
