REMARK  0 active torsions:
REMARK  status: ('A' for Active; 'I' for Inactive)
ROOT
HETATM    1  C1  UNL     1     -32.552   8.359   2.293  1.00 20.00     0.013 C 
HETATM    2  C2  UNL     1     -33.148   7.580   2.985  1.00 20.00    -0.106 C 
HETATM    3  C3  UNL     1     -35.207   6.157   3.315  1.00 20.00     0.041 A 
HETATM    4  C4  UNL     1     -34.020   5.238   3.255  1.00 20.00     0.079 A 
HETATM    5  C5  UNL     1     -33.864   6.643   3.816  1.00 20.00     0.033 A 
HETATM    6  C6  UNL     1     -33.715   6.884   5.295  1.00 20.00     0.030 C 
HETATM    7 BR7  UNL     1     -34.003   3.705   4.394  1.00 20.00    -0.089 Br
ENDROOT
TORSDOF 0
