REMARK  1 active torsions:
REMARK  status: ('A' for Active; 'I' for Inactive)
REMARK    1  A    between atoms: C6_6  and  C10_10 
ROOT
HETATM    1  C1  UNL     1     -32.202   9.205   1.996  1.00 20.00     0.017 C 
HETATM    2  C2  UNL     1     -32.602   8.140   2.378  1.00 20.00    -0.083 C 
HETATM    3  C3  UNL     1     -34.163   6.829   3.625  1.00 20.00    -0.002 C 
HETATM    4  C4  UNL     1     -33.078   6.874   2.832  1.00 20.00    -0.009 C 
HETATM    5  C7  UNL     1     -32.362   5.625   2.386  1.00 20.00     0.048 C 
HETATM    6  C8  UNL     1     -33.184   4.351   2.594  1.00 20.00     0.006 C 
HETATM    7  C9  UNL     1     -33.826   4.339   3.978  1.00 20.00     0.012 C 
HETATM    8  C10 UNL     1     -34.752   5.551   4.169  1.00 20.00     0.031 C 
ENDROOT
BRANCH   8   9
HETATM    9  C6  UNL     1     -35.114   5.684   5.617  1.00 20.00    -0.028 C 
HETATM   10  C5  UNL     1     -34.457   6.462   6.484  1.00 20.00     0.007 C 
ENDBRANCH   8   9
TORSDOF 1
