REMARK  0 active torsions:
REMARK  status: ('A' for Active; 'I' for Inactive)
ROOT
HETATM    1  C1  UNL     1     -34.052   5.083   4.137  1.00 20.00    -0.087 C 
HETATM    2  C2  UNL     1     -34.533   3.958   4.668  1.00 20.00     0.014 C 
HETATM    3  C3  UNL     1     -34.193   6.544   4.506  1.00 20.00     0.049 C 
HETATM    4  C4  UNL     1     -33.158   5.371   2.952  1.00 20.00     0.049 C 
HETATM    5  C5  UNL     1     -33.762   6.795   3.039  1.00 20.00     0.065 C 
HETATM    6 BR6  UNL     1     -32.507   8.250   2.776  1.00 20.00    -0.091 Br
ENDROOT
TORSDOF 0
