REMARK  1 active torsions:
REMARK  status: ('A' for Active; 'I' for Inactive)
REMARK    1  A    between atoms: C2_2  and  C12_12 
ROOT
HETATM    1  C1  UNL     1     -31.885   6.940   3.438  1.00 20.00    -0.023 C 
HETATM    2  C2  UNL     1     -33.134   6.901   2.932  1.00 20.00    -0.075 C 
HETATM    3  C3  UNL     1     -31.161   8.259   3.616  1.00 20.00     0.033 C 
HETATM    4  C4  UNL     1     -33.499   9.247   3.782  1.00 20.00     0.015 C 
HETATM    5  C5  UNL     1     -33.745   8.238   2.600  1.00 20.00     0.023 C 
HETATM    6  C6  UNL     1     -32.077   9.410   3.149  1.00 20.00    -0.002 C 
HETATM    7  C7  UNL     1     -32.794   9.189   1.744  1.00 20.00    -0.036 C 
HETATM    8  C8  UNL     1     -31.962   8.557   0.620  1.00 20.00     0.016 C 
HETATM    9  C9  UNL     1     -33.484  10.438   1.159  1.00 20.00     0.016 C 
ENDROOT
BRANCH   2  10
HETATM   10  C12 UNL     1     -33.926   5.661   2.697  1.00 20.00     0.006 C 
HETATM   11  C10 UNL     1     -33.113   4.424   3.077  1.00 20.00     0.014 C 
HETATM   12  C11 UNL     1     -35.245   5.696   3.470  1.00 20.00     0.014 C 
ENDBRANCH   2  10
TORSDOF 1
