REMARK  0 active torsions:
REMARK  status: ('A' for Active; 'I' for Inactive)
ROOT
HETATM    1  C1  UNL     1     -32.654   9.188   1.333  1.00 20.00     0.012 C 
HETATM    2  C2  UNL     1     -34.066   4.779   6.220  1.00 20.00     0.012 C 
HETATM    3  C3  UNL     1     -32.456   8.351   2.170  1.00 20.00    -0.113 C 
HETATM    4  C4  UNL     1     -34.174   5.763   5.540  1.00 20.00    -0.113 C 
HETATM    5  C5  UNL     1     -34.101   5.760   2.459  1.00 20.00     0.002 C 
HETATM    6  C6  UNL     1     -32.595   5.936   2.677  1.00 20.00     0.017 C 
HETATM    7  C7  UNL     1     -34.970   6.634   3.368  1.00 20.00     0.017 C 
HETATM    8  C8  UNL     1     -32.943   7.666   4.513  1.00 20.00     0.034 C 
HETATM    9  C9  UNL     1     -32.212   7.321   3.200  1.00 20.00     0.065 C 
HETATM   10  C10 UNL     1     -34.306   6.973   4.704  1.00 20.00     0.065 C 
ENDROOT
TORSDOF 0
