REMARK  0 active torsions:
REMARK  status: ('A' for Active; 'I' for Inactive)
ROOT
HETATM    1  C1  UNL     1     -34.340   6.397   4.704  1.00 20.00     0.019 A 
HETATM    2  C2  UNL     1     -33.508   7.426   4.490  1.00 20.00     0.054 A 
HETATM    3  C3  UNL     1     -32.479   6.193   2.555  1.00 20.00     0.096 A 
HETATM    4  C4  UNL     1     -33.311   5.164   2.771  1.00 20.00     0.133 A 
HETATM    5  C5  UNL     1     -34.334   5.150   3.867  1.00 20.00     0.254 A 
HETATM    6  C6  UNL     1     -32.486   7.439   3.391  1.00 20.00     0.282 A 
HETATM    7  F7  UNL     1     -33.224   4.086   1.961  1.00 20.00    -0.207 F 
HETATM    8  F8  UNL     1     -34.123   4.067   4.669  1.00 20.00    -0.238 F 
HETATM    9  F9  UNL     1     -32.700   8.521   2.588  1.00 20.00    -0.197 F 
HETATM   10  F10 UNL     1     -31.247   7.628   3.930  1.00 20.00    -0.197 F 
ENDROOT
TORSDOF 0
