REMARK  2 active torsions:
REMARK  status: ('A' for Active; 'I' for Inactive)
REMARK    1  A    between atoms: C4_4  and  C10_10 
REMARK    2  A    between atoms: C5_5  and  C11_11 
ROOT
HETATM    1  C1  UNL     1     -31.888   8.560   3.200  1.00 20.00     0.004 A 
HETATM    2  C2  UNL     1     -32.318   7.860   4.259  1.00 20.00    -0.017 A 
HETATM    3  C3  UNL     1     -34.065   8.107   2.724  1.00 20.00    -0.011 A 
HETATM    4  C4  UNL     1     -32.965   8.714   2.251  1.00 20.00    -0.058 A 
HETATM    5  C5  UNL     1     -33.767   7.492   4.068  1.00 20.00     0.034 A 
ENDROOT
BRANCH   4   6
HETATM    6  C10 UNL     1     -32.801   9.448   0.973  1.00 20.00     0.010 C 
HETATM    7  C6  UNL     1     -32.437  10.912   1.229  1.00 20.00     0.015 C 
HETATM    8  C7  UNL     1     -31.745   8.785   0.082  1.00 20.00     0.015 C 
ENDBRANCH   4   6
BRANCH   5   9
HETATM    9  C11 UNL     1     -33.985   5.985   4.075  1.00 20.00    -0.012 C 
HETATM   10  C8  UNL     1     -35.469   5.653   3.914  1.00 20.00     0.010 C 
HETATM   11  C9  UNL     1     -33.166   5.315   2.972  1.00 20.00     0.010 C 
ENDBRANCH   5   9
TORSDOF 2
