REMARK  0 active torsions:
REMARK  status: ('A' for Active; 'I' for Inactive)
ROOT
HETATM    1  C1  UNL     1     -33.701   3.609   4.675  1.00 20.00    -0.027 A 
HETATM    2  C2  UNL     1     -34.452   4.456   5.400  1.00 20.00    -0.010 A 
HETATM    3  C3  UNL     1     -33.483   4.598   3.551  1.00 20.00     0.051 A 
HETATM    4  C4  UNL     1     -34.363   5.579   4.378  1.00 20.00     0.035 A 
HETATM    5  C5  UNL     1     -35.681   5.984   3.733  1.00 20.00     0.032 C 
HETATM    6 BR6  UNL     1     -33.401   7.121   5.099  1.00 20.00    -0.081 Br
ENDROOT
TORSDOF 0
