REMARK  0 active torsions:
REMARK  status: ('A' for Active; 'I' for Inactive)
ROOT
HETATM    1  C1  UNL     1     -32.695   8.661   1.628  1.00 20.00     0.012 C 
HETATM    2  C2  UNL     1     -32.842   7.799   2.451  1.00 20.00    -0.112 C 
HETATM    3  C3  UNL     1     -35.847   6.157   3.562  1.00 20.00    -0.026 C 
HETATM    4  C4  UNL     1     -35.376   7.299   4.088  1.00 20.00    -0.024 C 
HETATM    5  C5  UNL     1     -34.475   4.775   5.074  1.00 20.00     0.009 C 
HETATM    6  C6  UNL     1     -33.952   6.096   5.689  1.00 20.00     0.010 C 
HETATM    7  C7  UNL     1     -33.605   5.447   2.824  1.00 20.00     0.026 C 
HETATM    8  C8  UNL     1     -33.024   6.741   3.461  1.00 20.00     0.072 C 
HETATM    9  C9  UNL     1     -34.870   5.002   3.597  1.00 20.00     0.009 C 
HETATM   10  C10 UNL     1     -33.955   7.210   4.615  1.00 20.00     0.023 C 
ENDROOT
TORSDOF 0
