REMARK  0 active torsions:
REMARK  status: ('A' for Active; 'I' for Inactive)
ROOT
HETATM    1  C1  UNL     1     -32.603   8.566   4.542  1.00 20.00     0.009 A 
HETATM    2  C2  UNL     1     -32.116   9.021   3.314  1.00 20.00     0.019 A 
HETATM    3  C3  UNL     1     -32.780   6.947   2.259  1.00 20.00     0.032 A 
HETATM    4  C4  UNL     1     -33.273   6.510   3.486  1.00 20.00    -0.011 A 
HETATM    5  C5  UNL     1     -33.194   7.305   4.631  1.00 20.00    -0.045 A 
HETATM    6  C6  UNL     1     -32.204   8.214   2.177  1.00 20.00     0.011 A 
HETATM    7  C7  UNL     1     -33.863   5.175   3.625  1.00 20.00     0.122 C 
HETATM    8  C8  UNL     1     -33.678   6.734   5.931  1.00 20.00     0.061 C 
HETATM    9  C9  UNL     1     -34.845   5.785   5.679  1.00 20.00     0.153 C 
HETATM   10  N10 UNL     1     -34.554   4.783   4.642  1.00 20.00    -0.300 NA
HETATM   11 BR11 UNL     1     -31.533   8.839   0.523  1.00 20.00    -0.051 Br
ENDROOT
TORSDOF 0
