REMARK  1 active torsions:
REMARK  status: ('A' for Active; 'I' for Inactive)
REMARK    1  A    between atoms: C8_8  and  C11_11 
ROOT
HETATM    1  C1  UNL     1     -33.600   4.654   3.258  1.00 20.00    -0.084 C 
HETATM    2  C2  UNL     1     -32.883   4.097   2.279  1.00 20.00     0.014 C 
HETATM    3  C3  UNL     1     -33.822   4.079   4.635  1.00 20.00     0.038 C 
HETATM    4  C4  UNL     1     -35.599   5.552   4.036  1.00 20.00     0.014 C 
HETATM    5  C5  UNL     1     -33.923   6.452   5.484  1.00 20.00     0.010 C 
HETATM    6  C6  UNL     1     -34.394   5.940   3.173  1.00 20.00     0.018 C 
HETATM    7  C7  UNL     1     -34.738   5.161   5.241  1.00 20.00    -0.010 C 
HETATM    8  C8  UNL     1     -33.739   7.024   4.058  1.00 20.00    -0.003 C 
ENDROOT
BRANCH   8   9
HETATM    9  C11 UNL     1     -32.294   7.360   3.721  1.00 20.00    -0.018 C 
HETATM   10  C9  UNL     1     -32.179   7.886   2.290  1.00 20.00     0.010 C 
HETATM   11  C10 UNL     1     -31.729   8.380   4.710  1.00 20.00     0.010 C 
ENDBRANCH   8   9
TORSDOF 1
