REMARK  1 active torsions:
REMARK  status: ('A' for Active; 'I' for Inactive)
REMARK    1  A    between atoms: C1_1  and  C5_5 
ROOT
HETATM    1  C1  UNL     1     -32.988   7.154   2.786  1.00 20.00    -0.097 C 
HETATM    2  C2  UNL     1     -32.461   8.112   2.287  1.00 20.00    -0.110 C 
HETATM    3  C7  UNL     1     -31.820   9.278   1.681  1.00 20.00     0.112 C 
ENDROOT
BRANCH   1   4
HETATM    4  C5  UNL     1     -33.626   5.994   3.389  1.00 20.00     0.027 C 
HETATM    5  C3  UNL     1     -35.169   5.933   3.169  1.00 20.00     0.024 C 
HETATM    6  C4  UNL     1     -35.327   5.485   4.636  1.00 20.00     0.012 C 
HETATM    7  C6  UNL     1     -33.945   6.135   4.946  1.00 20.00    -0.029 C 
HETATM    8  C9  UNL     1     -33.082   5.305   5.897  1.00 20.00     0.016 C 
HETATM    9  C10 UNL     1     -34.096   7.564   5.493  1.00 20.00     0.016 C 
HETATM   10  C8  UNL     1     -32.922   4.718   2.920  1.00 20.00     0.030 C 
ENDBRANCH   1   4
TORSDOF 1
