REMARK  0 active torsions:
REMARK  status: ('A' for Active; 'I' for Inactive)
ROOT
HETATM    1  C1  UNL     1     -32.278   8.401   2.056  1.00 20.00     0.179 C 
HETATM    2  C2  UNL     1     -33.201   7.240   5.464  1.00 20.00    -0.010 C 
HETATM    3  C3  UNL     1     -33.998   6.222   5.113  1.00 20.00    -0.023 C 
HETATM    4  C4  UNL     1     -32.286   7.943   4.506  1.00 20.00     0.161 C 
HETATM    5  C5  UNL     1     -32.798   6.117   2.906  1.00 20.00     0.143 C 
HETATM    6  C6  UNL     1     -34.019   5.658   3.717  1.00 20.00     0.022 C 
HETATM    7  C7  UNL     1     -34.083   4.131   3.747  1.00 20.00     0.016 C 
HETATM    8  N8  UNL     1     -31.998   9.098   1.172  1.00 20.00    -0.172 NA
HETATM    9  N9  UNL     1     -32.603   7.590   3.084  1.00 20.00    -0.316 N 
ENDROOT
TORSDOF 0
