REMARK  1 active torsions:
REMARK  status: ('A' for Active; 'I' for Inactive)
REMARK    1  A    between atoms: C5_5  and  C7_7 
ROOT
HETATM    1  C1  UNL     1     -32.747  10.059   0.677  1.00 20.00     0.001 C 
HETATM    2  C2  UNL     1     -31.992   8.933  -0.030  1.00 20.00     0.001 C 
HETATM    3  C3  UNL     1     -32.470   9.887   2.168  1.00 20.00     0.018 C 
HETATM    4  C4  UNL     1     -31.293   8.135   1.068  1.00 20.00     0.018 C 
HETATM    5  C5  UNL     1     -32.110   8.404   2.339  1.00 20.00     0.054 C 
HETATM    6  C6  UNL     1     -31.281   8.168   3.603  1.00 20.00     0.024 C 
ENDROOT
BRANCH   5   7
HETATM    7  C7  UNL     1     -33.371   7.526   2.388  1.00 20.00     0.395 C 
HETATM    8  F8  UNL     1     -34.062   7.667   1.251  1.00 20.00    -0.170 F 
HETATM    9  F9  UNL     1     -33.020   6.244   2.538  1.00 20.00    -0.170 F 
HETATM   10  F10 UNL     1     -34.138   7.898   3.421  1.00 20.00    -0.170 F 
ENDBRANCH   5   7
TORSDOF 1
