REMARK  1 active torsions:
REMARK  status: ('A' for Active; 'I' for Inactive)
REMARK    1  A    between atoms: C6_6  and  C10_10 
ROOT
HETATM    1  C1  UNL     1     -33.857   7.086   4.984  1.00 20.00     0.142 A 
HETATM    2  C2  UNL     1     -33.424   4.800   2.755  1.00 20.00     0.006 C 
HETATM    3  C3  UNL     1     -32.386   5.776   3.323  1.00 20.00     0.019 C 
HETATM    4  C4  UNL     1     -34.641   6.520   3.919  1.00 20.00     0.076 A 
HETATM    5  C5  UNL     1     -34.720   5.060   3.548  1.00 20.00    -0.006 C 
HETATM    6  C6  UNL     1     -33.199   6.995   3.702  1.00 20.00     0.034 A 
HETATM    7  C7  UNL     1     -34.854   4.146   4.760  1.00 20.00     0.011 C 
HETATM    8  O11 UNL     1     -33.574   6.760   6.117  1.00 20.00    -0.297 OA
ENDROOT
BRANCH   6   9
HETATM    9  C10 UNL     1     -32.961   8.224   2.876  1.00 20.00    -0.006 C 
HETATM   10  C8  UNL     1     -31.621   8.888   3.228  1.00 20.00     0.011 C 
HETATM   11  C9  UNL     1     -33.000   7.909   1.373  1.00 20.00     0.011 C 
ENDBRANCH   6   9
TORSDOF 1
