REMARK  0 active torsions:
REMARK  status: ('A' for Active; 'I' for Inactive)
ROOT
HETATM    1  C1  UNL     1     -33.844   4.659   4.349  1.00 20.00     0.029 C 
HETATM    2  C2  UNL     1     -33.098   5.107   3.117  1.00 20.00     0.042 C 
HETATM    3  C3  UNL     1     -32.237   7.346   4.038  1.00 20.00     0.070 C 
HETATM    4  C4  UNL     1     -31.841   8.579   3.226  1.00 20.00     0.275 C 
HETATM    5  C5  UNL     1     -33.193   7.308   1.816  1.00 20.00     0.309 C 
HETATM    6  C6  UNL     1     -35.018   5.613   4.366  1.00 20.00     0.169 C 
HETATM    7  C7  UNL     1     -33.273   6.616   3.171  1.00 20.00     0.089 C 
HETATM    8  C8  UNL     1     -32.466   9.502   1.070  1.00 20.00     0.310 C 
HETATM    9  N9  UNL     1     -32.881   8.688   2.202  1.00 20.00     0.087 N 
HETATM   10  O10 UNL     1     -34.578   6.832   3.749  1.00 20.00    -0.378 OA
ENDROOT
TORSDOF 0
