REMARK  1 active torsions:
REMARK  status: ('A' for Active; 'I' for Inactive)
REMARK    1  A    between atoms: C1_1  and  C4_4 
ROOT
HETATM    1  C2  UNL     1     -34.227   5.186   5.252  1.00 20.00     0.054 A 
HETATM    2  C3  UNL     1     -35.289   5.858   4.433  1.00 20.00     0.054 A 
HETATM    3  C4  UNL     1     -33.897   6.429   4.471  1.00 20.00     0.156 A 
HETATM    4  F6  UNL     1     -33.748   7.587   5.228  1.00 20.00    -0.235 F 
ENDROOT
BRANCH   3   5
HETATM    5  C1  UNL     1     -33.040   6.340   3.286  1.00 20.00     0.274 C 
HETATM    6  O5  UNL     1     -32.983   5.350   2.566  1.00 20.00    -0.303 OA
ENDBRANCH   3   5
TORSDOF 1
