REMARK  2 active torsions:
REMARK  status: ('A' for Active; 'I' for Inactive)
REMARK    1  A    between atoms: C1_1  and  C4_4 
REMARK    2  A    between atoms: C1_1  and  C5_5 
ROOT
HETATM    1  C1  UNL     1     -33.668   6.733   4.417  1.00 20.00     0.159 C 
HETATM    2  O6  UNL     1     -32.988   7.466   5.123  1.00 20.00    -0.295 OA
ENDROOT
BRANCH   1   3
HETATM    3  C4  UNL     1     -34.657   5.830   5.015  1.00 20.00     0.058 A 
HETATM    4  C2  UNL     1     -34.590   4.357   4.716  1.00 20.00     0.013 A 
HETATM    5  C3  UNL     1     -34.222   4.860   6.079  1.00 20.00     0.013 A 
ENDBRANCH   1   3
BRANCH   1   6
HETATM    6  C5  UNL     1     -33.557   6.685   2.922  1.00 20.00     0.300 C 
HETATM    7  F7  UNL     1     -32.625   7.568   2.471  1.00 20.00    -0.248 F 
ENDBRANCH   1   6
TORSDOF 2
