REMARK  1 active torsions:
REMARK  status: ('A' for Active; 'I' for Inactive)
REMARK    1  A    between atoms: C4_4  and  C9_9 
ROOT
HETATM    1  C1  UNL     1     -34.320   5.366   4.230  1.00 20.00    -0.089 C 
HETATM    2  C2  UNL     1     -34.232   4.028   4.235  1.00 20.00     0.014 C 
HETATM    3  C5  UNL     1     -34.744   6.147   5.441  1.00 20.00     0.033 C 
HETATM    4  C6  UNL     1     -33.954   6.180   3.012  1.00 20.00     0.042 C 
HETATM    5  C7  UNL     1     -33.671   7.158   5.852  1.00 20.00     0.005 C 
HETATM    6  C8  UNL     1     -32.912   7.784   4.674  1.00 20.00     0.009 C 
HETATM    7  C9  UNL     1     -33.679   7.658   3.351  1.00 20.00     0.017 C 
ENDROOT
BRANCH   7   8
HETATM    8  C4  UNL     1     -32.942   8.325   2.230  1.00 20.00    -0.089 C 
HETATM    9  C3  UNL     1     -31.720   7.926   1.847  1.00 20.00     0.014 C 
HETATM   10  C10 UNL     1     -33.650   9.465   1.559  1.00 20.00     0.043 C 
ENDBRANCH   7   8
TORSDOF 1
