REMARK  1 active torsions:
REMARK  status: ('A' for Active; 'I' for Inactive)
REMARK    1  A    between atoms: C7_7  and  O10_10 
ROOT
HETATM    1  C1  UNL     1     -33.803   9.112   1.554  1.00 20.00     0.013 C 
HETATM    2  C2  UNL     1     -33.582   8.340   2.446  1.00 20.00    -0.102 C 
HETATM    3  C3  UNL     1     -33.517   5.944   3.383  1.00 20.00    -0.040 C 
HETATM    4  C4  UNL     1     -32.871   5.120   2.547  1.00 20.00     0.019 C 
HETATM    5  C5  UNL     1     -34.412   6.518   5.546  1.00 20.00     0.043 C 
HETATM    6  C6  UNL     1     -32.389   7.887   4.617  1.00 20.00     0.034 A 
HETATM    7  C7  UNL     1     -34.503   5.470   4.424  1.00 20.00     0.148 C 
HETATM    8  C8  UNL     1     -33.861   7.759   4.892  1.00 20.00     0.015 A 
HETATM    9  C9  UNL     1     -33.317   7.413   3.517  1.00 20.00     0.052 A 
ENDROOT
BRANCH   7  10
HETATM   10  O10 UNL     1     -35.807   5.491   3.853  1.00 20.00    -0.391 OA
HETATM   11  H20 UNL     1     -36.417   5.182   4.542  1.00 20.00     0.210 HD
ENDBRANCH   7  10
TORSDOF 1
