REMARK  0 active torsions:
REMARK  status: ('A' for Active; 'I' for Inactive)
ROOT
HETATM    1  C1  UNL     1     -33.867   6.225   2.065  1.00 20.00     0.011 A 
HETATM    2  C2  UNL     1     -34.141   5.526   3.243  1.00 20.00     0.024 A 
HETATM    3  C3  UNL     1     -32.986   7.210   4.566  1.00 20.00     0.031 A 
HETATM    4  C4  UNL     1     -33.160   7.413   2.155  1.00 20.00    -0.033 A 
HETATM    5  C5  UNL     1     -32.729   7.903   3.395  1.00 20.00    -0.049 A 
HETATM    6  C6  UNL     1     -33.702   6.015   4.484  1.00 20.00     0.034 A 
HETATM    7  C7  UNL     1     -31.961   9.177   3.230  1.00 20.00     0.041 C 
HETATM    8  C8  UNL     1     -32.408   9.608   1.822  1.00 20.00     0.030 C 
HETATM    9  C9  UNL     1     -32.726   8.319   1.043  1.00 20.00     0.116 C 
HETATM   10 CL10 UNL     1     -34.048   5.126   5.919  1.00 20.00    -0.084 Cl
HETATM   11 CL11 UNL     1     -31.276   7.667   0.251  1.00 20.00    -0.120 Cl
ENDROOT
TORSDOF 0
