REMARK  0 active torsions:
REMARK  status: ('A' for Active; 'I' for Inactive)
ROOT
HETATM    1  C1  UNL     1     -34.663   5.629   6.066  1.00 20.00     0.027 C 
HETATM    2  C2  UNL     1     -34.173   4.457   5.209  1.00 20.00     0.012 C 
HETATM    3  C3  UNL     1     -33.703   6.817   6.178  1.00 20.00     0.167 C 
HETATM    4  C4  UNL     1     -33.961   7.606   3.943  1.00 20.00     0.177 C 
HETATM    5  C5  UNL     1     -34.502   4.558   3.712  1.00 20.00     0.074 C 
HETATM    6  C6  UNL     1     -33.530   6.990   2.622  1.00 20.00     0.100 C 
HETATM    7  O7  UNL     1     -33.068   7.181   4.963  1.00 20.00    -0.390 OA
HETATM    8  S8  UNL     1     -33.135   5.206   2.694  1.00 20.00    -0.167 SA
ENDROOT
TORSDOF 0
