REMARK  1 active torsions:
REMARK  status: ('A' for Active; 'I' for Inactive)
REMARK    1  A    between atoms: C2_2  and  C6_6 
ROOT
HETATM    1  C3  UNL     1     -34.052   7.479   5.308  1.00 20.00     0.181 C 
HETATM    2  C4  UNL     1     -35.271   6.072   3.626  1.00 20.00     0.181 C 
HETATM    3  C5  UNL     1     -34.929   5.365   5.841  1.00 20.00     0.337 C 
HETATM    4  C6  UNL     1     -34.209   7.161   3.817  1.00 20.00     0.061 C 
HETATM    5  O8  UNL     1     -33.865   6.285   6.069  1.00 20.00    -0.366 OA
HETATM    6  O9  UNL     1     -35.018   4.955   4.479  1.00 20.00    -0.366 OA
ENDROOT
BRANCH   4   7
HETATM    7  C2  UNL     1     -32.897   6.736   3.220  1.00 20.00    -0.085 C 
HETATM    8  C1  UNL     1     -32.738   5.540   2.635  1.00 20.00     0.014 C 
HETATM    9  C7  UNL     1     -31.775   7.727   3.316  1.00 20.00     0.043 C 
ENDBRANCH   4   7
TORSDOF 1
