REMARK  4 active torsions:
REMARK  status: ('A' for Active; 'I' for Inactive)
REMARK    1  A    between atoms: C1_1  and  O8_8 
REMARK    2  A    between atoms: C5_5  and  C6_6 
REMARK    3  A    between atoms: C6_6  and  C7_7 
REMARK    4  A    between atoms: C7_7  and  O8_8 
ROOT
HETATM    1  C4  UNL     1     -32.460   7.880   4.411  1.00 20.00     0.040 C 
HETATM    2  C7  UNL     1     -33.558   7.912   3.356  1.00 20.00     0.125 C 
ENDROOT
BRANCH   2   3
HETATM    3  C6  UNL     1     -32.977   7.881   1.939  1.00 20.00     0.032 C 
BRANCH   3   4
HETATM    4  C5  UNL     1     -32.442   9.248   1.505  1.00 20.00    -0.002 C 
HETATM    5  C3  UNL     1     -31.831   9.190   0.114  1.00 20.00     0.005 C 
ENDBRANCH   3   4
ENDBRANCH   2   3
BRANCH   2   6
HETATM    6  O8  UNL     1     -34.419   6.794   3.557  1.00 20.00    -0.340 OA
BRANCH   6   7
HETATM    7  C1  UNL     1     -33.921   5.573   3.852  1.00 20.00     0.109 C 
HETATM    8  C2  UNL     1     -32.989   4.907   2.890  1.00 20.00     0.089 C 
HETATM    9  S9  UNL     1     -34.399   4.890   5.294  1.00 20.00    -0.058 SA
ENDBRANCH   6   7
ENDBRANCH   2   6
TORSDOF 4
