REMARK  2 active torsions:
REMARK  status: ('A' for Active; 'I' for Inactive)
REMARK    1  A    between atoms: C6_6  and  C8_8 
REMARK    2  A    between atoms: C7_7  and  C9_9 
ROOT
HETATM    1  C1  UNL     1     -34.384   4.809   5.416  1.00 20.00     0.005 C 
HETATM    2  C2  UNL     1     -34.221   4.190   4.007  1.00 20.00     0.005 C 
HETATM    3  C5  UNL     1     -35.683   5.993   3.780  1.00 20.00     0.010 C 
HETATM    4  C6  UNL     1     -34.963   6.204   5.128  1.00 20.00    -0.010 C 
HETATM    5  C7  UNL     1     -34.436   5.425   3.095  1.00 20.00    -0.010 C 
ENDROOT
BRANCH   4   6
HETATM    6  C8  UNL     1     -33.918   7.197   4.626  1.00 20.00    -0.006 C 
HETATM    7  C3  UNL     1     -32.511   7.839   4.740  1.00 20.00     0.006 C 
HETATM    8  C4  UNL     1     -32.542   7.717   3.151  1.00 20.00     0.006 C 
HETATM    9  C9  UNL     1     -33.268   6.370   3.446  1.00 20.00    -0.006 C 
ENDBRANCH   4   6
TORSDOF 2
