REMARK  0 active torsions:
REMARK  status: ('A' for Active; 'I' for Inactive)
ROOT
HETATM    1  C1  UNL     1     -33.818   7.549   5.654  1.00 20.00     0.023 C 
HETATM    2  C2  UNL     1     -31.440   7.939   2.932  1.00 20.00     0.017 A 
HETATM    3  C3  UNL     1     -33.073   6.068   2.484  1.00 20.00     0.012 C 
HETATM    4  C4  UNL     1     -34.563   6.444   6.296  1.00 20.00     0.110 C 
HETATM    5  C5  UNL     1     -32.615   8.034   3.516  1.00 20.00     0.010 A 
HETATM    6  C6  UNL     1     -32.467   7.245   2.232  1.00 20.00    -0.008 A 
HETATM    7  C7  UNL     1     -33.226   7.185   4.517  1.00 20.00    -0.061 C 
HETATM    8  C8  UNL     1     -34.717   5.250   4.281  1.00 20.00     0.158 C 
HETATM    9  C9  UNL     1     -33.338   5.810   3.938  1.00 20.00     0.040 C 
HETATM   10  N10 UNL     1     -34.992   5.366   5.728  1.00 20.00    -0.301 NA
ENDROOT
TORSDOF 0
