REMARK  2 active torsions:
REMARK  status: ('A' for Active; 'I' for Inactive)
REMARK    1  A    between atoms: C2_2  and  C5_5 
REMARK    2  A    between atoms: C5_5  and  C6_6 
ROOT
HETATM    1  C5  UNL     1     -33.157   7.453   3.421  1.00 20.00     0.042 C 
ENDROOT
BRANCH   1   2
HETATM    2  C2  UNL     1     -32.412   8.048   2.258  1.00 20.00    -0.030 C 
HETATM    3  C1  UNL     1     -32.630   9.285   1.786  1.00 20.00    -0.035 C 
HETATM    4  C3  UNL     1     -31.894   9.873   0.628  1.00 20.00     0.036 C 
ENDBRANCH   1   2
BRANCH   1   5
HETATM    5  C6  UNL     1     -33.923   6.181   3.048  1.00 20.00     0.057 C 
HETATM    6  C4  UNL     1     -32.984   5.067   2.610  1.00 20.00     0.022 C 
HETATM    7 BR7  UNL     1     -34.942   5.537   4.599  1.00 20.00    -0.091 Br
ENDBRANCH   1   5
TORSDOF 2
