REMARK  0 active torsions:
REMARK  status: ('A' for Active; 'I' for Inactive)
ROOT
HETATM    1  C1  UNL     1     -34.472   4.661   4.535  1.00 20.00     0.010 A 
HETATM    2  C2  UNL     1     -35.280   5.599   3.680  1.00 20.00     0.010 A 
HETATM    3  C3  UNL     1     -33.007   8.471   2.477  1.00 20.00     0.010 A 
HETATM    4  C4  UNL     1     -31.622   8.262   3.027  1.00 20.00     0.010 A 
HETATM    5  C5  UNL     1     -33.274   7.019   4.682  1.00 20.00     0.019 C 
HETATM    6  C6  UNL     1     -32.750   5.868   2.924  1.00 20.00     0.019 C 
HETATM    7  C7  UNL     1     -33.829   5.870   3.935  1.00 20.00    -0.038 A 
HETATM    8  C8  UNL     1     -32.708   7.286   3.342  1.00 20.00    -0.038 A 
ENDROOT
TORSDOF 0
