REMARK  0 active torsions:
REMARK  status: ('A' for Active; 'I' for Inactive)
ROOT
HETATM    1  C1  UNL     1     -35.434   6.147   4.031  1.00 20.00     0.036 A 
HETATM    2  C2  UNL     1     -34.190   6.746   4.648  1.00 20.00    -0.025 A 
HETATM    3  C3  UNL     1     -34.234   5.259   4.266  1.00 20.00     0.041 A 
HETATM    4  C4  UNL     1     -34.236   7.133   6.107  1.00 20.00     0.016 C 
HETATM    5  C5  UNL     1     -33.392   7.718   3.809  1.00 20.00     0.016 C 
HETATM    6  C6  UNL     1     -34.325   4.188   5.316  1.00 20.00     0.033 C 
HETATM    7 CL7  UNL     1     -33.337   4.728   2.817  1.00 20.00    -0.119 Cl
ENDROOT
TORSDOF 0
