REMARK  1 active torsions:
REMARK  status: ('A' for Active; 'I' for Inactive)
REMARK    1  A    between atoms: C9_9  and  O10_10 
ROOT
HETATM    1  C1  UNL     1     -33.376   7.350   5.171  1.00 20.00     0.053 A 
HETATM    2  C2  UNL     1     -33.063   5.759   2.853  1.00 20.00     0.055 A 
HETATM    3  C3  UNL     1     -32.817   7.872   4.017  1.00 20.00    -0.046 A 
HETATM    4  C4  UNL     1     -32.662   7.085   2.868  1.00 20.00    -0.020 A 
HETATM    5  C5  UNL     1     -33.794   6.017   5.160  1.00 20.00     0.155 A 
HETATM    6  C6  UNL     1     -33.639   5.228   4.010  1.00 20.00     0.155 A 
HETATM    7  C7  UNL     1     -32.267   9.247   3.802  1.00 20.00     0.042 C 
HETATM    8  C8  UNL     1     -32.219   9.309   2.270  1.00 20.00     0.041 C 
HETATM    9  C9  UNL     1     -31.988   7.869   1.782  1.00 20.00     0.152 C 
HETATM   10  F11 UNL     1     -34.343   5.484   6.260  1.00 20.00    -0.203 F 
HETATM   11  F12 UNL     1     -34.041   3.950   4.024  1.00 20.00    -0.203 F 
ENDROOT
BRANCH   9  12
HETATM   12  O10 UNL     1     -32.590   7.658   0.521  1.00 20.00    -0.391 OA
HETATM   13  H20 UNL     1     -32.101   8.196  -0.125  1.00 20.00     0.210 HD
ENDBRANCH   9  12
TORSDOF 1
