REMARK  2 active torsions:
REMARK  status: ('A' for Active; 'I' for Inactive)
REMARK    1  A    between atoms: C7_7  and  C9_9 
REMARK    2  A    between atoms: C8_8  and  C10_10 
ROOT
HETATM    1  C1  UNL     1     -32.869   4.999   4.353  1.00 20.00     0.005 C 
HETATM    2  C2  UNL     1     -33.001   4.942   2.826  1.00 20.00     0.005 C 
HETATM    3  C3  UNL     1     -35.208   5.854   4.525  1.00 20.00     0.005 C 
HETATM    4  C4  UNL     1     -35.339   5.799   2.989  1.00 20.00     0.005 C 
HETATM    5  C7  UNL     1     -33.743   6.126   4.928  1.00 20.00    -0.010 C 
HETATM    6  C8  UNL     1     -33.965   6.029   2.326  1.00 20.00    -0.010 C 
ENDROOT
BRANCH   5   7
HETATM    7  C9  UNL     1     -33.358   7.483   4.309  1.00 20.00    -0.006 A 
HETATM    8  C5  UNL     1     -31.887   7.926   4.164  1.00 20.00     0.006 A 
HETATM    9  C6  UNL     1     -32.014   7.865   2.634  1.00 20.00     0.006 A 
HETATM   10  C10 UNL     1     -33.488   7.425   2.769  1.00 20.00    -0.006 A 
ENDBRANCH   5   7
TORSDOF 2
