REMARK  1 active torsions:
REMARK  status: ('A' for Active; 'I' for Inactive)
REMARK    1  A    between atoms: C1_1  and  C5_5 
ROOT
HETATM    1  C3  UNL     1     -33.208   8.047   4.747  1.00 20.00     0.207 C 
HETATM    2  C4  UNL     1     -33.916   5.998   5.645  1.00 20.00     0.208 C 
HETATM    3  C5  UNL     1     -33.556   7.600   3.325  1.00 20.00     0.267 C 
HETATM    4  C6  UNL     1     -34.299   5.450   4.259  1.00 20.00     0.172 C 
HETATM    5  C8  UNL     1     -33.948   3.956   4.190  1.00 20.00     0.051 C 
HETATM    6  C9  UNL     1     -35.809   5.615   4.005  1.00 20.00     0.051 C 
HETATM    7  N10 UNL     1     -33.510   6.136   3.220  1.00 20.00     0.104 N 
HETATM    8  O11 UNL     1     -34.072   7.417   5.693  1.00 20.00    -0.386 OA
HETATM    9  H28 UNL     1     -33.836   5.847   2.297  1.00 20.00     0.318 HD
ENDROOT
BRANCH   3  10
HETATM   10  C1  UNL     1     -32.618   8.221   2.339  1.00 20.00     0.006 C 
HETATM   11  C2  UNL     1     -33.007   9.040   1.352  1.00 20.00    -0.033 C 
HETATM   12  C7  UNL     1     -32.070   9.661   0.369  1.00 20.00     0.036 C 
ENDBRANCH   3  10
TORSDOF 1
