REMARK  1 active torsions:
REMARK  status: ('A' for Active; 'I' for Inactive)
REMARK    1  A    between atoms: C1_1  and  C8_8 
ROOT
HETATM    1  C1  UNL     1     -33.265   6.738   3.542  1.00 20.00     0.069 C 
HETATM    2  C2  UNL     1     -31.516   8.122   3.152  1.00 20.00     0.169 C 
HETATM    3  C3  UNL     1     -32.256   8.270   1.815  1.00 20.00     0.025 C 
HETATM    4  C4  UNL     1     -31.299   8.259   0.626  1.00 20.00     0.029 C 
HETATM    5  C5  UNL     1     -33.137   9.523   1.791  1.00 20.00     0.029 C 
HETATM    6  N9  UNL     1     -32.385   7.461   4.151  1.00 20.00    -0.285 NA
HETATM    7  S10 UNL     1     -33.313   6.789   1.800  1.00 20.00    -0.104 SA
ENDROOT
BRANCH   1   8
HETATM    8  C8  UNL     1     -34.268   5.893   4.250  1.00 20.00     0.036 C 
HETATM    9  C6  UNL     1     -34.127   4.430   3.835  1.00 20.00     0.016 C 
HETATM   10  C7  UNL     1     -34.136   6.037   5.767  1.00 20.00     0.016 C 
ENDBRANCH   1   8
TORSDOF 1
