REMARK  2 active torsions:
REMARK  status: ('A' for Active; 'I' for Inactive)
REMARK    1  A    between atoms: C1_1  and  C2_2 
REMARK    2  A    between atoms: C1_1  and  C3_3 
ROOT
HETATM    1  C1  UNL     1     -33.096   5.847   4.127  1.00 20.00     0.346 C 
HETATM    2  F4  UNL     1     -32.937   5.556   2.800  1.00 20.00    -0.234 F 
ENDROOT
BRANCH   1   3
HETATM    3  C2  UNL     1     -33.091   7.363   4.275  1.00 20.00     0.357 C 
HETATM    4  F5  UNL     1     -33.171   7.718   5.580  1.00 20.00    -0.184 F 
HETATM    5  F6  UNL     1     -34.174   7.893   3.655  1.00 20.00    -0.184 F 
HETATM    6 CL9  UNL     1     -31.619   8.071   3.579  1.00 20.00    -0.045 Cl
ENDBRANCH   1   3
BRANCH   1   7
HETATM    7  C3  UNL     1     -34.381   5.160   4.571  1.00 20.00     0.357 C 
HETATM    8  F7  UNL     1     -34.289   3.836   4.274  1.00 20.00    -0.184 F 
HETATM    9  F8  UNL     1     -35.431   5.642   3.860  1.00 20.00    -0.184 F 
HETATM   10 CL10 UNL     1     -34.709   5.328   6.303  1.00 20.00    -0.045 Cl
ENDBRANCH   1   7
TORSDOF 2
