REMARK  2 active torsions:
REMARK  status: ('A' for Active; 'I' for Inactive)
REMARK    1  A    between atoms: C5_5  and  C6_6 
REMARK    2  A    between atoms: C5_5  and  O8_8 
ROOT
HETATM    1  C1  UNL     1     -33.139   7.081   3.545  1.00 20.00     0.228 C 
HETATM    2  N7  UNL     1     -33.699   6.223   4.090  1.00 20.00    -0.164 NA
HETATM    3  O8  UNL     1     -32.491   8.068   2.929  1.00 20.00    -0.283 OA
ENDROOT
BRANCH   3   4
HETATM    4  C5  UNL     1     -32.958   8.211   1.594  1.00 20.00     0.198 C 
BRANCH   4   5
HETATM    5  C6  UNL     1     -32.245   9.378   0.880  1.00 20.00    -0.029 C 
HETATM    6  C2  UNL     1     -32.764   9.517  -0.561  1.00 20.00     0.016 C 
HETATM    7  C3  UNL     1     -30.735   9.097   0.850  1.00 20.00     0.016 C 
HETATM    8  C4  UNL     1     -32.500  10.696   1.630  1.00 20.00     0.016 C 
ENDBRANCH   4   5
ENDBRANCH   3   4
TORSDOF 2
