REMARK  0 active torsions:
REMARK  status: ('A' for Active; 'I' for Inactive)
ROOT
HETATM    1  C1  UNL     1     -32.755   5.343   2.893  1.00 20.00     0.175 C 
HETATM    2  C2  UNL     1     -35.485   5.873   3.124  1.00 20.00     0.175 C 
HETATM    3  C3  UNL     1     -33.626   7.582   4.312  1.00 20.00     0.175 C 
HETATM    4  C4  UNL     1     -34.034   5.025   5.352  1.00 20.00     0.175 C 
HETATM    5  S5  UNL     1     -34.290   5.201   1.939  1.00 20.00    -0.117 SA
HETATM    6  S6  UNL     1     -32.270   7.057   3.230  1.00 20.00    -0.117 SA
HETATM    7  S7  UNL     1     -35.237   7.633   3.482  1.00 20.00    -0.117 SA
HETATM    8  S8  UNL     1     -32.713   4.278   4.359  1.00 20.00    -0.117 SA
HETATM    9  S9  UNL     1     -35.679   4.854   4.611  1.00 20.00    -0.117 SA
HETATM   10  S10 UNL     1     -33.660   6.711   5.902  1.00 20.00    -0.117 SA
ENDROOT
TORSDOF 0
