REMARK  2 active torsions:
REMARK  status: ('A' for Active; 'I' for Inactive)
REMARK    1  A    between atoms: C1_1  and  C2_2 
REMARK    2  A    between atoms: C2_2  and  C3_3 
ROOT
HETATM    1  C2  UNL     1     -33.258   6.179   3.912  1.00 20.00     0.218 C 
HETATM    2 CL8  UNL     1     -33.155   5.376   2.318  1.00 20.00    -0.113 Cl
ENDROOT
BRANCH   1   3
HETATM    3  C1  UNL     1     -33.392   7.682   3.718  1.00 20.00     0.251 C 
HETATM    4  F4  UNL     1     -32.334   8.154   3.007  1.00 20.00    -0.254 F 
ENDBRANCH   1   3
BRANCH   1   5
HETATM    5  C3  UNL     1     -34.416   5.595   4.699  1.00 20.00     0.406 C 
HETATM    6  F5  UNL     1     -34.472   6.132   5.939  1.00 20.00    -0.169 F 
HETATM    7  F6  UNL     1     -34.312   4.256   4.837  1.00 20.00    -0.169 F 
HETATM    8  F7  UNL     1     -35.597   5.858   4.096  1.00 20.00    -0.169 F 
ENDBRANCH   1   5
TORSDOF 2
