REMARK  2 active torsions:
REMARK  status: ('A' for Active; 'I' for Inactive)
REMARK    1  A    between atoms: C4_4  and  C8_8 
REMARK    2  A    between atoms: C9_9  and  O11_11 
ROOT
HETATM    1  C1  UNL     1     -34.056   6.267   2.748  1.00 20.00    -0.079 C 
HETATM    2  C2  UNL     1     -34.618   6.305   1.529  1.00 20.00     0.015 C 
HETATM    3  C5  UNL     1     -33.727   4.964   3.432  1.00 20.00     0.065 C 
HETATM    4  C6  UNL     1     -33.663   7.232   5.057  1.00 20.00     0.016 C 
HETATM    5  C7  UNL     1     -34.683   6.181   5.489  1.00 20.00     0.033 C 
HETATM    6  C8  UNL     1     -33.777   7.526   3.547  1.00 20.00     0.041 C 
HETATM    7  C9  UNL     1     -34.455   4.840   4.778  1.00 20.00     0.122 C 
ENDROOT
BRANCH   6   8
HETATM    8  C4  UNL     1     -32.549   8.233   3.057  1.00 20.00    -0.085 C 
HETATM    9  C3  UNL     1     -31.515   8.503   3.867  1.00 20.00     0.014 C 
HETATM   10  C10 UNL     1     -32.544   8.621   1.608  1.00 20.00     0.043 C 
ENDBRANCH   6   8
BRANCH   7  11
HETATM   11  O11 UNL     1     -35.725   4.217   4.592  1.00 20.00    -0.395 OA
HETATM   12  H27 UNL     1     -36.139   4.164   5.468  1.00 20.00     0.210 HD
ENDBRANCH   7  11
TORSDOF 2
