REMARK  0 active torsions:
REMARK  status: ('A' for Active; 'I' for Inactive)
ROOT
HETATM    1  C1  UNL     1     -34.574   5.133   5.876  1.00 20.00     0.128 C 
HETATM    2  C2  UNL     1     -34.373   4.311   4.648  1.00 20.00     0.234 C 
HETATM    3  N3  UNL     1     -34.441   6.412   5.795  1.00 20.00    -0.203 NA
HETATM    4  O4  UNL     1     -33.899   5.225   3.674  1.00 20.00    -0.295 OA
HETATM    5  S5  UNL     1     -34.057   6.795   4.210  1.00 20.00     0.137 SA
ENDROOT
TORSDOF 0
