REMARK  3 active torsions:
REMARK  status: ('A' for Active; 'I' for Inactive)
REMARK    1  A    between atoms: C1_1  and  C3_3 
REMARK    2  A    between atoms: C2_2  and  C4_4 
REMARK    3  A    between atoms: C5_5  and  C6_6 
ROOT
HETATM    1  C3  UNL     1     -32.709   6.300   2.836  1.00 20.00     0.010 C 
HETATM    2  C5  UNL     1     -33.436   6.423   3.961  1.00 20.00    -0.017 C 
HETATM    3  C7  UNL     1     -33.819   7.683   4.672  1.00 20.00     0.052 C 
ENDROOT
BRANCH   1   4
HETATM    4  C1  UNL     1     -32.100   7.384   2.093  1.00 20.00     0.004 C 
HETATM    5  C2  UNL     1     -32.716   8.557   1.899  1.00 20.00     0.041 C 
BRANCH   5   6
HETATM    6  C4  UNL     1     -32.028   9.609   1.125  1.00 20.00     0.258 C 
HETATM    7  O9  UNL     1     -32.542  10.701   0.916  1.00 20.00    -0.302 OA
ENDBRANCH   5   6
ENDBRANCH   1   4
BRANCH   2   8
HETATM    8  C6  UNL     1     -33.951   5.141   4.537  1.00 20.00     0.151 C 
HETATM    9  C8  UNL     1     -34.242   4.017   3.577  1.00 20.00     0.096 C 
HETATM   10  O10 UNL     1     -34.113   5.007   5.749  1.00 20.00    -0.293 OA
ENDBRANCH   2   8
TORSDOF 3
