REMARK  2 active torsions:
REMARK  status: ('A' for Active; 'I' for Inactive)
REMARK    1  A    between atoms: C1_1  and  C2_2 
REMARK    2  A    between atoms: C2_2  and  C3_3 
ROOT
HETATM    1  C2  UNL     1     -33.679   6.272   3.671  1.00 20.00     0.205 C 
HETATM    2 CL7  UNL     1     -35.352   6.034   3.021  1.00 20.00    -0.092 Cl
HETATM    3 CL8  UNL     1     -32.655   4.997   2.898  1.00 20.00    -0.092 Cl
ENDROOT
BRANCH   1   4
HETATM    4  C1  UNL     1     -33.731   6.027   5.188  1.00 20.00     0.164 C 
HETATM    5 CL6  UNL     1     -34.363   4.423   5.643  1.00 20.00    -0.127 Cl
ENDBRANCH   1   4
BRANCH   1   6
HETATM    6  C3  UNL     1     -33.156   7.650   3.232  1.00 20.00     0.355 C 
HETATM    7  F4  UNL     1     -33.940   8.639   3.736  1.00 20.00    -0.184 F 
HETATM    8  F5  UNL     1     -31.917   7.860   3.755  1.00 20.00    -0.184 F 
HETATM    9 CL9  UNL     1     -33.064   7.853   1.467  1.00 20.00    -0.045 Cl
ENDBRANCH   1   6
TORSDOF 2
