REMARK  0 active torsions:
REMARK  status: ('A' for Active; 'I' for Inactive)
ROOT
HETATM    1  C1  UNL     1     -32.487   7.755   2.759  1.00 20.00     0.128 A 
HETATM    2  C2  UNL     1     -32.623   7.071   4.139  1.00 20.00     0.089 A 
HETATM    3  C3  UNL     1     -33.519   6.802   2.112  1.00 20.00     0.089 A 
HETATM    4  C4  UNL     1     -33.405   4.655   3.571  1.00 20.00     0.085 C 
HETATM    5  C5  UNL     1     -35.048   6.127   4.102  1.00 20.00     0.085 C 
HETATM    6  C6  UNL     1     -33.656   6.154   3.483  1.00 20.00    -0.011 A 
HETATM    7  O7  UNL     1     -31.827   8.684   2.343  1.00 20.00    -0.298 OA
HETATM    8  S8  UNL     1     -34.610   4.562   4.948  1.00 20.00    -0.167 SA
ENDROOT
TORSDOF 0
