REMARK  4 active torsions:
REMARK  status: ('A' for Active; 'I' for Inactive)
REMARK    1  A    between atoms: C2_2  and  C9_9 
REMARK    2  A    between atoms: C7_7  and  C8_8 
REMARK    3  A    between atoms: C8_8  and  C9_9 
REMARK    4  A    between atoms: C9_9  and  O11_11 
ROOT
HETATM    1  C3  UNL     1     -33.270   6.861   4.841  1.00 20.00     0.031 C 
HETATM    2  C4  UNL     1     -33.886   4.880   3.429  1.00 20.00     0.031 C 
HETATM    3  C5  UNL     1     -34.272   6.350   5.869  1.00 20.00     0.168 C 
HETATM    4  C6  UNL     1     -34.853   4.480   4.537  1.00 20.00     0.168 C 
HETATM    5  C7  UNL     1     -33.656   6.396   3.432  1.00 20.00    -0.008 C 
HETATM    6  O10 UNL     1     -34.381   4.929   5.807  1.00 20.00    -0.391 OA
ENDROOT
BRANCH   5   7
HETATM    7  C8  UNL     1     -32.594   6.793   2.411  1.00 20.00     0.040 C 
BRANCH   7   8
HETATM    8  C9  UNL     1     -32.433   8.309   2.263  1.00 20.00     0.140 C 
BRANCH   8   9
HETATM    9  C2  UNL     1     -31.840   8.708   0.943  1.00 20.00    -0.006 C 
HETATM   10  C1  UNL     1     -32.424   9.556   0.089  1.00 20.00     0.009 C 
ENDBRANCH   8   9
BRANCH   8  11
HETATM   11  O11 UNL     1     -31.545   8.769   3.283  1.00 20.00    -0.392 OA
HETATM   12  H27 UNL     1     -31.492   9.732   3.186  1.00 20.00     0.210 HD
ENDBRANCH   8  11
ENDBRANCH   7   8
ENDBRANCH   5   7
TORSDOF 4
