REMARK  4 active torsions:
REMARK  status: ('A' for Active; 'I' for Inactive)
REMARK    1  A    between atoms: C1_1  and  C6_6 
REMARK    2  A    between atoms: C2_2  and  C7_7 
REMARK    3  A    between atoms: C6_6  and  C8_8 
REMARK    4  A    between atoms: C7_7  and  C9_9 
ROOT
HETATM    1  C1  UNL     1     -32.554   7.400   2.403  1.00 20.00    -0.107 C 
HETATM    2  C2  UNL     1     -32.148   8.124   1.534  1.00 20.00    -0.106 C 
ENDROOT
BRANCH   2   3
HETATM    3  C7  UNL     1     -31.662   9.016   0.472  1.00 20.00     0.097 C 
BRANCH   3   4
HETATM    4  C9  UNL     1     -32.577  10.227   0.217  1.00 20.00    -0.012 C 
HETATM    5  C4  UNL     1     -32.735  11.107   1.459  1.00 20.00     0.010 C 
HETATM    6  C5  UNL     1     -33.946   9.817  -0.330  1.00 20.00     0.010 C 
ENDBRANCH   3   4
ENDBRANCH   2   3
BRANCH   1   7
HETATM    7  C6  UNL     1     -33.063   6.525   3.467  1.00 20.00     0.093 C 
BRANCH   7   8
HETATM    8  C8  UNL     1     -34.590   6.533   3.540  1.00 20.00     0.007 C 
HETATM    9  C3  UNL     1     -35.139   5.638   4.643  1.00 20.00     0.006 C 
ENDBRANCH   7   8
ENDBRANCH   1   7
TORSDOF 4
