REMARK  2 active torsions:
REMARK  status: ('A' for Active; 'I' for Inactive)
REMARK    1  A    between atoms: C1_1  and  C2_2 
REMARK    2  A    between atoms: C1_1  and  C3_3 
ROOT
HETATM    1  C2  UNL     1     -32.855   7.416   2.992  1.00 20.00     0.043 A 
HETATM    2  C4  UNL     1     -33.648   7.461   4.201  1.00 20.00     0.013 A 
HETATM    3  C5  UNL     1     -33.926   6.430   3.115  1.00 20.00    -0.023 A 
HETATM    4  C8  UNL     1     -33.037   7.104   5.512  1.00 20.00     0.012 C 
HETATM    5  C9  UNL     1     -33.503   4.994   3.307  1.00 20.00     0.017 C 
HETATM    6  C10 UNL     1     -35.211   6.581   2.337  1.00 20.00     0.017 C 
ENDROOT
BRANCH   1   7
HETATM    7  C1  UNL     1     -32.842   8.383   2.131  1.00 20.00    -0.159 C 
BRANCH   7   8
HETATM    8  C3  UNL     1     -32.829   9.358   1.263  1.00 20.00     0.022 C 
HETATM    9  C6  UNL     1     -33.638  10.610   1.449  1.00 20.00     0.029 C 
HETATM   10  C7  UNL     1     -32.000   9.307   0.011  1.00 20.00     0.029 C 
ENDBRANCH   7   8
ENDBRANCH   1   7
TORSDOF 2
