REMARK  0 active torsions:
REMARK  status: ('A' for Active; 'I' for Inactive)
ROOT
HETATM    1  C1  UNL     1     -35.795   4.842   4.649  1.00 20.00     0.411 C 
HETATM    2  C2  UNL     1     -33.889   5.832   5.281  1.00 20.00     0.368 C 
HETATM    3  C3  UNL     1     -33.932   5.765   3.778  1.00 20.00     0.199 C 
HETATM    4  C4  UNL     1     -33.085   4.635   3.199  1.00 20.00     0.070 C 
HETATM    5  O5  UNL     1     -36.885   4.295   4.716  1.00 20.00    -0.229 OA
HETATM    6  O6  UNL     1     -34.886   4.899   5.671  1.00 20.00    -0.257 OA
HETATM    7  O7  UNL     1     -35.310   5.481   3.539  1.00 20.00    -0.265 OA
HETATM    8  F8  UNL     1     -34.295   7.045   5.734  1.00 20.00    -0.214 F 
HETATM    9 CL9  UNL     1     -33.494   7.307   3.019  1.00 20.00    -0.082 Cl
ENDROOT
TORSDOF 0
