REMARK  0 active torsions:
REMARK  status: ('A' for Active; 'I' for Inactive)
ROOT
HETATM    1  C1  UNL     1     -33.022   7.263   4.417  1.00 20.00     0.005 C 
HETATM    2  C2  UNL     1     -33.042   5.228   5.858  1.00 20.00     0.005 C 
HETATM    3  C3  UNL     1     -32.503   6.588   3.132  1.00 20.00     0.005 C 
HETATM    4  C4  UNL     1     -32.526   4.234   4.800  1.00 20.00     0.005 C 
HETATM    5  C5  UNL     1     -34.879   6.058   2.857  1.00 20.00     0.010 C 
HETATM    6  C6  UNL     1     -34.897   4.181   4.186  1.00 20.00     0.010 C 
HETATM    7  C7  UNL     1     -33.940   6.319   5.228  1.00 20.00    -0.010 C 
HETATM    8  C8  UNL     1     -33.466   5.477   2.676  1.00 20.00    -0.010 C 
HETATM    9  C9  UNL     1     -33.479   4.184   3.592  1.00 20.00    -0.010 C 
HETATM   10  C10 UNL     1     -35.091   5.694   4.330  1.00 20.00    -0.010 C 
ENDROOT
TORSDOF 0
