REMARK  0 active torsions:
REMARK  status: ('A' for Active; 'I' for Inactive)
ROOT
HETATM    1  C1  UNL     1     -34.130   6.997   4.373  1.00 20.00     0.080 A 
HETATM    2  C2  UNL     1     -34.428   5.953   3.343  1.00 20.00     0.207 A 
HETATM    3  C3  UNL     1     -35.011   5.822   4.720  1.00 20.00     0.128 A 
HETATM    4  F4  UNL     1     -33.393   5.109   2.980  1.00 20.00    -0.246 F 
HETATM    5 CL5  UNL     1     -34.357   4.590   5.794  1.00 20.00    -0.103 Cl
HETATM    6 BR6  UNL     1     -36.886   6.143   4.927  1.00 20.00    -0.065 Br
ENDROOT
TORSDOF 0
