REMARK  0 active torsions:
REMARK  status: ('A' for Active; 'I' for Inactive)
ROOT
HETATM    1  C1  UNL     1     -32.751   7.895   2.893  1.00 20.00     0.141 C 
HETATM    2  C2  UNL     1     -31.711   8.582   3.744  1.00 20.00     0.079 C 
HETATM    3  C3  UNL     1     -32.308   9.003   5.079  1.00 20.00     0.008 C 
HETATM    4  C4  UNL     1     -33.280   7.984   5.684  1.00 20.00     0.017 C 
HETATM    5  C5  UNL     1     -33.368   3.915   3.788  1.00 20.00     0.085 C 
HETATM    6  C6  UNL     1     -34.619   4.212   4.596  1.00 20.00     0.084 C 
HETATM    7  C7  UNL     1     -33.481   6.711   3.516  1.00 20.00     0.130 C 
HETATM    8  C8  UNL     1     -33.189   6.605   5.018  1.00 20.00     0.068 C 
HETATM    9  O9  UNL     1     -32.959   8.252   1.733  1.00 20.00    -0.297 OA
HETATM   10  S10 UNL     1     -32.952   5.223   2.593  1.00 20.00    -0.155 SA
HETATM   11  S11 UNL     1     -34.371   5.488   5.871  1.00 20.00    -0.162 SA
ENDROOT
TORSDOF 0
