REMARK  1 active torsions:
REMARK  status: ('A' for Active; 'I' for Inactive)
REMARK    1  A    between atoms: C2_2  and  C4_4 
ROOT
HETATM    1  C1  UNL     1     -33.307   6.586   2.696  1.00 20.00    -0.010 C 
HETATM    2  C2  UNL     1     -34.009   6.339   3.815  1.00 20.00     0.021 C 
HETATM    3  C3  UNL     1     -32.465   7.787   2.410  1.00 20.00     0.037 C 
HETATM    4 CL5  UNL     1     -33.915   7.482   5.125  1.00 20.00    -0.088 Cl
ENDROOT
BRANCH   2   5
HETATM    5  C4  UNL     1     -34.852   5.137   4.099  1.00 20.00     0.165 C 
HETATM    6 CL6  UNL     1     -33.877   3.864   4.867  1.00 20.00    -0.125 Cl
ENDBRANCH   2   5
TORSDOF 1
