REMARK  0 active torsions:
REMARK  status: ('A' for Active; 'I' for Inactive)
ROOT
HETATM    1  C1  UNL     1     -32.620   7.515   2.373  1.00 20.00    -0.064 A 
HETATM    2  C2  UNL     1     -32.423   8.469   1.491  1.00 20.00    -0.084 C 
HETATM    3  C3  UNL     1     -34.562   5.255   3.400  1.00 20.00     0.002 C 
HETATM    4  C4  UNL     1     -33.486   5.124   2.313  1.00 20.00     0.010 C 
HETATM    5  C5  UNL     1     -34.577   6.743   3.786  1.00 20.00     0.014 C 
HETATM    6  C6  UNL     1     -32.459   6.151   2.682  1.00 20.00     0.028 A 
HETATM    7  C7  UNL     1     -33.137   7.175   3.646  1.00 20.00    -0.013 A 
HETATM    8  C8  UNL     1     -32.852   9.903   1.724  1.00 20.00     0.043 C 
HETATM    9  C9  UNL     1     -31.749   8.226   0.157  1.00 20.00     0.043 C 
HETATM   10  C10 UNL     1     -32.420   7.600   4.886  1.00 20.00     0.021 C 
ENDROOT
TORSDOF 0
