REMARK  4 active torsions:
REMARK  status: ('A' for Active; 'I' for Inactive)
REMARK    1  A    between atoms: C1_1  and  C7_7 
REMARK    2  A    between atoms: C1_1  and  C8_8 
REMARK    3  A    between atoms: C5_5  and  C6_6 
REMARK    4  A    between atoms: C6_6  and  C8_8 
ROOT
HETATM    1  C1  UNL     1     -33.695   6.072   3.114  1.00 20.00     0.148 C 
HETATM    2  O9  UNL     1     -33.282   5.305   2.242  1.00 20.00    -0.296 OA
ENDROOT
BRANCH   1   3
HETATM    3  C7  UNL     1     -34.598   5.591   4.249  1.00 20.00     0.049 C 
HETATM    4  C3  UNL     1     -34.432   6.464   5.490  1.00 20.00     0.017 C 
HETATM    5  C4  UNL     1     -34.296   4.132   4.569  1.00 20.00     0.017 C 
ENDBRANCH   1   3
BRANCH   1   6
HETATM    6  C8  UNL     1     -33.336   7.551   3.103  1.00 20.00     0.152 C 
HETATM    7 CL10 UNL     1     -31.909   7.735   4.161  1.00 20.00    -0.117 Cl
BRANCH   6   8
HETATM    8  C6  UNL     1     -33.016   8.052   1.695  1.00 20.00     0.027 C 
BRANCH   8   9
HETATM    9  C5  UNL     1     -32.701   9.550   1.676  1.00 20.00    -0.003 C 
HETATM   10  C2  UNL     1     -32.449  10.047   0.261  1.00 20.00     0.005 C 
ENDBRANCH   8   9
ENDBRANCH   6   8
ENDBRANCH   1   6
TORSDOF 4
