REMARK  0 active torsions:
REMARK  status: ('A' for Active; 'I' for Inactive)
ROOT
HETATM    1  C1  UNL     1     -33.723   6.774   5.986  1.00 20.00     0.001 C 
HETATM    2  C2  UNL     1     -34.811   5.698   6.173  1.00 20.00     0.005 C 
HETATM    3  C3  UNL     1     -33.980   3.976   4.436  1.00 20.00     0.005 C 
HETATM    4  C4  UNL     1     -33.306   4.395   3.111  1.00 20.00     0.006 C 
HETATM    5  C5  UNL     1     -33.920   7.622   4.717  1.00 20.00     0.010 C 
HETATM    6  C6  UNL     1     -35.492   5.912   3.783  1.00 20.00     0.014 C 
HETATM    7  C7  UNL     1     -33.676   6.866   2.168  1.00 20.00     0.015 A 
HETATM    8  C8  UNL     1     -35.148   4.903   4.885  1.00 20.00    -0.014 C 
HETATM    9  C9  UNL     1     -33.043   5.870   3.105  1.00 20.00    -0.005 A 
HETATM   10  C10 UNL     1     -34.225   6.705   3.562  1.00 20.00    -0.036 A 
ENDROOT
TORSDOF 0
