REMARK  2 active torsions:
REMARK  status: ('A' for Active; 'I' for Inactive)
REMARK    1  A    between atoms: C7_7  and  C9_9 
REMARK    2  A    between atoms: C8_8  and  C10_10 
ROOT
HETATM    1  C1  UNL     1     -32.091   9.600   1.632  1.00 20.00     0.012 C 
HETATM    2  C2  UNL     1     -32.655   8.786   2.311  1.00 20.00    -0.112 C 
HETATM    3  C6  UNL     1     -33.328   7.813   3.123  1.00 20.00     0.074 A 
HETATM    4  C9  UNL     1     -32.612   6.512   3.413  1.00 20.00     0.015 A 
HETATM    5  C10 UNL     1     -33.798   6.537   2.460  1.00 20.00     0.015 A 
ENDROOT
BRANCH   4   6
HETATM    6  C7  UNL     1     -33.027   5.479   4.471  1.00 20.00     0.014 C 
HETATM    7  C3  UNL     1     -34.234   5.926   5.274  1.00 20.00    -0.025 C 
HETATM    8  C4  UNL     1     -35.282   5.948   4.432  1.00 20.00    -0.025 C 
HETATM    9  C8  UNL     1     -34.770   5.517   3.071  1.00 20.00     0.014 C 
HETATM   10  C5  UNL     1     -33.761   4.460   3.573  1.00 20.00     0.018 C 
ENDBRANCH   4   6
TORSDOF 2
