REMARK  3 active torsions:
REMARK  status: ('A' for Active; 'I' for Inactive)
REMARK    1  A    between atoms: C1_1  and  C7_7 
REMARK    2  A    between atoms: C2_2  and  C8_8 
REMARK    3  A    between atoms: C8_8  and  C9_9 
ROOT
HETATM    1  C1  UNL     1     -32.092   8.642   2.697  1.00 20.00     0.157 A 
HETATM    2  C2  UNL     1     -32.667   7.551   3.568  1.00 20.00     0.185 A 
HETATM    3  O10 UNL     1     -31.999   7.258   2.333  1.00 20.00    -0.372 OA
ENDROOT
BRANCH   2   4
HETATM    4  C8  UNL     1     -34.122   7.203   3.591  1.00 20.00     0.204 C 
HETATM    5  F11 UNL     1     -34.328   6.167   2.732  1.00 20.00    -0.246 F 
BRANCH   4   6
HETATM    6  C9  UNL     1     -34.651   6.821   4.983  1.00 20.00     0.014 C 
HETATM    7  C5  UNL     1     -34.075   7.705   6.092  1.00 20.00     0.012 C 
HETATM    8  C6  UNL     1     -34.323   5.355   5.280  1.00 20.00     0.012 C 
ENDBRANCH   4   6
ENDBRANCH   2   4
BRANCH   1   9
HETATM    9  C7  UNL     1     -32.916   9.473   1.781  1.00 20.00     0.009 C 
HETATM   10  C3  UNL     1     -32.428  10.934   1.730  1.00 20.00     0.012 C 
HETATM   11  C4  UNL     1     -32.943   8.902   0.349  1.00 20.00     0.012 C 
ENDBRANCH   1   9
TORSDOF 3
