REMARK  0 active torsions:
REMARK  status: ('A' for Active; 'I' for Inactive)
ROOT
HETATM    1  C1  UNL     1     -32.242   8.797   0.894  1.00 20.00     0.012 C 
HETATM    2  C2  UNL     1     -32.532   8.039   1.778  1.00 20.00    -0.113 C 
HETATM    3  C3  UNL     1     -33.843   7.785   3.856  1.00 20.00     0.020 C 
HETATM    4  C4  UNL     1     -34.088   6.898   5.078  1.00 20.00     0.041 C 
HETATM    5  C5  UNL     1     -33.526   5.839   2.285  1.00 20.00     0.052 C 
HETATM    6  C6  UNL     1     -32.889   7.109   2.864  1.00 20.00     0.067 C 
HETATM    7  C7  UNL     1     -34.099   4.952   3.346  1.00 20.00     0.158 A 
HETATM    8  C8  UNL     1     -34.417   5.474   4.730  1.00 20.00     0.084 A 
HETATM    9  C9  UNL     1     -34.543   4.511   5.866  1.00 20.00     0.049 C 
HETATM   10  O10 UNL     1     -35.437   5.319   3.736  1.00 20.00    -0.370 OA
ENDROOT
TORSDOF 0
