REMARK  0 active torsions:
REMARK  status: ('A' for Active; 'I' for Inactive)
ROOT
HETATM    1  C1  UNL     1     -34.629   4.955   5.972  1.00 20.00     0.004 A 
HETATM    2  C2  UNL     1     -34.395   4.275   4.765  1.00 20.00     0.034 A 
HETATM    3  C3  UNL     1     -34.150   6.255   6.186  1.00 20.00     0.021 A 
HETATM    4  C4  UNL     1     -32.629   5.553   1.988  1.00 20.00     0.210 A 
HETATM    5  C5  UNL     1     -33.666   4.933   3.762  1.00 20.00     0.086 A 
HETATM    6  C6  UNL     1     -33.211   6.217   4.013  1.00 20.00     0.081 A 
HETATM    7  C7  UNL     1     -33.413   6.916   5.200  1.00 20.00     0.029 A 
HETATM    8  C8  UNL     1     -31.952   7.890   2.704  1.00 20.00     0.140 C 
HETATM    9  C9  UNL     1     -31.458   8.472   4.034  1.00 20.00     0.100 C 
HETATM   10  N10 UNL     1     -33.292   4.532   2.496  1.00 20.00    -0.242 NA
HETATM   11  N11 UNL     1     -32.562   6.587   2.869  1.00 20.00    -0.338 N 
HETATM   12  S12 UNL     1     -32.763   8.554   5.334  1.00 20.00    -0.126 SA
ENDROOT
TORSDOF 0
