REMARK  0 active torsions:
REMARK  status: ('A' for Active; 'I' for Inactive)
ROOT
HETATM    1  C1  UNL     1     -33.342   6.962   5.950  1.00 20.00     0.043 C 
HETATM    2  C2  UNL     1     -33.826   4.795   3.647  1.00 20.00     0.019 C 
HETATM    3  C3  UNL     1     -34.120   4.295   4.854  1.00 20.00     0.114 C 
HETATM    4  C4  UNL     1     -32.851   7.365   4.768  1.00 20.00     0.136 C 
HETATM    5  C5  UNL     1     -34.503   6.079   6.252  1.00 20.00     0.118 C 
HETATM    6  C6  UNL     1     -34.238   6.168   3.222  1.00 20.00     0.203 C 
HETATM    7  N7  UNL     1     -34.864   4.916   5.817  1.00 20.00    -0.273 NA
HETATM    8  O8  UNL     1     -33.186   7.093   3.474  1.00 20.00    -0.359 OA
ENDROOT
TORSDOF 0
