REMARK  0 active torsions:
REMARK  status: ('A' for Active; 'I' for Inactive)
ROOT
HETATM    1  C1  UNL     1     -35.142   5.844   3.222  1.00 20.00     0.177 A 
HETATM    2  C2  UNL     1     -34.422   5.923   4.520  1.00 20.00     0.218 A 
HETATM    3  O3  UNL     1     -33.018   4.423   2.725  1.00 20.00    -0.226 OA
HETATM    4  O4  UNL     1     -32.911   7.009   2.541  1.00 20.00    -0.226 OA
HETATM    5  S5  UNL     1     -33.285   5.767   3.172  1.00 20.00     0.165 S 
HETATM    6 CL6  UNL     1     -34.546   4.605   5.656  1.00 20.00    -0.107 Cl
ENDROOT
TORSDOF 0
