REMARK  1 active torsions:
REMARK  status: ('A' for Active; 'I' for Inactive)
REMARK    1  A    between atoms: C4_4  and  O11_11 
ROOT
HETATM    1  C1  UNL     1     -33.261  10.394   1.520  1.00 20.00    -0.021 C 
HETATM    2  C2  UNL     1     -33.394  10.082   0.220  1.00 20.00    -0.025 C 
HETATM    3  C3  UNL     1     -32.903   8.038   2.098  1.00 20.00    -0.043 C 
HETATM    4  C4  UNL     1     -33.227   7.294   3.158  1.00 20.00     0.045 C 
HETATM    5  C5  UNL     1     -33.058   7.643   0.634  1.00 20.00     0.046 C 
HETATM    6  C6  UNL     1     -31.339   9.268   0.906  1.00 20.00     0.022 C 
HETATM    7  C7  UNL     1     -32.270   9.419   2.114  1.00 20.00     0.040 C 
HETATM    8  C8  UNL     1     -32.479   8.904  -0.055  1.00 20.00     0.013 C 
HETATM    9  C9  UNL     1     -33.049   7.744   4.574  1.00 20.00     0.076 C 
ENDROOT
BRANCH   4  10
HETATM   10  O11 UNL     1     -33.759   6.030   2.985  1.00 20.00    -0.360 OA
HETATM   11  C10 UNL     1     -35.039   5.902   3.552  1.00 20.00     0.209 C 
ENDBRANCH   4  10
TORSDOF 1
