REMARK  0 active torsions:
REMARK  status: ('A' for Active; 'I' for Inactive)
ROOT
HETATM    1  C1  UNL     1     -34.449   5.008   5.214  1.00 20.00     0.083 C 
HETATM    2  C2  UNL     1     -32.293   6.529   2.770  1.00 20.00    -0.003 A 
HETATM    3  C3  UNL     1     -32.086   7.891   2.509  1.00 20.00    -0.011 A 
HETATM    4  C4  UNL     1     -32.320   7.592   3.821  1.00 20.00    -0.006 A 
HETATM    5  C5  UNL     1     -33.529   6.509   2.191  1.00 20.00    -0.016 C 
HETATM    6  C6  UNL     1     -35.114   5.380   3.928  1.00 20.00     0.052 C 
HETATM    7  C7  UNL     1     -33.023   7.726   1.285  1.00 20.00     0.023 C 
HETATM    8  C8  UNL     1     -33.871   7.220   5.819  1.00 20.00     0.153 C 
HETATM    9  C9  UNL     1     -33.801   7.589   4.358  1.00 20.00     0.022 C 
HETATM   10  C10 UNL     1     -34.677   6.737   3.380  1.00 20.00     0.007 C 
HETATM   11  N11 UNL     1     -33.899   5.795   6.060  1.00 20.00    -0.305 NA
ENDROOT
TORSDOF 0
