REMARK  0 active torsions:
REMARK  status: ('A' for Active; 'I' for Inactive)
ROOT
HETATM    1  C1  UNL     1     -34.074   5.721   3.834  1.00 20.00    -0.081 C 
HETATM    2  C2  UNL     1     -33.915   4.517   3.257  1.00 20.00     0.015 C 
HETATM    3  C3  UNL     1     -34.995   5.843   5.031  1.00 20.00     0.034 C 
HETATM    4  C4  UNL     1     -34.260   6.429   6.233  1.00 20.00     0.004 C 
HETATM    5  C5  UNL     1     -33.574   7.745   5.886  1.00 20.00     0.001 C 
HETATM    6  C6  UNL     1     -32.742   9.028   1.226  1.00 20.00     0.000 C 
HETATM    7  C7  UNL     1     -33.819   9.302   2.268  1.00 20.00     0.001 C 
HETATM    8  C8  UNL     1     -31.670   8.083   1.753  1.00 20.00     0.001 C 
HETATM    9  C9  UNL     1     -32.656   7.597   4.670  1.00 20.00     0.014 C 
HETATM   10  C10 UNL     1     -34.416   8.010   2.829  1.00 20.00     0.014 C 
HETATM   11  C11 UNL     1     -32.284   6.793   2.299  1.00 20.00     0.014 C 
HETATM   12  C12 UNL     1     -33.360   7.021   3.404  1.00 20.00    -0.018 C 
ENDROOT
TORSDOF 0
