REMARK  2 active torsions:
REMARK  status: ('A' for Active; 'I' for Inactive)
REMARK    1  A    between atoms: C1_1  and  C2_2 
REMARK    2  A    between atoms: C1_1  and  C3_3 
ROOT
HETATM    1  C1  UNL     1     -33.450   6.374   4.044  1.00 20.00     0.348 C 
HETATM    2  F4  UNL     1     -33.801   7.663   4.340  1.00 20.00    -0.234 F 
ENDROOT
BRANCH   1   3
HETATM    3  C2  UNL     1     -34.508   5.486   4.666  1.00 20.00     0.423 C 
HETATM    4  F5  UNL     1     -34.652   5.714   5.987  1.00 20.00    -0.168 F 
HETATM    5  F6  UNL     1     -35.710   5.662   4.078  1.00 20.00    -0.168 F 
HETATM    6  F7  UNL     1     -34.168   4.184   4.520  1.00 20.00    -0.168 F 
ENDBRANCH   1   3
BRANCH   1   7
HETATM    7  C3  UNL     1     -33.324   6.263   2.524  1.00 20.00     0.294 C 
HETATM    8  F8  UNL     1     -34.540   6.501   1.962  1.00 20.00    -0.204 F 
HETATM    9 CL9  UNL     1     -32.818   4.611   2.071  1.00 20.00    -0.062 Cl
HETATM   10 CL10 UNL     1     -32.150   7.423   1.856  1.00 20.00    -0.062 Cl
ENDBRANCH   1   7
TORSDOF 2
