REMARK  0 active torsions:
REMARK  status: ('A' for Active; 'I' for Inactive)
ROOT
HETATM    1  C1  UNL     1     -32.147   8.094   3.674  1.00 20.00    -0.028 C 
HETATM    2  C2  UNL     1     -32.673   7.542   2.573  1.00 20.00    -0.014 C 
HETATM    3  C3  UNL     1     -32.805   7.577   4.915  1.00 20.00     0.043 C 
HETATM    4  C4  UNL     1     -34.104   3.889   3.715  1.00 20.00     0.084 C 
HETATM    5  C5  UNL     1     -34.038   4.326   5.166  1.00 20.00     0.084 C 
HETATM    6  C6  UNL     1     -33.749   6.542   2.906  1.00 20.00     0.083 C 
HETATM    7  C7  UNL     1     -34.100   6.995   4.334  1.00 20.00     0.068 C 
HETATM    8  S8  UNL     1     -33.015   4.886   2.669  1.00 20.00    -0.158 SA
HETATM    9  S9  UNL     1     -34.965   5.856   5.448  1.00 20.00    -0.162 SA
ENDROOT
TORSDOF 0
