REMARK  0 active torsions:
REMARK  status: ('A' for Active; 'I' for Inactive)
ROOT
HETATM    1  C1  UNL     1     -35.220   6.313   3.821  1.00 20.00     0.062 A 
HETATM    2  C2  UNL     1     -34.209   5.886   4.843  1.00 20.00     0.119 A 
HETATM    3  C3  UNL     1     -33.761   6.217   3.445  1.00 20.00     0.112 A 
HETATM    4 CL4  UNL     1     -34.247   4.250   5.446  1.00 20.00    -0.122 Cl
HETATM    5 CL5  UNL     1     -33.293   4.942   2.324  1.00 20.00    -0.105 Cl
HETATM    6 BR6  UNL     1     -32.801   7.860   3.195  1.00 20.00    -0.066 Br
ENDROOT
TORSDOF 0
