REMARK  0 active torsions:
REMARK  status: ('A' for Active; 'I' for Inactive)
ROOT
HETATM    1  C1  UNL     1     -33.094   6.161   2.627  1.00 20.00     0.141 C 
HETATM    2  C2  UNL     1     -32.243   7.309   2.122  1.00 20.00     0.079 C 
HETATM    3  C3  UNL     1     -32.084   8.386   3.187  1.00 20.00     0.008 C 
HETATM    4  C4  UNL     1     -33.425   8.802   3.802  1.00 20.00     0.017 C 
HETATM    5  C5  UNL     1     -34.603   4.563   5.189  1.00 20.00     0.085 C 
HETATM    6  C6  UNL     1     -34.557   5.624   6.273  1.00 20.00     0.084 C 
HETATM    7  C7  UNL     1     -34.430   6.568   3.238  1.00 20.00     0.130 C 
HETATM    8  C8  UNL     1     -34.243   7.613   4.346  1.00 20.00     0.068 C 
HETATM    9  O9  UNL     1     -32.740   4.996   2.457  1.00 20.00    -0.297 OA
HETATM   10  S10 UNL     1     -35.455   5.134   3.691  1.00 20.00    -0.155 SA
HETATM   11  S11 UNL     1     -33.419   6.971   5.856  1.00 20.00    -0.162 SA
ENDROOT
TORSDOF 0
