REMARK  2 active torsions:
REMARK  status: ('A' for Active; 'I' for Inactive)
REMARK    1  A    between atoms: C7_7  and  C9_9 
REMARK    2  A    between atoms: C8_8  and  C10_10 
ROOT
HETATM    1  C1  UNL     1     -33.602   4.511   3.450  1.00 20.00     0.005 C 
HETATM    2  C2  UNL     1     -32.755   5.405   2.503  1.00 20.00     0.005 C 
HETATM    3  C3  UNL     1     -35.584   6.007   3.378  1.00 20.00     0.005 C 
HETATM    4  C4  UNL     1     -34.918   6.554   2.086  1.00 20.00     0.005 C 
HETATM    5  C7  UNL     1     -34.513   5.422   4.323  1.00 20.00    -0.010 C 
HETATM    6  C8  UNL     1     -33.407   6.797   2.362  1.00 20.00    -0.010 C 
ENDROOT
BRANCH   5   7
HETATM    7  C9  UNL     1     -33.555   6.505   4.839  1.00 20.00    -0.006 C 
HETATM    8  C5  UNL     1     -33.485   7.741   5.778  1.00 20.00     0.006 C 
HETATM    9  C6  UNL     1     -32.454   8.283   4.694  1.00 20.00     0.006 C 
HETATM   10  C10 UNL     1     -33.400   7.568   3.690  1.00 20.00    -0.006 C 
ENDBRANCH   5   7
TORSDOF 2
