REMARK  2 active torsions:
REMARK  status: ('A' for Active; 'I' for Inactive)
REMARK    1  A    between atoms: C1_1  and  C2_2 
REMARK    2  A    between atoms: C1_1  and  C3_3 
ROOT
HETATM    1  C2  UNL     1     -32.336   6.819   2.830  1.00 20.00     0.043 A 
HETATM    2  C4  UNL     1     -33.133   6.665   4.027  1.00 20.00     0.013 A 
HETATM    3  C5  UNL     1     -33.356   5.777   2.808  1.00 20.00    -0.023 A 
HETATM    4  C8  UNL     1     -34.132   7.669   4.492  1.00 20.00     0.012 C 
HETATM    5  C9  UNL     1     -32.868   4.350   2.894  1.00 20.00     0.017 C 
HETATM    6  C10 UNL     1     -34.606   5.931   1.975  1.00 20.00     0.017 C 
ENDROOT
BRANCH   1   7
HETATM    7  C1  UNL     1     -32.327   7.870   2.073  1.00 20.00    -0.159 C 
BRANCH   7   8
HETATM    8  C3  UNL     1     -32.318   8.928   1.310  1.00 20.00     0.022 C 
HETATM    9  C6  UNL     1     -33.161  10.137   1.602  1.00 20.00     0.029 C 
HETATM   10  C7  UNL     1     -31.460   9.024   0.080  1.00 20.00     0.029 C 
ENDBRANCH   7   8
ENDBRANCH   1   7
TORSDOF 2
