REMARK  4 active torsions:
REMARK  status: ('A' for Active; 'I' for Inactive)
REMARK    1  A    between atoms: C3_3  and  C5_5 
REMARK    2  A    between atoms: C5_5  and  N8_8 
REMARK    3  A    between atoms: C6_6  and  C7_7 
REMARK    4  A    between atoms: C6_6  and  N8_8 
ROOT
HETATM    1  N8  UNL     1     -32.890   8.347   2.347  1.00 20.00     0.089 N 
HETATM    2  H23 UNL     1     -33.156   9.259   2.735  1.00 20.00     0.316 HD
ENDROOT
BRANCH   1   3
HETATM    3  C5  UNL     1     -32.694   7.395   3.406  1.00 20.00     0.274 C 
BRANCH   3   4
HETATM    4  C3  UNL     1     -33.937   7.215   4.206  1.00 20.00     0.018 A 
HETATM    5  C1  UNL     1     -35.046   6.333   3.693  1.00 20.00     0.011 A 
HETATM    6  C2  UNL     1     -34.221   5.895   4.875  1.00 20.00    -0.013 A 
HETATM    7  C4  UNL     1     -34.823   5.861   6.237  1.00 20.00     0.010 C 
ENDBRANCH   3   4
ENDBRANCH   1   3
BRANCH   1   8
HETATM    8  C6  UNL     1     -31.677   8.524   1.547  1.00 20.00     0.340 C 
BRANCH   8   9
HETATM    9  C7  UNL     1     -31.908   9.541   0.449  1.00 20.00     0.381 C 
HETATM   10  F9  UNL     1     -32.299  10.723   0.989  1.00 20.00    -0.213 F 
HETATM   11  F10 UNL     1     -32.929   9.120  -0.340  1.00 20.00    -0.213 F 
ENDBRANCH   8   9
ENDBRANCH   1   8
TORSDOF 4
