REMARK  3 active torsions:
REMARK  status: ('A' for Active; 'I' for Inactive)
REMARK       I    between atoms: C1_1  and  N10_10 
REMARK    1  A    between atoms: C7_7  and  C8_8 
REMARK    2  A    between atoms: C7_7  and  N10_10 
REMARK    3  A    between atoms: C8_8  and  C9_9 
ROOT
HETATM    1  C7  UNL     1     -32.251   6.678   2.542  1.00 20.00     0.127 C 
ENDROOT
BRANCH   1   2
HETATM    2  C8  UNL     1     -32.662   6.433   4.010  1.00 20.00     0.007 C 
HETATM    3  C3  UNL     1     -32.581   7.760   4.788  1.00 20.00     0.012 C 
BRANCH   2   4
HETATM    4  C9  UNL     1     -34.056   5.714   4.155  1.00 20.00    -0.047 C 
HETATM    5  C4  UNL     1     -34.377   5.464   5.646  1.00 20.00     0.015 C 
HETATM    6  C5  UNL     1     -34.096   4.361   3.420  1.00 20.00     0.015 C 
HETATM    7  C6  UNL     1     -35.188   6.602   3.593  1.00 20.00     0.015 C 
ENDBRANCH   2   4
ENDBRANCH   1   2
BRANCH   1   8
HETATM    8  N10 UNL     1     -32.762   7.923   2.029  1.00 20.00    -0.361 N 
HETATM    9  C1  UNL     1     -32.118   8.665   1.054  1.00 20.00     0.213 C 
HETATM   10  C2  UNL     1     -32.828   9.921   0.671  1.00 20.00     0.117 C 
HETATM   11  O11 UNL     1     -31.059   8.379   0.507  1.00 20.00    -0.274 OA
HETATM   12  H30 UNL     1     -33.641   8.275   2.402  1.00 20.00     0.162 HD
ENDBRANCH   1   8
TORSDOF 3
