REMARK  2 active torsions:
REMARK  status: ('A' for Active; 'I' for Inactive)
REMARK    1  A    between atoms: C5_5  and  C7_7 
REMARK    2  A    between atoms: C6_6  and  C7_7 
ROOT
HETATM    1  C1  UNL     1     -33.806   5.222   3.541  1.00 20.00     0.033 C 
HETATM    2  C2  UNL     1     -34.372   4.122   4.415  1.00 20.00     0.168 C 
HETATM    3  C3  UNL     1     -34.035   6.010   5.739  1.00 20.00     0.172 C 
HETATM    4  C5  UNL     1     -34.222   6.462   4.301  1.00 20.00     0.014 C 
HETATM    5  O8  UNL     1     -34.339   4.606   5.766  1.00 20.00    -0.391 OA
ENDROOT
BRANCH   4   6
HETATM    6  C7  UNL     1     -33.431   7.706   3.943  1.00 20.00     0.041 C 
BRANCH   6   7
HETATM    7  C6  UNL     1     -33.132   7.780   2.477  1.00 20.00     0.145 A 
HETATM    8  C4  UNL     1     -31.823   8.323   1.977  1.00 20.00     0.200 A 
HETATM    9  O9  UNL     1     -33.026   9.109   1.959  1.00 20.00    -0.381 OA
ENDBRANCH   6   7
ENDBRANCH   4   6
TORSDOF 2
