REMARK  1 active torsions:
REMARK  status: ('A' for Active; 'I' for Inactive)
REMARK    1  A    between atoms: C4_4  and  C8_8 
ROOT
HETATM    1  C1  UNL     1     -33.375   7.269   4.374  1.00 20.00     0.137 C 
HETATM    2  C2  UNL     1     -32.299   8.218   3.907  1.00 20.00     0.095 C 
HETATM    3  C3  UNL     1     -34.300   6.772   3.295  1.00 20.00     0.152 C 
HETATM    4  C4  UNL     1     -32.038   7.893   2.443  1.00 20.00     0.062 C 
HETATM    5  O9  UNL     1     -33.519   6.964   5.555  1.00 20.00    -0.297 OA
HETATM    6  S10 UNL     1     -33.675   7.504   1.764  1.00 20.00    -0.156 SA
ENDROOT
BRANCH   4   7
HETATM    7  C8  UNL     1     -31.386   9.042   1.694  1.00 20.00    -0.038 C 
HETATM    8  C5  UNL     1     -31.204   8.655   0.220  1.00 20.00     0.015 C 
HETATM    9  C6  UNL     1     -30.015   9.346   2.316  1.00 20.00     0.015 C 
HETATM   10  C7  UNL     1     -32.279  10.288   1.790  1.00 20.00     0.015 C 
ENDBRANCH   4   7
TORSDOF 1
