REMARK  1 active torsions:
REMARK  status: ('A' for Active; 'I' for Inactive)
REMARK    1  A    between atoms: C2_2  and  C6_6 
ROOT
HETATM    1  C1  UNL     1     -32.798   5.474   2.931  1.00 20.00     0.011 C 
HETATM    2  C2  UNL     1     -33.132   6.684   3.408  1.00 20.00     0.026 C 
HETATM    3  C3  UNL     1     -33.392   4.208   3.474  1.00 20.00     0.195 C 
HETATM    4  C4  UNL     1     -34.162   6.810   4.499  1.00 20.00     0.069 C 
HETATM    5  C5  UNL     1     -34.962   5.520   4.666  1.00 20.00     0.172 C 
HETATM    6  O7  UNL     1     -34.072   4.406   4.718  1.00 20.00    -0.387 OA
ENDROOT
BRANCH   2   7
HETATM    7  C6  UNL     1     -32.517   7.953   2.903  1.00 20.00     0.413 C 
HETATM    8  F8  UNL     1     -33.023   9.024   3.547  1.00 20.00    -0.166 F 
HETATM    9  F9  UNL     1     -31.181   7.951   3.088  1.00 20.00    -0.166 F 
HETATM   10  F10 UNL     1     -32.751   8.115   1.584  1.00 20.00    -0.166 F 
ENDBRANCH   2   7
TORSDOF 1
