REMARK  1 active torsions:
REMARK  status: ('A' for Active; 'I' for Inactive)
REMARK    1  A    between atoms: C2_2  and  C4_4 
ROOT
HETATM    1  C1  UNL     1     -35.256   5.820   3.570  1.00 20.00     0.092 A 
HETATM    2  C2  UNL     1     -34.190   4.842   4.014  1.00 20.00     0.092 A 
HETATM    3  C3  UNL     1     -33.824   6.218   3.588  1.00 20.00     0.250 A 
HETATM    4  F5  UNL     1     -33.146   6.429   2.408  1.00 20.00    -0.206 F 
HETATM    5  F6  UNL     1     -33.371   7.150   4.494  1.00 20.00    -0.206 F 
ENDROOT
BRANCH   2   6
HETATM    6  C4  UNL     1     -34.087   4.445   5.445  1.00 20.00     0.232 C 
HETATM    7  F7  UNL     1     -34.278   5.539   6.240  1.00 20.00    -0.255 F 
ENDBRANCH   2   6
TORSDOF 1
