REMARK  1 active torsions:
REMARK  status: ('A' for Active; 'I' for Inactive)
REMARK    1  A    between atoms: C2_2  and  C6_6 
ROOT
HETATM    1  C1  UNL     1     -33.312   7.233   4.278  1.00 20.00     0.139 C 
HETATM    2  C4  UNL     1     -34.696   6.685   4.653  1.00 20.00     0.081 C 
HETATM    3  C5  UNL     1     -34.879   6.285   3.173  1.00 20.00     0.028 C 
HETATM    4  C6  UNL     1     -33.407   6.682   2.831  1.00 20.00     0.035 C 
HETATM    5  C8  UNL     1     -32.471   5.515   2.548  1.00 20.00     0.027 C 
HETATM    6  O9  UNL     1     -32.469   7.851   4.895  1.00 20.00    -0.297 OA
ENDROOT
BRANCH   4   7
HETATM    7  C2  UNL     1     -33.288   7.783   1.844  1.00 20.00    -0.014 C 
HETATM    8  C3  UNL     1     -32.218   8.585   1.746  1.00 20.00    -0.034 C 
HETATM    9  C7  UNL     1     -32.098   9.692   0.752  1.00 20.00     0.036 C 
ENDBRANCH   4   7
TORSDOF 1
