REMARK  0 active torsions:
REMARK  status: ('A' for Active; 'I' for Inactive)
ROOT
HETATM    1  C1  UNL     1     -33.519   7.149   3.564  1.00 20.00     0.221 C 
HETATM    2  C2  UNL     1     -35.673   5.720   3.930  1.00 20.00     0.020 C 
HETATM    3  C3  UNL     1     -33.899   4.581   3.841  1.00 20.00     0.020 C 
HETATM    4  C4  UNL     1     -34.001   6.220   5.845  1.00 20.00     0.127 C 
HETATM    5  C5  UNL     1     -34.346   5.896   3.122  1.00 20.00     0.078 C 
HETATM    6  C6  UNL     1     -34.731   5.147   5.031  1.00 20.00     0.005 C 
HETATM    7  N7  UNL     1     -33.409   7.212   4.948  1.00 20.00    -0.360 N 
HETATM    8  O8  UNL     1     -33.020   7.985   2.811  1.00 20.00    -0.273 OA
HETATM    9  H17 UNL     1     -32.893   7.985   5.357  1.00 20.00     0.162 HD
ENDROOT
TORSDOF 0
