REMARK  0 active torsions:
REMARK  status: ('A' for Active; 'I' for Inactive)
ROOT
HETATM    1  C1  UNL     1     -34.199   5.335   3.936  1.00 20.00     0.102 C 
HETATM    2  C2  UNL     1     -33.046   6.677   2.251  1.00 20.00     0.050 A 
HETATM    3  C3  UNL     1     -32.029   8.786   2.849  1.00 20.00     0.069 A 
HETATM    4  C4  UNL     1     -33.464   6.505   3.570  1.00 20.00     0.087 A 
HETATM    5  C5  UNL     1     -32.447   8.613   4.169  1.00 20.00     0.158 A 
HETATM    6  C6  UNL     1     -33.165   7.472   4.529  1.00 20.00     0.175 A 
HETATM    7  C7  UNL     1     -32.328   7.818   1.890  1.00 20.00     0.038 A 
HETATM    8  N8  UNL     1     -34.796   4.385   4.233  1.00 20.00    -0.191 NA
HETATM    9  F9  UNL     1     -32.159   9.542   5.089  1.00 20.00    -0.203 F 
HETATM   10  F10 UNL     1     -33.559   7.320   5.802  1.00 20.00    -0.201 F 
HETATM   11 CL11 UNL     1     -31.814   8.032   0.262  1.00 20.00    -0.084 Cl
ENDROOT
TORSDOF 0
