REMARK  5 active torsions:
REMARK  status: ('A' for Active; 'I' for Inactive)
REMARK    1  A    between atoms: C3_3  and  C7_7 
REMARK    2  A    between atoms: C4_4  and  C8_8 
REMARK    3  A    between atoms: C7_7  and  C9_9 
REMARK    4  A    between atoms: C8_8  and  C10_10 
REMARK    5  A    between atoms: C9_9  and  C10_10 
ROOT
HETATM    1  C9  UNL     1     -32.297   7.067   3.604  1.00 20.00     0.004 C 
ENDROOT
BRANCH   1   2
HETATM    2  C7  UNL     1     -31.401   8.081   2.889  1.00 20.00     0.026 C 
BRANCH   2   3
HETATM    3  C3  UNL     1     -32.216   9.085   2.127  1.00 20.00    -0.031 C 
HETATM    4  C1  UNL     1     -32.606   8.917   0.855  1.00 20.00    -0.035 C 
HETATM    5  C5  UNL     1     -33.411   9.918   0.094  1.00 20.00     0.035 C 
ENDBRANCH   2   3
ENDBRANCH   1   2
BRANCH   1   6
HETATM    6  C10 UNL     1     -33.255   7.760   4.576  1.00 20.00     0.004 C 
BRANCH   6   7
HETATM    7  C8  UNL     1     -34.178   6.750   5.262  1.00 20.00     0.026 C 
BRANCH   7   8
HETATM    8  C4  UNL     1     -34.985   5.981   4.257  1.00 20.00    -0.031 C 
HETATM    9  C2  UNL     1     -34.967   4.644   4.152  1.00 20.00    -0.035 C 
HETATM   10  C6  UNL     1     -34.142   3.753   5.020  1.00 20.00     0.035 C 
ENDBRANCH   7   8
ENDBRANCH   6   7
ENDBRANCH   1   6
TORSDOF 5
