REMARK  0 active torsions:
REMARK  status: ('A' for Active; 'I' for Inactive)
ROOT
HETATM    1  C1  UNL     1     -33.295   7.683   3.851  1.00 20.00     0.088 C 
HETATM    2  C2  UNL     1     -34.759   4.840   5.854  1.00 20.00     0.001 C 
HETATM    3  C3  UNL     1     -34.095   6.238   5.981  1.00 20.00     0.010 C 
HETATM    4  C4  UNL     1     -34.866   4.539   4.337  1.00 20.00     0.007 C 
HETATM    5  C5  UNL     1     -33.857   6.108   2.386  1.00 20.00     0.153 C 
HETATM    6  C6  UNL     1     -34.220   6.772   4.581  1.00 20.00     0.031 C 
HETATM    7  C7  UNL     1     -33.884   5.532   3.776  1.00 20.00     0.014 C 
HETATM    8  N8  UNL     1     -33.110   7.392   2.595  1.00 20.00    -0.305 NA
ENDROOT
TORSDOF 0
