REMARK  1 active torsions:
REMARK  status: ('A' for Active; 'I' for Inactive)
REMARK    1  A    between atoms: C5_5  and  C6_6 
ROOT
HETATM    1  C1  UNL     1     -34.449   5.586   4.605  1.00 20.00     0.078 C 
HETATM    2  C2  UNL     1     -34.136   5.329   3.332  1.00 20.00    -0.018 C 
HETATM    3  C3  UNL     1     -33.928   6.792   5.277  1.00 20.00     0.283 C 
HETATM    4  C4  UNL     1     -33.327   6.279   2.515  1.00 20.00     0.061 C 
HETATM    5  C5  UNL     1     -33.523   7.687   3.060  1.00 20.00     0.149 C 
HETATM    6  O7  UNL     1     -34.023   6.924   6.492  1.00 20.00    -0.260 OA
HETATM    7  O8  UNL     1     -33.312   7.712   4.489  1.00 20.00    -0.311 OA
ENDROOT
BRANCH   5   8
HETATM    8  C6  UNL     1     -32.549   8.670   2.425  1.00 20.00     0.147 C 
HETATM    9 CL9  UNL     1     -32.779   8.715   0.667  1.00 20.00    -0.128 Cl
ENDBRANCH   5   8
TORSDOF 1
