REMARK  1 active torsions:
REMARK  status: ('A' for Active; 'I' for Inactive)
REMARK    1  A    between atoms: N9_9  and  O10_10 
ROOT
HETATM    1  C1  UNL     1     -32.348   7.755   3.717  1.00 20.00     0.044 C 
HETATM    2  C2  UNL     1     -32.467   7.256   2.288  1.00 20.00     0.058 C 
HETATM    3  C3  UNL     1     -33.825   6.518   2.319  1.00 20.00     0.011 C 
HETATM    4  C4  UNL     1     -34.818   5.980   5.961  1.00 20.00     0.001 C 
HETATM    5  C5  UNL     1     -33.587   6.921   5.946  1.00 20.00     0.011 C 
HETATM    6  C6  UNL     1     -35.182   5.701   4.482  1.00 20.00     0.005 C 
HETATM    7  C7  UNL     1     -33.556   7.397   4.519  1.00 20.00     0.040 C 
HETATM    8  C8  UNL     1     -33.916   6.111   3.775  1.00 20.00    -0.004 C 
HETATM    9  N9  UNL     1     -31.341   8.429   4.153  1.00 20.00    -0.145 NA
ENDROOT
BRANCH   9  10
HETATM   10  O10 UNL     1     -31.556   8.724   5.501  1.00 20.00    -0.266 OA
HETATM   11  H23 UNL     1     -30.752   9.224   5.723  1.00 20.00     0.247 HD
ENDBRANCH   9  10
TORSDOF 1
