REMARK  1 active torsions:
REMARK  status: ('A' for Active; 'I' for Inactive)
REMARK    1  A    between atoms: C7_7  and  C8_8 
ROOT
HETATM    1  C4  UNL     1     -33.321   6.024   2.565  1.00 20.00     0.038 C 
HETATM    2  C5  UNL     1     -33.812   4.691   3.126  1.00 20.00     0.270 C 
HETATM    3  C6  UNL     1     -34.362   5.703   5.248  1.00 20.00     0.307 C 
HETATM    4  C8  UNL     1     -32.822   6.948   3.680  1.00 20.00     0.027 C 
HETATM    5  C9  UNL     1     -33.883   7.071   4.775  1.00 20.00     0.202 C 
HETATM    6  N10 UNL     1     -34.850   4.888   4.138  1.00 20.00     0.086 N 
HETATM    7  F11 UNL     1     -33.336   7.720   5.840  1.00 20.00    -0.247 F 
HETATM    8  H27 UNL     1     -35.647   5.357   3.707  1.00 20.00     0.315 HD
ENDROOT
BRANCH   4   9
HETATM    9  C7  UNL     1     -32.498   8.327   3.107  1.00 20.00    -0.008 C 
HETATM   10  C2  UNL     1     -33.667   9.094   2.436  1.00 20.00     0.005 C 
HETATM   11  C1  UNL     1     -32.641   9.611   1.407  1.00 20.00     0.001 C 
HETATM   12  C3  UNL     1     -31.799   8.357   1.722  1.00 20.00     0.005 C 
ENDBRANCH   4   9
TORSDOF 1
