REMARK  2 active torsions:
REMARK  status: ('A' for Active; 'I' for Inactive)
REMARK    1  A    between atoms: C1_1  and  C3_3 
REMARK    2  A    between atoms: C2_2  and  C4_4 
ROOT
HETATM    1  C4  UNL     1     -32.723   6.686   3.901  1.00 20.00     0.097 C 
HETATM    2  C5  UNL     1     -34.003   7.061   4.696  1.00 20.00     0.074 C 
HETATM    3  C6  UNL     1     -33.568   5.583   3.207  1.00 20.00     0.315 C 
HETATM    4  C7  UNL     1     -34.490   5.605   4.458  1.00 20.00     0.312 C 
HETATM    5  C8  UNL     1     -33.803   7.475   6.141  1.00 20.00     0.017 C 
HETATM    6  F10 UNL     1     -34.175   5.932   2.049  1.00 20.00    -0.199 F 
HETATM    7  F11 UNL     1     -32.928   4.415   2.977  1.00 20.00    -0.199 F 
HETATM    8  F12 UNL     1     -35.811   5.462   4.213  1.00 20.00    -0.199 F 
HETATM    9  F13 UNL     1     -34.170   4.708   5.420  1.00 20.00    -0.199 F 
ENDROOT
BRANCH   1  10
HETATM   10  C2  UNL     1     -32.193   7.736   3.012  1.00 20.00    -0.012 C 
HETATM   11  C1  UNL     1     -32.950   8.418   2.145  1.00 20.00     0.038 C 
BRANCH  11  12
HETATM   12  C3  UNL     1     -32.322   9.451   1.299  1.00 20.00     0.258 C 
HETATM   13  O9  UNL     1     -32.967  10.105   0.488  1.00 20.00    -0.302 OA
ENDBRANCH  11  12
ENDBRANCH   1  10
TORSDOF 2
