REMARK  0 active torsions:
REMARK  status: ('A' for Active; 'I' for Inactive)
ROOT
HETATM    1  C1  UNL     1     -33.973   6.519   5.235  1.00 20.00     0.135 C 
HETATM    2  C2  UNL     1     -32.926   7.107   4.315  1.00 20.00     0.110 C 
HETATM    3  C3  UNL     1     -35.209   5.686   3.253  1.00 20.00     0.179 C 
HETATM    4  C4  UNL     1     -34.785   5.360   4.684  1.00 20.00     0.075 C 
HETATM    5  C5  UNL     1     -33.511   7.297   2.919  1.00 20.00     0.124 C 
HETATM    6  C6  UNL     1     -33.959   4.081   4.762  1.00 20.00     0.020 C 
HETATM    7  C7  UNL     1     -32.431   7.707   1.927  1.00 20.00     0.040 C 
HETATM    8  O8  UNL     1     -34.089   6.891   6.402  1.00 20.00    -0.297 OA
HETATM    9  O9  UNL     1     -34.089   6.072   2.453  1.00 20.00    -0.385 OA
ENDROOT
TORSDOF 0
