REMARK  2 active torsions:
REMARK  status: ('A' for Active; 'I' for Inactive)
REMARK    1  A    between atoms: C1_1  and  C7_7 
REMARK    2  A    between atoms: C4_4  and  C7_7 
ROOT
HETATM    1  C2  UNL     1     -34.404   3.976   4.341  1.00 20.00     0.197 C 
HETATM    2  C3  UNL     1     -35.340   4.902   5.069  1.00 20.00     0.197 C 
HETATM    3  C4  UNL     1     -34.296   6.041   3.409  1.00 20.00     0.169 C 
HETATM    4  C5  UNL     1     -34.621   6.102   1.923  1.00 20.00     0.080 C 
HETATM    5  O9  UNL     1     -33.510   4.867   3.675  1.00 20.00    -0.353 OA
HETATM    6  O10 UNL     1     -35.527   5.975   4.147  1.00 20.00    -0.353 OA
ENDROOT
BRANCH   3   7
HETATM    7  C7  UNL     1     -33.507   7.266   3.855  1.00 20.00     0.105 C 
HETATM    8  C6  UNL     1     -33.181   7.197   5.342  1.00 20.00     0.023 C 
BRANCH   7   9
HETATM    9  C1  UNL     1     -32.253   7.383   3.009  1.00 20.00     0.240 C 
HETATM   10  O8  UNL     1     -31.999   8.325   2.265  1.00 20.00    -0.306 OA
ENDBRANCH   7   9
ENDBRANCH   3   7
TORSDOF 2
