REMARK  2 active torsions:
REMARK  status: ('A' for Active; 'I' for Inactive)
REMARK    1  A    between atoms: C2_2  and  C6_6 
REMARK    2  A    between atoms: C3_3  and  C6_6 
ROOT
HETATM    1  C1  UNL     1     -32.735   8.413   2.211  1.00 20.00    -0.110 C 
HETATM    2  C2  UNL     1     -33.428   7.789   2.968  1.00 20.00    -0.092 C 
HETATM    3  C4  UNL     1     -31.890   9.171   1.289  1.00 20.00     0.112 C 
ENDROOT
BRANCH   2   4
HETATM    4  C6  UNL     1     -34.281   7.024   3.896  1.00 20.00     0.162 C 
HETATM    5  C5  UNL     1     -34.037   7.475   5.332  1.00 20.00     0.035 C 
BRANCH   4   6
HETATM    6  C3  UNL     1     -34.046   5.517   3.687  1.00 20.00     0.188 C 
HETATM    7  O7  UNL     1     -34.253   4.807   4.714  1.00 20.00    -0.647 OA
HETATM    8  O8  UNL     1     -33.679   5.160   2.533  1.00 20.00    -0.647 OA
ENDBRANCH   4   6
ENDBRANCH   2   4
TORSDOF 2
