REMARK  2 active torsions:
REMARK  status: ('A' for Active; 'I' for Inactive)
REMARK    1  A    between atoms: C4_4  and  C8_8 
REMARK    2  A    between atoms: C5_5  and  C9_9 
ROOT
HETATM    1  C1  UNL     1     -34.047   5.899   5.269  1.00 20.00     0.139 C 
HETATM    2  C6  UNL     1     -33.184   6.946   5.934  1.00 20.00     0.080 C 
HETATM    3  C7  UNL     1     -32.567   7.670   4.743  1.00 20.00     0.017 C 
HETATM    4  C8  UNL     1     -33.641   7.570   3.654  1.00 20.00     0.027 C 
HETATM    5  C9  UNL     1     -34.156   6.110   3.761  1.00 20.00     0.041 C 
HETATM    6  C10 UNL     1     -35.596   5.968   3.277  1.00 20.00     0.028 C 
HETATM    7  O11 UNL     1     -34.586   4.987   5.885  1.00 20.00    -0.297 OA
ENDROOT
BRANCH   5   8
HETATM    8  C5  UNL     1     -33.277   5.067   3.131  1.00 20.00    -0.019 C 
HETATM    9  C3  UNL     1     -33.447   3.750   3.288  1.00 20.00     0.008 C 
ENDBRANCH   5   8
BRANCH   4  10
HETATM   10  C4  UNL     1     -33.158   7.997   2.306  1.00 20.00    -0.031 C 
HETATM   11  C2  UNL     1     -31.905   8.389   2.050  1.00 20.00     0.007 C 
ENDBRANCH   4  10
TORSDOF 2
