REMARK  0 active torsions:
REMARK  status: ('A' for Active; 'I' for Inactive)
ROOT
HETATM    1  C1  UNL     1     -32.548   8.460   2.408  1.00 20.00     0.064 C 
HETATM    2  C2  UNL     1     -34.125   5.198   3.576  1.00 20.00     0.012 C 
HETATM    3  C3  UNL     1     -34.195   5.393   4.899  1.00 20.00     0.090 C 
HETATM    4  C4  UNL     1     -33.559   6.213   2.626  1.00 20.00     0.049 C 
HETATM    5  C5  UNL     1     -33.744   6.655   5.567  1.00 20.00     0.071 C 
HETATM    6  C6  UNL     1     -33.528   7.809   4.584  1.00 20.00     0.026 C 
HETATM    7  C7  UNL     1     -32.780   7.336   3.331  1.00 20.00     0.096 C 
HETATM    8  N8  UNL     1     -32.366   9.345   1.681  1.00 20.00    -0.197 NA
HETATM    9  F9  UNL     1     -34.721   4.412   5.667  1.00 20.00    -0.211 F 
ENDROOT
TORSDOF 0
