REMARK  1 active torsions:
REMARK  status: ('A' for Active; 'I' for Inactive)
REMARK    1  A    between atoms: C2_2  and  O6_6 
ROOT
HETATM    1  C1  UNL     1     -35.223   6.221   3.477  1.00 20.00     0.106 A 
HETATM    2  C2  UNL     1     -33.931   6.885   3.872  1.00 20.00     0.111 A 
HETATM    3  C3  UNL     1     -34.068   5.385   3.961  1.00 20.00     0.212 A 
HETATM    4  C4  UNL     1     -33.870   7.707   5.116  1.00 20.00     0.051 C 
HETATM    5  F7  UNL     1     -34.207   4.850   5.237  1.00 20.00    -0.222 F 
HETATM    6 CL8  UNL     1     -33.241   4.358   2.804  1.00 20.00    -0.079 Cl
ENDROOT
BRANCH   2   7
HETATM    7  O6  UNL     1     -33.148   7.419   2.790  1.00 20.00    -0.381 OA
HETATM    8  C5  UNL     1     -31.800   7.596   3.182  1.00 20.00     0.202 C 
ENDBRANCH   2   7
TORSDOF 1
