REMARK  1 active torsions:
REMARK  status: ('A' for Active; 'I' for Inactive)
REMARK    1  A    between atoms: N3_3  and  P4_4 
ROOT
HETATM    1  C1  UNL     1     -33.159   5.022   2.434  1.00 20.00     0.117 C 
HETATM    2  C2  UNL     1     -32.925   7.395   2.612  1.00 20.00     0.117 C 
HETATM    3  N3  UNL     1     -33.122   6.154   3.365  1.00 20.00    -0.274 NA
ENDROOT
BRANCH   3   4
HETATM    4  P4  UNL     1     -34.409   6.195   4.498  1.00 20.00     0.158 P 
HETATM    5 CL5  UNL     1     -34.411   4.464   5.691  1.00 20.00    -0.059 Cl
HETATM    6 CL6  UNL     1     -34.017   7.585   6.025  1.00 20.00    -0.059 Cl
ENDBRANCH   3   4
TORSDOF 1
