REMARK  1 active torsions:
REMARK  status: ('A' for Active; 'I' for Inactive)
REMARK    1  A    between atoms: C1_1  and  C3_3 
ROOT
HETATM    1  C1  UNL     1     -32.902   8.281   2.099  1.00 20.00     0.181 A 
HETATM    2  C2  UNL     1     -32.554   6.833   2.292  1.00 20.00     0.247 A 
HETATM    3  O4  UNL     1     -31.887   7.870   3.024  1.00 20.00    -0.358 OA
HETATM    4 CL5  UNL     1     -33.654   5.780   3.137  1.00 20.00    -0.092 Cl
ENDROOT
BRANCH   1   5
HETATM    5  C3  UNL     1     -32.395   9.040   0.926  1.00 20.00     0.150 C 
HETATM    6 CL6  UNL     1     -32.465  10.802   1.213  1.00 20.00    -0.128 Cl
ENDBRANCH   1   5
TORSDOF 1
