REMARK  1 active torsions:
REMARK  status: ('A' for Active; 'I' for Inactive)
REMARK    1  A    between atoms: C5_5  and  P6_6 
ROOT
HETATM    1  C1  UNL     1     -33.543   5.386   2.301  1.00 20.00     0.021 C 
HETATM    2  C2  UNL     1     -33.831   4.113   4.448  1.00 20.00     0.021 C 
HETATM    3  C3  UNL     1     -35.574   5.774   3.728  1.00 20.00     0.021 C 
HETATM    4  C5  UNL     1     -34.072   5.455   3.740  1.00 20.00    -0.015 C 
ENDROOT
BRANCH   4   5
HETATM    5  P6  UNL     1     -33.149   6.809   4.667  1.00 20.00    -0.013 P 
HETATM    6  C4  UNL     1     -33.623   8.218   3.602  1.00 20.00     0.062 C 
HETATM    7 CL7  UNL     1     -34.473   7.068   6.268  1.00 20.00    -0.096 Cl
ENDBRANCH   4   5
TORSDOF 1
