REMARK  0 active torsions:
REMARK  status: ('A' for Active; 'I' for Inactive)
ROOT
HETATM    1  C1  UNL     1     -32.067   8.338   3.587  1.00 20.00     0.099 A 
HETATM    2  C2  UNL     1     -33.221   6.624   2.318  1.00 20.00     0.063 A 
HETATM    3  C3  UNL     1     -34.608   4.976   5.474  1.00 20.00     0.167 A 
HETATM    4  C4  UNL     1     -33.358   6.649   4.764  1.00 20.00     0.124 A 
HETATM    5  C5  UNL     1     -32.534   7.795   4.787  1.00 20.00     0.204 A 
HETATM    6  C6  UNL     1     -32.407   7.759   2.369  1.00 20.00     0.121 A 
HETATM    7  C7  UNL     1     -33.687   6.084   3.528  1.00 20.00     0.042 A 
HETATM    8  N8  UNL     1     -33.894   6.003   5.869  1.00 20.00    -0.249 NA
HETATM    9  O9  UNL     1     -32.275   8.258   5.946  1.00 20.00    -0.286 OA
HETATM   10  F10 UNL     1     -31.949   8.294   1.230  1.00 20.00    -0.206 F 
HETATM   11  S11 UNL     1     -34.694   4.709   3.787  1.00 20.00    -0.080 SA
ENDROOT
TORSDOF 0
