REMARK  1 active torsions:
REMARK  status: ('A' for Active; 'I' for Inactive)
REMARK    1  A    between atoms: C4_4  and  S6_6 
ROOT
HETATM    1  C1  UNL     1     -35.553   6.115   3.428  1.00 20.00     0.030 C 
HETATM    2  C2  UNL     1     -33.858   4.658   2.282  1.00 20.00     0.030 C 
HETATM    3  C3  UNL     1     -34.195   4.477   4.767  1.00 20.00     0.030 C 
HETATM    4  C4  UNL     1     -34.193   5.425   3.564  1.00 20.00     0.042 C 
ENDROOT
BRANCH   4   5
HETATM    5  S6  UNL     1     -32.904   6.727   3.816  1.00 20.00     0.120 S 
HETATM    6  O5  UNL     1     -33.221   7.809   2.844  1.00 20.00    -0.240 OA
HETATM    7 CL7  UNL     1     -33.596   7.550   5.506  1.00 20.00    -0.010 Cl
ENDBRANCH   4   5
TORSDOF 1
