REMARK  0 active torsions:
REMARK  status: ('A' for Active; 'I' for Inactive)
ROOT
HETATM    1  C1  UNL     1     -32.864   9.530   1.987  1.00 20.00    -0.024 C 
HETATM    2  C2  UNL     1     -32.539   8.737   0.940  1.00 20.00    -0.024 C 
HETATM    3  C3  UNL     1     -33.314   7.341   4.960  1.00 20.00     0.272 C 
HETATM    4  C4  UNL     1     -33.265   5.646   3.422  1.00 20.00     0.272 C 
HETATM    5  C5  UNL     1     -31.930   8.806   2.927  1.00 20.00     0.031 C 
HETATM    6  C6  UNL     1     -31.943   7.656   1.833  1.00 20.00     0.031 C 
HETATM    7  C7  UNL     1     -32.327   7.707   3.872  1.00 20.00     0.108 C 
HETATM    8  C8  UNL     1     -33.008   6.953   2.677  1.00 20.00     0.108 C 
HETATM    9  O9  UNL     1     -33.727   7.995   5.907  1.00 20.00    -0.264 OA
HETATM   10  O10 UNL     1     -33.214   4.491   3.025  1.00 20.00    -0.264 OA
HETATM   11  O11 UNL     1     -33.662   6.006   4.719  1.00 20.00    -0.244 OA
ENDROOT
TORSDOF 0
