REMARK  3 active torsions:
REMARK  status: ('A' for Active; 'I' for Inactive)
REMARK    1  A    between atoms: C3_3  and  C4_4 
REMARK    2  A    between atoms: C4_4  and  C5_5 
REMARK    3  A    between atoms: C7_7  and  O10_10 
ROOT
HETATM    1  C1  UNL     1     -33.068   7.160   5.621  1.00 20.00     0.006 C 
HETATM    2  C2  UNL     1     -33.909   6.223   6.065  1.00 20.00    -0.023 C 
HETATM    3  C3  UNL     1     -33.062   7.201   4.182  1.00 20.00    -0.027 C 
HETATM    4  C6  UNL     1     -34.608   5.517   4.946  1.00 20.00     0.064 C 
HETATM    5  C7  UNL     1     -33.944   6.088   3.683  1.00 20.00     0.157 C 
ENDROOT
BRANCH   3   6
HETATM    6  C4  UNL     1     -32.399   8.086   3.432  1.00 20.00     0.051 C 
BRANCH   6   7
HETATM    7  C5  UNL     1     -32.517   7.967   1.966  1.00 20.00     0.259 C 
HETATM    8  O9  UNL     1     -31.944   8.733   1.201  1.00 20.00    -0.302 OA
ENDBRANCH   6   7
ENDBRANCH   3   6
BRANCH   5   9
HETATM    9  O10 UNL     1     -33.134   5.093   3.068  1.00 20.00    -0.386 OA
HETATM   10  C8  UNL     1     -33.896   4.269   2.196  1.00 20.00     0.202 C 
ENDBRANCH   5   9
TORSDOF 3
