REMARK  2 active torsions:
REMARK  status: ('A' for Active; 'I' for Inactive)
REMARK    1  A    between atoms: C3_3  and  C4_4 
REMARK    2  A    between atoms: C4_4  and  S7_7 
ROOT
HETATM    1  C4  UNL     1     -32.503   6.515   2.587  1.00 20.00     0.162 C 
ENDROOT
BRANCH   1   2
HETATM    2  C3  UNL     1     -33.785   6.303   3.316  1.00 20.00     0.001 A 
HETATM    3  C1  UNL     1     -34.223   4.913   3.689  1.00 20.00     0.006 A 
HETATM    4  C2  UNL     1     -33.773   5.872   4.756  1.00 20.00     0.006 A 
ENDBRANCH   1   2
BRANCH   1   5
HETATM    5  S7  UNL     1     -31.920   8.182   2.730  1.00 20.00     0.230 S 
HETATM    6  O5  UNL     1     -31.707   8.477   4.132  1.00 20.00    -0.211 OA
HETATM    7  O6  UNL     1     -32.731   9.030   1.882  1.00 20.00    -0.211 OA
HETATM    8 CL8  UNL     1     -30.054   8.216   1.890  1.00 20.00     0.018 Cl
ENDBRANCH   1   5
TORSDOF 2
