REMARK  1 active torsions:
REMARK  status: ('A' for Active; 'I' for Inactive)
REMARK    1  A    between atoms: C1_1  and  C7_7 
ROOT
HETATM    1  C2  UNL     1     -31.545   8.168   3.823  1.00 20.00     0.007 C 
HETATM    2  C3  UNL     1     -31.971   9.372   2.981  1.00 20.00     0.020 C 
HETATM    3  C4  UNL     1     -33.492   7.999   1.516  1.00 20.00     0.026 C 
HETATM    4  C5  UNL     1     -32.226   6.872   3.495  1.00 20.00    -0.002 A 
HETATM    5  C6  UNL     1     -33.184   6.777   2.330  1.00 20.00    -0.000 A 
HETATM    6  C7  UNL     1     -32.340   9.007   1.542  1.00 20.00     0.045 C 
HETATM    7  C8  UNL     1     -33.691   6.562   3.754  1.00 20.00    -0.040 A 
HETATM    8  C9  UNL     1     -31.139   8.556   0.715  1.00 20.00     0.027 C 
HETATM    9  C10 UNL     1     -34.026   5.140   4.143  1.00 20.00     0.015 C 
HETATM   10  C11 UNL     1     -34.578   7.570   4.435  1.00 20.00     0.015 C 
ENDROOT
BRANCH   6  11
HETATM   11  C1  UNL     1     -32.868  10.291   0.908  1.00 20.00     0.181 C 
HETATM   12  O12 UNL     1     -33.228  10.189  -0.297  1.00 20.00    -0.647 OA
HETATM   13  O13 UNL     1     -32.876  11.295   1.674  1.00 20.00    -0.647 OA
ENDBRANCH   6  11
TORSDOF 1
