REMARK  2 active torsions:
REMARK  status: ('A' for Active; 'I' for Inactive)
REMARK    1  A    between atoms: C1_1  and  C5_5 
REMARK    2  A    between atoms: C4_4  and  C5_5 
ROOT
HETATM    1  C2  UNL     1     -32.558   5.152   3.371  1.00 20.00     0.032 C 
HETATM    2  C3  UNL     1     -34.824   5.892   2.616  1.00 20.00     0.032 C 
HETATM    3  C5  UNL     1     -33.633   6.234   3.518  1.00 20.00     0.100 C 
ENDROOT
BRANCH   3   4
HETATM    4  C1  UNL     1     -34.088   6.360   5.002  1.00 20.00     0.186 C 
HETATM    5  O6  UNL     1     -35.046   5.611   5.349  1.00 20.00    -0.647 OA
HETATM    6  O7  UNL     1     -33.439   7.184   5.708  1.00 20.00    -0.647 OA
ENDBRANCH   3   4
BRANCH   3   7
HETATM    7  C4  UNL     1     -33.058   7.600   3.133  1.00 20.00     0.371 C 
HETATM    8  F8  UNL     1     -32.611   7.586   1.852  1.00 20.00    -0.213 F 
HETATM    9  F9  UNL     1     -31.993   7.909   3.914  1.00 20.00    -0.213 F 
ENDBRANCH   3   7
TORSDOF 2
