REMARK  0 active torsions:
REMARK  status: ('A' for Active; 'I' for Inactive)
ROOT
HETATM    1  C1  UNL     1     -32.527   8.634   2.155  1.00 20.00     0.200 C 
HETATM    2  C2  UNL     1     -32.121   8.994   0.942  1.00 20.00     0.113 C 
HETATM    3  F3  UNL     1     -32.265   7.411   2.651  1.00 20.00    -0.219 F 
HETATM    4 CL4  UNL     1     -32.436  10.538   0.275  1.00 20.00    -0.095 Cl
ENDROOT
TORSDOF 0
