REMARK  0 active torsions:
REMARK  status: ('A' for Active; 'I' for Inactive)
ROOT
HETATM    1  C1  UNL     1     -31.594   8.371   1.075  1.00 20.00     0.012 C 
HETATM    2  C2  UNL     1     -32.335   8.088   1.977  1.00 20.00    -0.113 C 
HETATM    3  C3  UNL     1     -34.165   6.030   5.249  1.00 20.00     0.127 C 
HETATM    4  C4  UNL     1     -33.373   7.277   5.568  1.00 20.00     0.079 C 
HETATM    5  C5  UNL     1     -34.891   6.012   3.924  1.00 20.00     0.079 C 
HETATM    6  C6  UNL     1     -32.466   7.651   4.402  1.00 20.00     0.024 C 
HETATM    7  C7  UNL     1     -33.953   6.412   2.792  1.00 20.00     0.024 C 
HETATM    8  C8  UNL     1     -33.244   7.742   3.082  1.00 20.00     0.065 C 
HETATM    9  O9  UNL     1     -34.297   5.122   6.069  1.00 20.00    -0.298 OA
ENDROOT
TORSDOF 0
