REMARK  1 active torsions:
REMARK  status: ('A' for Active; 'I' for Inactive)
REMARK    1  A    between atoms: C5_5  and  C10_10 
ROOT
HETATM    1  C1  UNL     1     -33.919   5.951   5.268  1.00 20.00     0.027 A 
HETATM    2  C2  UNL     1     -33.211   5.317   3.059  1.00 20.00     0.027 A 
HETATM    3  C3  UNL     1     -34.390   4.658   5.429  1.00 20.00     0.116 A 
HETATM    4  C4  UNL     1     -33.714   4.052   3.319  1.00 20.00     0.116 A 
HETATM    5  C5  UNL     1     -33.319   6.279   4.057  1.00 20.00    -0.051 A 
HETATM    6  N11 UNL     1     -34.303   3.697   4.483  1.00 20.00    -0.273 NA
ENDROOT
BRANCH   5   7
HETATM    7  C10 UNL     1     -32.753   7.762   3.813  1.00 20.00     0.026 C 
HETATM    8  C8  UNL     1     -31.270   7.933   3.355  1.00 20.00     0.043 C 
HETATM    9  C6  UNL     1     -31.857   8.260   2.005  1.00 20.00    -0.088 C 
HETATM   10  C7  UNL     1     -31.343   8.290   0.775  1.00 20.00     0.014 C 
HETATM   11  C9  UNL     1     -33.232   8.548   2.550  1.00 20.00     0.043 C 
ENDBRANCH   5   7
TORSDOF 1
