MODEL 1
REMARK VINA RESULT:      -5.9      0.000      0.000
REMARK  0 active torsions:
REMARK  status: ('A' for Active; 'I' for Inactive)
ROOT
HETATM    1  C1  UNL     1     -34.675   5.107   5.615  1.00 20.00     0.001 A 
HETATM    2  C2  UNL     1     -34.387   6.427   5.962  1.00 20.00     0.001 A 
HETATM    3  C3  UNL     1     -34.281   4.611   4.373  1.00 20.00     0.008 A 
HETATM    4  C4  UNL     1     -33.705   7.250   5.066  1.00 20.00     0.019 A 
HETATM    5  C5  UNL     1     -33.599   5.434   3.477  1.00 20.00    -0.045 A 
HETATM    6  C6  UNL     1     -33.310   6.754   3.824  1.00 20.00     0.012 A 
HETATM    7  C7  UNL     1     -33.201   4.848   2.161  1.00 20.00     0.049 C 
HETATM    8  I8  UNL     1     -32.290   8.042   2.530  1.00 20.00    -0.044 I 
ENDROOT
TORSDOF 0
ENDMDL
MODEL 2
REMARK VINA RESULT:      -5.6      0.627      2.451
REMARK  0 active torsions:
REMARK  status: ('A' for Active; 'I' for Inactive)
ROOT
HETATM    1  C1  UNL     1     -34.639   4.538   5.112  1.00 20.00     0.001 A 
HETATM    2  C2  UNL     1     -34.238   4.332   3.792  1.00 20.00     0.001 A 
HETATM    3  C3  UNL     1     -34.385   5.759   5.735  1.00 20.00     0.008 A 
HETATM    4  C4  UNL     1     -33.583   5.348   3.096  1.00 20.00     0.019 A 
HETATM    5  C5  UNL     1     -33.731   6.776   5.039  1.00 20.00    -0.045 A 
HETATM    6  C6  UNL     1     -33.330   6.570   3.718  1.00 20.00     0.012 A 
HETATM    7  C7  UNL     1     -33.487   8.063   5.757  1.00 20.00     0.049 C 
HETATM    8  I8  UNL     1     -32.345   8.050   2.616  1.00 20.00    -0.044 I 
ENDROOT
TORSDOF 0
ENDMDL
MODEL 3
REMARK VINA RESULT:      -4.4      2.198      3.915
REMARK  0 active torsions:
REMARK  status: ('A' for Active; 'I' for Inactive)
ROOT
HETATM    1  C1  UNL     1     -31.865   8.357   2.841  1.00 20.00     0.001 A 
HETATM    2  C2  UNL     1     -32.339   7.326   2.028  1.00 20.00     0.001 A 
HETATM    3  C3  UNL     1     -32.239   8.412   4.183  1.00 20.00     0.008 A 
HETATM    4  C4  UNL     1     -33.187   6.354   2.558  1.00 20.00     0.019 A 
HETATM    5  C5  UNL     1     -33.085   7.439   4.714  1.00 20.00    -0.045 A 
HETATM    6  C6  UNL     1     -33.560   6.409   3.901  1.00 20.00     0.012 A 
HETATM    7  C7  UNL     1     -33.450   7.550   6.159  1.00 20.00     0.049 C 
HETATM    8  I8  UNL     1     -34.832   4.918   4.631  1.00 20.00    -0.044 I 
ENDROOT
TORSDOF 0
ENDMDL
MODEL 4
REMARK VINA RESULT:      -4.0     12.487     12.961
REMARK  0 active torsions:
REMARK  status: ('A' for Active; 'I' for Inactive)
ROOT
HETATM    1  C1  UNL     1     -34.954  16.682  -2.214  1.00 20.00     0.001 A 
HETATM    2  C2  UNL     1     -33.646  17.083  -2.489  1.00 20.00     0.001 A 
HETATM    3  C3  UNL     1     -35.544  17.017  -0.996  1.00 20.00     0.008 A 
HETATM    4  C4  UNL     1     -32.930  17.820  -1.545  1.00 20.00     0.019 A 
HETATM    5  C5  UNL     1     -34.829  17.754  -0.053  1.00 20.00    -0.045 A 
HETATM    6  C6  UNL     1     -33.521  18.156  -0.327  1.00 20.00     0.012 A 
HETATM    7  C7  UNL     1     -35.513  18.085   1.234  1.00 20.00     0.049 C 
HETATM    8  I8  UNL     1     -32.391  19.263   1.042  1.00 20.00    -0.044 I 
ENDROOT
TORSDOF 0
ENDMDL
MODEL 5
REMARK VINA RESULT:      -4.0     12.491     13.076
REMARK  0 active torsions:
REMARK  status: ('A' for Active; 'I' for Inactive)
ROOT
HETATM    1  C1  UNL     1     -33.932  17.032  -2.216  1.00 20.00     0.001 A 
HETATM    2  C2  UNL     1     -35.189  16.824  -1.648  1.00 20.00     0.001 A 
HETATM    3  C3  UNL     1     -32.969  17.768  -1.525  1.00 20.00     0.008 A 
HETATM    4  C4  UNL     1     -35.482  17.351  -0.390  1.00 20.00     0.019 A 
HETATM    5  C5  UNL     1     -33.261  18.294  -0.267  1.00 20.00    -0.045 A 
HETATM    6  C6  UNL     1     -34.518  18.086   0.301  1.00 20.00     0.012 A 
HETATM    7  C7  UNL     1     -32.190  19.072   0.425  1.00 20.00     0.049 C 
HETATM    8  I8  UNL     1     -35.023  18.846   2.183  1.00 20.00    -0.044 I 
ENDROOT
TORSDOF 0
ENDMDL
MODEL 6
REMARK VINA RESULT:      -3.8      1.525      2.467
REMARK  0 active torsions:
REMARK  status: ('A' for Active; 'I' for Inactive)
ROOT
HETATM    1  C1  UNL     1     -34.041   7.266   6.224  1.00 20.00     0.001 A 
HETATM    2  C2  UNL     1     -34.628   6.017   6.014  1.00 20.00     0.001 A 
HETATM    3  C3  UNL     1     -33.241   7.834   5.234  1.00 20.00     0.008 A 
HETATM    4  C4  UNL     1     -34.413   5.339   4.814  1.00 20.00     0.019 A 
HETATM    5  C5  UNL     1     -33.026   7.156   4.034  1.00 20.00    -0.045 A 
HETATM    6  C6  UNL     1     -33.613   5.907   3.824  1.00 20.00     0.012 A 
HETATM    7  C7  UNL     1     -32.160   7.814   3.010  1.00 20.00     0.049 C 
HETATM    8  I8  UNL     1     -33.334   4.836   2.049  1.00 20.00    -0.044 I 
ENDROOT
TORSDOF 0
ENDMDL
MODEL 7
REMARK VINA RESULT:      -3.8     12.439     13.046
REMARK  0 active torsions:
REMARK  status: ('A' for Active; 'I' for Inactive)
ROOT
HETATM    1  C1  UNL     1     -32.383  18.919   1.258  1.00 20.00     0.001 A 
HETATM    2  C2  UNL     1     -31.856  18.669  -0.010  1.00 20.00     0.001 A 
HETATM    3  C3  UNL     1     -33.712  18.599   1.535  1.00 20.00     0.008 A 
HETATM    4  C4  UNL     1     -32.659  18.100  -0.998  1.00 20.00     0.019 A 
HETATM    5  C5  UNL     1     -34.514  18.029   0.547  1.00 20.00    -0.045 A 
HETATM    6  C6  UNL     1     -33.987  17.779  -0.720  1.00 20.00     0.012 A 
HETATM    7  C7  UNL     1     -35.929  17.707   0.903  1.00 20.00     0.049 C 
HETATM    8  I8  UNL     1     -35.134  16.926  -2.248  1.00 20.00    -0.044 I 
ENDROOT
TORSDOF 0
ENDMDL
MODEL 8
REMARK VINA RESULT:      -3.8      2.144      3.055
REMARK  0 active torsions:
REMARK  status: ('A' for Active; 'I' for Inactive)
ROOT
HETATM    1  C1  UNL     1     -31.781   8.389   3.338  1.00 20.00     0.001 A 
HETATM    2  C2  UNL     1     -32.298   8.517   4.628  1.00 20.00     0.001 A 
HETATM    3  C3  UNL     1     -32.113   7.279   2.562  1.00 20.00     0.008 A 
HETATM    4  C4  UNL     1     -33.146   7.535   5.140  1.00 20.00     0.019 A 
HETATM    5  C5  UNL     1     -32.962   6.298   3.074  1.00 20.00    -0.045 A 
HETATM    6  C6  UNL     1     -33.479   6.426   4.364  1.00 20.00     0.012 A 
HETATM    7  C7  UNL     1     -33.284   5.132   2.196  1.00 20.00     0.049 C 
HETATM    8  I8  UNL     1     -34.757   4.992   5.193  1.00 20.00    -0.044 I 
ENDROOT
TORSDOF 0
ENDMDL
MODEL 9
REMARK VINA RESULT:      -3.7     12.424     12.674
REMARK  0 active torsions:
REMARK  status: ('A' for Active; 'I' for Inactive)
ROOT
HETATM    1  C1  UNL     1     -34.586  17.161  -2.111  1.00 20.00     0.001 A 
HETATM    2  C2  UNL     1     -35.945  17.018  -2.393  1.00 20.00     0.001 A 
HETATM    3  C3  UNL     1     -33.648  16.391  -2.798  1.00 20.00     0.008 A 
HETATM    4  C4  UNL     1     -36.364  16.105  -3.360  1.00 20.00     0.019 A 
HETATM    5  C5  UNL     1     -34.067  15.478  -3.766  1.00 20.00    -0.045 A 
HETATM    6  C6  UNL     1     -35.426  15.335  -4.047  1.00 20.00     0.012 A 
HETATM    7  C7  UNL     1     -33.016  14.682  -4.470  1.00 20.00     0.049 C 
HETATM    8  I8  UNL     1     -36.123  13.987  -5.486  1.00 20.00    -0.044 I 
ENDROOT
TORSDOF 0
ENDMDL
