MODEL 1
REMARK VINA RESULT:      -5.9      0.000      0.000
REMARK  0 active torsions:
REMARK  status: ('A' for Active; 'I' for Inactive)
ROOT
HETATM    1  C1  UNL     1     -32.823   7.911   4.391  1.00 20.00     0.007 A 
HETATM    2  C2  UNL     1     -33.523   7.094   5.278  1.00 20.00     0.007 A 
HETATM    3  C3  UNL     1     -33.285   6.359   2.598  1.00 20.00     0.007 A 
HETATM    4  C4  UNL     1     -33.984   5.542   3.485  1.00 20.00     0.007 A 
HETATM    5  C5  UNL     1     -32.704   7.543   3.051  1.00 20.00    -0.062 A 
HETATM    6  C6  UNL     1     -34.103   5.909   4.825  1.00 20.00    -0.062 A 
HETATM    7  C7  UNL     1     -31.956   8.417   2.101  1.00 20.00     0.048 C 
HETATM    8  C8  UNL     1     -34.850   5.035   5.775  1.00 20.00     0.048 C 
ENDROOT
TORSDOF 0
ENDMDL
MODEL 2
REMARK VINA RESULT:      -5.9      0.019      3.353
REMARK  0 active torsions:
REMARK  status: ('A' for Active; 'I' for Inactive)
ROOT
HETATM    1  C1  UNL     1     -33.516   7.073   5.275  1.00 20.00     0.007 A 
HETATM    2  C2  UNL     1     -32.814   7.896   4.394  1.00 20.00     0.007 A 
HETATM    3  C3  UNL     1     -33.985   5.540   3.467  1.00 20.00     0.007 A 
HETATM    4  C4  UNL     1     -33.283   6.363   2.587  1.00 20.00     0.007 A 
HETATM    5  C5  UNL     1     -34.102   5.896   4.810  1.00 20.00    -0.062 A 
HETATM    6  C6  UNL     1     -32.698   7.541   3.050  1.00 20.00    -0.062 A 
HETATM    7  C7  UNL     1     -34.852   5.014   5.751  1.00 20.00     0.048 C 
HETATM    8  C8  UNL     1     -31.948   8.423   2.110  1.00 20.00     0.048 C 
ENDROOT
TORSDOF 0
ENDMDL
MODEL 3
REMARK VINA RESULT:      -5.9      0.065      1.709
REMARK  0 active torsions:
REMARK  status: ('A' for Active; 'I' for Inactive)
ROOT
HETATM    1  C1  UNL     1     -33.316   6.448   2.589  1.00 20.00     0.007 A 
HETATM    2  C2  UNL     1     -34.020   5.616   3.460  1.00 20.00     0.007 A 
HETATM    3  C3  UNL     1     -32.782   7.922   4.428  1.00 20.00     0.007 A 
HETATM    4  C4  UNL     1     -33.486   7.091   5.298  1.00 20.00     0.007 A 
HETATM    5  C5  UNL     1     -32.698   7.600   3.073  1.00 20.00    -0.062 A 
HETATM    6  C6  UNL     1     -34.105   5.938   4.815  1.00 20.00    -0.062 A 
HETATM    7  C7  UNL     1     -31.945   8.490   2.142  1.00 20.00     0.048 C 
HETATM    8  C8  UNL     1     -34.859   5.049   5.745  1.00 20.00     0.048 C 
ENDROOT
TORSDOF 0
ENDMDL
MODEL 4
REMARK VINA RESULT:      -5.9      0.044      3.763
REMARK  0 active torsions:
REMARK  status: ('A' for Active; 'I' for Inactive)
ROOT
HETATM    1  C1  UNL     1     -34.050   5.562   3.496  1.00 20.00     0.007 A 
HETATM    2  C2  UNL     1     -33.350   6.368   2.599  1.00 20.00     0.007 A 
HETATM    3  C3  UNL     1     -33.505   7.088   5.290  1.00 20.00     0.007 A 
HETATM    4  C4  UNL     1     -32.805   7.892   4.392  1.00 20.00     0.007 A 
HETATM    5  C5  UNL     1     -34.128   5.923   4.842  1.00 20.00    -0.062 A 
HETATM    6  C6  UNL     1     -32.726   7.533   3.047  1.00 20.00    -0.062 A 
HETATM    7  C7  UNL     1     -34.877   5.062   5.803  1.00 20.00     0.048 C 
HETATM    8  C8  UNL     1     -31.976   8.392   2.086  1.00 20.00     0.048 C 
ENDROOT
TORSDOF 0
ENDMDL
MODEL 5
REMARK VINA RESULT:      -4.6      1.130      2.510
REMARK  0 active torsions:
REMARK  status: ('A' for Active; 'I' for Inactive)
ROOT
HETATM    1  C1  UNL     1     -32.912   6.389   3.025  1.00 20.00     0.007 A 
HETATM    2  C2  UNL     1     -33.104   7.242   4.112  1.00 20.00     0.007 A 
HETATM    3  C3  UNL     1     -34.184   4.670   4.150  1.00 20.00     0.007 A 
HETATM    4  C4  UNL     1     -34.375   5.522   5.237  1.00 20.00     0.007 A 
HETATM    5  C5  UNL     1     -33.452   5.103   3.045  1.00 20.00    -0.062 A 
HETATM    6  C6  UNL     1     -33.835   6.808   5.218  1.00 20.00    -0.062 A 
HETATM    7  C7  UNL     1     -33.248   4.190   1.883  1.00 20.00     0.048 C 
HETATM    8  C8  UNL     1     -34.038   7.721   6.380  1.00 20.00     0.048 C 
ENDROOT
TORSDOF 0
ENDMDL
MODEL 6
REMARK VINA RESULT:      -4.6      1.119      3.031
REMARK  0 active torsions:
REMARK  status: ('A' for Active; 'I' for Inactive)
ROOT
HETATM    1  C1  UNL     1     -34.389   5.556   5.230  1.00 20.00     0.007 A 
HETATM    2  C2  UNL     1     -34.206   4.704   4.142  1.00 20.00     0.007 A 
HETATM    3  C3  UNL     1     -33.083   7.257   4.116  1.00 20.00     0.007 A 
HETATM    4  C4  UNL     1     -32.899   6.404   3.029  1.00 20.00     0.007 A 
HETATM    5  C5  UNL     1     -33.827   6.833   5.217  1.00 20.00    -0.062 A 
HETATM    6  C6  UNL     1     -33.460   5.127   3.041  1.00 20.00    -0.062 A 
HETATM    7  C7  UNL     1     -34.023   7.746   6.380  1.00 20.00     0.048 C 
HETATM    8  C8  UNL     1     -33.263   4.213   1.879  1.00 20.00     0.048 C 
ENDROOT
TORSDOF 0
ENDMDL
MODEL 7
REMARK VINA RESULT:      -4.2     11.735     12.223
REMARK  0 active torsions:
REMARK  status: ('A' for Active; 'I' for Inactive)
ROOT
HETATM    1  C1  UNL     1     -34.905  17.742  -0.109  1.00 20.00     0.007 A 
HETATM    2  C2  UNL     1     -35.412  16.955  -1.142  1.00 20.00     0.007 A 
HETATM    3  C3  UNL     1     -32.829  17.994  -1.321  1.00 20.00     0.007 A 
HETATM    4  C4  UNL     1     -33.337  17.206  -2.354  1.00 20.00     0.007 A 
HETATM    5  C5  UNL     1     -33.613  18.261  -0.199  1.00 20.00    -0.062 A 
HETATM    6  C6  UNL     1     -34.628  16.687  -2.265  1.00 20.00    -0.062 A 
HETATM    7  C7  UNL     1     -33.069  19.104   0.905  1.00 20.00     0.048 C 
HETATM    8  C8  UNL     1     -35.171  15.843  -3.368  1.00 20.00     0.048 C 
ENDROOT
TORSDOF 0
ENDMDL
MODEL 8
REMARK VINA RESULT:      -4.2     11.734     12.235
REMARK  0 active torsions:
REMARK  status: ('A' for Active; 'I' for Inactive)
ROOT
HETATM    1  C1  UNL     1     -35.428  16.964  -1.121  1.00 20.00     0.007 A 
HETATM    2  C2  UNL     1     -34.921  17.751  -0.088  1.00 20.00     0.007 A 
HETATM    3  C3  UNL     1     -33.345  17.204  -2.324  1.00 20.00     0.007 A 
HETATM    4  C4  UNL     1     -32.839  17.991  -1.291  1.00 20.00     0.007 A 
HETATM    5  C5  UNL     1     -34.640  16.690  -2.240  1.00 20.00    -0.062 A 
HETATM    6  C6  UNL     1     -33.626  18.265  -0.173  1.00 20.00    -0.062 A 
HETATM    7  C7  UNL     1     -35.180  15.848  -3.345  1.00 20.00     0.048 C 
HETATM    8  C8  UNL     1     -33.086  19.109   0.932  1.00 20.00     0.048 C 
ENDROOT
TORSDOF 0
ENDMDL
MODEL 9
REMARK VINA RESULT:      -4.2     11.742     12.243
REMARK  0 active torsions:
REMARK  status: ('A' for Active; 'I' for Inactive)
ROOT
HETATM    1  C1  UNL     1     -32.869  17.960  -1.422  1.00 20.00     0.007 A 
HETATM    2  C2  UNL     1     -33.433  17.181  -2.432  1.00 20.00     0.007 A 
HETATM    3  C3  UNL     1     -34.893  17.734  -0.119  1.00 20.00     0.007 A 
HETATM    4  C4  UNL     1     -35.456  16.955  -1.129  1.00 20.00     0.007 A 
HETATM    5  C5  UNL     1     -33.600  18.237  -0.266  1.00 20.00    -0.062 A 
HETATM    6  C6  UNL     1     -34.727  16.678  -2.286  1.00 20.00    -0.062 A 
HETATM    7  C7  UNL     1     -32.998  19.070   0.815  1.00 20.00     0.048 C 
HETATM    8  C8  UNL     1     -35.328  15.847  -3.368  1.00 20.00     0.048 C 
ENDROOT
TORSDOF 0
ENDMDL
