MODEL 1
REMARK VINA RESULT:      -2.8      0.000      0.000
REMARK  0 active torsions:
REMARK  status: ('A' for Active; 'I' for Inactive)
ROOT
HETATM    1  C1  UNL     1     -34.469   4.425   4.580  1.00 20.00     0.016 C 
HETATM    2  C2  UNL     1     -34.812   5.878   4.350  1.00 20.00     0.081 C 
HETATM    3 BR3  UNL     1     -33.881   6.991   5.645  1.00 20.00    -0.097 Br
ENDROOT
TORSDOF 0
ENDMDL
MODEL 2
REMARK VINA RESULT:      -2.7      2.122      2.483
REMARK  0 active torsions:
REMARK  status: ('A' for Active; 'I' for Inactive)
ROOT
HETATM    1  C1  UNL     1     -33.688   7.324   5.913  1.00 20.00     0.016 C 
HETATM    2  C2  UNL     1     -34.403   6.010   5.706  1.00 20.00     0.081 C 
HETATM    3 BR3  UNL     1     -34.832   5.781   3.823  1.00 20.00    -0.097 Br
ENDROOT
TORSDOF 0
ENDMDL
MODEL 3
REMARK VINA RESULT:      -2.6      1.817      1.817
REMARK  0 active torsions:
REMARK  status: ('A' for Active; 'I' for Inactive)
ROOT
HETATM    1  C1  UNL     1     -34.608   5.145   5.454  1.00 20.00     0.016 C 
HETATM    2  C2  UNL     1     -35.086   5.687   4.128  1.00 20.00     0.081 C 
HETATM    3 BR3  UNL     1     -33.570   5.968   2.943  1.00 20.00    -0.097 Br
ENDROOT
TORSDOF 0
ENDMDL
MODEL 4
REMARK VINA RESULT:      -2.5      2.153      2.505
REMARK  0 active torsions:
REMARK  status: ('A' for Active; 'I' for Inactive)
ROOT
HETATM    1  C1  UNL     1     -33.733   7.267   5.779  1.00 20.00     0.016 C 
HETATM    2  C2  UNL     1     -34.075   6.604   4.466  1.00 20.00     0.081 C 
HETATM    3 BR3  UNL     1     -32.838   7.190   3.086  1.00 20.00    -0.097 Br
ENDROOT
TORSDOF 0
ENDMDL
MODEL 5
REMARK VINA RESULT:      -2.5      1.860      1.961
REMARK  0 active torsions:
REMARK  status: ('A' for Active; 'I' for Inactive)
ROOT
HETATM    1  C1  UNL     1     -34.506   5.785   5.749  1.00 20.00     0.016 C 
HETATM    2  C2  UNL     1     -33.810   7.096   5.471  1.00 20.00     0.081 C 
HETATM    3 BR3  UNL     1     -33.315   7.196   3.593  1.00 20.00    -0.097 Br
ENDROOT
TORSDOF 0
ENDMDL
MODEL 6
REMARK VINA RESULT:      -2.5      1.030      1.306
REMARK  0 active torsions:
REMARK  status: ('A' for Active; 'I' for Inactive)
ROOT
HETATM    1  C1  UNL     1     -33.685   5.809   2.995  1.00 20.00     0.016 C 
HETATM    2  C2  UNL     1     -34.632   5.841   4.171  1.00 20.00     0.081 C 
HETATM    3 BR3  UNL     1     -33.915   6.988   5.567  1.00 20.00    -0.097 Br
ENDROOT
TORSDOF 0
ENDMDL
MODEL 7
REMARK VINA RESULT:      -2.5      2.131      2.358
REMARK  0 active torsions:
REMARK  status: ('A' for Active; 'I' for Inactive)
ROOT
HETATM    1  C1  UNL     1     -32.957   6.777   2.977  1.00 20.00     0.016 C 
HETATM    2  C2  UNL     1     -33.795   7.023   4.209  1.00 20.00     0.081 C 
HETATM    3 BR3  UNL     1     -34.618   5.361   4.793  1.00 20.00    -0.097 Br
ENDROOT
TORSDOF 0
ENDMDL
MODEL 8
REMARK VINA RESULT:      -2.5      2.147      2.491
REMARK  0 active torsions:
REMARK  status: ('A' for Active; 'I' for Inactive)
ROOT
HETATM    1  C1  UNL     1     -32.868   6.998   3.058  1.00 20.00     0.016 C 
HETATM    2  C2  UNL     1     -33.658   5.712   2.997  1.00 20.00     0.081 C 
HETATM    3 BR3  UNL     1     -34.691   5.492   4.629  1.00 20.00    -0.097 Br
ENDROOT
TORSDOF 0
ENDMDL
MODEL 9
REMARK VINA RESULT:      -2.4      5.697      5.838
REMARK  0 active torsions:
REMARK  status: ('A' for Active; 'I' for Inactive)
ROOT
HETATM    1  C1  UNL     1     -33.075   9.477  -0.338  1.00 20.00     0.016 C 
HETATM    2  C2  UNL     1     -32.608   9.958   1.015  1.00 20.00     0.081 C 
HETATM    3 BR3  UNL     1     -32.060   8.443   2.104  1.00 20.00    -0.097 Br
ENDROOT
TORSDOF 0
ENDMDL
