MODEL 1
REMARK VINA RESULT:      -6.2      0.000      0.000
REMARK  1 active torsions:
REMARK  status: ('A' for Active; 'I' for Inactive)
REMARK    1  A    between atoms: C4_4  and  C7_7 
ROOT
HETATM    1  C1  UNL     1     -34.562   4.523   5.463  1.00 20.00     0.006 A 
HETATM    2  C2  UNL     1     -34.495   5.840   5.918  1.00 20.00     0.043 A 
HETATM    3  C3  UNL     1     -34.182   4.217   4.156  1.00 20.00     0.043 A 
HETATM    4  C4  UNL     1     -33.670   6.545   3.759  1.00 20.00     0.029 A 
HETATM    5  C5  UNL     1     -34.050   6.852   5.067  1.00 20.00     0.126 A 
HETATM    6  C6  UNL     1     -33.737   5.229   3.305  1.00 20.00     0.126 A 
HETATM    7  F8  UNL     1     -33.990   8.114   5.513  1.00 20.00    -0.205 F 
HETATM    8  F9  UNL     1     -33.374   4.925   2.050  1.00 20.00    -0.205 F 
ENDROOT
BRANCH   4   9
HETATM    9  C7  UNL     1     -33.194   7.626   2.849  1.00 20.00     0.130 C 
HETATM   10 BR10 UNL     1     -31.408   8.185   3.381  1.00 20.00    -0.091 Br
ENDBRANCH   4   9
TORSDOF 1
ENDMDL
MODEL 2
REMARK VINA RESULT:      -6.2      0.001      2.616
REMARK  1 active torsions:
REMARK  status: ('A' for Active; 'I' for Inactive)
REMARK    1  A    between atoms: C4_4  and  C7_7 
ROOT
HETATM    1  C1  UNL     1     -34.563   4.524   5.464  1.00 20.00     0.006 A 
HETATM    2  C2  UNL     1     -34.184   4.218   4.157  1.00 20.00     0.043 A 
HETATM    3  C3  UNL     1     -34.497   5.841   5.919  1.00 20.00     0.043 A 
HETATM    4  C4  UNL     1     -33.671   6.546   3.760  1.00 20.00     0.029 A 
HETATM    5  C5  UNL     1     -33.737   5.229   3.305  1.00 20.00     0.126 A 
HETATM    6  C6  UNL     1     -34.051   6.851   5.067  1.00 20.00     0.126 A 
HETATM    7  F8  UNL     1     -33.374   4.925   2.051  1.00 20.00    -0.205 F 
HETATM    8  F9  UNL     1     -33.991   8.114   5.513  1.00 20.00    -0.205 F 
ENDROOT
BRANCH   4   9
HETATM    9  C7  UNL     1     -33.194   7.626   2.849  1.00 20.00     0.130 C 
HETATM   10 BR10 UNL     1     -31.409   8.185   3.382  1.00 20.00    -0.091 Br
ENDBRANCH   4   9
TORSDOF 1
ENDMDL
MODEL 3
REMARK VINA RESULT:      -5.9      1.454      1.641
REMARK  1 active torsions:
REMARK  status: ('A' for Active; 'I' for Inactive)
REMARK    1  A    between atoms: C4_4  and  C7_7 
ROOT
HETATM    1  C1  UNL     1     -34.557   6.255   5.459  1.00 20.00     0.006 A 
HETATM    2  C2  UNL     1     -33.598   7.230   5.731  1.00 20.00     0.043 A 
HETATM    3  C3  UNL     1     -34.682   5.740   4.168  1.00 20.00     0.043 A 
HETATM    4  C4  UNL     1     -32.890   7.179   3.421  1.00 20.00     0.029 A 
HETATM    5  C5  UNL     1     -32.765   7.693   4.712  1.00 20.00     0.126 A 
HETATM    6  C6  UNL     1     -33.849   6.203   3.150  1.00 20.00     0.126 A 
HETATM    7  F8  UNL     1     -31.847   8.631   4.982  1.00 20.00    -0.205 F 
HETATM    8  F9  UNL     1     -33.977   5.702   1.912  1.00 20.00    -0.205 F 
ENDROOT
BRANCH   4   9
HETATM    9  C7  UNL     1     -31.999   7.673   2.332  1.00 20.00     0.130 C 
HETATM   10 BR10 UNL     1     -32.712   9.333   1.611  1.00 20.00    -0.091 Br
ENDBRANCH   4   9
TORSDOF 1
ENDMDL
MODEL 4
REMARK VINA RESULT:      -5.4      2.098      3.201
REMARK  1 active torsions:
REMARK  status: ('A' for Active; 'I' for Inactive)
REMARK    1  A    between atoms: C4_4  and  C7_7 
ROOT
HETATM    1  C1  UNL     1     -31.680   8.379   3.334  1.00 20.00     0.006 A 
HETATM    2  C2  UNL     1     -32.123   8.346   4.656  1.00 20.00     0.043 A 
HETATM    3  C3  UNL     1     -32.310   7.595   2.367  1.00 20.00     0.043 A 
HETATM    4  C4  UNL     1     -33.825   6.743   4.045  1.00 20.00     0.029 A 
HETATM    5  C5  UNL     1     -33.195   7.527   5.012  1.00 20.00     0.126 A 
HETATM    6  C6  UNL     1     -33.381   6.777   2.724  1.00 20.00     0.126 A 
HETATM    7  F8  UNL     1     -33.613   7.501   6.286  1.00 20.00    -0.205 F 
HETATM    8  F9  UNL     1     -33.981   6.027   1.787  1.00 20.00    -0.205 F 
ENDROOT
BRANCH   4   9
HETATM    9  C7  UNL     1     -34.971   5.868   4.426  1.00 20.00     0.130 C 
HETATM   10 BR10 UNL     1     -34.348   4.038   4.645  1.00 20.00    -0.091 Br
ENDBRANCH   4   9
TORSDOF 1
ENDMDL
MODEL 5
REMARK VINA RESULT:      -5.4      2.096      4.041
REMARK  1 active torsions:
REMARK  status: ('A' for Active; 'I' for Inactive)
REMARK    1  A    between atoms: C4_4  and  C7_7 
ROOT
HETATM    1  C1  UNL     1     -31.680   8.382   3.335  1.00 20.00     0.006 A 
HETATM    2  C2  UNL     1     -32.315   7.600   2.370  1.00 20.00     0.043 A 
HETATM    3  C3  UNL     1     -32.115   8.344   4.661  1.00 20.00     0.043 A 
HETATM    4  C4  UNL     1     -33.820   6.743   4.054  1.00 20.00     0.029 A 
HETATM    5  C5  UNL     1     -33.386   6.781   2.729  1.00 20.00     0.126 A 
HETATM    6  C6  UNL     1     -33.185   7.524   5.019  1.00 20.00     0.126 A 
HETATM    7  F8  UNL     1     -33.990   6.034   1.794  1.00 20.00    -0.205 F 
HETATM    8  F9  UNL     1     -33.596   7.494   6.295  1.00 20.00    -0.205 F 
ENDROOT
BRANCH   4   9
HETATM    9  C7  UNL     1     -34.965   5.867   4.438  1.00 20.00     0.130 C 
HETATM   10 BR10 UNL     1     -34.342   4.035   4.641  1.00 20.00    -0.091 Br
ENDBRANCH   4   9
TORSDOF 1
ENDMDL
MODEL 6
REMARK VINA RESULT:      -4.7      2.177      2.695
REMARK  1 active torsions:
REMARK  status: ('A' for Active; 'I' for Inactive)
REMARK    1  A    between atoms: C4_4  and  C7_7 
ROOT
HETATM    1  C1  UNL     1     -33.744   7.299   6.162  1.00 20.00     0.006 A 
HETATM    2  C2  UNL     1     -33.057   7.910   5.113  1.00 20.00     0.043 A 
HETATM    3  C3  UNL     1     -34.484   6.139   5.928  1.00 20.00     0.043 A 
HETATM    4  C4  UNL     1     -33.850   6.203   3.597  1.00 20.00     0.029 A 
HETATM    5  C5  UNL     1     -33.110   7.363   3.831  1.00 20.00     0.126 A 
HETATM    6  C6  UNL     1     -34.537   5.593   4.646  1.00 20.00     0.126 A 
HETATM    7  F8  UNL     1     -32.447   7.958   2.829  1.00 20.00    -0.205 F 
HETATM    8  F9  UNL     1     -35.251   4.478   4.432  1.00 20.00    -0.205 F 
ENDROOT
BRANCH   4   9
HETATM    9  C7  UNL     1     -33.907   5.619   2.227  1.00 20.00     0.130 C 
HETATM   10 BR10 UNL     1     -32.765   4.046   2.142  1.00 20.00    -0.091 Br
ENDBRANCH   4   9
TORSDOF 1
ENDMDL
MODEL 7
REMARK VINA RESULT:      -4.7      2.185      2.904
REMARK  1 active torsions:
REMARK  status: ('A' for Active; 'I' for Inactive)
REMARK    1  A    between atoms: C4_4  and  C7_7 
ROOT
HETATM    1  C1  UNL     1     -33.720   7.315   6.154  1.00 20.00     0.006 A 
HETATM    2  C2  UNL     1     -34.471   6.161   5.925  1.00 20.00     0.043 A 
HETATM    3  C3  UNL     1     -33.032   7.918   5.101  1.00 20.00     0.043 A 
HETATM    4  C4  UNL     1     -33.843   6.214   3.593  1.00 20.00     0.029 A 
HETATM    5  C5  UNL     1     -34.531   5.610   4.645  1.00 20.00     0.126 A 
HETATM    6  C6  UNL     1     -33.093   7.367   3.822  1.00 20.00     0.126 A 
HETATM    7  F8  UNL     1     -35.254   4.501   4.436  1.00 20.00    -0.205 F 
HETATM    8  F9  UNL     1     -32.428   7.954   2.816  1.00 20.00    -0.205 F 
ENDROOT
BRANCH   4   9
HETATM    9  C7  UNL     1     -33.908   5.625   2.224  1.00 20.00     0.130 C 
HETATM   10 BR10 UNL     1     -32.781   4.042   2.142  1.00 20.00    -0.091 Br
ENDBRANCH   4   9
TORSDOF 1
ENDMDL
MODEL 8
REMARK VINA RESULT:      -4.1     12.246     12.874
REMARK  1 active torsions:
REMARK  status: ('A' for Active; 'I' for Inactive)
REMARK    1  A    between atoms: C4_4  and  C7_7 
ROOT
HETATM    1  C1  UNL     1     -34.064  17.015  -1.887  1.00 20.00     0.006 A 
HETATM    2  C2  UNL     1     -35.234  16.944  -1.130  1.00 20.00     0.043 A 
HETATM    3  C3  UNL     1     -32.996  17.799  -1.449  1.00 20.00     0.043 A 
HETATM    4  C4  UNL     1     -34.268  18.443   0.502  1.00 20.00     0.029 A 
HETATM    5  C5  UNL     1     -35.336  17.659   0.064  1.00 20.00     0.126 A 
HETATM    6  C6  UNL     1     -33.099  18.512  -0.255  1.00 20.00     0.126 A 
HETATM    7  F8  UNL     1     -36.464  17.585   0.784  1.00 20.00    -0.205 F 
HETATM    8  F9  UNL     1     -32.067  19.263   0.157  1.00 20.00    -0.205 F 
ENDROOT
BRANCH   4   9
HETATM    9  C7  UNL     1     -34.378  19.206   1.779  1.00 20.00     0.130 C 
HETATM   10 BR10 UNL     1     -33.483  18.225   3.201  1.00 20.00    -0.091 Br
ENDBRANCH   4   9
TORSDOF 1
ENDMDL
MODEL 9
REMARK VINA RESULT:      -4.1     12.257     12.865
REMARK  1 active torsions:
REMARK  status: ('A' for Active; 'I' for Inactive)
REMARK    1  A    between atoms: C4_4  and  C7_7 
ROOT
HETATM    1  C1  UNL     1     -34.138  16.974  -1.889  1.00 20.00     0.006 A 
HETATM    2  C2  UNL     1     -33.047  17.738  -1.475  1.00 20.00     0.043 A 
HETATM    3  C3  UNL     1     -35.301  16.944  -1.117  1.00 20.00     0.043 A 
HETATM    4  C4  UNL     1     -34.279  18.440   0.482  1.00 20.00     0.029 A 
HETATM    5  C5  UNL     1     -33.116  18.471  -0.290  1.00 20.00     0.126 A 
HETATM    6  C6  UNL     1     -35.370  17.676   0.067  1.00 20.00     0.126 A 
HETATM    7  F8  UNL     1     -32.062  19.201   0.100  1.00 20.00    -0.205 F 
HETATM    8  F9  UNL     1     -36.491  17.641   0.802  1.00 20.00    -0.205 F 
ENDROOT
BRANCH   4   9
HETATM    9  C7  UNL     1     -34.353  19.224   1.748  1.00 20.00     0.130 C 
HETATM   10 BR10 UNL     1     -33.507  18.221   3.184  1.00 20.00    -0.091 Br
ENDBRANCH   4   9
TORSDOF 1
ENDMDL
