MODEL 1
REMARK VINA RESULT:      -5.3      0.000      0.000
REMARK  0 active torsions:
REMARK  status: ('A' for Active; 'I' for Inactive)
ROOT
HETATM    1  C1  UNL     1     -33.093   6.928   3.410  1.00 20.00    -0.030 C 
HETATM    2  C2  UNL     1     -33.027   7.575   4.583  1.00 20.00    -0.030 C 
HETATM    3  C3  UNL     1     -34.001   5.760   3.169  1.00 20.00     0.026 C 
HETATM    4  C4  UNL     1     -33.830   7.174   5.785  1.00 20.00     0.026 C 
HETATM    5  C5  UNL     1     -35.061   5.585   4.259  1.00 20.00     0.004 C 
HETATM    6  C6  UNL     1     -34.465   5.788   5.650  1.00 20.00     0.004 C 
ENDROOT
TORSDOF 0
ENDMDL
MODEL 2
REMARK VINA RESULT:      -5.3      0.096      2.083
REMARK  0 active torsions:
REMARK  status: ('A' for Active; 'I' for Inactive)
ROOT
HETATM    1  C1  UNL     1     -33.122   7.573   4.633  1.00 20.00    -0.030 C 
HETATM    2  C2  UNL     1     -33.178   6.976   3.434  1.00 20.00    -0.030 C 
HETATM    3  C3  UNL     1     -33.881   7.082   5.829  1.00 20.00     0.026 C 
HETATM    4  C4  UNL     1     -34.034   5.775   3.156  1.00 20.00     0.026 C 
HETATM    5  C5  UNL     1     -34.455   5.675   5.643  1.00 20.00     0.004 C 
HETATM    6  C6  UNL     1     -35.065   5.505   4.254  1.00 20.00     0.004 C 
ENDROOT
TORSDOF 0
ENDMDL
MODEL 3
REMARK VINA RESULT:      -5.3      0.777      2.014
REMARK  0 active torsions:
REMARK  status: ('A' for Active; 'I' for Inactive)
ROOT
HETATM    1  C1  UNL     1     -33.721   7.229   5.245  1.00 20.00    -0.030 C 
HETATM    2  C2  UNL     1     -34.316   6.245   5.933  1.00 20.00    -0.030 C 
HETATM    3  C3  UNL     1     -33.419   7.138   3.779  1.00 20.00     0.026 C 
HETATM    4  C4  UNL     1     -34.711   4.936   5.315  1.00 20.00     0.026 C 
HETATM    5  C5  UNL     1     -34.135   5.974   3.088  1.00 20.00     0.004 C 
HETATM    6  C6  UNL     1     -34.083   4.707   3.938  1.00 20.00     0.004 C 
ENDROOT
TORSDOF 0
ENDMDL
MODEL 4
REMARK VINA RESULT:      -5.3      0.772      2.162
REMARK  0 active torsions:
REMARK  status: ('A' for Active; 'I' for Inactive)
ROOT
HETATM    1  C1  UNL     1     -34.355   6.216   5.911  1.00 20.00    -0.030 C 
HETATM    2  C2  UNL     1     -33.739   7.204   5.247  1.00 20.00    -0.030 C 
HETATM    3  C3  UNL     1     -34.727   4.910   5.275  1.00 20.00     0.026 C 
HETATM    4  C4  UNL     1     -33.389   7.119   3.791  1.00 20.00     0.026 C 
HETATM    5  C5  UNL     1     -34.058   4.689   3.916  1.00 20.00     0.004 C 
HETATM    6  C6  UNL     1     -34.084   5.960   3.072  1.00 20.00     0.004 C 
ENDROOT
TORSDOF 0
ENDMDL
MODEL 5
REMARK VINA RESULT:      -5.2      0.748      2.267
REMARK  0 active torsions:
REMARK  status: ('A' for Active; 'I' for Inactive)
ROOT
HETATM    1  C1  UNL     1     -34.388   4.792   4.078  1.00 20.00    -0.030 C 
HETATM    2  C2  UNL     1     -34.040   5.792   3.257  1.00 20.00    -0.030 C 
HETATM    3  C3  UNL     1     -34.495   4.953   5.565  1.00 20.00     0.026 C 
HETATM    4  C4  UNL     1     -33.690   7.167   3.742  1.00 20.00     0.026 C 
HETATM    5  C5  UNL     1     -34.492   6.417   6.014  1.00 20.00     0.004 C 
HETATM    6  C6  UNL     1     -33.448   7.228   5.253  1.00 20.00     0.004 C 
ENDROOT
TORSDOF 0
ENDMDL
MODEL 6
REMARK VINA RESULT:      -5.2      0.749      2.110
REMARK  0 active torsions:
REMARK  status: ('A' for Active; 'I' for Inactive)
ROOT
HETATM    1  C1  UNL     1     -34.043   5.789   3.262  1.00 20.00    -0.030 C 
HETATM    2  C2  UNL     1     -34.389   4.790   4.085  1.00 20.00    -0.030 C 
HETATM    3  C3  UNL     1     -33.692   7.165   3.746  1.00 20.00     0.026 C 
HETATM    4  C4  UNL     1     -34.493   4.952   5.573  1.00 20.00     0.026 C 
HETATM    5  C5  UNL     1     -33.450   7.228   5.256  1.00 20.00     0.004 C 
HETATM    6  C6  UNL     1     -34.493   6.416   6.020  1.00 20.00     0.004 C 
ENDROOT
TORSDOF 0
ENDMDL
MODEL 7
REMARK VINA RESULT:      -5.2      0.910      1.679
REMARK  0 active torsions:
REMARK  status: ('A' for Active; 'I' for Inactive)
ROOT
HETATM    1  C1  UNL     1     -33.667   4.974   3.222  1.00 20.00    -0.030 C 
HETATM    2  C2  UNL     1     -33.433   6.288   3.108  1.00 20.00    -0.030 C 
HETATM    3  C3  UNL     1     -34.223   4.346   4.466  1.00 20.00     0.026 C 
HETATM    4  C4  UNL     1     -33.668   7.263   4.224  1.00 20.00     0.026 C 
HETATM    5  C5  UNL     1     -34.792   5.368   5.454  1.00 20.00     0.004 C 
HETATM    6  C6  UNL     1     -33.881   6.585   5.580  1.00 20.00     0.004 C 
ENDROOT
TORSDOF 0
ENDMDL
MODEL 8
REMARK VINA RESULT:      -3.5      8.522      9.605
REMARK  0 active torsions:
REMARK  status: ('A' for Active; 'I' for Inactive)
ROOT
HETATM    1  C1  UNL     1     -42.795   6.028   1.180  1.00 20.00    -0.030 C 
HETATM    2  C2  UNL     1     -41.629   5.550   0.725  1.00 20.00    -0.030 C 
HETATM    3  C3  UNL     1     -43.417   7.293   0.669  1.00 20.00     0.026 C 
HETATM    4  C4  UNL     1     -40.807   6.249  -0.318  1.00 20.00     0.026 C 
HETATM    5  C5  UNL     1     -42.773   7.802  -0.623  1.00 20.00     0.004 C 
HETATM    6  C6  UNL     1     -41.252   7.693  -0.565  1.00 20.00     0.004 C 
ENDROOT
TORSDOF 0
ENDMDL
MODEL 9
REMARK VINA RESULT:      -3.5      8.569      9.557
REMARK  0 active torsions:
REMARK  status: ('A' for Active; 'I' for Inactive)
ROOT
HETATM    1  C1  UNL     1     -41.677   5.522   0.728  1.00 20.00    -0.030 C 
HETATM    2  C2  UNL     1     -42.821   6.030   1.207  1.00 20.00    -0.030 C 
HETATM    3  C3  UNL     1     -40.857   6.202  -0.328  1.00 20.00     0.026 C 
HETATM    4  C4  UNL     1     -43.417   7.315   0.713  1.00 20.00     0.026 C 
HETATM    5  C5  UNL     1     -41.268   7.658  -0.564  1.00 20.00     0.004 C 
HETATM    6  C6  UNL     1     -42.787   7.808  -0.592  1.00 20.00     0.004 C 
ENDROOT
TORSDOF 0
ENDMDL
