MODEL 1
REMARK VINA RESULT:      -4.5      0.000      0.000
REMARK  3 active torsions:
REMARK  status: ('A' for Active; 'I' for Inactive)
REMARK    1  A    between atoms: C5_5  and  S7_7 
REMARK    2  A    between atoms: C6_6  and  S8_8 
REMARK    3  A    between atoms: S7_7  and  S8_8 
ROOT
HETATM    1  S7  UNL     1     -32.182   8.164   3.029  1.00 20.00    -0.093 SA
ENDROOT
BRANCH   1   2
HETATM    2  C5  UNL     1     -32.500   8.854   1.371  1.00 20.00     0.050 C 
HETATM    3  C1  UNL     1     -32.809  10.342   1.485  1.00 20.00     0.022 C 
HETATM    4  C2  UNL     1     -31.296   8.604   0.471  1.00 20.00     0.022 C 
ENDBRANCH   1   2
BRANCH   1   5
HETATM    5  S8  UNL     1     -33.250   6.412   2.948  1.00 20.00    -0.093 SA
BRANCH   5   6
HETATM    6  C6  UNL     1     -34.278   6.537   4.431  1.00 20.00     0.050 C 
HETATM    7  C3  UNL     1     -34.645   5.140   4.920  1.00 20.00     0.022 C 
HETATM    8  C4  UNL     1     -33.538   7.326   5.505  1.00 20.00     0.022 C 
ENDBRANCH   5   6
ENDBRANCH   1   5
TORSDOF 3
ENDMDL
MODEL 2
REMARK VINA RESULT:      -4.5      0.024      4.901
REMARK  3 active torsions:
REMARK  status: ('A' for Active; 'I' for Inactive)
REMARK    1  A    between atoms: C5_5  and  S7_7 
REMARK    2  A    between atoms: C6_6  and  S8_8 
REMARK    3  A    between atoms: S7_7  and  S8_8 
ROOT
HETATM    1  S7  UNL     1     -33.236   6.393   2.943  1.00 20.00    -0.093 SA
ENDROOT
BRANCH   1   2
HETATM    2  C5  UNL     1     -34.274   6.551   4.434  1.00 20.00     0.050 C 
HETATM    3  C1  UNL     1     -34.658   5.166   4.942  1.00 20.00     0.022 C 
HETATM    4  C2  UNL     1     -33.527   7.346   5.499  1.00 20.00     0.022 C 
ENDBRANCH   1   2
BRANCH   1   5
HETATM    5  S8  UNL     1     -32.166   8.144   3.011  1.00 20.00    -0.093 SA
BRANCH   5   6
HETATM    6  C6  UNL     1     -32.491   8.840   1.373  1.00 20.00     0.050 C 
HETATM    7  C3  UNL     1     -32.812  10.325   1.500  1.00 20.00     0.022 C 
HETATM    8  C4  UNL     1     -31.287   8.607   0.467  1.00 20.00     0.022 C 
ENDBRANCH   5   6
ENDBRANCH   1   5
TORSDOF 3
ENDMDL
MODEL 3
REMARK VINA RESULT:      -4.0      1.441      1.724
REMARK  3 active torsions:
REMARK  status: ('A' for Active; 'I' for Inactive)
REMARK    1  A    between atoms: C5_5  and  S7_7 
REMARK    2  A    between atoms: C6_6  and  S8_8 
REMARK    3  A    between atoms: S7_7  and  S8_8 
ROOT
HETATM    1  S7  UNL     1     -31.560   8.342   1.423  1.00 20.00    -0.093 SA
ENDROOT
BRANCH   1   2
HETATM    2  C5  UNL     1     -32.948   9.449   1.006  1.00 20.00     0.050 C 
HETATM    3  C1  UNL     1     -32.654  10.856   1.512  1.00 20.00     0.022 C 
HETATM    4  C2  UNL     1     -33.180   9.437  -0.501  1.00 20.00     0.022 C 
ENDBRANCH   1   2
BRANCH   1   5
HETATM    5  S8  UNL     1     -31.787   8.162   3.457  1.00 20.00    -0.093 SA
BRANCH   5   6
HETATM    6  C6  UNL     1     -33.380   7.316   3.578  1.00 20.00     0.050 C 
HETATM    7  C3  UNL     1     -33.305   5.972   2.861  1.00 20.00     0.022 C 
HETATM    8  C4  UNL     1     -33.761   7.143   5.043  1.00 20.00     0.022 C 
ENDBRANCH   5   6
ENDBRANCH   1   5
TORSDOF 3
ENDMDL
MODEL 4
REMARK VINA RESULT:      -4.0      1.513      4.855
REMARK  3 active torsions:
REMARK  status: ('A' for Active; 'I' for Inactive)
REMARK    1  A    between atoms: C5_5  and  S7_7 
REMARK    2  A    between atoms: C6_6  and  S8_8 
REMARK    3  A    between atoms: S7_7  and  S8_8 
ROOT
HETATM    1  S7  UNL     1     -32.936   7.604   3.534  1.00 20.00    -0.093 SA
ENDROOT
BRANCH   1   2
HETATM    2  C5  UNL     1     -33.892   6.193   2.883  1.00 20.00     0.050 C 
HETATM    3  C1  UNL     1     -32.970   4.998   2.679  1.00 20.00     0.022 C 
HETATM    4  C2  UNL     1     -35.032   5.860   3.838  1.00 20.00     0.022 C 
ENDBRANCH   1   2
BRANCH   1   5
HETATM    5  S8  UNL     1     -31.893   8.188   1.864  1.00 20.00    -0.093 SA
BRANCH   5   6
HETATM    6  C6  UNL     1     -33.013   9.408   1.137  1.00 20.00     0.050 C 
HETATM    7  C3  UNL     1     -32.581  10.811   1.546  1.00 20.00     0.022 C 
HETATM    8  C4  UNL     1     -33.029   9.251  -0.379  1.00 20.00     0.022 C 
ENDBRANCH   5   6
ENDBRANCH   1   5
TORSDOF 3
ENDMDL
MODEL 5
REMARK VINA RESULT:      -4.0      1.368      1.795
REMARK  3 active torsions:
REMARK  status: ('A' for Active; 'I' for Inactive)
REMARK    1  A    between atoms: C5_5  and  S7_7 
REMARK    2  A    between atoms: C6_6  and  S8_8 
REMARK    3  A    between atoms: S7_7  and  S8_8 
ROOT
HETATM    1  S7  UNL     1     -32.941   6.242   2.750  1.00 20.00    -0.093 SA
ENDROOT
BRANCH   1   2
HETATM    2  C5  UNL     1     -32.564   8.027   2.759  1.00 20.00     0.050 C 
HETATM    3  C1  UNL     1     -31.409   8.303   3.713  1.00 20.00     0.022 C 
HETATM    4  C2  UNL     1     -32.240   8.491   1.344  1.00 20.00     0.022 C 
ENDBRANCH   1   2
BRANCH   1   5
HETATM    5  S8  UNL     1     -34.929   6.247   3.265  1.00 20.00    -0.093 SA
BRANCH   5   6
HETATM    6  C6  UNL     1     -34.868   5.675   4.980  1.00 20.00     0.050 C 
HETATM    7  C3  UNL     1     -34.278   4.269   5.031  1.00 20.00     0.022 C 
HETATM    8  C4  UNL     1     -34.051   6.650   5.819  1.00 20.00     0.022 C 
ENDBRANCH   5   6
ENDBRANCH   1   5
TORSDOF 3
ENDMDL
MODEL 6
REMARK VINA RESULT:      -4.0      1.360      4.771
REMARK  3 active torsions:
REMARK  status: ('A' for Active; 'I' for Inactive)
REMARK    1  A    between atoms: C5_5  and  S7_7 
REMARK    2  A    between atoms: C6_6  and  S8_8 
REMARK    3  A    between atoms: S7_7  and  S8_8 
ROOT
HETATM    1  S7  UNL     1     -34.965   6.247   3.275  1.00 20.00    -0.093 SA
ENDROOT
BRANCH   1   2
HETATM    2  C5  UNL     1     -34.866   5.680   5.006  1.00 20.00     0.050 C 
HETATM    3  C1  UNL     1     -34.274   4.277   5.055  1.00 20.00     0.022 C 
HETATM    4  C2  UNL     1     -34.035   6.664   5.823  1.00 20.00     0.022 C 
ENDBRANCH   1   2
BRANCH   1   5
HETATM    5  S8  UNL     1     -32.981   6.261   2.743  1.00 20.00    -0.093 SA
BRANCH   5   6
HETATM    6  C6  UNL     1     -32.607   8.030   2.759  1.00 20.00     0.050 C 
HETATM    7  C3  UNL     1     -31.414   8.294   3.671  1.00 20.00     0.022 C 
HETATM    8  C4  UNL     1     -32.337   8.512   1.338  1.00 20.00     0.022 C 
ENDBRANCH   5   6
ENDBRANCH   1   5
TORSDOF 3
ENDMDL
MODEL 7
REMARK VINA RESULT:      -3.8      0.529      1.363
REMARK  3 active torsions:
REMARK  status: ('A' for Active; 'I' for Inactive)
REMARK    1  A    between atoms: C5_5  and  S7_7 
REMARK    2  A    between atoms: C6_6  and  S8_8 
REMARK    3  A    between atoms: S7_7  and  S8_8 
ROOT
HETATM    1  S7  UNL     1     -31.815   8.375   3.308  1.00 20.00    -0.093 SA
ENDROOT
BRANCH   1   2
HETATM    2  C5  UNL     1     -31.826   9.321   1.749  1.00 20.00     0.050 C 
HETATM    3  C1  UNL     1     -31.495   8.397   0.584  1.00 20.00     0.022 C 
HETATM    4  C2  UNL     1     -33.184   9.988   1.561  1.00 20.00     0.022 C 
ENDBRANCH   1   2
BRANCH   1   5
HETATM    5  S8  UNL     1     -33.012   6.780   2.818  1.00 20.00    -0.093 SA
BRANCH   5   6
HETATM    6  C6  UNL     1     -34.225   6.802   4.160  1.00 20.00     0.050 C 
HETATM    7  C3  UNL     1     -34.820   5.410   4.337  1.00 20.00     0.022 C 
HETATM    8  C4  UNL     1     -33.564   7.292   5.443  1.00 20.00     0.022 C 
ENDBRANCH   5   6
ENDBRANCH   1   5
TORSDOF 3
ENDMDL
MODEL 8
REMARK VINA RESULT:      -3.2     10.643     11.047
REMARK  3 active torsions:
REMARK  status: ('A' for Active; 'I' for Inactive)
REMARK    1  A    between atoms: C5_5  and  S7_7 
REMARK    2  A    between atoms: C6_6  and  S8_8 
REMARK    3  A    between atoms: S7_7  and  S8_8 
ROOT
HETATM    1  S7  UNL     1     -33.755  17.200  -3.727  1.00 20.00    -0.093 SA
ENDROOT
BRANCH   1   2
HETATM    2  C5  UNL     1     -33.672  17.028  -1.913  1.00 20.00     0.050 C 
HETATM    3  C1  UNL     1     -32.843  18.165  -1.327  1.00 20.00     0.022 C 
HETATM    4  C2  UNL     1     -35.082  17.012  -1.334  1.00 20.00     0.022 C 
ENDBRANCH   1   2
BRANCH   1   5
HETATM    5  S8  UNL     1     -35.465  16.145  -4.154  1.00 20.00    -0.093 SA
BRANCH   5   6
HETATM    6  C6  UNL     1     -34.860  14.441  -4.143  1.00 20.00     0.050 C 
HETATM    7  C3  UNL     1     -35.691  13.594  -5.101  1.00 20.00     0.022 C 
HETATM    8  C4  UNL     1     -33.383  14.417  -4.520  1.00 20.00     0.022 C 
ENDBRANCH   5   6
ENDBRANCH   1   5
TORSDOF 3
ENDMDL
MODEL 9
REMARK VINA RESULT:      -3.2     10.724     11.133
REMARK  3 active torsions:
REMARK  status: ('A' for Active; 'I' for Inactive)
REMARK    1  A    between atoms: C5_5  and  S7_7 
REMARK    2  A    between atoms: C6_6  and  S8_8 
REMARK    3  A    between atoms: S7_7  and  S8_8 
ROOT
HETATM    1  S7  UNL     1     -35.442  16.248  -4.227  1.00 20.00    -0.093 SA
ENDROOT
BRANCH   1   2
HETATM    2  C5  UNL     1     -34.786  14.548  -4.147  1.00 20.00     0.050 C 
HETATM    3  C1  UNL     1     -35.634  13.627  -5.016  1.00 20.00     0.022 C 
HETATM    4  C2  UNL     1     -33.326  14.539  -4.587  1.00 20.00     0.022 C 
ENDBRANCH   1   2
BRANCH   1   5
HETATM    5  S8  UNL     1     -33.784  17.344  -3.713  1.00 20.00    -0.093 SA
BRANCH   5   6
HETATM    6  C6  UNL     1     -33.682  17.046  -1.932  1.00 20.00     0.050 C 
HETATM    7  C3  UNL     1     -32.806  18.112  -1.282  1.00 20.00     0.022 C 
HETATM    8  C4  UNL     1     -35.082  17.036  -1.331  1.00 20.00     0.022 C 
ENDBRANCH   5   6
ENDBRANCH   1   5
TORSDOF 3
ENDMDL
