MODEL 1
REMARK VINA RESULT:      -6.0      0.000      0.000
REMARK  1 active torsions:
REMARK  status: ('A' for Active; 'I' for Inactive)
REMARK    1  A    between atoms: C6_6  and  O8_8 
ROOT
HETATM    1  C1  UNL     1     -34.618   5.163   5.583  1.00 20.00     0.000 A 
HETATM    2  C2  UNL     1     -34.217   6.473   5.846  1.00 20.00     0.003 A 
HETATM    3  C3  UNL     1     -34.452   4.625   4.307  1.00 20.00     0.003 A 
HETATM    4  C4  UNL     1     -33.652   7.246   4.832  1.00 20.00     0.037 A 
HETATM    5  C5  UNL     1     -33.887   5.399   3.293  1.00 20.00     0.037 A 
HETATM    6  C6  UNL     1     -33.487   6.709   3.555  1.00 20.00     0.068 A 
ENDROOT
BRANCH   6   7
HETATM    7  O8  UNL     1     -32.937   7.463   2.565  1.00 20.00    -0.356 OA
HETATM    8  C7  UNL     1     -31.785   8.236   2.900  1.00 20.00     0.210 C 
ENDBRANCH   6   7
TORSDOF 1
ENDMDL
MODEL 2
REMARK VINA RESULT:      -6.0      0.004      1.708
REMARK  1 active torsions:
REMARK  status: ('A' for Active; 'I' for Inactive)
REMARK    1  A    between atoms: C6_6  and  O8_8 
ROOT
HETATM    1  C1  UNL     1     -34.617   5.165   5.586  1.00 20.00     0.000 A 
HETATM    2  C2  UNL     1     -34.452   4.625   4.310  1.00 20.00     0.003 A 
HETATM    3  C3  UNL     1     -34.218   6.476   5.845  1.00 20.00     0.003 A 
HETATM    4  C4  UNL     1     -33.888   5.396   3.294  1.00 20.00     0.037 A 
HETATM    5  C5  UNL     1     -33.654   7.247   4.829  1.00 20.00     0.037 A 
HETATM    6  C6  UNL     1     -33.489   6.707   3.553  1.00 20.00     0.068 A 
ENDROOT
BRANCH   6   7
HETATM    7  O8  UNL     1     -32.936   7.459   2.562  1.00 20.00    -0.356 OA
HETATM    8  C7  UNL     1     -31.787   8.234   2.899  1.00 20.00     0.210 C 
ENDBRANCH   6   7
TORSDOF 1
ENDMDL
MODEL 3
REMARK VINA RESULT:      -4.5      1.206      2.411
REMARK  1 active torsions:
REMARK  status: ('A' for Active; 'I' for Inactive)
REMARK    1  A    between atoms: C6_6  and  O8_8 
ROOT
HETATM    1  C1  UNL     1     -34.038   6.971   6.240  1.00 20.00     0.000 A 
HETATM    2  C2  UNL     1     -34.668   5.777   5.886  1.00 20.00     0.003 A 
HETATM    3  C3  UNL     1     -33.324   7.693   5.285  1.00 20.00     0.003 A 
HETATM    4  C4  UNL     1     -34.581   5.306   4.576  1.00 20.00     0.037 A 
HETATM    5  C5  UNL     1     -33.238   7.222   3.975  1.00 20.00     0.037 A 
HETATM    6  C6  UNL     1     -33.867   6.028   3.620  1.00 20.00     0.068 A 
ENDROOT
BRANCH   6   7
HETATM    7  O8  UNL     1     -33.781   5.568   2.342  1.00 20.00    -0.356 OA
HETATM    8  C7  UNL     1     -32.928   4.448   2.111  1.00 20.00     0.210 C 
ENDBRANCH   6   7
TORSDOF 1
ENDMDL
MODEL 4
REMARK VINA RESULT:      -4.4      1.485      3.266
REMARK  1 active torsions:
REMARK  status: ('A' for Active; 'I' for Inactive)
REMARK    1  A    between atoms: C6_6  and  O8_8 
ROOT
HETATM    1  C1  UNL     1     -31.922   8.131   3.260  1.00 20.00     0.000 A 
HETATM    2  C2  UNL     1     -32.353   8.177   4.586  1.00 20.00     0.003 A 
HETATM    3  C3  UNL     1     -32.531   7.258   2.359  1.00 20.00     0.003 A 
HETATM    4  C4  UNL     1     -33.392   7.349   5.011  1.00 20.00     0.037 A 
HETATM    5  C5  UNL     1     -33.570   6.430   2.784  1.00 20.00     0.037 A 
HETATM    6  C6  UNL     1     -34.001   6.476   4.110  1.00 20.00     0.068 A 
ENDROOT
BRANCH   6   7
HETATM    7  O8  UNL     1     -35.014   5.667   4.525  1.00 20.00    -0.356 OA
HETATM    8  C7  UNL     1     -34.705   4.702   5.529  1.00 20.00     0.210 C 
ENDBRANCH   6   7
TORSDOF 1
ENDMDL
MODEL 5
REMARK VINA RESULT:      -4.4      1.484      3.638
REMARK  1 active torsions:
REMARK  status: ('A' for Active; 'I' for Inactive)
REMARK    1  A    between atoms: C6_6  and  O8_8 
ROOT
HETATM    1  C1  UNL     1     -31.918   8.165   3.296  1.00 20.00     0.000 A 
HETATM    2  C2  UNL     1     -32.529   7.314   2.375  1.00 20.00     0.003 A 
HETATM    3  C3  UNL     1     -32.345   8.179   4.624  1.00 20.00     0.003 A 
HETATM    4  C4  UNL     1     -33.568   6.477   2.781  1.00 20.00     0.037 A 
HETATM    5  C5  UNL     1     -33.385   7.342   5.030  1.00 20.00     0.037 A 
HETATM    6  C6  UNL     1     -33.996   6.491   4.109  1.00 20.00     0.068 A 
ENDROOT
BRANCH   6   7
HETATM    7  O8  UNL     1     -35.011   5.675   4.505  1.00 20.00    -0.356 OA
HETATM    8  C7  UNL     1     -34.723   4.734   5.538  1.00 20.00     0.210 C 
ENDBRANCH   6   7
TORSDOF 1
ENDMDL
MODEL 6
REMARK VINA RESULT:      -3.8     12.222     12.578
REMARK  1 active torsions:
REMARK  status: ('A' for Active; 'I' for Inactive)
REMARK    1  A    between atoms: C6_6  and  O8_8 
ROOT
HETATM    1  C1  UNL     1     -35.562  16.920  -1.291  1.00 20.00     0.000 A 
HETATM    2  C2  UNL     1     -34.556  16.724  -2.239  1.00 20.00     0.003 A 
HETATM    3  C3  UNL     1     -35.296  17.649  -0.133  1.00 20.00     0.003 A 
HETATM    4  C4  UNL     1     -33.285  17.257  -2.026  1.00 20.00     0.037 A 
HETATM    5  C5  UNL     1     -34.025  18.182   0.080  1.00 20.00     0.037 A 
HETATM    6  C6  UNL     1     -33.019  17.987  -0.867  1.00 20.00     0.068 A 
ENDROOT
BRANCH   6   7
HETATM    7  O8  UNL     1     -31.778  18.506  -0.659  1.00 20.00    -0.356 OA
HETATM    8  C7  UNL     1     -31.418  18.808   0.688  1.00 20.00     0.210 C 
ENDBRANCH   6   7
TORSDOF 1
ENDMDL
MODEL 7
REMARK VINA RESULT:      -3.8      1.778      2.837
REMARK  1 active torsions:
REMARK  status: ('A' for Active; 'I' for Inactive)
REMARK    1  A    between atoms: C6_6  and  O8_8 
ROOT
HETATM    1  C1  UNL     1     -33.610   4.461   2.852  1.00 20.00     0.000 A 
HETATM    2  C2  UNL     1     -34.126   3.937   4.038  1.00 20.00     0.003 A 
HETATM    3  C3  UNL     1     -33.348   5.826   2.749  1.00 20.00     0.003 A 
HETATM    4  C4  UNL     1     -34.380   4.779   5.120  1.00 20.00     0.037 A 
HETATM    5  C5  UNL     1     -33.602   6.669   3.831  1.00 20.00     0.037 A 
HETATM    6  C6  UNL     1     -34.117   6.146   5.017  1.00 20.00     0.068 A 
ENDROOT
BRANCH   6   7
HETATM    7  O8  UNL     1     -34.366   6.968   6.073  1.00 20.00    -0.356 OA
HETATM    8  C7  UNL     1     -33.413   7.997   6.333  1.00 20.00     0.210 C 
ENDBRANCH   6   7
TORSDOF 1
ENDMDL
MODEL 8
REMARK VINA RESULT:      -3.8     11.745     12.348
REMARK  1 active torsions:
REMARK  status: ('A' for Active; 'I' for Inactive)
REMARK    1  A    between atoms: C6_6  and  O8_8 
ROOT
HETATM    1  C1  UNL     1     -35.519  16.138  -3.306  1.00 20.00     0.000 A 
HETATM    2  C2  UNL     1     -34.341  15.418  -3.502  1.00 20.00     0.003 A 
HETATM    3  C3  UNL     1     -36.700  15.726  -3.924  1.00 20.00     0.003 A 
HETATM    4  C4  UNL     1     -34.343  14.286  -4.318  1.00 20.00     0.037 A 
HETATM    5  C5  UNL     1     -36.702  14.595  -4.740  1.00 20.00     0.037 A 
HETATM    6  C6  UNL     1     -35.524  13.874  -4.937  1.00 20.00     0.068 A 
ENDROOT
BRANCH   6   7
HETATM    7  O8  UNL     1     -35.526  12.771  -5.734  1.00 20.00    -0.356 OA
HETATM    8  C7  UNL     1     -35.175  12.960  -7.104  1.00 20.00     0.210 C 
ENDBRANCH   6   7
TORSDOF 1
ENDMDL
MODEL 9
REMARK VINA RESULT:      -3.8     11.739     12.365
REMARK  1 active torsions:
REMARK  status: ('A' for Active; 'I' for Inactive)
REMARK    1  A    between atoms: C6_6  and  O8_8 
ROOT
HETATM    1  C1  UNL     1     -35.449  16.172  -3.300  1.00 20.00     0.000 A 
HETATM    2  C2  UNL     1     -36.641  15.785  -3.913  1.00 20.00     0.003 A 
HETATM    3  C3  UNL     1     -34.288  15.426  -3.497  1.00 20.00     0.003 A 
HETATM    4  C4  UNL     1     -36.671  14.650  -4.723  1.00 20.00     0.037 A 
HETATM    5  C5  UNL     1     -34.318  14.291  -4.308  1.00 20.00     0.037 A 
HETATM    6  C6  UNL     1     -35.509  13.903  -4.921  1.00 20.00     0.068 A 
ENDROOT
BRANCH   6   7
HETATM    7  O8  UNL     1     -35.539  12.794  -5.710  1.00 20.00    -0.356 OA
HETATM    8  C7  UNL     1     -35.167  12.960  -7.078  1.00 20.00     0.210 C 
ENDBRANCH   6   7
TORSDOF 1
ENDMDL
