MODEL 1
REMARK VINA RESULT:      -7.0      0.000      0.000
REMARK  0 active torsions:
REMARK  status: ('A' for Active; 'I' for Inactive)
ROOT
HETATM    1  C1  UNL     1     -32.089   8.453   1.967  1.00 20.00     0.018 C 
HETATM    2  C2  UNL     1     -32.660   7.742   2.747  1.00 20.00    -0.078 C 
HETATM    3  C3  UNL     1     -34.668   5.243   5.490  1.00 20.00     0.000 A 
HETATM    4  C4  UNL     1     -34.450   4.810   4.182  1.00 20.00     0.001 A 
HETATM    5  C5  UNL     1     -34.223   6.503   5.891  1.00 20.00     0.001 A 
HETATM    6  C6  UNL     1     -33.786   5.637   3.276  1.00 20.00     0.020 A 
HETATM    7  C7  UNL     1     -33.559   7.329   4.985  1.00 20.00     0.020 A 
HETATM    8  C8  UNL     1     -33.340   6.896   3.677  1.00 20.00     0.016 A 
ENDROOT
TORSDOF 0
ENDMDL
MODEL 2
REMARK VINA RESULT:      -7.0      0.023      1.709
REMARK  0 active torsions:
REMARK  status: ('A' for Active; 'I' for Inactive)
ROOT
HETATM    1  C1  UNL     1     -32.101   8.460   1.939  1.00 20.00     0.018 C 
HETATM    2  C2  UNL     1     -32.666   7.750   2.725  1.00 20.00    -0.078 C 
HETATM    3  C3  UNL     1     -34.648   5.257   5.492  1.00 20.00     0.000 A 
HETATM    4  C4  UNL     1     -34.196   6.516   5.887  1.00 20.00     0.001 A 
HETATM    5  C5  UNL     1     -34.445   4.822   4.182  1.00 20.00     0.001 A 
HETATM    6  C6  UNL     1     -33.540   7.340   4.972  1.00 20.00     0.020 A 
HETATM    7  C7  UNL     1     -33.789   5.646   3.267  1.00 20.00     0.020 A 
HETATM    8  C8  UNL     1     -33.337   6.905   3.662  1.00 20.00     0.016 A 
ENDROOT
TORSDOF 0
ENDMDL
MODEL 3
REMARK VINA RESULT:      -4.8      0.931      3.915
REMARK  0 active torsions:
REMARK  status: ('A' for Active; 'I' for Inactive)
ROOT
HETATM    1  C1  UNL     1     -34.916   5.121   5.601  1.00 20.00     0.018 C 
HETATM    2  C2  UNL     1     -34.248   5.844   4.913  1.00 20.00    -0.078 C 
HETATM    3  C3  UNL     1     -31.900   8.386   2.499  1.00 20.00     0.000 A 
HETATM    4  C4  UNL     1     -31.887   8.533   3.886  1.00 20.00     0.001 A 
HETATM    5  C5  UNL     1     -32.690   7.398   1.910  1.00 20.00     0.001 A 
HETATM    6  C6  UNL     1     -32.664   7.693   4.684  1.00 20.00     0.020 A 
HETATM    7  C7  UNL     1     -33.466   6.558   2.708  1.00 20.00     0.020 A 
HETATM    8  C8  UNL     1     -33.453   6.705   4.095  1.00 20.00     0.016 A 
ENDROOT
TORSDOF 0
ENDMDL
MODEL 4
REMARK VINA RESULT:      -4.3      1.168      2.466
REMARK  0 active torsions:
REMARK  status: ('A' for Active; 'I' for Inactive)
ROOT
HETATM    1  C1  UNL     1     -33.025   4.030   1.699  1.00 20.00     0.018 C 
HETATM    2  C2  UNL     1     -33.249   4.743   2.639  1.00 20.00    -0.078 C 
HETATM    3  C3  UNL     1     -34.039   7.244   5.944  1.00 20.00     0.000 A 
HETATM    4  C4  UNL     1     -34.592   5.965   5.889  1.00 20.00     0.001 A 
HETATM    5  C5  UNL     1     -33.225   7.697   4.905  1.00 20.00     0.001 A 
HETATM    6  C6  UNL     1     -34.331   5.138   4.796  1.00 20.00     0.020 A 
HETATM    7  C7  UNL     1     -32.964   6.870   3.813  1.00 20.00     0.020 A 
HETATM    8  C8  UNL     1     -33.517   5.590   3.758  1.00 20.00     0.016 A 
ENDROOT
TORSDOF 0
ENDMDL
MODEL 5
REMARK VINA RESULT:      -4.3      1.163      2.623
REMARK  0 active torsions:
REMARK  status: ('A' for Active; 'I' for Inactive)
ROOT
HETATM    1  C1  UNL     1     -33.021   4.020   1.716  1.00 20.00     0.018 C 
HETATM    2  C2  UNL     1     -33.249   4.739   2.650  1.00 20.00    -0.078 C 
HETATM    3  C3  UNL     1     -34.051   7.268   5.931  1.00 20.00     0.000 A 
HETATM    4  C4  UNL     1     -33.243   7.716   4.886  1.00 20.00     0.001 A 
HETATM    5  C5  UNL     1     -34.594   5.983   5.891  1.00 20.00     0.001 A 
HETATM    6  C6  UNL     1     -32.978   6.880   3.801  1.00 20.00     0.020 A 
HETATM    7  C7  UNL     1     -34.329   5.147   4.806  1.00 20.00     0.020 A 
HETATM    8  C8  UNL     1     -33.521   5.595   3.762  1.00 20.00     0.016 A 
ENDROOT
TORSDOF 0
ENDMDL
MODEL 6
REMARK VINA RESULT:      -4.3     11.830     12.233
REMARK  0 active torsions:
REMARK  status: ('A' for Active; 'I' for Inactive)
ROOT
HETATM    1  C1  UNL     1     -34.019  15.515  -4.145  1.00 20.00     0.018 C 
HETATM    2  C2  UNL     1     -34.073  16.161  -3.135  1.00 20.00    -0.078 C 
HETATM    3  C3  UNL     1     -34.265  18.434   0.414  1.00 20.00     0.000 A 
HETATM    4  C4  UNL     1     -35.357  17.660   0.021  1.00 20.00     0.001 A 
HETATM    5  C5  UNL     1     -33.109  18.457  -0.367  1.00 20.00     0.001 A 
HETATM    6  C6  UNL     1     -35.293  16.909  -1.153  1.00 20.00     0.020 A 
HETATM    7  C7  UNL     1     -33.046  17.705  -1.540  1.00 20.00     0.020 A 
HETATM    8  C8  UNL     1     -34.138  16.932  -1.933  1.00 20.00     0.016 A 
ENDROOT
TORSDOF 0
ENDMDL
MODEL 7
REMARK VINA RESULT:      -4.3     11.827     12.267
REMARK  0 active torsions:
REMARK  status: ('A' for Active; 'I' for Inactive)
ROOT
HETATM    1  C1  UNL     1     -34.024  15.553  -4.106  1.00 20.00     0.018 C 
HETATM    2  C2  UNL     1     -34.068  16.198  -3.095  1.00 20.00    -0.078 C 
HETATM    3  C3  UNL     1     -34.219  18.466   0.460  1.00 20.00     0.000 A 
HETATM    4  C4  UNL     1     -33.075  18.494  -0.337  1.00 20.00     0.001 A 
HETATM    5  C5  UNL     1     -35.314  17.689   0.082  1.00 20.00     0.001 A 
HETATM    6  C6  UNL     1     -33.025  17.744  -1.512  1.00 20.00     0.020 A 
HETATM    7  C7  UNL     1     -35.264  16.939  -1.093  1.00 20.00     0.020 A 
HETATM    8  C8  UNL     1     -34.119  16.966  -1.890  1.00 20.00     0.016 A 
ENDROOT
TORSDOF 0
ENDMDL
MODEL 8
REMARK VINA RESULT:      -4.2     11.952     12.449
REMARK  0 active torsions:
REMARK  status: ('A' for Active; 'I' for Inactive)
ROOT
HETATM    1  C1  UNL     1     -35.305  15.976  -3.128  1.00 20.00     0.018 C 
HETATM    2  C2  UNL     1     -34.792  16.629  -2.261  1.00 20.00    -0.078 C 
HETATM    3  C3  UNL     1     -32.985  18.922   0.785  1.00 20.00     0.000 A 
HETATM    4  C4  UNL     1     -32.282  18.640  -0.387  1.00 20.00     0.001 A 
HETATM    5  C5  UNL     1     -34.286  18.446   0.949  1.00 20.00     0.001 A 
HETATM    6  C6  UNL     1     -32.879  17.882  -1.393  1.00 20.00     0.020 A 
HETATM    7  C7  UNL     1     -34.883  17.687  -0.058  1.00 20.00     0.020 A 
HETATM    8  C8  UNL     1     -34.180  17.405  -1.229  1.00 20.00     0.016 A 
ENDROOT
TORSDOF 0
ENDMDL
MODEL 9
REMARK VINA RESULT:      -4.0     11.993     12.526
REMARK  0 active torsions:
REMARK  status: ('A' for Active; 'I' for Inactive)
ROOT
HETATM    1  C1  UNL     1     -35.576  16.331  -2.592  1.00 20.00     0.018 C 
HETATM    2  C2  UNL     1     -34.915  16.922  -1.783  1.00 20.00    -0.078 C 
HETATM    3  C3  UNL     1     -32.596  19.001   1.064  1.00 20.00     0.000 A 
HETATM    4  C4  UNL     1     -33.905  18.628   1.368  1.00 20.00     0.001 A 
HETATM    5  C5  UNL     1     -32.053  18.686  -0.182  1.00 20.00     0.001 A 
HETATM    6  C6  UNL     1     -34.672  17.941   0.427  1.00 20.00     0.020 A 
HETATM    7  C7  UNL     1     -32.820  17.999  -1.124  1.00 20.00     0.020 A 
HETATM    8  C8  UNL     1     -34.129  17.626  -0.819  1.00 20.00     0.016 A 
ENDROOT
TORSDOF 0
ENDMDL
