MODEL 1
REMARK VINA RESULT:      -6.7      0.000      0.000
REMARK  0 active torsions:
REMARK  status: ('A' for Active; 'I' for Inactive)
ROOT
HETATM    1  C1  UNL     1     -34.940   5.420   4.644  1.00 20.00     0.001 A 
HETATM    2  C2  UNL     1     -34.542   6.109   5.802  1.00 20.00     0.001 A 
HETATM    3  C3  UNL     1     -34.385   5.732   3.399  1.00 20.00     0.012 A 
HETATM    4  C4  UNL     1     -33.583   7.122   5.737  1.00 20.00     0.008 A 
HETATM    5  C5  UNL     1     -33.436   6.737   3.344  1.00 20.00    -0.030 A 
HETATM    6  C6  UNL     1     -33.040   7.424   4.501  1.00 20.00    -0.044 A 
HETATM    7  C7  UNL     1     -32.702   7.266   2.207  1.00 20.00     0.008 A 
HETATM    8  C8  UNL     1     -31.893   8.237   2.657  1.00 20.00    -0.021 A 
HETATM    9  C9  UNL     1     -32.009   8.450   4.148  1.00 20.00     0.066 A 
ENDROOT
TORSDOF 0
ENDMDL
MODEL 2
REMARK VINA RESULT:      -6.7      0.090      1.981
REMARK  0 active torsions:
REMARK  status: ('A' for Active; 'I' for Inactive)
ROOT
HETATM    1  C1  UNL     1     -34.487   6.188   5.863  1.00 20.00     0.001 A 
HETATM    2  C2  UNL     1     -34.922   5.478   4.732  1.00 20.00     0.001 A 
HETATM    3  C3  UNL     1     -33.512   7.184   5.750  1.00 20.00     0.012 A 
HETATM    4  C4  UNL     1     -34.392   5.748   3.468  1.00 20.00     0.008 A 
HETATM    5  C5  UNL     1     -32.992   7.446   4.496  1.00 20.00    -0.030 A 
HETATM    6  C6  UNL     1     -33.427   6.735   3.368  1.00 20.00    -0.044 A 
HETATM    7  C7  UNL     1     -31.985   8.410   4.087  1.00 20.00     0.008 A 
HETATM    8  C8  UNL     1     -31.814   8.287   2.762  1.00 20.00    -0.021 A 
HETATM    9  C9  UNL     1     -32.699   7.223   2.155  1.00 20.00     0.066 A 
ENDROOT
TORSDOF 0
ENDMDL
MODEL 3
REMARK VINA RESULT:      -6.3      0.593      3.696
REMARK  0 active torsions:
REMARK  status: ('A' for Active; 'I' for Inactive)
ROOT
HETATM    1  C1  UNL     1     -32.114   8.067   2.975  1.00 20.00     0.001 A 
HETATM    2  C2  UNL     1     -32.647   7.143   2.060  1.00 20.00     0.001 A 
HETATM    3  C3  UNL     1     -32.487   8.036   4.322  1.00 20.00     0.012 A 
HETATM    4  C4  UNL     1     -33.563   6.173   2.475  1.00 20.00     0.008 A 
HETATM    5  C5  UNL     1     -33.393   7.073   4.724  1.00 20.00    -0.030 A 
HETATM    6  C6  UNL     1     -33.925   6.152   3.810  1.00 20.00    -0.044 A 
HETATM    7  C7  UNL     1     -33.952   6.809   6.039  1.00 20.00     0.008 A 
HETATM    8  C8  UNL     1     -34.792   5.769   5.926  1.00 20.00    -0.021 A 
HETATM    9  C9  UNL     1     -34.873   5.234   4.516  1.00 20.00     0.066 A 
ENDROOT
TORSDOF 0
ENDMDL
MODEL 4
REMARK VINA RESULT:      -6.3      0.594      3.143
REMARK  0 active torsions:
REMARK  status: ('A' for Active; 'I' for Inactive)
ROOT
HETATM    1  C1  UNL     1     -32.390   7.441   2.168  1.00 20.00     0.001 A 
HETATM    2  C2  UNL     1     -31.930   8.295   3.184  1.00 20.00     0.001 A 
HETATM    3  C3  UNL     1     -33.325   6.439   2.445  1.00 20.00     0.012 A 
HETATM    4  C4  UNL     1     -32.395   8.163   4.495  1.00 20.00     0.008 A 
HETATM    5  C5  UNL     1     -33.781   6.315   3.744  1.00 20.00    -0.030 A 
HETATM    6  C6  UNL     1     -33.320   7.168   4.758  1.00 20.00    -0.044 A 
HETATM    7  C7  UNL     1     -34.737   5.381   4.313  1.00 20.00     0.008 A 
HETATM    8  C8  UNL     1     -34.850   5.655   5.621  1.00 20.00    -0.021 A 
HETATM    9  C9  UNL     1     -33.976   6.808   6.054  1.00 20.00     0.066 A 
ENDROOT
TORSDOF 0
ENDMDL
MODEL 5
REMARK VINA RESULT:      -5.8      0.855      3.166
REMARK  0 active torsions:
REMARK  status: ('A' for Active; 'I' for Inactive)
ROOT
HETATM    1  C1  UNL     1     -32.185   7.886   3.255  1.00 20.00     0.001 A 
HETATM    2  C2  UNL     1     -32.429   8.382   4.546  1.00 20.00     0.001 A 
HETATM    3  C3  UNL     1     -32.720   6.661   2.846  1.00 20.00     0.012 A 
HETATM    4  C4  UNL     1     -33.210   7.663   5.454  1.00 20.00     0.008 A 
HETATM    5  C5  UNL     1     -33.494   5.955   3.750  1.00 20.00    -0.030 A 
HETATM    6  C6  UNL     1     -33.735   6.451   5.039  1.00 20.00    -0.044 A 
HETATM    7  C7  UNL     1     -34.166   4.676   3.604  1.00 20.00     0.008 A 
HETATM    8  C8  UNL     1     -34.791   4.406   4.760  1.00 20.00    -0.021 A 
HETATM    9  C9  UNL     1     -34.595   5.488   5.796  1.00 20.00     0.066 A 
ENDROOT
TORSDOF 0
ENDMDL
MODEL 6
REMARK VINA RESULT:      -5.5      0.960      3.425
REMARK  0 active torsions:
REMARK  status: ('A' for Active; 'I' for Inactive)
ROOT
HETATM    1  C1  UNL     1     -32.639   6.719   2.214  1.00 20.00     0.001 A 
HETATM    2  C2  UNL     1     -33.191   5.428   2.182  1.00 20.00     0.001 A 
HETATM    3  C3  UNL     1     -32.752   7.517   3.357  1.00 20.00     0.012 A 
HETATM    4  C4  UNL     1     -33.866   4.910   3.290  1.00 20.00     0.008 A 
HETATM    5  C5  UNL     1     -33.422   6.997   4.449  1.00 20.00    -0.030 A 
HETATM    6  C6  UNL     1     -33.973   5.708   4.415  1.00 20.00    -0.044 A 
HETATM    7  C7  UNL     1     -33.689   7.590   5.748  1.00 20.00     0.008 A 
HETATM    8  C8  UNL     1     -34.377   6.695   6.474  1.00 20.00    -0.021 A 
HETATM    9  C9  UNL     1     -34.635   5.410   5.724  1.00 20.00     0.066 A 
ENDROOT
TORSDOF 0
ENDMDL
MODEL 7
REMARK VINA RESULT:      -5.4      0.940      1.417
REMARK  0 active torsions:
REMARK  status: ('A' for Active; 'I' for Inactive)
ROOT
HETATM    1  C1  UNL     1     -34.098   4.306   3.408  1.00 20.00     0.001 A 
HETATM    2  C2  UNL     1     -34.651   4.591   4.668  1.00 20.00     0.001 A 
HETATM    3  C3  UNL     1     -33.237   5.214   2.783  1.00 20.00     0.012 A 
HETATM    4  C4  UNL     1     -34.354   5.787   5.326  1.00 20.00     0.008 A 
HETATM    5  C5  UNL     1     -32.948   6.395   3.441  1.00 20.00    -0.030 A 
HETATM    6  C6  UNL     1     -33.501   6.678   4.698  1.00 20.00    -0.044 A 
HETATM    7  C7  UNL     1     -32.101   7.504   3.039  1.00 20.00     0.008 A 
HETATM    8  C8  UNL     1     -32.139   8.425   4.014  1.00 20.00    -0.021 A 
HETATM    9  C9  UNL     1     -33.021   8.015   5.170  1.00 20.00     0.066 A 
ENDROOT
TORSDOF 0
ENDMDL
MODEL 8
REMARK VINA RESULT:      -5.3      1.044      2.385
REMARK  0 active torsions:
REMARK  status: ('A' for Active; 'I' for Inactive)
ROOT
HETATM    1  C1  UNL     1     -34.643   4.262   4.648  1.00 20.00     0.001 A 
HETATM    2  C2  UNL     1     -34.035   4.266   3.381  1.00 20.00     0.001 A 
HETATM    3  C3  UNL     1     -34.511   5.357   5.508  1.00 20.00     0.012 A 
HETATM    4  C4  UNL     1     -33.284   5.363   2.951  1.00 20.00     0.008 A 
HETATM    5  C5  UNL     1     -33.767   6.439   5.074  1.00 20.00    -0.030 A 
HETATM    6  C6  UNL     1     -33.159   6.440   3.811  1.00 20.00    -0.044 A 
HETATM    7  C7  UNL     1     -33.465   7.692   5.744  1.00 20.00     0.008 A 
HETATM    8  C8  UNL     1     -32.703   8.425   4.919  1.00 20.00    -0.021 A 
HETATM    9  C9  UNL     1     -32.422   7.727   3.609  1.00 20.00     0.066 A 
ENDROOT
TORSDOF 0
ENDMDL
MODEL 9
REMARK VINA RESULT:      -5.1      1.250      2.708
REMARK  0 active torsions:
REMARK  status: ('A' for Active; 'I' for Inactive)
ROOT
HETATM    1  C1  UNL     1     -33.773   7.638   5.734  1.00 20.00     0.001 A 
HETATM    2  C2  UNL     1     -34.432   6.568   6.362  1.00 20.00     0.001 A 
HETATM    3  C3  UNL     1     -33.229   7.491   4.454  1.00 20.00     0.012 A 
HETATM    4  C4  UNL     1     -34.560   5.333   5.724  1.00 20.00     0.008 A 
HETATM    5  C5  UNL     1     -33.360   6.265   3.829  1.00 20.00    -0.030 A 
HETATM    6  C6  UNL     1     -34.018   5.198   4.457  1.00 20.00    -0.044 A 
HETATM    7  C7  UNL     1     -32.902   5.831   2.520  1.00 20.00     0.008 A 
HETATM    8  C8  UNL     1     -33.266   4.550   2.362  1.00 20.00    -0.021 A 
HETATM    9  C9  UNL     1     -34.010   4.002   3.557  1.00 20.00     0.066 A 
ENDROOT
TORSDOF 0
ENDMDL
