MODEL 1
REMARK VINA RESULT:      -7.0      0.000      0.000
REMARK  2 active torsions:
REMARK  status: ('A' for Active; 'I' for Inactive)
REMARK    1  A    between atoms: C6_6  and  C9_9 
REMARK    2  A    between atoms: C9_9  and  C10_10 
ROOT
HETATM    1  C1  UNL     1     -34.635   5.754   4.970  1.00 20.00     0.000 A 
HETATM    2  C2  UNL     1     -34.002   6.798   5.645  1.00 20.00     0.001 A 
HETATM    3  C3  UNL     1     -34.375   5.541   3.616  1.00 20.00     0.001 A 
HETATM    4  C4  UNL     1     -33.111   7.628   4.967  1.00 20.00     0.007 A 
HETATM    5  C5  UNL     1     -33.484   6.371   2.938  1.00 20.00     0.007 A 
HETATM    6  C6  UNL     1     -32.852   7.415   3.613  1.00 20.00    -0.058 A 
ENDROOT
BRANCH   6   7
HETATM    7  C9  UNL     1     -31.887   8.313   2.878  1.00 20.00     0.042 C 
BRANCH   7   8
HETATM    8  C10 UNL     1     -32.394   8.778   1.498  1.00 20.00    -0.019 C 
HETATM    9  C7  UNL     1     -32.807  10.253   1.507  1.00 20.00     0.010 C 
HETATM   10  C8  UNL     1     -31.309   8.553   0.443  1.00 20.00     0.010 C 
ENDBRANCH   7   8
ENDBRANCH   6   7
TORSDOF 2
ENDMDL
MODEL 2
REMARK VINA RESULT:      -6.6      0.982      1.582
REMARK  2 active torsions:
REMARK  status: ('A' for Active; 'I' for Inactive)
REMARK    1  A    between atoms: C6_6  and  C9_9 
REMARK    2  A    between atoms: C9_9  and  C10_10 
ROOT
HETATM    1  C1  UNL     1     -34.622   5.000   5.709  1.00 20.00     0.000 A 
HETATM    2  C2  UNL     1     -34.341   6.366   5.741  1.00 20.00     0.001 A 
HETATM    3  C3  UNL     1     -34.395   4.269   4.543  1.00 20.00     0.001 A 
HETATM    4  C4  UNL     1     -33.834   7.001   4.608  1.00 20.00     0.007 A 
HETATM    5  C5  UNL     1     -33.888   4.904   3.410  1.00 20.00     0.007 A 
HETATM    6  C6  UNL     1     -33.608   6.269   3.442  1.00 20.00    -0.058 A 
ENDROOT
BRANCH   6   7
HETATM    7  C9  UNL     1     -33.059   6.955   2.215  1.00 20.00     0.042 C 
BRANCH   7   8
HETATM    8  C10 UNL     1     -32.560   8.391   2.473  1.00 20.00    -0.019 C 
HETATM    9  C7  UNL     1     -31.246   8.409   3.259  1.00 20.00     0.010 C 
HETATM   10  C8  UNL     1     -32.374   9.123   1.142  1.00 20.00     0.010 C 
ENDBRANCH   7   8
ENDBRANCH   6   7
TORSDOF 2
ENDMDL
MODEL 3
REMARK VINA RESULT:      -6.6      0.982      2.129
REMARK  2 active torsions:
REMARK  status: ('A' for Active; 'I' for Inactive)
REMARK    1  A    between atoms: C6_6  and  C9_9 
REMARK    2  A    between atoms: C9_9  and  C10_10 
ROOT
HETATM    1  C1  UNL     1     -34.618   4.997   5.703  1.00 20.00     0.000 A 
HETATM    2  C2  UNL     1     -34.385   4.265   4.539  1.00 20.00     0.001 A 
HETATM    3  C3  UNL     1     -34.340   6.364   5.734  1.00 20.00     0.001 A 
HETATM    4  C4  UNL     1     -33.872   4.899   3.407  1.00 20.00     0.007 A 
HETATM    5  C5  UNL     1     -33.828   6.997   4.603  1.00 20.00     0.007 A 
HETATM    6  C6  UNL     1     -33.594   6.265   3.439  1.00 20.00    -0.058 A 
ENDROOT
BRANCH   6   7
HETATM    7  C9  UNL     1     -33.040   6.952   2.215  1.00 20.00     0.042 C 
BRANCH   7   8
HETATM    8  C10 UNL     1     -32.549   8.390   2.474  1.00 20.00    -0.019 C 
HETATM    9  C7  UNL     1     -31.239   8.415   3.267  1.00 20.00     0.010 C 
HETATM   10  C8  UNL     1     -32.360   9.122   1.144  1.00 20.00     0.010 C 
ENDBRANCH   7   8
ENDBRANCH   6   7
TORSDOF 2
ENDMDL
MODEL 4
REMARK VINA RESULT:      -5.5      1.040      2.201
REMARK  2 active torsions:
REMARK  status: ('A' for Active; 'I' for Inactive)
REMARK    1  A    between atoms: C6_6  and  C9_9 
REMARK    2  A    between atoms: C9_9  and  C10_10 
ROOT
HETATM    1  C1  UNL     1     -33.920   6.719   4.558  1.00 20.00     0.000 A 
HETATM    2  C2  UNL     1     -34.111   6.316   3.236  1.00 20.00     0.001 A 
HETATM    3  C3  UNL     1     -32.954   7.678   4.862  1.00 20.00     0.001 A 
HETATM    4  C4  UNL     1     -33.335   6.871   2.219  1.00 20.00     0.007 A 
HETATM    5  C5  UNL     1     -32.177   8.232   3.845  1.00 20.00     0.007 A 
HETATM    6  C6  UNL     1     -32.368   7.829   2.523  1.00 20.00    -0.058 A 
ENDROOT
BRANCH   6   7
HETATM    7  C9  UNL     1     -31.528   8.429   1.423  1.00 20.00     0.042 C 
BRANCH   7   8
HETATM    8  C10 UNL     1     -32.207   9.603   0.688  1.00 20.00    -0.019 C 
HETATM    9  C7  UNL     1     -33.092   9.121  -0.465  1.00 20.00     0.010 C 
HETATM   10  C8  UNL     1     -33.044  10.419   1.676  1.00 20.00     0.010 C 
ENDBRANCH   7   8
ENDBRANCH   6   7
TORSDOF 2
ENDMDL
MODEL 5
REMARK VINA RESULT:      -5.3      1.439      4.381
REMARK  2 active torsions:
REMARK  status: ('A' for Active; 'I' for Inactive)
REMARK    1  A    between atoms: C6_6  and  C9_9 
REMARK    2  A    between atoms: C9_9  and  C10_10 
ROOT
HETATM    1  C1  UNL     1     -31.560   8.345   3.360  1.00 20.00     0.000 A 
HETATM    2  C2  UNL     1     -32.182   8.258   4.606  1.00 20.00     0.001 A 
HETATM    3  C3  UNL     1     -32.100   7.674   2.263  1.00 20.00     0.001 A 
HETATM    4  C4  UNL     1     -33.344   7.500   4.754  1.00 20.00     0.007 A 
HETATM    5  C5  UNL     1     -33.261   6.917   2.411  1.00 20.00     0.007 A 
HETATM    6  C6  UNL     1     -33.883   6.830   3.656  1.00 20.00    -0.058 A 
ENDROOT
BRANCH   6   7
HETATM    7  C9  UNL     1     -35.140   6.010   3.815  1.00 20.00     0.042 C 
BRANCH   7   8
HETATM    8  C10 UNL     1     -34.935   4.698   4.599  1.00 20.00    -0.019 C 
HETATM    9  C7  UNL     1     -33.808   3.846   4.005  1.00 20.00     0.010 C 
HETATM   10  C8  UNL     1     -34.626   5.011   6.065  1.00 20.00     0.010 C 
ENDBRANCH   7   8
ENDBRANCH   6   7
TORSDOF 2
ENDMDL
MODEL 6
REMARK VINA RESULT:      -5.3      1.432      4.622
REMARK  2 active torsions:
REMARK  status: ('A' for Active; 'I' for Inactive)
REMARK    1  A    between atoms: C6_6  and  C9_9 
REMARK    2  A    between atoms: C9_9  and  C10_10 
ROOT
HETATM    1  C1  UNL     1     -31.561   8.346   3.339  1.00 20.00     0.000 A 
HETATM    2  C2  UNL     1     -32.114   7.685   2.241  1.00 20.00     0.001 A 
HETATM    3  C3  UNL     1     -32.170   8.249   4.590  1.00 20.00     0.001 A 
HETATM    4  C4  UNL     1     -33.276   6.929   2.395  1.00 20.00     0.007 A 
HETATM    5  C5  UNL     1     -33.332   7.493   4.744  1.00 20.00     0.007 A 
HETATM    6  C6  UNL     1     -33.884   6.832   3.646  1.00 20.00    -0.058 A 
ENDROOT
BRANCH   6   7
HETATM    7  C9  UNL     1     -35.141   6.014   3.814  1.00 20.00     0.042 C 
BRANCH   7   8
HETATM    8  C10 UNL     1     -34.932   4.700   4.593  1.00 20.00    -0.019 C 
HETATM    9  C7  UNL     1     -33.800   3.856   3.999  1.00 20.00     0.010 C 
HETATM   10  C8  UNL     1     -34.629   5.009   6.061  1.00 20.00     0.010 C 
ENDBRANCH   7   8
ENDBRANCH   6   7
TORSDOF 2
ENDMDL
MODEL 7
REMARK VINA RESULT:      -5.1      0.921      4.684
REMARK  2 active torsions:
REMARK  status: ('A' for Active; 'I' for Inactive)
REMARK    1  A    between atoms: C6_6  and  C9_9 
REMARK    2  A    between atoms: C9_9  and  C10_10 
ROOT
HETATM    1  C1  UNL     1     -32.371  10.237   0.452  1.00 20.00     0.000 A 
HETATM    2  C2  UNL     1     -31.538   9.121   0.362  1.00 20.00     0.001 A 
HETATM    3  C3  UNL     1     -33.303  10.329   1.485  1.00 20.00     0.001 A 
HETATM    4  C4  UNL     1     -31.638   8.098   1.303  1.00 20.00     0.007 A 
HETATM    5  C5  UNL     1     -33.403   9.305   2.427  1.00 20.00     0.007 A 
HETATM    6  C6  UNL     1     -32.570   8.190   2.337  1.00 20.00    -0.058 A 
ENDROOT
BRANCH   6   7
HETATM    7  C9  UNL     1     -32.679   7.083   3.357  1.00 20.00     0.042 C 
BRANCH   7   8
HETATM    8  C10 UNL     1     -33.991   7.108   4.167  1.00 20.00    -0.019 C 
HETATM    9  C7  UNL     1     -34.821   5.839   3.951  1.00 20.00     0.010 C 
HETATM   10  C8  UNL     1     -33.679   7.273   5.656  1.00 20.00     0.010 C 
ENDBRANCH   7   8
ENDBRANCH   6   7
TORSDOF 2
ENDMDL
MODEL 8
REMARK VINA RESULT:      -5.1      0.914      4.549
REMARK  2 active torsions:
REMARK  status: ('A' for Active; 'I' for Inactive)
REMARK    1  A    between atoms: C6_6  and  C9_9 
REMARK    2  A    between atoms: C9_9  and  C10_10 
ROOT
HETATM    1  C1  UNL     1     -32.370  10.236   0.435  1.00 20.00     0.000 A 
HETATM    2  C2  UNL     1     -33.291  10.344   1.477  1.00 20.00     0.001 A 
HETATM    3  C3  UNL     1     -31.546   9.115   0.346  1.00 20.00     0.001 A 
HETATM    4  C4  UNL     1     -33.385   9.331   2.432  1.00 20.00     0.007 A 
HETATM    5  C5  UNL     1     -31.640   8.102   1.300  1.00 20.00     0.007 A 
HETATM    6  C6  UNL     1     -32.560   8.210   2.343  1.00 20.00    -0.058 A 
ENDROOT
BRANCH   6   7
HETATM    7  C9  UNL     1     -32.662   7.114   3.375  1.00 20.00     0.042 C 
BRANCH   7   8
HETATM    8  C10 UNL     1     -33.981   7.128   4.173  1.00 20.00    -0.019 C 
HETATM    9  C7  UNL     1     -34.806   5.859   3.938  1.00 20.00     0.010 C 
HETATM   10  C8  UNL     1     -33.684   7.281   5.666  1.00 20.00     0.010 C 
ENDBRANCH   7   8
ENDBRANCH   6   7
TORSDOF 2
ENDMDL
MODEL 9
REMARK VINA RESULT:      -4.7     10.398     11.217
REMARK  2 active torsions:
REMARK  status: ('A' for Active; 'I' for Inactive)
REMARK    1  A    between atoms: C6_6  and  C9_9 
REMARK    2  A    between atoms: C9_9  and  C10_10 
ROOT
HETATM    1  C1  UNL     1     -34.030  18.407   0.258  1.00 20.00     0.000 A 
HETATM    2  C2  UNL     1     -33.025  18.298  -0.704  1.00 20.00     0.001 A 
HETATM    3  C3  UNL     1     -35.235  17.727   0.086  1.00 20.00     0.001 A 
HETATM    4  C4  UNL     1     -33.227  17.512  -1.838  1.00 20.00     0.007 A 
HETATM    5  C5  UNL     1     -35.438  16.941  -1.048  1.00 20.00     0.007 A 
HETATM    6  C6  UNL     1     -34.434  16.833  -2.010  1.00 20.00    -0.058 A 
ENDROOT
BRANCH   6   7
HETATM    7  C9  UNL     1     -34.653  15.982  -3.236  1.00 20.00     0.042 C 
BRANCH   7   8
HETATM    8  C10 UNL     1     -33.405  15.842  -4.131  1.00 20.00    -0.019 C 
HETATM    9  C7  UNL     1     -33.025  14.377  -4.360  1.00 20.00     0.010 C 
HETATM   10  C8  UNL     1     -33.652  16.527  -5.477  1.00 20.00     0.010 C 
ENDBRANCH   7   8
ENDBRANCH   6   7
TORSDOF 2
ENDMDL
