MODEL 1
REMARK VINA RESULT:      -6.7      0.000      0.000
REMARK  2 active torsions:
REMARK  status: ('A' for Active; 'I' for Inactive)
REMARK    1  A    between atoms: C6_6  and  C8_8 
REMARK    2  A    between atoms: C8_8  and  C9_9 
ROOT
HETATM    1  C1  UNL     1     -34.665   5.734   4.957  1.00 20.00     0.000 A 
HETATM    2  C2  UNL     1     -34.354   5.526   3.612  1.00 20.00     0.001 A 
HETATM    3  C3  UNL     1     -34.047   6.766   5.664  1.00 20.00     0.001 A 
HETATM    4  C4  UNL     1     -33.426   6.350   2.977  1.00 20.00     0.007 A 
HETATM    5  C5  UNL     1     -33.119   7.589   5.027  1.00 20.00     0.007 A 
HETATM    6  C6  UNL     1     -32.808   7.381   3.684  1.00 20.00    -0.058 A 
ENDROOT
BRANCH   6   7
HETATM    7  C8  UNL     1     -31.814   8.262   3.004  1.00 20.00     0.038 C 
BRANCH   7   8
HETATM    8  C9  UNL     1     -32.178   8.515   1.533  1.00 20.00     0.000 C 
HETATM    9  C7  UNL     1     -32.551   9.967   1.281  1.00 20.00     0.005 C 
ENDBRANCH   7   8
ENDBRANCH   6   7
TORSDOF 2
ENDMDL
MODEL 2
REMARK VINA RESULT:      -6.7      0.018      1.611
REMARK  2 active torsions:
REMARK  status: ('A' for Active; 'I' for Inactive)
REMARK    1  A    between atoms: C6_6  and  C8_8 
REMARK    2  A    between atoms: C8_8  and  C9_9 
ROOT
HETATM    1  C1  UNL     1     -34.649   5.736   4.955  1.00 20.00     0.000 A 
HETATM    2  C2  UNL     1     -34.045   6.781   5.656  1.00 20.00     0.001 A 
HETATM    3  C3  UNL     1     -34.328   5.517   3.615  1.00 20.00     0.001 A 
HETATM    4  C4  UNL     1     -33.119   7.605   5.017  1.00 20.00     0.007 A 
HETATM    5  C5  UNL     1     -33.402   6.342   2.977  1.00 20.00     0.007 A 
HETATM    6  C6  UNL     1     -32.798   7.386   3.677  1.00 20.00    -0.058 A 
ENDROOT
BRANCH   6   7
HETATM    7  C8  UNL     1     -31.807   8.268   2.993  1.00 20.00     0.038 C 
BRANCH   7   8
HETATM    8  C9  UNL     1     -32.181   8.526   1.526  1.00 20.00     0.000 C 
HETATM    9  C7  UNL     1     -32.549   9.980   1.280  1.00 20.00     0.005 C 
ENDBRANCH   7   8
ENDBRANCH   6   7
TORSDOF 2
ENDMDL
MODEL 3
REMARK VINA RESULT:      -5.3      1.231      3.936
REMARK  2 active torsions:
REMARK  status: ('A' for Active; 'I' for Inactive)
REMARK    1  A    between atoms: C6_6  and  C8_8 
REMARK    2  A    between atoms: C8_8  and  C9_9 
ROOT
HETATM    1  C1  UNL     1     -31.645   8.357   3.353  1.00 20.00     0.000 A 
HETATM    2  C2  UNL     1     -32.258   7.655   2.314  1.00 20.00     0.001 A 
HETATM    3  C3  UNL     1     -32.156   8.271   4.649  1.00 20.00     0.001 A 
HETATM    4  C4  UNL     1     -33.381   6.869   2.571  1.00 20.00     0.007 A 
HETATM    5  C5  UNL     1     -33.278   7.484   4.905  1.00 20.00     0.007 A 
HETATM    6  C6  UNL     1     -33.891   6.783   3.867  1.00 20.00    -0.058 A 
ENDROOT
BRANCH   6   7
HETATM    7  C8  UNL     1     -35.092   5.942   4.143  1.00 20.00     0.038 C 
BRANCH   7   8
HETATM    8  C9  UNL     1     -34.768   4.756   5.064  1.00 20.00     0.000 C 
HETATM    9  C7  UNL     1     -33.921   3.706   4.363  1.00 20.00     0.005 C 
ENDBRANCH   7   8
ENDBRANCH   6   7
TORSDOF 2
ENDMDL
MODEL 4
REMARK VINA RESULT:      -5.3      1.229      4.239
REMARK  2 active torsions:
REMARK  status: ('A' for Active; 'I' for Inactive)
REMARK    1  A    between atoms: C6_6  and  C8_8 
REMARK    2  A    between atoms: C8_8  and  C9_9 
ROOT
HETATM    1  C1  UNL     1     -31.671   8.349   3.313  1.00 20.00     0.000 A 
HETATM    2  C2  UNL     1     -32.175   8.251   4.611  1.00 20.00     0.001 A 
HETATM    3  C3  UNL     1     -32.290   7.657   2.271  1.00 20.00     0.001 A 
HETATM    4  C4  UNL     1     -33.296   7.463   4.865  1.00 20.00     0.007 A 
HETATM    5  C5  UNL     1     -33.411   6.869   2.527  1.00 20.00     0.007 A 
HETATM    6  C6  UNL     1     -33.915   6.771   3.823  1.00 20.00    -0.058 A 
ENDROOT
BRANCH   6   7
HETATM    7  C8  UNL     1     -35.115   5.927   4.096  1.00 20.00     0.038 C 
BRANCH   7   8
HETATM    8  C9  UNL     1     -34.797   4.760   5.041  1.00 20.00     0.000 C 
HETATM    9  C7  UNL     1     -33.915   3.714   4.378  1.00 20.00     0.005 C 
ENDBRANCH   7   8
ENDBRANCH   6   7
TORSDOF 2
ENDMDL
MODEL 5
REMARK VINA RESULT:      -4.5     10.569     11.340
REMARK  2 active torsions:
REMARK  status: ('A' for Active; 'I' for Inactive)
REMARK    1  A    between atoms: C6_6  and  C8_8 
REMARK    2  A    between atoms: C8_8  and  C9_9 
ROOT
HETATM    1  C1  UNL     1     -34.414  18.270   0.404  1.00 20.00     0.000 A 
HETATM    2  C2  UNL     1     -35.410  17.470  -0.157  1.00 20.00     0.001 A 
HETATM    3  C3  UNL     1     -33.196  18.433  -0.257  1.00 20.00     0.001 A 
HETATM    4  C4  UNL     1     -35.189  16.835  -1.379  1.00 20.00     0.007 A 
HETATM    5  C5  UNL     1     -32.975  17.797  -1.479  1.00 20.00     0.007 A 
HETATM    6  C6  UNL     1     -33.971  16.998  -2.039  1.00 20.00    -0.058 A 
ENDROOT
BRANCH   6   7
HETATM    7  C8  UNL     1     -33.733  16.318  -3.346  1.00 20.00     0.038 C 
BRANCH   7   8
HETATM    8  C9  UNL     1     -34.942  15.479  -3.788  1.00 20.00     0.000 C 
HETATM    9  C7  UNL     1     -34.536  14.079  -4.218  1.00 20.00     0.005 C 
ENDBRANCH   7   8
ENDBRANCH   6   7
TORSDOF 2
ENDMDL
MODEL 6
REMARK VINA RESULT:      -4.5     10.563     11.366
REMARK  2 active torsions:
REMARK  status: ('A' for Active; 'I' for Inactive)
REMARK    1  A    between atoms: C6_6  and  C8_8 
REMARK    2  A    between atoms: C8_8  and  C9_9 
ROOT
HETATM    1  C1  UNL     1     -34.492  18.260   0.477  1.00 20.00     0.000 A 
HETATM    2  C2  UNL     1     -33.262  18.445  -0.155  1.00 20.00     0.001 A 
HETATM    3  C3  UNL     1     -35.469  17.460  -0.118  1.00 20.00     0.001 A 
HETATM    4  C4  UNL     1     -33.008  17.830  -1.380  1.00 20.00     0.007 A 
HETATM    5  C5  UNL     1     -35.214  16.846  -1.343  1.00 20.00     0.007 A 
HETATM    6  C6  UNL     1     -33.985  17.030  -1.975  1.00 20.00    -0.058 A 
ENDROOT
BRANCH   6   7
HETATM    7  C8  UNL     1     -33.714  16.372  -3.286  1.00 20.00     0.038 C 
BRANCH   7   8
HETATM    8  C9  UNL     1     -34.920  15.566  -3.788  1.00 20.00     0.000 C 
HETATM    9  C7  UNL     1     -34.539  14.141  -4.156  1.00 20.00     0.005 C 
ENDBRANCH   7   8
ENDBRANCH   6   7
TORSDOF 2
ENDMDL
MODEL 7
REMARK VINA RESULT:      -4.2      1.144      4.539
REMARK  2 active torsions:
REMARK  status: ('A' for Active; 'I' for Inactive)
REMARK    1  A    between atoms: C6_6  and  C8_8 
REMARK    2  A    between atoms: C8_8  and  C9_9 
ROOT
HETATM    1  C1  UNL     1     -32.296  10.191   0.354  1.00 20.00     0.000 A 
HETATM    2  C2  UNL     1     -33.275  10.267   1.345  1.00 20.00     0.001 A 
HETATM    3  C3  UNL     1     -31.405   9.118   0.334  1.00 20.00     0.001 A 
HETATM    4  C4  UNL     1     -33.363   9.269   2.315  1.00 20.00     0.007 A 
HETATM    5  C5  UNL     1     -31.494   8.121   1.305  1.00 20.00     0.007 A 
HETATM    6  C6  UNL     1     -32.471   8.196   2.295  1.00 20.00    -0.058 A 
ENDROOT
BRANCH   6   7
HETATM    7  C8  UNL     1     -32.565   7.129   3.334  1.00 20.00     0.038 C 
BRANCH   7   8
HETATM    8  C9  UNL     1     -33.889   7.191   4.109  1.00 20.00     0.000 C 
HETATM    9  C7  UNL     1     -33.667   7.260   5.611  1.00 20.00     0.005 C 
ENDBRANCH   7   8
ENDBRANCH   6   7
TORSDOF 2
ENDMDL
MODEL 8
REMARK VINA RESULT:      -4.1     11.082     11.676
REMARK  2 active torsions:
REMARK  status: ('A' for Active; 'I' for Inactive)
REMARK    1  A    between atoms: C6_6  and  C8_8 
REMARK    2  A    between atoms: C8_8  and  C9_9 
ROOT
HETATM    1  C1  UNL     1     -34.618  18.147   0.039  1.00 20.00     0.000 A 
HETATM    2  C2  UNL     1     -35.590  17.329  -0.538  1.00 20.00     0.001 A 
HETATM    3  C3  UNL     1     -33.366  18.276  -0.565  1.00 20.00     0.001 A 
HETATM    4  C4  UNL     1     -35.311  16.642  -1.719  1.00 20.00     0.007 A 
HETATM    5  C5  UNL     1     -33.089  17.588  -1.746  1.00 20.00     0.007 A 
HETATM    6  C6  UNL     1     -34.060  16.771  -2.323  1.00 20.00    -0.058 A 
ENDROOT
BRANCH   6   7
HETATM    7  C8  UNL     1     -33.762  16.035  -3.586  1.00 20.00     0.038 C 
BRANCH   7   8
HETATM    8  C9  UNL     1     -33.493  16.988  -4.760  1.00 20.00     0.000 C 
HETATM    9  C7  UNL     1     -33.477  16.258  -6.094  1.00 20.00     0.005 C 
ENDBRANCH   7   8
ENDBRANCH   6   7
TORSDOF 2
ENDMDL
MODEL 9
REMARK VINA RESULT:      -4.1     11.193     11.802
REMARK  2 active torsions:
REMARK  status: ('A' for Active; 'I' for Inactive)
REMARK    1  A    between atoms: C6_6  and  C8_8 
REMARK    2  A    between atoms: C8_8  and  C9_9 
ROOT
HETATM    1  C1  UNL     1     -34.457  17.087  -1.768  1.00 20.00     0.000 A 
HETATM    2  C2  UNL     1     -35.096  17.375  -0.561  1.00 20.00     0.001 A 
HETATM    3  C3  UNL     1     -33.144  17.509  -1.981  1.00 20.00     0.001 A 
HETATM    4  C4  UNL     1     -34.421  18.083   0.432  1.00 20.00     0.007 A 
HETATM    5  C5  UNL     1     -32.470  18.217  -0.986  1.00 20.00     0.007 A 
HETATM    6  C6  UNL     1     -33.108  18.505   0.220  1.00 20.00    -0.058 A 
ENDROOT
BRANCH   6   7
HETATM    7  C8  UNL     1     -32.386  19.263   1.283  1.00 20.00     0.038 C 
BRANCH   7   8
HETATM    8  C9  UNL     1     -31.094  18.557   1.720  1.00 20.00     0.000 C 
HETATM    9  C7  UNL     1     -30.603  19.053   3.070  1.00 20.00     0.005 C 
ENDBRANCH   7   8
ENDBRANCH   6   7
TORSDOF 2
ENDMDL
