MODEL 1
REMARK VINA RESULT:      -6.1      0.000      0.000
REMARK  1 active torsions:
REMARK  status: ('A' for Active; 'I' for Inactive)
REMARK    1  A    between atoms: C6_6  and  N8_8 
ROOT
HETATM    1  N7  UNL     1     -32.625   9.221   1.086  1.00 20.00     0.068 N 
HETATM    2  N8  UNL     1     -31.803   8.134   3.052  1.00 20.00    -0.073 NA
HETATM    3  N9  UNL     1     -32.236   8.701   2.024  1.00 20.00    -0.162 NA
ENDROOT
BRANCH   2   4
HETATM    4  C6  UNL     1     -32.764   7.333   3.676  1.00 20.00     0.093 A 
HETATM    5  C4  UNL     1     -33.367   6.290   2.974  1.00 20.00     0.034 A 
HETATM    6  C2  UNL     1     -34.326   5.492   3.597  1.00 20.00     0.002 A 
HETATM    7  C1  UNL     1     -34.683   5.737   4.924  1.00 20.00     0.000 A 
HETATM    8  C3  UNL     1     -34.080   6.781   5.626  1.00 20.00     0.002 A 
HETATM    9  C5  UNL     1     -33.121   7.579   5.003  1.00 20.00     0.034 A 
ENDBRANCH   2   4
TORSDOF 1
ENDMDL
MODEL 2
REMARK VINA RESULT:      -6.0      0.035      1.611
REMARK  1 active torsions:
REMARK  status: ('A' for Active; 'I' for Inactive)
REMARK    1  A    between atoms: C6_6  and  N8_8 
ROOT
HETATM    1  N7  UNL     1     -32.621   9.287   1.144  1.00 20.00     0.068 N 
HETATM    2  N8  UNL     1     -31.788   8.128   3.064  1.00 20.00    -0.073 NA
HETATM    3  N9  UNL     1     -32.227   8.732   2.061  1.00 20.00    -0.162 NA
ENDROOT
BRANCH   2   4
HETATM    4  C6  UNL     1     -32.756   7.333   3.684  1.00 20.00     0.093 A 
HETATM    5  C4  UNL     1     -33.115   7.576   5.010  1.00 20.00     0.034 A 
HETATM    6  C2  UNL     1     -34.080   6.783   5.628  1.00 20.00     0.002 A 
HETATM    7  C1  UNL     1     -34.687   5.744   4.921  1.00 20.00     0.000 A 
HETATM    8  C3  UNL     1     -34.328   5.499   3.596  1.00 20.00     0.002 A 
HETATM    9  C5  UNL     1     -33.363   6.294   2.977  1.00 20.00     0.034 A 
ENDBRANCH   2   4
TORSDOF 1
ENDMDL
MODEL 3
REMARK VINA RESULT:      -4.5      2.830      4.076
REMARK  1 active torsions:
REMARK  status: ('A' for Active; 'I' for Inactive)
REMARK    1  A    between atoms: C6_6  and  N8_8 
ROOT
HETATM    1  N7  UNL     1     -34.739   4.596   5.667  1.00 20.00     0.068 N 
HETATM    2  N8  UNL     1     -34.041   6.883   5.680  1.00 20.00    -0.073 NA
HETATM    3  N9  UNL     1     -34.405   5.687   5.670  1.00 20.00    -0.162 NA
ENDROOT
BRANCH   2   4
HETATM    4  C6  UNL     1     -33.350   7.250   4.521  1.00 20.00     0.093 A 
HETATM    5  C4  UNL     1     -32.269   8.128   4.601  1.00 20.00     0.034 A 
HETATM    6  C2  UNL     1     -31.579   8.493   3.446  1.00 20.00     0.002 A 
HETATM    7  C1  UNL     1     -31.971   7.980   2.208  1.00 20.00     0.000 A 
HETATM    8  C3  UNL     1     -33.052   7.103   2.127  1.00 20.00     0.002 A 
HETATM    9  C5  UNL     1     -33.741   6.737   3.284  1.00 20.00     0.034 A 
ENDBRANCH   2   4
TORSDOF 1
ENDMDL
MODEL 4
REMARK VINA RESULT:      -4.4     10.860     11.584
REMARK  1 active torsions:
REMARK  status: ('A' for Active; 'I' for Inactive)
REMARK    1  A    between atoms: C6_6  and  N8_8 
ROOT
HETATM    1  N7  UNL     1     -35.083  12.812  -7.473  1.00 20.00     0.068 N 
HETATM    2  N8  UNL     1     -35.828  12.854  -5.200  1.00 20.00    -0.073 NA
HETATM    3  N9  UNL     1     -35.437  12.836  -6.388  1.00 20.00    -0.162 NA
ENDROOT
BRANCH   2   4
HETATM    4  C6  UNL     1     -35.585  14.077  -4.568  1.00 20.00     0.093 A 
HETATM    5  C4  UNL     1     -36.627  14.984  -4.379  1.00 20.00     0.034 A 
HETATM    6  C2  UNL     1     -36.385  16.204  -3.747  1.00 20.00     0.002 A 
HETATM    7  C1  UNL     1     -35.099  16.517  -3.305  1.00 20.00     0.000 A 
HETATM    8  C3  UNL     1     -34.056  15.610  -3.494  1.00 20.00     0.002 A 
HETATM    9  C5  UNL     1     -34.299  14.390  -4.125  1.00 20.00     0.034 A 
ENDBRANCH   2   4
TORSDOF 1
ENDMDL
MODEL 5
REMARK VINA RESULT:      -4.4     10.872     11.599
REMARK  1 active torsions:
REMARK  status: ('A' for Active; 'I' for Inactive)
REMARK    1  A    between atoms: C6_6  and  N8_8 
ROOT
HETATM    1  N7  UNL     1     -35.092  12.825  -7.472  1.00 20.00     0.068 N 
HETATM    2  N8  UNL     1     -35.845  12.863  -5.201  1.00 20.00    -0.073 NA
HETATM    3  N9  UNL     1     -35.451  12.847  -6.388  1.00 20.00    -0.162 NA
ENDROOT
BRANCH   2   4
HETATM    4  C6  UNL     1     -35.607  14.086  -4.567  1.00 20.00     0.093 A 
HETATM    5  C4  UNL     1     -34.323  14.405  -4.126  1.00 20.00     0.034 A 
HETATM    6  C2  UNL     1     -34.086  15.625  -3.493  1.00 20.00     0.002 A 
HETATM    7  C1  UNL     1     -35.134  16.527  -3.301  1.00 20.00     0.000 A 
HETATM    8  C3  UNL     1     -36.418  16.208  -3.741  1.00 20.00     0.002 A 
HETATM    9  C5  UNL     1     -36.655  14.987  -4.375  1.00 20.00     0.034 A 
ENDBRANCH   2   4
TORSDOF 1
ENDMDL
MODEL 6
REMARK VINA RESULT:      -4.4     11.033     12.068
REMARK  1 active torsions:
REMARK  status: ('A' for Active; 'I' for Inactive)
REMARK    1  A    between atoms: C6_6  and  N8_8 
ROOT
HETATM    1  N7  UNL     1     -38.397  14.405  -4.989  1.00 20.00     0.068 N 
HETATM    2  N8  UNL     1     -36.363  13.167  -5.222  1.00 20.00    -0.073 NA
HETATM    3  N9  UNL     1     -37.425  13.817  -5.100  1.00 20.00    -0.162 NA
ENDROOT
BRANCH   2   4
HETATM    4  C6  UNL     1     -35.231  13.984  -5.291  1.00 20.00     0.093 A 
HETATM    5  C4  UNL     1     -34.821  14.507  -6.518  1.00 20.00     0.034 A 
HETATM    6  C2  UNL     1     -33.692  15.322  -6.586  1.00 20.00     0.002 A 
HETATM    7  C1  UNL     1     -32.972  15.615  -5.428  1.00 20.00     0.000 A 
HETATM    8  C3  UNL     1     -33.381  15.092  -4.201  1.00 20.00     0.002 A 
HETATM    9  C5  UNL     1     -34.510  14.277  -4.133  1.00 20.00     0.034 A 
ENDBRANCH   2   4
TORSDOF 1
ENDMDL
MODEL 7
REMARK VINA RESULT:      -4.4     11.027     12.147
REMARK  1 active torsions:
REMARK  status: ('A' for Active; 'I' for Inactive)
REMARK    1  A    between atoms: C6_6  and  N8_8 
ROOT
HETATM    1  N7  UNL     1     -38.405  14.417  -4.977  1.00 20.00     0.068 N 
HETATM    2  N8  UNL     1     -36.375  13.174  -5.212  1.00 20.00    -0.073 NA
HETATM    3  N9  UNL     1     -37.434  13.827  -5.089  1.00 20.00    -0.162 NA
ENDROOT
BRANCH   2   4
HETATM    4  C6  UNL     1     -35.240  13.988  -5.278  1.00 20.00     0.093 A 
HETATM    5  C4  UNL     1     -34.530  14.292  -4.117  1.00 20.00     0.034 A 
HETATM    6  C2  UNL     1     -33.398  15.103  -4.184  1.00 20.00     0.002 A 
HETATM    7  C1  UNL     1     -32.976  15.612  -5.413  1.00 20.00     0.000 A 
HETATM    8  C3  UNL     1     -33.686  15.309  -6.574  1.00 20.00     0.002 A 
HETATM    9  C5  UNL     1     -34.818  14.497  -6.507  1.00 20.00     0.034 A 
ENDBRANCH   2   4
TORSDOF 1
ENDMDL
MODEL 8
REMARK VINA RESULT:      -4.1     11.267     11.747
REMARK  1 active torsions:
REMARK  status: ('A' for Active; 'I' for Inactive)
REMARK    1  A    between atoms: C6_6  and  N8_8 
ROOT
HETATM    1  N7  UNL     1     -30.935  18.386   0.964  1.00 20.00     0.068 N 
HETATM    2  N8  UNL     1     -31.980  18.747  -1.158  1.00 20.00    -0.073 NA
HETATM    3  N9  UNL     1     -31.436  18.556  -0.048  1.00 20.00    -0.162 NA
ENDROOT
BRANCH   2   4
HETATM    4  C6  UNL     1     -33.170  18.029  -1.310  1.00 20.00     0.093 A 
HETATM    5  C4  UNL     1     -34.167  18.117  -0.340  1.00 20.00     0.034 A 
HETATM    6  C2  UNL     1     -35.354  17.401  -0.492  1.00 20.00     0.002 A 
HETATM    7  C1  UNL     1     -35.543  16.595  -1.616  1.00 20.00     0.000 A 
HETATM    8  C3  UNL     1     -34.546  16.506  -2.586  1.00 20.00     0.002 A 
HETATM    9  C5  UNL     1     -33.359  17.223  -2.434  1.00 20.00     0.034 A 
ENDBRANCH   2   4
TORSDOF 1
ENDMDL
MODEL 9
REMARK VINA RESULT:      -4.0     10.942     11.414
REMARK  1 active torsions:
REMARK  status: ('A' for Active; 'I' for Inactive)
REMARK    1  A    between atoms: C6_6  and  N8_8 
ROOT
HETATM    1  N7  UNL     1     -34.399  14.130  -3.991  1.00 20.00     0.068 N 
HETATM    2  N8  UNL     1     -33.660  16.388  -3.719  1.00 20.00    -0.073 NA
HETATM    3  N9  UNL     1     -34.047  15.208  -3.858  1.00 20.00    -0.162 NA
ENDROOT
BRANCH   2   4
HETATM    4  C6  UNL     1     -33.971  16.918  -2.464  1.00 20.00     0.093 A 
HETATM    5  C4  UNL     1     -33.024  17.667  -1.767  1.00 20.00     0.034 A 
HETATM    6  C2  UNL     1     -33.335  18.196  -0.515  1.00 20.00     0.002 A 
HETATM    7  C1  UNL     1     -34.596  17.974   0.042  1.00 20.00     0.000 A 
HETATM    8  C3  UNL     1     -35.544  17.225  -0.654  1.00 20.00     0.002 A 
HETATM    9  C5  UNL     1     -35.232  16.697  -1.907  1.00 20.00     0.034 A 
ENDBRANCH   2   4
TORSDOF 1
ENDMDL
