MODEL 1
REMARK VINA RESULT:      -6.8      0.000      0.000
REMARK  0 active torsions:
REMARK  status: ('A' for Active; 'I' for Inactive)
ROOT
HETATM    1  C1  UNL     1     -34.391   6.157   5.921  1.00 20.00     0.001 A 
HETATM    2  C2  UNL     1     -34.901   5.390   4.870  1.00 20.00     0.003 A 
HETATM    3  C3  UNL     1     -33.467   7.183   5.683  1.00 20.00     0.014 A 
HETATM    4  C4  UNL     1     -34.508   5.617   3.548  1.00 20.00     0.038 A 
HETATM    5  C5  UNL     1     -32.174   8.340   3.724  1.00 20.00     0.046 A 
HETATM    6  C6  UNL     1     -33.057   7.429   4.361  1.00 20.00     0.000 A 
HETATM    7  C7  UNL     1     -33.588   6.643   3.343  1.00 20.00     0.086 A 
HETATM    8  C8  UNL     1     -32.224   8.054   2.379  1.00 20.00     0.050 A 
HETATM    9  C9  UNL     1     -31.553   8.629   1.205  1.00 20.00     0.077 C 
HETATM   10  O10 UNL     1     -33.078   7.025   2.138  1.00 20.00    -0.315 OA
ENDROOT
TORSDOF 0
ENDMDL
MODEL 2
REMARK VINA RESULT:      -6.7      0.877      1.869
REMARK  0 active torsions:
REMARK  status: ('A' for Active; 'I' for Inactive)
ROOT
HETATM    1  C1  UNL     1     -34.769   5.073   5.307  1.00 20.00     0.001 A 
HETATM    2  C2  UNL     1     -34.432   6.144   6.139  1.00 20.00     0.003 A 
HETATM    3  C3  UNL     1     -34.390   5.059   3.958  1.00 20.00     0.014 A 
HETATM    4  C4  UNL     1     -33.708   7.238   5.656  1.00 20.00     0.038 A 
HETATM    5  C5  UNL     1     -33.110   6.505   2.192  1.00 20.00     0.046 A 
HETATM    6  C6  UNL     1     -33.661   6.149   3.451  1.00 20.00     0.000 A 
HETATM    7  C7  UNL     1     -33.346   7.196   4.311  1.00 20.00     0.086 A 
HETATM    8  C8  UNL     1     -32.504   7.728   2.365  1.00 20.00     0.050 A 
HETATM    9  C9  UNL     1     -31.766   8.619   1.459  1.00 20.00     0.077 C 
HETATM   10  O10 UNL     1     -32.642   8.156   3.647  1.00 20.00    -0.315 OA
ENDROOT
TORSDOF 0
ENDMDL
MODEL 3
REMARK VINA RESULT:      -4.8      1.284      4.152
REMARK  0 active torsions:
REMARK  status: ('A' for Active; 'I' for Inactive)
ROOT
HETATM    1  C1  UNL     1     -31.973   8.413   1.592  1.00 20.00     0.001 A 
HETATM    2  C2  UNL     1     -31.437   8.938   2.771  1.00 20.00     0.003 A 
HETATM    3  C3  UNL     1     -32.924   7.384   1.625  1.00 20.00     0.014 A 
HETATM    4  C4  UNL     1     -31.830   8.456   4.024  1.00 20.00     0.038 A 
HETATM    5  C5  UNL     1     -34.238   5.886   3.322  1.00 20.00     0.046 A 
HETATM    6  C6  UNL     1     -33.333   6.884   2.874  1.00 20.00     0.000 A 
HETATM    7  C7  UNL     1     -32.777   7.433   4.025  1.00 20.00     0.086 A 
HETATM    8  C8  UNL     1     -34.175   5.893   4.696  1.00 20.00     0.050 A 
HETATM    9  C9  UNL     1     -34.858   5.110   5.736  1.00 20.00     0.077 C 
HETATM   10  O10 UNL     1     -33.291   6.827   5.133  1.00 20.00    -0.315 OA
ENDROOT
TORSDOF 0
ENDMDL
MODEL 4
REMARK VINA RESULT:      -4.7     11.431     11.784
REMARK  0 active torsions:
REMARK  status: ('A' for Active; 'I' for Inactive)
ROOT
HETATM    1  C1  UNL     1     -32.959  18.654   0.161  1.00 20.00     0.001 A 
HETATM    2  C2  UNL     1     -34.229  18.439   0.702  1.00 20.00     0.003 A 
HETATM    3  C3  UNL     1     -32.601  18.111  -1.080  1.00 20.00     0.014 A 
HETATM    4  C4  UNL     1     -35.186  17.675   0.027  1.00 20.00     0.038 A 
HETATM    5  C5  UNL     1     -33.578  16.641  -3.013  1.00 20.00     0.046 A 
HETATM    6  C6  UNL     1     -33.548  17.339  -1.777  1.00 20.00     0.000 A 
HETATM    7  C7  UNL     1     -34.801  17.148  -1.204  1.00 20.00     0.086 A 
HETATM    8  C8  UNL     1     -34.830  16.079  -3.110  1.00 20.00     0.050 A 
HETATM    9  C9  UNL     1     -35.479  15.247  -4.134  1.00 20.00     0.077 C 
HETATM   10  O10 UNL     1     -35.579  16.379  -2.018  1.00 20.00    -0.315 OA
ENDROOT
TORSDOF 0
ENDMDL
MODEL 5
REMARK VINA RESULT:      -4.5     11.418     11.909
REMARK  0 active torsions:
REMARK  status: ('A' for Active; 'I' for Inactive)
ROOT
HETATM    1  C1  UNL     1     -33.514  18.911   1.173  1.00 20.00     0.001 A 
HETATM    2  C2  UNL     1     -32.307  18.983   0.473  1.00 20.00     0.003 A 
HETATM    3  C3  UNL     1     -34.610  18.209   0.653  1.00 20.00     0.014 A 
HETATM    4  C4  UNL     1     -32.150  18.361  -0.769  1.00 20.00     0.038 A 
HETATM    5  C5  UNL     1     -35.312  16.795  -1.435  1.00 20.00     0.046 A 
HETATM    6  C6  UNL     1     -34.474  17.575  -0.595  1.00 20.00     0.000 A 
HETATM    7  C7  UNL     1     -33.256  17.671  -1.261  1.00 20.00     0.086 A 
HETATM    8  C8  UNL     1     -34.560  16.471  -2.541  1.00 20.00     0.050 A 
HETATM    9  C9  UNL     1     -34.845  15.694  -3.755  1.00 20.00     0.077 C 
HETATM   10  O10 UNL     1     -33.311  16.998  -2.445  1.00 20.00    -0.315 OA
ENDROOT
TORSDOF 0
ENDMDL
MODEL 6
REMARK VINA RESULT:      -4.5     11.418     11.763
REMARK  0 active torsions:
REMARK  status: ('A' for Active; 'I' for Inactive)
ROOT
HETATM    1  C1  UNL     1     -34.625  18.269   0.629  1.00 20.00     0.001 A 
HETATM    2  C2  UNL     1     -33.310  18.538   0.241  1.00 20.00     0.003 A 
HETATM    3  C3  UNL     1     -35.474  17.500  -0.178  1.00 20.00     0.014 A 
HETATM    4  C4  UNL     1     -32.795  18.051  -0.965  1.00 20.00     0.038 A 
HETATM    5  C5  UNL     1     -35.495  16.212  -2.456  1.00 20.00     0.046 A 
HETATM    6  C6  UNL     1     -34.978  17.000  -1.395  1.00 20.00     0.000 A 
HETATM    7  C7  UNL     1     -33.663  17.290  -1.747  1.00 20.00     0.086 A 
HETATM    8  C8  UNL     1     -34.476  16.074  -3.371  1.00 20.00     0.050 A 
HETATM    9  C9  UNL     1     -34.376  15.384  -4.664  1.00 20.00     0.077 C 
HETATM   10  O10 UNL     1     -33.361  16.726  -2.950  1.00 20.00    -0.315 OA
ENDROOT
TORSDOF 0
ENDMDL
MODEL 7
REMARK VINA RESULT:      -4.4     11.423     12.109
REMARK  0 active torsions:
REMARK  status: ('A' for Active; 'I' for Inactive)
ROOT
HETATM    1  C1  UNL     1     -34.572  16.958  -2.448  1.00 20.00     0.001 A 
HETATM    2  C2  UNL     1     -33.321  17.570  -2.337  1.00 20.00     0.003 A 
HETATM    3  C3  UNL     1     -35.460  16.928  -1.365  1.00 20.00     0.014 A 
HETATM    4  C4  UNL     1     -32.911  18.173  -1.144  1.00 20.00     0.038 A 
HETATM    5  C5  UNL     1     -35.654  17.707   1.126  1.00 20.00     0.046 A 
HETATM    6  C6  UNL     1     -35.069  17.528  -0.155  1.00 20.00     0.000 A 
HETATM    7  C7  UNL     1     -33.815  18.128  -0.085  1.00 20.00     0.086 A 
HETATM    8  C8  UNL     1     -34.731  18.394   1.882  1.00 20.00     0.050 A 
HETATM    9  C9  UNL     1     -34.732  18.878   3.269  1.00 20.00     0.077 C 
HETATM   10  O10 UNL     1     -33.612  18.653   1.156  1.00 20.00    -0.315 OA
ENDROOT
TORSDOF 0
ENDMDL
MODEL 8
REMARK VINA RESULT:      -4.3     11.460     12.062
REMARK  0 active torsions:
REMARK  status: ('A' for Active; 'I' for Inactive)
ROOT
HETATM    1  C1  UNL     1     -33.295  17.431  -2.293  1.00 20.00     0.001 A 
HETATM    2  C2  UNL     1     -34.571  16.865  -2.236  1.00 20.00     0.003 A 
HETATM    3  C3  UNL     1     -32.768  18.137  -1.204  1.00 20.00     0.014 A 
HETATM    4  C4  UNL     1     -35.366  16.983  -1.091  1.00 20.00     0.038 A 
HETATM    5  C5  UNL     1     -33.388  18.882   1.227  1.00 20.00     0.046 A 
HETATM    6  C6  UNL     1     -33.550  18.268  -0.043  1.00 20.00     0.000 A 
HETATM    7  C7  UNL     1     -34.816  17.690  -0.024  1.00 20.00     0.086 A 
HETATM    8  C8  UNL     1     -34.548  18.640   1.926  1.00 20.00     0.050 A 
HETATM    9  C9  UNL     1     -35.000  19.003   3.277  1.00 20.00     0.077 C 
HETATM   10  O10 UNL     1     -35.421  17.919   1.175  1.00 20.00    -0.315 OA
ENDROOT
TORSDOF 0
ENDMDL
MODEL 9
REMARK VINA RESULT:      -4.3     11.876     12.198
REMARK  0 active torsions:
REMARK  status: ('A' for Active; 'I' for Inactive)
ROOT
HETATM    1  C1  UNL     1     -32.577  18.932   3.135  1.00 20.00     0.001 A 
HETATM    2  C2  UNL     1     -31.260  19.063   2.687  1.00 20.00     0.003 A 
HETATM    3  C3  UNL     1     -33.619  18.647   2.242  1.00 20.00     0.014 A 
HETATM    4  C4  UNL     1     -30.935  18.915   1.335  1.00 20.00     0.038 A 
HETATM    5  C5  UNL     1     -34.052  18.212  -0.302  1.00 20.00     0.046 A 
HETATM    6  C6  UNL     1     -33.315  18.494   0.877  1.00 20.00     0.000 A 
HETATM    7  C7  UNL     1     -31.991  18.632   0.471  1.00 20.00     0.086 A 
HETATM    8  C8  UNL     1     -33.143  18.197  -1.335  1.00 20.00     0.050 A 
HETATM    9  C9  UNL     1     -33.270  17.967  -2.781  1.00 20.00     0.077 C 
HETATM   10  O10 UNL     1     -31.890  18.452  -0.876  1.00 20.00    -0.315 OA
ENDROOT
TORSDOF 0
ENDMDL
