MODEL 1
REMARK VINA RESULT:      -4.2      0.000      0.000
REMARK  1 active torsions:
REMARK  status: ('A' for Active; 'I' for Inactive)
REMARK    1  A    between atoms: C4_4  and  S7_7 
ROOT
HETATM    1  C1  UNL     1     -34.738   4.937   4.689  1.00 20.00     0.009 A 
HETATM    2  C2  UNL     1     -34.180   5.503   3.506  1.00 20.00     0.026 A 
HETATM    3  C3  UNL     1     -34.522   5.730   5.794  1.00 20.00     0.051 A 
HETATM    4  C4  UNL     1     -33.560   6.708   3.753  1.00 20.00     0.040 A 
HETATM    5  S6  UNL     1     -33.651   7.152   5.404  1.00 20.00    -0.095 SA
ENDROOT
BRANCH   4   6
HETATM    6  S7  UNL     1     -32.757   7.718   2.563  1.00 20.00    -0.127 SA
HETATM    7  C5  UNL     1     -31.373   8.348   3.546  1.00 20.00     0.096 C 
ENDBRANCH   4   6
TORSDOF 1
ENDMDL
MODEL 2
REMARK VINA RESULT:      -4.2      1.484      1.918
REMARK  1 active torsions:
REMARK  status: ('A' for Active; 'I' for Inactive)
REMARK    1  A    between atoms: C4_4  and  S7_7 
ROOT
HETATM    1  C1  UNL     1     -34.426   6.216   5.407  1.00 20.00     0.009 A 
HETATM    2  C2  UNL     1     -33.448   7.231   5.193  1.00 20.00     0.026 A 
HETATM    3  C3  UNL     1     -34.639   5.457   4.279  1.00 20.00     0.051 A 
HETATM    4  C4  UNL     1     -32.951   7.206   3.908  1.00 20.00     0.040 A 
HETATM    5  S6  UNL     1     -33.663   5.965   2.967  1.00 20.00    -0.095 SA
ENDROOT
BRANCH   4   6
HETATM    6  S7  UNL     1     -31.734   8.286   3.252  1.00 20.00    -0.127 SA
HETATM    7  C5  UNL     1     -32.464   8.664   1.639  1.00 20.00     0.096 C 
ENDBRANCH   4   6
TORSDOF 1
ENDMDL
MODEL 3
REMARK VINA RESULT:      -4.1      1.126      1.196
REMARK  1 active torsions:
REMARK  status: ('A' for Active; 'I' for Inactive)
REMARK    1  A    between atoms: C4_4  and  S7_7 
ROOT
HETATM    1  C1  UNL     1     -34.502   5.387   3.757  1.00 20.00     0.009 A 
HETATM    2  C2  UNL     1     -33.530   6.129   3.024  1.00 20.00     0.026 A 
HETATM    3  C3  UNL     1     -34.647   5.853   5.044  1.00 20.00     0.051 A 
HETATM    4  C4  UNL     1     -32.971   7.135   3.780  1.00 20.00     0.040 A 
HETATM    5  S6  UNL     1     -33.615   7.182   5.366  1.00 20.00    -0.095 SA
ENDROOT
BRANCH   4   6
HETATM    6  S7  UNL     1     -31.743   8.268   3.243  1.00 20.00    -0.127 SA
HETATM    7  C5  UNL     1     -32.421   8.751   1.635  1.00 20.00     0.096 C 
ENDBRANCH   4   6
TORSDOF 1
ENDMDL
MODEL 4
REMARK VINA RESULT:      -3.3      1.415      3.399
REMARK  1 active torsions:
REMARK  status: ('A' for Active; 'I' for Inactive)
REMARK    1  A    between atoms: C4_4  and  S7_7 
ROOT
HETATM    1  C1  UNL     1     -31.958   7.875   2.691  1.00 20.00     0.009 A 
HETATM    2  C2  UNL     1     -33.050   6.974   2.536  1.00 20.00     0.026 A 
HETATM    3  C3  UNL     1     -31.843   8.332   3.984  1.00 20.00     0.051 A 
HETATM    4  C4  UNL     1     -33.729   6.776   3.719  1.00 20.00     0.040 A 
HETATM    5  S6  UNL     1     -33.049   7.676   5.007  1.00 20.00    -0.095 SA
ENDROOT
BRANCH   4   6
HETATM    6  S7  UNL     1     -35.127   5.741   3.946  1.00 20.00    -0.127 SA
HETATM    7  C5  UNL     1     -34.320   4.209   4.474  1.00 20.00     0.096 C 
ENDBRANCH   4   6
TORSDOF 1
ENDMDL
MODEL 5
REMARK VINA RESULT:      -2.8     12.021     12.314
REMARK  1 active torsions:
REMARK  status: ('A' for Active; 'I' for Inactive)
REMARK    1  A    between atoms: C4_4  and  S7_7 
ROOT
HETATM    1  C1  UNL     1     -35.191  17.388  -0.416  1.00 20.00     0.009 A 
HETATM    2  C2  UNL     1     -35.177  16.710  -1.670  1.00 20.00     0.026 A 
HETATM    3  C3  UNL     1     -34.050  18.133  -0.218  1.00 20.00     0.051 A 
HETATM    4  C4  UNL     1     -34.025  16.964  -2.382  1.00 20.00     0.040 A 
HETATM    5  S6  UNL     1     -32.968  18.015  -1.539  1.00 20.00    -0.095 SA
ENDROOT
BRANCH   4   6
HETATM    6  S7  UNL     1     -33.629  16.322  -3.966  1.00 20.00    -0.127 SA
HETATM    7  C5  UNL     1     -34.652  14.828  -3.981  1.00 20.00     0.096 C 
ENDBRANCH   4   6
TORSDOF 1
ENDMDL
MODEL 6
REMARK VINA RESULT:      -2.8     11.768     12.141
REMARK  1 active torsions:
REMARK  status: ('A' for Active; 'I' for Inactive)
REMARK    1  A    between atoms: C4_4  and  S7_7 
ROOT
HETATM    1  C1  UNL     1     -35.553  13.642  -4.924  1.00 20.00     0.009 A 
HETATM    2  C2  UNL     1     -34.553  14.324  -4.173  1.00 20.00     0.026 A 
HETATM    3  C3  UNL     1     -36.738  14.342  -4.965  1.00 20.00     0.051 A 
HETATM    4  C4  UNL     1     -35.012  15.521  -3.670  1.00 20.00     0.040 A 
HETATM    5  S6  UNL     1     -36.642  15.817  -4.101  1.00 20.00    -0.095 SA
ENDROOT
BRANCH   4   6
HETATM    6  S7  UNL     1     -34.089  16.653  -2.697  1.00 20.00    -0.127 SA
HETATM    7  C5  UNL     1     -35.249  16.942  -1.338  1.00 20.00     0.096 C 
ENDBRANCH   4   6
TORSDOF 1
ENDMDL
MODEL 7
REMARK VINA RESULT:      -2.8     12.109     12.510
REMARK  1 active torsions:
REMARK  status: ('A' for Active; 'I' for Inactive)
REMARK    1  A    between atoms: C4_4  and  S7_7 
ROOT
HETATM    1  C1  UNL     1     -34.350  17.315  -1.128  1.00 20.00     0.009 A 
HETATM    2  C2  UNL     1     -35.488  16.725  -1.750  1.00 20.00     0.026 A 
HETATM    3  C3  UNL     1     -33.279  17.407  -1.988  1.00 20.00     0.051 A 
HETATM    4  C4  UNL     1     -35.243  16.389  -3.063  1.00 20.00     0.040 A 
HETATM    5  S6  UNL     1     -33.647  16.784  -3.540  1.00 20.00    -0.095 SA
ENDROOT
BRANCH   4   6
HETATM    6  S7  UNL     1     -36.385  15.646  -4.168  1.00 20.00    -0.127 SA
HETATM    7  C5  UNL     1     -35.467  14.158  -4.639  1.00 20.00     0.096 C 
ENDBRANCH   4   6
TORSDOF 1
ENDMDL
MODEL 8
REMARK VINA RESULT:      -2.8     12.079     12.484
REMARK  1 active torsions:
REMARK  status: ('A' for Active; 'I' for Inactive)
REMARK    1  A    between atoms: C4_4  and  S7_7 
ROOT
HETATM    1  C1  UNL     1     -33.825  16.908  -2.366  1.00 20.00     0.009 A 
HETATM    2  C2  UNL     1     -33.067  17.731  -1.484  1.00 20.00     0.026 A 
HETATM    3  C3  UNL     1     -35.107  16.703  -1.909  1.00 20.00     0.051 A 
HETATM    4  C4  UNL     1     -33.800  18.125  -0.386  1.00 20.00     0.040 A 
HETATM    5  S6  UNL     1     -35.395  17.501  -0.422  1.00 20.00    -0.095 SA
ENDROOT
BRANCH   4   6
HETATM    6  S7  UNL     1     -33.230  19.142   0.924  1.00 20.00    -0.127 SA
HETATM    7  C5  UNL     1     -31.455  18.790   0.867  1.00 20.00     0.096 C 
ENDBRANCH   4   6
TORSDOF 1
ENDMDL
MODEL 9
REMARK VINA RESULT:      -2.8     12.205     12.501
REMARK  1 active torsions:
REMARK  status: ('A' for Active; 'I' for Inactive)
REMARK    1  A    between atoms: C4_4  and  S7_7 
ROOT
HETATM    1  C1  UNL     1     -34.268  17.311  -1.199  1.00 20.00     0.009 A 
HETATM    2  C2  UNL     1     -33.395  17.052  -2.294  1.00 20.00     0.026 A 
HETATM    3  C3  UNL     1     -35.568  16.956  -1.477  1.00 20.00     0.051 A 
HETATM    4  C4  UNL     1     -34.062  16.506  -3.369  1.00 20.00     0.040 A 
HETATM    5  S6  UNL     1     -35.734  16.311  -3.055  1.00 20.00    -0.095 SA
ENDROOT
BRANCH   4   6
HETATM    6  S7  UNL     1     -33.345  16.044  -4.902  1.00 20.00    -0.127 SA
HETATM    7  C5  UNL     1     -34.345  14.590  -5.308  1.00 20.00     0.096 C 
ENDBRANCH   4   6
TORSDOF 1
ENDMDL
