MODEL 1
REMARK VINA RESULT:      -6.2      0.000      0.000
REMARK  0 active torsions:
REMARK  status: ('A' for Active; 'I' for Inactive)
ROOT
HETATM    1  C1  UNL     1     -34.367   6.451   5.913  1.00 20.00     0.001 A 
HETATM    2  C2  UNL     1     -34.661   5.121   5.612  1.00 20.00     0.001 A 
HETATM    3  C3  UNL     1     -33.686   7.242   4.988  1.00 20.00     0.007 A 
HETATM    4  C4  UNL     1     -34.274   4.582   4.384  1.00 20.00     0.007 A 
HETATM    5  C5  UNL     1     -33.300   6.703   3.761  1.00 20.00    -0.056 A 
HETATM    6  C6  UNL     1     -33.594   5.373   3.459  1.00 20.00    -0.056 A 
HETATM    7  C7  UNL     1     -32.574   7.570   2.785  1.00 20.00     0.049 C 
HETATM    8  C8  UNL     1     -33.189   4.775   2.152  1.00 20.00     0.049 C 
ENDROOT
TORSDOF 0
ENDMDL
MODEL 2
REMARK VINA RESULT:      -6.2      0.022      2.251
REMARK  0 active torsions:
REMARK  status: ('A' for Active; 'I' for Inactive)
ROOT
HETATM    1  C1  UNL     1     -34.675   5.146   5.612  1.00 20.00     0.001 A 
HETATM    2  C2  UNL     1     -34.367   6.475   5.905  1.00 20.00     0.001 A 
HETATM    3  C3  UNL     1     -34.292   4.594   4.390  1.00 20.00     0.007 A 
HETATM    4  C4  UNL     1     -33.676   7.252   4.974  1.00 20.00     0.007 A 
HETATM    5  C5  UNL     1     -33.601   5.371   3.460  1.00 20.00    -0.056 A 
HETATM    6  C6  UNL     1     -33.293   6.700   3.752  1.00 20.00    -0.056 A 
HETATM    7  C7  UNL     1     -33.200   4.758   2.158  1.00 20.00     0.049 C 
HETATM    8  C8  UNL     1     -32.555   7.551   2.772  1.00 20.00     0.049 C 
ENDROOT
TORSDOF 0
ENDMDL
MODEL 3
REMARK VINA RESULT:      -5.9      0.664      2.482
REMARK  0 active torsions:
REMARK  status: ('A' for Active; 'I' for Inactive)
ROOT
HETATM    1  C1  UNL     1     -34.052   4.320   3.478  1.00 20.00     0.001 A 
HETATM    2  C2  UNL     1     -34.557   4.350   4.778  1.00 20.00     0.001 A 
HETATM    3  C3  UNL     1     -33.412   5.441   2.950  1.00 20.00     0.007 A 
HETATM    4  C4  UNL     1     -34.420   5.504   5.552  1.00 20.00     0.007 A 
HETATM    5  C5  UNL     1     -33.276   6.593   3.724  1.00 20.00    -0.056 A 
HETATM    6  C6  UNL     1     -33.780   6.625   5.024  1.00 20.00    -0.056 A 
HETATM    7  C7  UNL     1     -32.585   7.782   3.139  1.00 20.00     0.049 C 
HETATM    8  C8  UNL     1     -33.647   7.848   5.871  1.00 20.00     0.049 C 
ENDROOT
TORSDOF 0
ENDMDL
MODEL 4
REMARK VINA RESULT:      -5.9      0.671      2.341
REMARK  0 active torsions:
REMARK  status: ('A' for Active; 'I' for Inactive)
ROOT
HETATM    1  C1  UNL     1     -34.540   4.327   4.769  1.00 20.00     0.001 A 
HETATM    2  C2  UNL     1     -34.041   4.310   3.466  1.00 20.00     0.001 A 
HETATM    3  C3  UNL     1     -34.410   5.473   5.552  1.00 20.00     0.007 A 
HETATM    4  C4  UNL     1     -33.411   5.443   2.947  1.00 20.00     0.007 A 
HETATM    5  C5  UNL     1     -33.780   6.604   5.033  1.00 20.00    -0.056 A 
HETATM    6  C6  UNL     1     -33.281   6.589   3.731  1.00 20.00    -0.056 A 
HETATM    7  C7  UNL     1     -33.654   7.821   5.890  1.00 20.00     0.049 C 
HETATM    8  C8  UNL     1     -32.603   7.788   3.154  1.00 20.00     0.049 C 
ENDROOT
TORSDOF 0
ENDMDL
MODEL 5
REMARK VINA RESULT:      -5.6      0.853      3.559
REMARK  0 active torsions:
REMARK  status: ('A' for Active; 'I' for Inactive)
ROOT
HETATM    1  C1  UNL     1     -33.347   5.738   2.327  1.00 20.00     0.001 A 
HETATM    2  C2  UNL     1     -32.855   7.026   2.540  1.00 20.00     0.001 A 
HETATM    3  C3  UNL     1     -33.969   5.048   3.367  1.00 20.00     0.007 A 
HETATM    4  C4  UNL     1     -32.985   7.624   3.794  1.00 20.00     0.007 A 
HETATM    5  C5  UNL     1     -34.099   5.646   4.621  1.00 20.00    -0.056 A 
HETATM    6  C6  UNL     1     -33.607   6.934   4.834  1.00 20.00    -0.056 A 
HETATM    7  C7  UNL     1     -34.770   4.889   5.719  1.00 20.00     0.049 C 
HETATM    8  C8  UNL     1     -33.733   7.593   6.168  1.00 20.00     0.049 C 
ENDROOT
TORSDOF 0
ENDMDL
MODEL 6
REMARK VINA RESULT:      -5.6      0.838      2.767
REMARK  0 active torsions:
REMARK  status: ('A' for Active; 'I' for Inactive)
ROOT
HETATM    1  C1  UNL     1     -32.829   7.020   2.559  1.00 20.00     0.001 A 
HETATM    2  C2  UNL     1     -33.310   5.731   2.331  1.00 20.00     0.001 A 
HETATM    3  C3  UNL     1     -32.983   7.612   3.812  1.00 20.00     0.007 A 
HETATM    4  C4  UNL     1     -33.947   5.033   3.359  1.00 20.00     0.007 A 
HETATM    5  C5  UNL     1     -33.620   6.914   4.838  1.00 20.00    -0.056 A 
HETATM    6  C6  UNL     1     -34.102   5.625   4.612  1.00 20.00    -0.056 A 
HETATM    7  C7  UNL     1     -33.773   7.568   6.173  1.00 20.00     0.049 C 
HETATM    8  C8  UNL     1     -34.787   4.860   5.695  1.00 20.00     0.049 C 
ENDROOT
TORSDOF 0
ENDMDL
MODEL 7
REMARK VINA RESULT:      -5.3      0.811      2.467
REMARK  0 active torsions:
REMARK  status: ('A' for Active; 'I' for Inactive)
ROOT
HETATM    1  C1  UNL     1     -33.672   7.490   5.971  1.00 20.00     0.001 A 
HETATM    2  C2  UNL     1     -32.948   8.050   4.918  1.00 20.00     0.001 A 
HETATM    3  C3  UNL     1     -34.259   6.233   5.824  1.00 20.00     0.007 A 
HETATM    4  C4  UNL     1     -32.810   7.352   3.717  1.00 20.00     0.007 A 
HETATM    5  C5  UNL     1     -34.121   5.536   4.623  1.00 20.00    -0.056 A 
HETATM    6  C6  UNL     1     -33.397   6.096   3.570  1.00 20.00    -0.056 A 
HETATM    7  C7  UNL     1     -34.757   4.191   4.489  1.00 20.00     0.049 C 
HETATM    8  C8  UNL     1     -33.238   5.369   2.276  1.00 20.00     0.049 C 
ENDROOT
TORSDOF 0
ENDMDL
MODEL 8
REMARK VINA RESULT:      -5.3      0.809      2.107
REMARK  0 active torsions:
REMARK  status: ('A' for Active; 'I' for Inactive)
ROOT
HETATM    1  C1  UNL     1     -32.941   8.052   4.908  1.00 20.00     0.001 A 
HETATM    2  C2  UNL     1     -33.663   7.497   5.964  1.00 20.00     0.001 A 
HETATM    3  C3  UNL     1     -32.808   7.353   3.708  1.00 20.00     0.007 A 
HETATM    4  C4  UNL     1     -34.252   6.240   5.821  1.00 20.00     0.007 A 
HETATM    5  C5  UNL     1     -33.398   6.097   3.566  1.00 20.00    -0.056 A 
HETATM    6  C6  UNL     1     -34.120   5.540   4.622  1.00 20.00    -0.056 A 
HETATM    7  C7  UNL     1     -33.244   5.367   2.272  1.00 20.00     0.049 C 
HETATM    8  C8  UNL     1     -34.758   4.197   4.492  1.00 20.00     0.049 C 
ENDROOT
TORSDOF 0
ENDMDL
MODEL 9
REMARK VINA RESULT:      -4.2     12.382     13.100
REMARK  0 active torsions:
REMARK  status: ('A' for Active; 'I' for Inactive)
ROOT
HETATM    1  C1  UNL     1     -34.932  16.625  -2.155  1.00 20.00     0.001 A 
HETATM    2  C2  UNL     1     -33.644  17.021  -2.516  1.00 20.00     0.001 A 
HETATM    3  C3  UNL     1     -35.463  17.013  -0.925  1.00 20.00     0.007 A 
HETATM    4  C4  UNL     1     -32.887  17.807  -1.646  1.00 20.00     0.007 A 
HETATM    5  C5  UNL     1     -34.705  17.798  -0.056  1.00 20.00    -0.056 A 
HETATM    6  C6  UNL     1     -33.417  18.195  -0.416  1.00 20.00    -0.056 A 
HETATM    7  C7  UNL     1     -35.294  18.203   1.256  1.00 20.00     0.049 C 
HETATM    8  C8  UNL     1     -32.587  19.034   0.498  1.00 20.00     0.049 C 
ENDROOT
TORSDOF 0
ENDMDL
