MODEL 1
REMARK VINA RESULT:      -4.4      0.000      0.000
REMARK  3 active torsions:
REMARK  status: ('A' for Active; 'I' for Inactive)
REMARK    1  A    between atoms: C2_2  and  C4_4 
REMARK    2  A    between atoms: C4_4  and  S8_8 
REMARK    3  A    between atoms: C5_5  and  S8_8 
ROOT
HETATM    1  O6  UNL     1     -34.422   3.868   4.255  1.00 20.00    -0.228 OA
HETATM    2  O7  UNL     1     -35.573   5.989   3.519  1.00 20.00    -0.228 OA
HETATM    3  S8  UNL     1     -34.465   5.318   4.180  1.00 20.00     0.147 S 
ENDROOT
BRANCH   3   4
HETATM    4  C4  UNL     1     -32.962   5.882   3.453  1.00 20.00     0.166 C 
BRANCH   4   5
HETATM    5  C2  UNL     1     -33.299   7.045   2.583  1.00 20.00    -0.022 C 
HETATM    6  C1  UNL     1     -32.435   8.019   2.277  1.00 20.00     0.008 C 
ENDBRANCH   4   5
ENDBRANCH   3   4
BRANCH   3   7
HETATM    7  C5  UNL     1     -34.380   5.942   5.844  1.00 20.00     0.136 C 
HETATM    8  C3  UNL     1     -33.736   7.310   5.890  1.00 20.00     0.021 C 
ENDBRANCH   3   7
TORSDOF 3
ENDMDL
MODEL 2
REMARK VINA RESULT:      -4.1      1.476      1.593
REMARK  3 active torsions:
REMARK  status: ('A' for Active; 'I' for Inactive)
REMARK    1  A    between atoms: C2_2  and  C4_4 
REMARK    2  A    between atoms: C4_4  and  S8_8 
REMARK    3  A    between atoms: C5_5  and  S8_8 
ROOT
HETATM    1  O6  UNL     1     -32.791   4.981   2.627  1.00 20.00    -0.228 OA
HETATM    2  O7  UNL     1     -35.024   6.137   2.412  1.00 20.00    -0.228 OA
HETATM    3  S8  UNL     1     -33.880   5.740   3.217  1.00 20.00     0.147 S 
ENDROOT
BRANCH   3   4
HETATM    4  C4  UNL     1     -33.206   7.184   3.970  1.00 20.00     0.166 C 
BRANCH   4   5
HETATM    5  C2  UNL     1     -32.098   7.665   3.096  1.00 20.00    -0.022 C 
HETATM    6  C1  UNL     1     -32.272   8.511   2.075  1.00 20.00     0.008 C 
ENDBRANCH   4   5
ENDBRANCH   3   4
BRANCH   3   7
HETATM    7  C5  UNL     1     -34.499   4.804   4.598  1.00 20.00     0.136 C 
HETATM    8  C3  UNL     1     -34.585   5.651   5.847  1.00 20.00     0.021 C 
ENDBRANCH   3   7
TORSDOF 3
ENDMDL
MODEL 3
REMARK VINA RESULT:      -4.0     11.797     12.830
REMARK  3 active torsions:
REMARK  status: ('A' for Active; 'I' for Inactive)
REMARK    1  A    between atoms: C2_2  and  C4_4 
REMARK    2  A    between atoms: C4_4  and  S8_8 
REMARK    3  A    between atoms: C5_5  and  S8_8 
ROOT
HETATM    1  O6  UNL     1     -35.851  12.666  -5.161  1.00 20.00    -0.228 OA
HETATM    2  O7  UNL     1     -38.031  13.924  -4.977  1.00 20.00    -0.228 OA
HETATM    3  S8  UNL     1     -36.628  13.879  -5.355  1.00 20.00     0.147 S 
ENDROOT
BRANCH   3   4
HETATM    4  C4  UNL     1     -36.493  14.361  -7.044  1.00 20.00     0.166 C 
BRANCH   4   5
HETATM    5  C2  UNL     1     -35.341  13.618  -7.628  1.00 20.00    -0.022 C 
HETATM    6  C1  UNL     1     -34.162  14.181  -7.916  1.00 20.00     0.008 C 
ENDBRANCH   4   5
ENDBRANCH   3   4
BRANCH   3   7
HETATM    7  C5  UNL     1     -35.798  15.190  -4.484  1.00 20.00     0.136 C 
HETATM    8  C3  UNL     1     -34.439  14.752  -3.986  1.00 20.00     0.021 C 
ENDBRANCH   3   7
TORSDOF 3
ENDMDL
MODEL 4
REMARK VINA RESULT:      -4.0     11.731     12.799
REMARK  3 active torsions:
REMARK  status: ('A' for Active; 'I' for Inactive)
REMARK    1  A    between atoms: C2_2  and  C4_4 
REMARK    2  A    between atoms: C4_4  and  S8_8 
REMARK    3  A    between atoms: C5_5  and  S8_8 
ROOT
HETATM    1  O6  UNL     1     -37.971  13.944  -4.917  1.00 20.00    -0.228 OA
HETATM    2  O7  UNL     1     -35.847  12.618  -5.233  1.00 20.00    -0.228 OA
HETATM    3  S8  UNL     1     -36.582  13.869  -5.337  1.00 20.00     0.147 S 
ENDROOT
BRANCH   3   4
HETATM    4  C4  UNL     1     -35.675  15.116  -4.483  1.00 20.00     0.166 C 
BRANCH   4   5
HETATM    5  C2  UNL     1     -34.377  14.515  -4.066  1.00 20.00    -0.022 C 
HETATM    6  C1  UNL     1     -33.187  14.928  -4.518  1.00 20.00     0.008 C 
ENDBRANCH   4   5
ENDBRANCH   3   4
BRANCH   3   7
HETATM    7  C5  UNL     1     -36.507  14.392  -7.035  1.00 20.00     0.136 C 
HETATM    8  C3  UNL     1     -35.349  13.748  -7.763  1.00 20.00     0.021 C 
ENDBRANCH   3   7
TORSDOF 3
ENDMDL
MODEL 5
REMARK VINA RESULT:      -3.9      2.468      3.945
REMARK  3 active torsions:
REMARK  status: ('A' for Active; 'I' for Inactive)
REMARK    1  A    between atoms: C2_2  and  C4_4 
REMARK    2  A    between atoms: C4_4  and  S8_8 
REMARK    3  A    between atoms: C5_5  and  S8_8 
ROOT
HETATM    1  O6  UNL     1     -32.470   5.990   2.677  1.00 20.00    -0.228 OA
HETATM    2  O7  UNL     1     -31.417   7.997   3.787  1.00 20.00    -0.228 OA
HETATM    3  S8  UNL     1     -32.577   7.339   3.205  1.00 20.00     0.147 S 
ENDROOT
BRANCH   3   4
HETATM    4  C4  UNL     1     -33.883   7.373   4.387  1.00 20.00     0.166 C 
BRANCH   4   5
HETATM    5  C2  UNL     1     -34.518   6.024   4.385  1.00 20.00    -0.022 C 
HETATM    6  C1  UNL     1     -34.623   5.251   5.472  1.00 20.00     0.008 C 
ENDBRANCH   4   5
ENDBRANCH   3   4
BRANCH   3   7
HETATM    7  C5  UNL     1     -33.178   8.381   1.894  1.00 20.00     0.136 C 
HETATM    8  C3  UNL     1     -32.043   9.049   1.152  1.00 20.00     0.021 C 
ENDBRANCH   3   7
TORSDOF 3
ENDMDL
MODEL 6
REMARK VINA RESULT:      -3.9      2.534      2.973
REMARK  3 active torsions:
REMARK  status: ('A' for Active; 'I' for Inactive)
REMARK    1  A    between atoms: C2_2  and  C4_4 
REMARK    2  A    between atoms: C4_4  and  S8_8 
REMARK    3  A    between atoms: C5_5  and  S8_8 
ROOT
HETATM    1  O6  UNL     1     -31.612   8.033   3.856  1.00 20.00    -0.228 OA
HETATM    2  O7  UNL     1     -32.445   5.907   2.781  1.00 20.00    -0.228 OA
HETATM    3  S8  UNL     1     -32.672   7.278   3.209  1.00 20.00     0.147 S 
ENDROOT
BRANCH   3   4
HETATM    4  C4  UNL     1     -33.247   8.203   1.824  1.00 20.00     0.166 C 
BRANCH   4   5
HETATM    5  C2  UNL     1     -32.233   9.258   1.543  1.00 20.00    -0.022 C 
HETATM    6  C1  UNL     1     -32.536  10.471   1.065  1.00 20.00     0.008 C 
ENDBRANCH   4   5
ENDBRANCH   3   4
BRANCH   3   7
HETATM    7  C5  UNL     1     -34.070   7.269   4.310  1.00 20.00     0.136 C 
HETATM    8  C3  UNL     1     -33.636   7.290   5.758  1.00 20.00     0.021 C 
ENDBRANCH   3   7
TORSDOF 3
ENDMDL
MODEL 7
REMARK VINA RESULT:      -3.8      1.502      3.434
REMARK  3 active torsions:
REMARK  status: ('A' for Active; 'I' for Inactive)
REMARK    1  A    between atoms: C2_2  and  C4_4 
REMARK    2  A    between atoms: C4_4  and  S8_8 
REMARK    3  A    between atoms: C5_5  and  S8_8 
ROOT
HETATM    1  O6  UNL     1     -34.845   6.336   2.463  1.00 20.00    -0.228 OA
HETATM    2  O7  UNL     1     -32.626   5.204   2.867  1.00 20.00    -0.228 OA
HETATM    3  S8  UNL     1     -33.498   6.359   3.007  1.00 20.00     0.147 S 
ENDROOT
BRANCH   3   4
HETATM    4  C4  UNL     1     -33.595   6.776   4.716  1.00 20.00     0.166 C 
BRANCH   4   5
HETATM    5  C2  UNL     1     -34.667   5.934   5.318  1.00 20.00    -0.022 C 
HETATM    6  C1  UNL     1     -34.540   4.623   5.552  1.00 20.00     0.008 C 
ENDBRANCH   4   5
ENDBRANCH   3   4
BRANCH   3   7
HETATM    7  C5  UNL     1     -32.656   7.752   2.289  1.00 20.00     0.136 C 
HETATM    8  C3  UNL     1     -31.580   8.284   3.209  1.00 20.00     0.021 C 
ENDBRANCH   3   7
TORSDOF 3
ENDMDL
MODEL 8
REMARK VINA RESULT:      -3.7     11.917     12.573
REMARK  3 active torsions:
REMARK  status: ('A' for Active; 'I' for Inactive)
REMARK    1  A    between atoms: C2_2  and  C4_4 
REMARK    2  A    between atoms: C4_4  and  S8_8 
REMARK    3  A    between atoms: C5_5  and  S8_8 
ROOT
HETATM    1  O6  UNL     1     -35.977  12.878  -5.175  1.00 20.00    -0.228 OA
HETATM    2  O7  UNL     1     -33.817  13.645  -4.119  1.00 20.00    -0.228 OA
HETATM    3  S8  UNL     1     -35.027  13.935  -4.871  1.00 20.00     0.147 S 
ENDROOT
BRANCH   3   4
HETATM    4  C4  UNL     1     -35.888  15.237  -4.053  1.00 20.00     0.166 C 
BRANCH   4   5
HETATM    5  C2  UNL     1     -34.905  15.940  -3.181  1.00 20.00    -0.022 C 
HETATM    6  C1  UNL     1     -35.244  16.638  -2.091  1.00 20.00     0.008 C 
ENDBRANCH   4   5
ENDBRANCH   3   4
BRANCH   3   7
HETATM    7  C5  UNL     1     -34.534  14.670  -6.414  1.00 20.00     0.136 C 
HETATM    8  C3  UNL     1     -34.470  13.643  -7.522  1.00 20.00     0.021 C 
ENDBRANCH   3   7
TORSDOF 3
ENDMDL
MODEL 9
REMARK VINA RESULT:      -3.7      1.630      2.136
REMARK  3 active torsions:
REMARK  status: ('A' for Active; 'I' for Inactive)
REMARK    1  A    between atoms: C2_2  and  C4_4 
REMARK    2  A    between atoms: C4_4  and  S8_8 
REMARK    3  A    between atoms: C5_5  and  S8_8 
ROOT
HETATM    1  O6  UNL     1     -35.834   6.238   3.633  1.00 20.00    -0.228 OA
HETATM    2  O7  UNL     1     -34.177   7.198   5.275  1.00 20.00    -0.228 OA
HETATM    3  S8  UNL     1     -34.539   6.193   4.289  1.00 20.00     0.147 S 
ENDROOT
BRANCH   3   4
HETATM    4  C4  UNL     1     -33.288   6.160   3.048  1.00 20.00     0.166 C 
BRANCH   4   5
HETATM    5  C2  UNL     1     -32.472   7.397   3.206  1.00 20.00    -0.022 C 
HETATM    6  C1  UNL     1     -32.085   8.168   2.184  1.00 20.00     0.008 C 
ENDBRANCH   4   5
ENDBRANCH   3   4
BRANCH   3   7
HETATM    7  C5  UNL     1     -34.389   4.602   5.069  1.00 20.00     0.136 C 
HETATM    8  C3  UNL     1     -33.819   3.571   4.121  1.00 20.00     0.021 C 
ENDBRANCH   3   7
TORSDOF 3
ENDMDL
