MODEL 1
REMARK VINA RESULT:      -6.3      0.000      0.000
REMARK  4 active torsions:
REMARK  status: ('A' for Active; 'I' for Inactive)
REMARK    1  A    between atoms: C6_6  and  C7_7 
REMARK    2  A    between atoms: C7_7  and  C8_8 
REMARK    3  A    between atoms: C8_8  and  C9_9 
REMARK    4  A    between atoms: C9_9  and  S10_10 
ROOT
HETATM    1  C1  UNL     1     -34.654   5.449   5.938  1.00 20.00     0.000 A 
HETATM    2  C2  UNL     1     -34.637   4.649   4.796  1.00 20.00     0.001 A 
HETATM    3  C3  UNL     1     -34.118   6.736   5.896  1.00 20.00     0.001 A 
HETATM    4  C4  UNL     1     -34.085   5.136   3.611  1.00 20.00     0.007 A 
HETATM    5  C5  UNL     1     -33.565   7.224   4.712  1.00 20.00     0.007 A 
HETATM    6  C6  UNL     1     -33.549   6.423   3.569  1.00 20.00    -0.058 A 
ENDROOT
BRANCH   6   7
HETATM    7  C7  UNL     1     -32.956   6.944   2.303  1.00 20.00     0.039 C 
BRANCH   7   8
HETATM    8  C8  UNL     1     -32.023   8.157   2.488  1.00 20.00     0.014 C 
BRANCH   8   9
HETATM    9  C9  UNL     1     -31.667   8.825   1.160  1.00 20.00     0.071 C 
BRANCH   9  10
HETATM   10  S10 UNL     1     -32.719  10.279   0.874  1.00 20.00    -0.182 SA
HETATM   11  H22 UNL     1     -32.683  10.728   2.136  1.00 20.00     0.101 HD
ENDBRANCH   9  10
ENDBRANCH   8   9
ENDBRANCH   7   8
ENDBRANCH   6   7
TORSDOF 4
ENDMDL
MODEL 2
REMARK VINA RESULT:      -6.3      0.904      1.270
REMARK  4 active torsions:
REMARK  status: ('A' for Active; 'I' for Inactive)
REMARK    1  A    between atoms: C6_6  and  C7_7 
REMARK    2  A    between atoms: C7_7  and  C8_8 
REMARK    3  A    between atoms: C8_8  and  C9_9 
REMARK    4  A    between atoms: C9_9  and  S10_10 
ROOT
HETATM    1  C1  UNL     1     -34.736   5.539   4.874  1.00 20.00     0.000 A 
HETATM    2  C2  UNL     1     -34.283   5.418   3.560  1.00 20.00     0.001 A 
HETATM    3  C3  UNL     1     -34.237   6.552   5.693  1.00 20.00     0.001 A 
HETATM    4  C4  UNL     1     -33.332   6.309   3.065  1.00 20.00     0.007 A 
HETATM    5  C5  UNL     1     -33.285   7.444   5.198  1.00 20.00     0.007 A 
HETATM    6  C6  UNL     1     -32.833   7.323   3.884  1.00 20.00    -0.058 A 
ENDROOT
BRANCH   6   7
HETATM    7  C7  UNL     1     -31.814   8.276   3.355  1.00 20.00     0.039 C 
BRANCH   7   8
HETATM    8  C8  UNL     1     -31.793   8.398   1.819  1.00 20.00     0.014 C 
BRANCH   8   9
HETATM    9  C9  UNL     1     -32.516   9.650   1.324  1.00 20.00     0.071 C 
BRANCH   9  10
HETATM   10  S10 UNL     1     -33.082   9.426  -0.388  1.00 20.00    -0.182 SA
HETATM   11  H22 UNL     1     -31.920   9.760  -0.965  1.00 20.00     0.101 HD
ENDBRANCH   9  10
ENDBRANCH   8   9
ENDBRANCH   7   8
ENDBRANCH   6   7
TORSDOF 4
ENDMDL
MODEL 3
REMARK VINA RESULT:      -6.3      0.909      1.881
REMARK  4 active torsions:
REMARK  status: ('A' for Active; 'I' for Inactive)
REMARK    1  A    between atoms: C6_6  and  C7_7 
REMARK    2  A    between atoms: C7_7  and  C8_8 
REMARK    3  A    between atoms: C8_8  and  C9_9 
REMARK    4  A    between atoms: C9_9  and  S10_10 
ROOT
HETATM    1  C1  UNL     1     -34.709   5.554   4.848  1.00 20.00     0.000 A 
HETATM    2  C2  UNL     1     -34.191   6.563   5.661  1.00 20.00     0.001 A 
HETATM    3  C3  UNL     1     -34.270   5.427   3.530  1.00 20.00     0.001 A 
HETATM    4  C4  UNL     1     -33.236   7.445   5.156  1.00 20.00     0.007 A 
HETATM    5  C5  UNL     1     -33.315   6.309   3.024  1.00 20.00     0.007 A 
HETATM    6  C6  UNL     1     -32.797   7.318   3.837  1.00 20.00    -0.058 A 
ENDROOT
BRANCH   6   7
HETATM    7  C7  UNL     1     -31.776   8.261   3.296  1.00 20.00     0.039 C 
BRANCH   7   8
HETATM    8  C8  UNL     1     -31.793   8.405   1.761  1.00 20.00     0.014 C 
BRANCH   8   9
HETATM    9  C9  UNL     1     -32.507   9.677   1.304  1.00 20.00     0.071 C 
BRANCH   9  10
HETATM   10  S10 UNL     1     -33.139   9.481  -0.388  1.00 20.00    -0.182 SA
HETATM   11  H22 UNL     1     -34.437   9.489  -0.054  1.00 20.00     0.101 HD
ENDBRANCH   9  10
ENDBRANCH   8   9
ENDBRANCH   7   8
ENDBRANCH   6   7
TORSDOF 4
ENDMDL
MODEL 4
REMARK VINA RESULT:      -4.5     11.049     11.714
REMARK  4 active torsions:
REMARK  status: ('A' for Active; 'I' for Inactive)
REMARK    1  A    between atoms: C6_6  and  C7_7 
REMARK    2  A    between atoms: C7_7  and  C8_8 
REMARK    3  A    between atoms: C8_8  and  C9_9 
REMARK    4  A    between atoms: C9_9  and  S10_10 
ROOT
HETATM    1  C1  UNL     1     -34.241  18.395   0.476  1.00 20.00     0.000 A 
HETATM    2  C2  UNL     1     -35.278  17.599  -0.009  1.00 20.00     0.001 A 
HETATM    3  C3  UNL     1     -33.056  18.515  -0.250  1.00 20.00     0.001 A 
HETATM    4  C4  UNL     1     -35.131  16.922  -1.220  1.00 20.00     0.007 A 
HETATM    5  C5  UNL     1     -32.907  17.838  -1.461  1.00 20.00     0.007 A 
HETATM    6  C6  UNL     1     -33.945  17.042  -1.946  1.00 20.00    -0.058 A 
ENDROOT
BRANCH   6   7
HETATM    7  C7  UNL     1     -33.787  16.318  -3.240  1.00 20.00     0.039 C 
BRANCH   7   8
HETATM    8  C8  UNL     1     -35.020  15.499  -3.667  1.00 20.00     0.014 C 
BRANCH   8   9
HETATM    9  C9  UNL     1     -34.639  14.159  -4.297  1.00 20.00     0.071 C 
BRANCH   9  10
HETATM   10  S10 UNL     1     -35.961  13.572  -5.397  1.00 20.00    -0.182 SA
HETATM   11  H22 UNL     1     -36.301  14.780  -5.866  1.00 20.00     0.101 HD
ENDBRANCH   9  10
ENDBRANCH   8   9
ENDBRANCH   7   8
ENDBRANCH   6   7
TORSDOF 4
ENDMDL
MODEL 5
REMARK VINA RESULT:      -4.5     11.042     11.760
REMARK  4 active torsions:
REMARK  status: ('A' for Active; 'I' for Inactive)
REMARK    1  A    between atoms: C6_6  and  C7_7 
REMARK    2  A    between atoms: C7_7  and  C8_8 
REMARK    3  A    between atoms: C8_8  and  C9_9 
REMARK    4  A    between atoms: C9_9  and  S10_10 
ROOT
HETATM    1  C1  UNL     1     -34.216  18.371   0.458  1.00 20.00     0.000 A 
HETATM    2  C2  UNL     1     -33.035  18.488  -0.275  1.00 20.00     0.001 A 
HETATM    3  C3  UNL     1     -35.261  17.582  -0.025  1.00 20.00     0.001 A 
HETATM    4  C4  UNL     1     -32.898  17.816  -1.490  1.00 20.00     0.007 A 
HETATM    5  C5  UNL     1     -35.124  16.910  -1.240  1.00 20.00     0.007 A 
HETATM    6  C6  UNL     1     -33.942  17.027  -1.972  1.00 20.00    -0.058 A 
ENDROOT
BRANCH   6   7
HETATM    7  C7  UNL     1     -33.797  16.309  -3.271  1.00 20.00     0.039 C 
BRANCH   7   8
HETATM    8  C8  UNL     1     -35.038  15.498  -3.694  1.00 20.00     0.014 C 
BRANCH   8   9
HETATM    9  C9  UNL     1     -34.670  14.143  -4.296  1.00 20.00     0.071 C 
BRANCH   9  10
HETATM   10  S10 UNL     1     -35.979  13.565  -5.416  1.00 20.00    -0.182 SA
HETATM   11  H22 UNL     1     -36.216  12.414  -4.773  1.00 20.00     0.101 HD
ENDBRANCH   9  10
ENDBRANCH   8   9
ENDBRANCH   7   8
ENDBRANCH   6   7
TORSDOF 4
ENDMDL
MODEL 6
REMARK VINA RESULT:      -4.3      1.299      2.004
REMARK  4 active torsions:
REMARK  status: ('A' for Active; 'I' for Inactive)
REMARK    1  A    between atoms: C6_6  and  C7_7 
REMARK    2  A    between atoms: C7_7  and  C8_8 
REMARK    3  A    between atoms: C8_8  and  C9_9 
REMARK    4  A    between atoms: C9_9  and  S10_10 
ROOT
HETATM    1  C1  UNL     1     -34.592   5.092   5.965  1.00 20.00     0.000 A 
HETATM    2  C2  UNL     1     -34.339   6.453   5.796  1.00 20.00     0.001 A 
HETATM    3  C3  UNL     1     -34.434   4.214   4.893  1.00 20.00     0.001 A 
HETATM    4  C4  UNL     1     -33.928   6.937   4.554  1.00 20.00     0.007 A 
HETATM    5  C5  UNL     1     -34.023   4.698   3.650  1.00 20.00     0.007 A 
HETATM    6  C6  UNL     1     -33.770   6.060   3.481  1.00 20.00    -0.058 A 
ENDROOT
BRANCH   6   7
HETATM    7  C7  UNL     1     -33.331   6.577   2.153  1.00 20.00     0.039 C 
BRANCH   7   8
HETATM    8  C8  UNL     1     -33.286   8.114   2.051  1.00 20.00     0.014 C 
BRANCH   8   9
HETATM    9  C9  UNL     1     -31.858   8.650   1.963  1.00 20.00     0.071 C 
BRANCH   9  10
HETATM   10  S10 UNL     1     -31.014   8.486   3.563  1.00 20.00    -0.182 SA
HETATM   11  H22 UNL     1     -32.083   8.045   4.241  1.00 20.00     0.101 HD
ENDBRANCH   9  10
ENDBRANCH   8   9
ENDBRANCH   7   8
ENDBRANCH   6   7
TORSDOF 4
ENDMDL
MODEL 7
REMARK VINA RESULT:      -4.3     11.319     11.806
REMARK  4 active torsions:
REMARK  status: ('A' for Active; 'I' for Inactive)
REMARK    1  A    between atoms: C6_6  and  C7_7 
REMARK    2  A    between atoms: C7_7  and  C8_8 
REMARK    3  A    between atoms: C8_8  and  C9_9 
REMARK    4  A    between atoms: C9_9  and  S10_10 
ROOT
HETATM    1  C1  UNL     1     -34.489  18.160   0.266  1.00 20.00     0.000 A 
HETATM    2  C2  UNL     1     -35.456  17.365  -0.348  1.00 20.00     0.001 A 
HETATM    3  C3  UNL     1     -33.255  18.361  -0.354  1.00 20.00     0.001 A 
HETATM    4  C4  UNL     1     -35.192  16.771  -1.582  1.00 20.00     0.007 A 
HETATM    5  C5  UNL     1     -32.989  17.766  -1.588  1.00 20.00     0.007 A 
HETATM    6  C6  UNL     1     -33.958  16.971  -2.202  1.00 20.00    -0.058 A 
ENDROOT
BRANCH   6   7
HETATM    7  C7  UNL     1     -33.673  16.335  -3.521  1.00 20.00     0.039 C 
BRANCH   7   8
HETATM    8  C8  UNL     1     -34.465  15.040  -3.787  1.00 20.00     0.014 C 
BRANCH   8   9
HETATM    9  C9  UNL     1     -34.321  14.555  -5.229  1.00 20.00     0.071 C 
BRANCH   9  10
HETATM   10  S10 UNL     1     -33.392  15.763  -6.219  1.00 20.00    -0.182 SA
HETATM   11  H22 UNL     1     -33.967  16.851  -5.689  1.00 20.00     0.101 HD
ENDBRANCH   9  10
ENDBRANCH   8   9
ENDBRANCH   7   8
ENDBRANCH   6   7
TORSDOF 4
ENDMDL
MODEL 8
REMARK VINA RESULT:      -4.2      2.275      5.019
REMARK  4 active torsions:
REMARK  status: ('A' for Active; 'I' for Inactive)
REMARK    1  A    between atoms: C6_6  and  C7_7 
REMARK    2  A    between atoms: C7_7  and  C8_8 
REMARK    3  A    between atoms: C8_8  and  C9_9 
REMARK    4  A    between atoms: C9_9  and  S10_10 
ROOT
HETATM    1  C1  UNL     1     -32.318  10.224   0.374  1.00 20.00     0.000 A 
HETATM    2  C2  UNL     1     -31.475   9.115   0.299  1.00 20.00     0.001 A 
HETATM    3  C3  UNL     1     -33.263  10.314   1.397  1.00 20.00     0.001 A 
HETATM    4  C4  UNL     1     -31.576   8.097   1.246  1.00 20.00     0.007 A 
HETATM    5  C5  UNL     1     -33.364   9.295   2.344  1.00 20.00     0.007 A 
HETATM    6  C6  UNL     1     -32.520   8.187   2.269  1.00 20.00    -0.058 A 
ENDROOT
BRANCH   6   7
HETATM    7  C7  UNL     1     -32.629   7.097   3.282  1.00 20.00     0.039 C 
BRANCH   7   8
HETATM    8  C8  UNL     1     -33.851   6.175   3.097  1.00 20.00     0.014 C 
BRANCH   8   9
HETATM    9  C9  UNL     1     -34.610   5.946   4.403  1.00 20.00     0.071 C 
BRANCH   9  10
HETATM   10  S10 UNL     1     -33.905   6.956   5.738  1.00 20.00    -0.182 SA
HETATM   11  H22 UNL     1     -33.127   5.991   6.248  1.00 20.00     0.101 HD
ENDBRANCH   9  10
ENDBRANCH   8   9
ENDBRANCH   7   8
ENDBRANCH   6   7
TORSDOF 4
ENDMDL
MODEL 9
REMARK VINA RESULT:      -4.2      2.273      5.129
REMARK  4 active torsions:
REMARK  status: ('A' for Active; 'I' for Inactive)
REMARK    1  A    between atoms: C6_6  and  C7_7 
REMARK    2  A    between atoms: C7_7  and  C8_8 
REMARK    3  A    between atoms: C8_8  and  C9_9 
REMARK    4  A    between atoms: C9_9  and  S10_10 
ROOT
HETATM    1  C1  UNL     1     -32.380  10.282   0.380  1.00 20.00     0.000 A 
HETATM    2  C2  UNL     1     -33.273  10.367   1.448  1.00 20.00     0.001 A 
HETATM    3  C3  UNL     1     -31.550   9.168   0.251  1.00 20.00     0.001 A 
HETATM    4  C4  UNL     1     -33.337   9.339   2.388  1.00 20.00     0.007 A 
HETATM    5  C5  UNL     1     -31.613   8.139   1.191  1.00 20.00     0.007 A 
HETATM    6  C6  UNL     1     -32.507   8.225   2.259  1.00 20.00    -0.058 A 
ENDROOT
BRANCH   6   7
HETATM    7  C7  UNL     1     -32.573   7.124   3.265  1.00 20.00     0.039 C 
BRANCH   7   8
HETATM    8  C8  UNL     1     -33.740   6.139   3.054  1.00 20.00     0.014 C 
BRANCH   8   9
HETATM    9  C9  UNL     1     -34.597   5.976   4.309  1.00 20.00     0.071 C 
BRANCH   9  10
HETATM   10  S10 UNL     1     -33.915   6.955   5.680  1.00 20.00    -0.182 SA
HETATM   11  H22 UNL     1     -33.260   5.942   6.263  1.00 20.00     0.101 HD
ENDBRANCH   9  10
ENDBRANCH   8   9
ENDBRANCH   7   8
ENDBRANCH   6   7
TORSDOF 4
ENDMDL
