MODEL 1
REMARK VINA RESULT:      -6.0      0.000      0.000
REMARK  1 active torsions:
REMARK  status: ('A' for Active; 'I' for Inactive)
REMARK    1  A    between atoms: C6_6  and  N8_8 
ROOT
HETATM    1  C1  UNL     1     -34.634   5.167   5.609  1.00 20.00     0.000 A 
HETATM    2  C2  UNL     1     -34.226   6.474   5.877  1.00 20.00     0.002 A 
HETATM    3  C3  UNL     1     -34.469   4.632   4.331  1.00 20.00     0.002 A 
HETATM    4  C4  UNL     1     -33.650   7.245   4.867  1.00 20.00     0.029 A 
HETATM    5  C5  UNL     1     -33.894   5.403   3.322  1.00 20.00     0.029 A 
HETATM    6  C6  UNL     1     -33.484   6.710   3.589  1.00 20.00     0.027 A 
ENDROOT
BRANCH   6   7
HETATM    7  N8  UNL     1     -32.903   7.489   2.568  1.00 20.00    -0.394 N 
HETATM    8  C7  UNL     1     -31.753   8.312   2.779  1.00 20.00     0.146 C 
HETATM    9  H17 UNL     1     -33.335   7.449   1.664  1.00 20.00     0.159 HD
ENDBRANCH   6   7
TORSDOF 1
ENDMDL
MODEL 2
REMARK VINA RESULT:      -6.0      0.023      1.709
REMARK  1 active torsions:
REMARK  status: ('A' for Active; 'I' for Inactive)
REMARK    1  A    between atoms: C6_6  and  N8_8 
ROOT
HETATM    1  C1  UNL     1     -34.629   5.158   5.609  1.00 20.00     0.000 A 
HETATM    2  C2  UNL     1     -34.456   4.613   4.337  1.00 20.00     0.002 A 
HETATM    3  C3  UNL     1     -34.231   6.471   5.865  1.00 20.00     0.002 A 
HETATM    4  C4  UNL     1     -33.888   5.380   3.320  1.00 20.00     0.029 A 
HETATM    5  C5  UNL     1     -33.662   7.238   4.850  1.00 20.00     0.029 A 
HETATM    6  C6  UNL     1     -33.491   6.693   3.577  1.00 20.00     0.027 A 
ENDROOT
BRANCH   6   7
HETATM    7  N8  UNL     1     -32.915   7.469   2.550  1.00 20.00    -0.394 N 
HETATM    8  C7  UNL     1     -31.773   8.304   2.754  1.00 20.00     0.146 C 
HETATM    9  H17 UNL     1     -33.346   7.416   1.645  1.00 20.00     0.159 HD
ENDBRANCH   6   7
TORSDOF 1
ENDMDL
MODEL 3
REMARK VINA RESULT:      -4.4      1.551      3.718
REMARK  1 active torsions:
REMARK  status: ('A' for Active; 'I' for Inactive)
REMARK    1  A    between atoms: C6_6  and  N8_8 
ROOT
HETATM    1  C1  UNL     1     -32.008   8.107   3.110  1.00 20.00     0.000 A 
HETATM    2  C2  UNL     1     -32.627   7.188   2.263  1.00 20.00     0.002 A 
HETATM    3  C3  UNL     1     -32.381   8.178   4.453  1.00 20.00     0.002 A 
HETATM    4  C4  UNL     1     -33.618   6.340   2.758  1.00 20.00     0.029 A 
HETATM    5  C5  UNL     1     -33.371   7.331   4.948  1.00 20.00     0.029 A 
HETATM    6  C6  UNL     1     -33.990   6.411   4.101  1.00 20.00     0.027 A 
ENDROOT
BRANCH   6   7
HETATM    7  N8  UNL     1     -34.992   5.555   4.601  1.00 20.00    -0.394 N 
HETATM    8  C7  UNL     1     -34.769   4.650   5.686  1.00 20.00     0.146 C 
HETATM    9  H17 UNL     1     -35.890   5.599   4.158  1.00 20.00     0.159 HD
ENDBRANCH   6   7
TORSDOF 1
ENDMDL
MODEL 4
REMARK VINA RESULT:      -4.4      1.546      3.345
REMARK  1 active torsions:
REMARK  status: ('A' for Active; 'I' for Inactive)
REMARK    1  A    between atoms: C6_6  and  N8_8 
ROOT
HETATM    1  C1  UNL     1     -32.002   8.107   3.108  1.00 20.00     0.000 A 
HETATM    2  C2  UNL     1     -32.374   8.161   4.451  1.00 20.00     0.002 A 
HETATM    3  C3  UNL     1     -32.625   7.203   2.247  1.00 20.00     0.002 A 
HETATM    4  C4  UNL     1     -33.371   7.314   4.933  1.00 20.00     0.029 A 
HETATM    5  C5  UNL     1     -33.621   6.355   2.729  1.00 20.00     0.029 A 
HETATM    6  C6  UNL     1     -33.995   6.410   4.072  1.00 20.00     0.027 A 
ENDROOT
BRANCH   6   7
HETATM    7  N8  UNL     1     -35.003   5.553   4.559  1.00 20.00    -0.394 N 
HETATM    8  C7  UNL     1     -34.786   4.628   5.628  1.00 20.00     0.146 C 
HETATM    9  H17 UNL     1     -35.902   5.612   4.119  1.00 20.00     0.159 HD
ENDBRANCH   6   7
TORSDOF 1
ENDMDL
MODEL 5
REMARK VINA RESULT:      -4.1      1.241      2.452
REMARK  1 active torsions:
REMARK  status: ('A' for Active; 'I' for Inactive)
REMARK    1  A    between atoms: C6_6  and  N8_8 
ROOT
HETATM    1  C1  UNL     1     -34.086   6.986   6.267  1.00 20.00     0.000 A 
HETATM    2  C2  UNL     1     -34.681   5.778   5.907  1.00 20.00     0.002 A 
HETATM    3  C3  UNL     1     -33.348   7.708   5.327  1.00 20.00     0.002 A 
HETATM    4  C4  UNL     1     -34.540   5.290   4.608  1.00 20.00     0.029 A 
HETATM    5  C5  UNL     1     -33.207   7.221   4.029  1.00 20.00     0.029 A 
HETATM    6  C6  UNL     1     -33.803   6.012   3.668  1.00 20.00     0.027 A 
ENDROOT
BRANCH   6   7
HETATM    7  N8  UNL     1     -33.660   5.519   2.355  1.00 20.00    -0.394 N 
HETATM    8  C7  UNL     1     -32.903   4.347   2.043  1.00 20.00     0.146 C 
HETATM    9  H17 UNL     1     -34.117   6.033   1.625  1.00 20.00     0.159 HD
ENDBRANCH   6   7
TORSDOF 1
ENDMDL
MODEL 6
REMARK VINA RESULT:      -3.7     12.293     12.517
REMARK  1 active torsions:
REMARK  status: ('A' for Active; 'I' for Inactive)
REMARK    1  A    between atoms: C6_6  and  N8_8 
ROOT
HETATM    1  C1  UNL     1     -34.987  16.206  -3.028  1.00 20.00     0.000 A 
HETATM    2  C2  UNL     1     -33.643  16.043  -3.360  1.00 20.00     0.002 A 
HETATM    3  C3  UNL     1     -35.971  15.530  -3.752  1.00 20.00     0.002 A 
HETATM    4  C4  UNL     1     -33.280  15.203  -4.413  1.00 20.00     0.029 A 
HETATM    5  C5  UNL     1     -35.609  14.691  -4.804  1.00 20.00     0.029 A 
HETATM    6  C6  UNL     1     -34.264  14.527  -5.135  1.00 20.00     0.027 A 
ENDROOT
BRANCH   6   7
HETATM    7  N8  UNL     1     -33.898  13.679  -6.201  1.00 20.00    -0.394 N 
HETATM    8  C7  UNL     1     -34.807  13.296  -7.236  1.00 20.00     0.146 C 
HETATM    9  H17 UNL     1     -32.954  13.341  -6.209  1.00 20.00     0.159 HD
ENDBRANCH   6   7
TORSDOF 1
ENDMDL
MODEL 7
REMARK VINA RESULT:      -3.7     12.192     12.613
REMARK  1 active torsions:
REMARK  status: ('A' for Active; 'I' for Inactive)
REMARK    1  A    between atoms: C6_6  and  N8_8 
ROOT
HETATM    1  C1  UNL     1     -34.906  16.741  -1.764  1.00 20.00     0.000 A 
HETATM    2  C2  UNL     1     -35.383  17.233  -0.550  1.00 20.00     0.002 A 
HETATM    3  C3  UNL     1     -33.627  17.087  -2.203  1.00 20.00     0.002 A 
HETATM    4  C4  UNL     1     -34.583  18.070   0.227  1.00 20.00     0.029 A 
HETATM    5  C5  UNL     1     -32.827  17.924  -1.427  1.00 20.00     0.029 A 
HETATM    6  C6  UNL     1     -33.304  18.416  -0.212  1.00 20.00     0.027 A 
ENDROOT
BRANCH   6   7
HETATM    7  N8  UNL     1     -32.495  19.263   0.573  1.00 20.00    -0.394 N 
HETATM    8  C7  UNL     1     -31.296  18.818   1.212  1.00 20.00     0.146 C 
HETATM    9  H17 UNL     1     -32.795  20.214   0.672  1.00 20.00     0.159 HD
ENDBRANCH   6   7
TORSDOF 1
ENDMDL
MODEL 8
REMARK VINA RESULT:      -3.6     12.041     12.426
REMARK  1 active torsions:
REMARK  status: ('A' for Active; 'I' for Inactive)
REMARK    1  A    between atoms: C6_6  and  N8_8 
ROOT
HETATM    1  C1  UNL     1     -34.454  18.187   0.371  1.00 20.00     0.000 A 
HETATM    2  C2  UNL     1     -35.427  17.404  -0.250  1.00 20.00     0.002 A 
HETATM    3  C3  UNL     1     -33.215  18.376  -0.241  1.00 20.00     0.002 A 
HETATM    4  C4  UNL     1     -35.161  16.810  -1.484  1.00 20.00     0.029 A 
HETATM    5  C5  UNL     1     -32.949  17.783  -1.474  1.00 20.00     0.029 A 
HETATM    6  C6  UNL     1     -33.922  17.000  -2.096  1.00 20.00     0.027 A 
ENDROOT
BRANCH   6   7
HETATM    7  N8  UNL     1     -33.652  16.400  -3.343  1.00 20.00    -0.394 N 
HETATM    8  C7  UNL     1     -34.529  15.449  -3.953  1.00 20.00     0.146 C 
HETATM    9  H17 UNL     1     -32.801  16.667  -3.802  1.00 20.00     0.159 HD
ENDBRANCH   6   7
TORSDOF 1
ENDMDL
MODEL 9
REMARK VINA RESULT:      -3.6     12.042     12.407
REMARK  1 active torsions:
REMARK  status: ('A' for Active; 'I' for Inactive)
REMARK    1  A    between atoms: C6_6  and  N8_8 
ROOT
HETATM    1  C1  UNL     1     -34.376  18.264   0.379  1.00 20.00     0.000 A 
HETATM    2  C2  UNL     1     -33.158  18.440  -0.278  1.00 20.00     0.002 A 
HETATM    3  C3  UNL     1     -35.366  17.462  -0.190  1.00 20.00     0.002 A 
HETATM    4  C4  UNL     1     -32.929  17.812  -1.502  1.00 20.00     0.029 A 
HETATM    5  C5  UNL     1     -35.138  16.835  -1.414  1.00 20.00     0.029 A 
HETATM    6  C6  UNL     1     -33.919  17.010  -2.070  1.00 20.00     0.027 A 
ENDROOT
BRANCH   6   7
HETATM    7  N8  UNL     1     -33.688  16.376  -3.308  1.00 20.00    -0.394 N 
HETATM    8  C7  UNL     1     -34.634  15.493  -3.918  1.00 20.00     0.146 C 
HETATM    9  H17 UNL     1     -32.814  16.567  -3.761  1.00 20.00     0.159 HD
ENDBRANCH   6   7
TORSDOF 1
ENDMDL
