MODEL 1
REMARK VINA RESULT:      -6.6      0.000      0.000
REMARK  1 active torsions:
REMARK  status: ('A' for Active; 'I' for Inactive)
REMARK    1  A    between atoms: C6_6  and  C8_8 
ROOT
HETATM    1  C1  UNL     1     -34.651   5.142   5.591  1.00 20.00     0.000 A 
HETATM    2  C2  UNL     1     -34.459   4.625   4.310  1.00 20.00     0.001 A 
HETATM    3  C3  UNL     1     -34.248   6.444   5.886  1.00 20.00     0.001 A 
HETATM    4  C4  UNL     1     -33.863   5.410   3.324  1.00 20.00     0.011 A 
HETATM    5  C5  UNL     1     -33.652   7.230   4.899  1.00 20.00     0.011 A 
HETATM    6  C6  UNL     1     -33.459   6.713   3.618  1.00 20.00    -0.037 A 
ENDROOT
BRANCH   6   7
HETATM    7  C8  UNL     1     -32.837   7.532   2.590  1.00 20.00     0.001 C 
HETATM    8  C7  UNL     1     -31.761   8.280   2.795  1.00 20.00     0.012 C 
ENDBRANCH   6   7
TORSDOF 1
ENDMDL
MODEL 2
REMARK VINA RESULT:      -6.6      0.002      1.708
REMARK  1 active torsions:
REMARK  status: ('A' for Active; 'I' for Inactive)
REMARK    1  A    between atoms: C6_6  and  C8_8 
ROOT
HETATM    1  C1  UNL     1     -34.652   5.140   5.590  1.00 20.00     0.000 A 
HETATM    2  C2  UNL     1     -34.249   6.442   5.886  1.00 20.00     0.001 A 
HETATM    3  C3  UNL     1     -34.458   4.624   4.310  1.00 20.00     0.001 A 
HETATM    4  C4  UNL     1     -33.653   7.229   4.901  1.00 20.00     0.011 A 
HETATM    5  C5  UNL     1     -33.861   5.411   3.324  1.00 20.00     0.011 A 
HETATM    6  C6  UNL     1     -33.459   6.713   3.619  1.00 20.00    -0.037 A 
ENDROOT
BRANCH   6   7
HETATM    7  C8  UNL     1     -32.838   7.533   2.591  1.00 20.00     0.001 C 
HETATM    8  C7  UNL     1     -31.759   8.277   2.794  1.00 20.00     0.012 C 
ENDBRANCH   6   7
TORSDOF 1
ENDMDL
MODEL 3
REMARK VINA RESULT:      -5.3      0.923      3.375
REMARK  1 active torsions:
REMARK  status: ('A' for Active; 'I' for Inactive)
REMARK    1  A    between atoms: C6_6  and  C8_8 
ROOT
HETATM    1  C1  UNL     1     -31.849   8.240   3.135  1.00 20.00     0.000 A 
HETATM    2  C2  UNL     1     -32.477   7.360   2.256  1.00 20.00     0.001 A 
HETATM    3  C3  UNL     1     -32.212   8.259   4.481  1.00 20.00     0.001 A 
HETATM    4  C4  UNL     1     -33.470   6.498   2.721  1.00 20.00     0.011 A 
HETATM    5  C5  UNL     1     -33.205   7.397   4.948  1.00 20.00     0.011 A 
HETATM    6  C6  UNL     1     -33.834   6.516   4.068  1.00 20.00    -0.037 A 
ENDROOT
BRANCH   6   7
HETATM    7  C8  UNL     1     -34.869   5.618   4.555  1.00 20.00     0.001 C 
HETATM    8  C7  UNL     1     -34.738   4.860   5.635  1.00 20.00     0.012 C 
ENDBRANCH   6   7
TORSDOF 1
ENDMDL
MODEL 4
REMARK VINA RESULT:      -5.3      0.922      3.740
REMARK  1 active torsions:
REMARK  status: ('A' for Active; 'I' for Inactive)
REMARK    1  A    between atoms: C6_6  and  C8_8 
ROOT
HETATM    1  C1  UNL     1     -31.850   8.242   3.133  1.00 20.00     0.000 A 
HETATM    2  C2  UNL     1     -32.213   8.261   4.480  1.00 20.00     0.001 A 
HETATM    3  C3  UNL     1     -32.478   7.361   2.255  1.00 20.00     0.001 A 
HETATM    4  C4  UNL     1     -33.205   7.399   4.947  1.00 20.00     0.011 A 
HETATM    5  C5  UNL     1     -33.470   6.498   2.722  1.00 20.00     0.011 A 
HETATM    6  C6  UNL     1     -33.833   6.517   4.068  1.00 20.00    -0.037 A 
ENDROOT
BRANCH   6   7
HETATM    7  C8  UNL     1     -34.867   5.618   4.555  1.00 20.00     0.001 C 
HETATM    8  C7  UNL     1     -34.737   4.862   5.637  1.00 20.00     0.012 C 
ENDBRANCH   6   7
TORSDOF 1
ENDMDL
MODEL 5
REMARK VINA RESULT:      -5.0      1.102      2.166
REMARK  1 active torsions:
REMARK  status: ('A' for Active; 'I' for Inactive)
REMARK    1  A    between atoms: C6_6  and  C8_8 
ROOT
HETATM    1  C1  UNL     1     -34.058   7.044   6.223  1.00 20.00     0.000 A 
HETATM    2  C2  UNL     1     -34.641   5.820   5.892  1.00 20.00     0.001 A 
HETATM    3  C3  UNL     1     -33.312   7.740   5.273  1.00 20.00     0.001 A 
HETATM    4  C4  UNL     1     -34.477   5.293   4.612  1.00 20.00     0.011 A 
HETATM    5  C5  UNL     1     -33.148   7.213   3.992  1.00 20.00     0.011 A 
HETATM    6  C6  UNL     1     -33.730   5.989   3.661  1.00 20.00    -0.037 A 
ENDROOT
BRANCH   6   7
HETATM    7  C8  UNL     1     -33.558   5.440   2.325  1.00 20.00     0.001 C 
HETATM    8  C7  UNL     1     -32.907   4.314   2.070  1.00 20.00     0.012 C 
ENDBRANCH   6   7
TORSDOF 1
ENDMDL
MODEL 6
REMARK VINA RESULT:      -5.0      1.117      2.462
REMARK  1 active torsions:
REMARK  status: ('A' for Active; 'I' for Inactive)
REMARK    1  A    between atoms: C6_6  and  C8_8 
ROOT
HETATM    1  C1  UNL     1     -34.074   7.041   6.248  1.00 20.00     0.000 A 
HETATM    2  C2  UNL     1     -33.323   7.739   5.302  1.00 20.00     0.001 A 
HETATM    3  C3  UNL     1     -34.663   5.823   5.909  1.00 20.00     0.001 A 
HETATM    4  C4  UNL     1     -33.161   7.219   4.018  1.00 20.00     0.011 A 
HETATM    5  C5  UNL     1     -34.500   5.302   4.625  1.00 20.00     0.011 A 
HETATM    6  C6  UNL     1     -33.749   6.001   3.679  1.00 20.00    -0.037 A 
ENDROOT
BRANCH   6   7
HETATM    7  C8  UNL     1     -33.581   5.458   2.340  1.00 20.00     0.001 C 
HETATM    8  C7  UNL     1     -32.912   4.344   2.076  1.00 20.00     0.012 C 
ENDBRANCH   6   7
TORSDOF 1
ENDMDL
MODEL 7
REMARK VINA RESULT:      -4.3      1.255      2.920
REMARK  1 active torsions:
REMARK  status: ('A' for Active; 'I' for Inactive)
REMARK    1  A    between atoms: C6_6  and  C8_8 
ROOT
HETATM    1  C1  UNL     1     -33.428   4.466   2.611  1.00 20.00     0.000 A 
HETATM    2  C2  UNL     1     -33.116   5.825   2.576  1.00 20.00     0.001 A 
HETATM    3  C3  UNL     1     -34.010   3.914   3.751  1.00 20.00     0.001 A 
HETATM    4  C4  UNL     1     -33.385   6.632   3.681  1.00 20.00     0.011 A 
HETATM    5  C5  UNL     1     -34.280   4.721   4.857  1.00 20.00     0.011 A 
HETATM    6  C6  UNL     1     -33.967   6.080   4.822  1.00 20.00    -0.037 A 
ENDROOT
BRANCH   6   7
HETATM    7  C8  UNL     1     -34.248   6.920   5.975  1.00 20.00     0.001 C 
HETATM    8  C7  UNL     1     -33.501   7.957   6.331  1.00 20.00     0.012 C 
ENDBRANCH   6   7
TORSDOF 1
ENDMDL
MODEL 8
REMARK VINA RESULT:      -4.2     11.928     12.396
REMARK  1 active torsions:
REMARK  status: ('A' for Active; 'I' for Inactive)
REMARK    1  A    between atoms: C6_6  and  C8_8 
ROOT
HETATM    1  C1  UNL     1     -34.477  18.265   0.499  1.00 20.00     0.000 A 
HETATM    2  C2  UNL     1     -33.251  18.438  -0.144  1.00 20.00     0.001 A 
HETATM    3  C3  UNL     1     -35.463  17.470  -0.083  1.00 20.00     0.001 A 
HETATM    4  C4  UNL     1     -33.012  17.815  -1.369  1.00 20.00     0.011 A 
HETATM    5  C5  UNL     1     -35.225  16.847  -1.308  1.00 20.00     0.011 A 
HETATM    6  C6  UNL     1     -33.999  17.019  -1.951  1.00 20.00    -0.037 A 
ENDROOT
BRANCH   6   7
HETATM    7  C8  UNL     1     -33.751  16.369  -3.228  1.00 20.00     0.001 C 
HETATM    8  C7  UNL     1     -34.484  15.370  -3.701  1.00 20.00     0.012 C 
ENDBRANCH   6   7
TORSDOF 1
ENDMDL
MODEL 9
REMARK VINA RESULT:      -4.2     11.918     12.372
REMARK  1 active torsions:
REMARK  status: ('A' for Active; 'I' for Inactive)
REMARK    1  A    between atoms: C6_6  and  C8_8 
ROOT
HETATM    1  C1  UNL     1     -34.401  18.314   0.495  1.00 20.00     0.000 A 
HETATM    2  C2  UNL     1     -35.407  17.494  -0.014  1.00 20.00     0.001 A 
HETATM    3  C3  UNL     1     -33.214  18.485  -0.217  1.00 20.00     0.001 A 
HETATM    4  C4  UNL     1     -35.228  16.844  -1.235  1.00 20.00     0.011 A 
HETATM    5  C5  UNL     1     -33.034  17.835  -1.438  1.00 20.00     0.011 A 
HETATM    6  C6  UNL     1     -34.041  17.015  -1.947  1.00 20.00    -0.037 A 
ENDROOT
BRANCH   6   7
HETATM    7  C8  UNL     1     -33.852  16.337  -3.220  1.00 20.00     0.001 C 
HETATM    8  C7  UNL     1     -34.648  15.375  -3.668  1.00 20.00     0.012 C 
ENDBRANCH   6   7
TORSDOF 1
ENDMDL
