MODEL 1
REMARK VINA RESULT:      -7.0      0.000      0.000
REMARK  5 active torsions:
REMARK  status: ('A' for Active; 'I' for Inactive)
REMARK    1  A    between atoms: C6_6  and  C8_8 
REMARK    2  A    between atoms: C8_8  and  C10_10 
REMARK    3  A    between atoms: C9_9  and  C11_11 
REMARK    4  A    between atoms: C10_10  and  C12_12 
REMARK    5  A    between atoms: C11_11  and  C12_12 
ROOT
HETATM    1  C1  UNL     1     -34.625   5.516   5.934  1.00 20.00     0.000 A 
HETATM    2  C2  UNL     1     -34.069   6.796   5.935  1.00 20.00     0.001 A 
HETATM    3  C3  UNL     1     -34.628   4.759   4.763  1.00 20.00     0.001 A 
HETATM    4  C4  UNL     1     -33.515   7.317   4.767  1.00 20.00     0.007 A 
HETATM    5  C5  UNL     1     -34.073   5.280   3.594  1.00 20.00     0.007 A 
HETATM    6  C6  UNL     1     -33.517   6.559   3.596  1.00 20.00    -0.058 A 
ENDROOT
BRANCH   6   7
HETATM    7  C8  UNL     1     -32.922   7.117   2.340  1.00 20.00     0.038 C 
BRANCH   7   8
HETATM    8  C10 UNL     1     -31.901   8.218   2.637  1.00 20.00     0.005 C 
BRANCH   8   9
HETATM    9  C12 UNL     1     -31.571   9.022   1.378  1.00 20.00     0.000 C 
BRANCH   9  10
HETATM   10  C11 UNL     1     -32.599  10.128   1.138  1.00 20.00    -0.000 C 
BRANCH  10  11
HETATM   11  C9  UNL     1     -33.334   9.926  -0.187  1.00 20.00    -0.005 C 
HETATM   12  C7  UNL     1     -32.751   8.764  -0.975  1.00 20.00     0.005 C 
ENDBRANCH  10  11
ENDBRANCH   9  10
ENDBRANCH   8   9
ENDBRANCH   7   8
ENDBRANCH   6   7
TORSDOF 5
ENDMDL
MODEL 2
REMARK VINA RESULT:      -7.0      0.056      1.396
REMARK  5 active torsions:
REMARK  status: ('A' for Active; 'I' for Inactive)
REMARK    1  A    between atoms: C6_6  and  C8_8 
REMARK    2  A    between atoms: C8_8  and  C10_10 
REMARK    3  A    between atoms: C9_9  and  C11_11 
REMARK    4  A    between atoms: C10_10  and  C12_12 
REMARK    5  A    between atoms: C11_11  and  C12_12 
ROOT
HETATM    1  C1  UNL     1     -34.636   5.468   5.935  1.00 20.00     0.000 A 
HETATM    2  C2  UNL     1     -34.622   4.716   4.760  1.00 20.00     0.001 A 
HETATM    3  C3  UNL     1     -34.119   6.764   5.938  1.00 20.00     0.001 A 
HETATM    4  C4  UNL     1     -34.094   5.259   3.589  1.00 20.00     0.007 A 
HETATM    5  C5  UNL     1     -33.591   7.308   4.767  1.00 20.00     0.007 A 
HETATM    6  C6  UNL     1     -33.578   6.556   3.593  1.00 20.00    -0.058 A 
ENDROOT
BRANCH   6   7
HETATM    7  C8  UNL     1     -33.011   7.140   2.337  1.00 20.00     0.038 C 
BRANCH   7   8
HETATM    8  C10 UNL     1     -31.921   8.173   2.633  1.00 20.00     0.005 C 
BRANCH   8   9
HETATM    9  C12 UNL     1     -31.605   9.016   1.397  1.00 20.00     0.000 C 
BRANCH   9  10
HETATM   10  C11 UNL     1     -32.665  10.095   1.173  1.00 20.00    -0.000 C 
BRANCH  10  11
HETATM   11  C9  UNL     1     -33.327   9.948  -0.197  1.00 20.00    -0.005 C 
HETATM   12  C7  UNL     1     -32.746   8.776  -0.973  1.00 20.00     0.005 C 
ENDBRANCH  10  11
ENDBRANCH   9  10
ENDBRANCH   8   9
ENDBRANCH   7   8
ENDBRANCH   6   7
TORSDOF 5
ENDMDL
MODEL 3
REMARK VINA RESULT:      -5.7      0.920      5.671
REMARK  5 active torsions:
REMARK  status: ('A' for Active; 'I' for Inactive)
REMARK    1  A    between atoms: C6_6  and  C8_8 
REMARK    2  A    between atoms: C8_8  and  C10_10 
REMARK    3  A    between atoms: C9_9  and  C11_11 
REMARK    4  A    between atoms: C10_10  and  C12_12 
REMARK    5  A    between atoms: C11_11  and  C12_12 
ROOT
HETATM    1  C1  UNL     1     -32.782  10.359   0.056  1.00 20.00     0.000 A 
HETATM    2  C2  UNL     1     -32.876   9.022  -0.332  1.00 20.00     0.001 A 
HETATM    3  C3  UNL     1     -32.504  10.681   1.385  1.00 20.00     0.001 A 
HETATM    4  C4  UNL     1     -32.692   8.008   0.607  1.00 20.00     0.007 A 
HETATM    5  C5  UNL     1     -32.319   9.666   2.325  1.00 20.00     0.007 A 
HETATM    6  C6  UNL     1     -32.413   8.330   1.936  1.00 20.00    -0.058 A 
ENDROOT
BRANCH   6   7
HETATM    7  C8  UNL     1     -32.215   7.242   2.946  1.00 20.00     0.038 C 
BRANCH   7   8
HETATM    8  C10 UNL     1     -33.173   6.071   2.713  1.00 20.00     0.005 C 
BRANCH   8   9
HETATM    9  C12 UNL     1     -34.489   6.274   3.466  1.00 20.00     0.000 C 
BRANCH   9  10
HETATM   10  C11 UNL     1     -34.755   5.125   4.441  1.00 20.00    -0.000 C 
BRANCH  10  11
HETATM   11  C9  UNL     1     -34.478   5.546   5.884  1.00 20.00    -0.005 C 
HETATM   12  C7  UNL     1     -34.009   6.991   5.963  1.00 20.00     0.005 C 
ENDBRANCH  10  11
ENDBRANCH   9  10
ENDBRANCH   8   9
ENDBRANCH   7   8
ENDBRANCH   6   7
TORSDOF 5
ENDMDL
MODEL 4
REMARK VINA RESULT:      -5.6      1.029      5.518
REMARK  5 active torsions:
REMARK  status: ('A' for Active; 'I' for Inactive)
REMARK    1  A    between atoms: C6_6  and  C8_8 
REMARK    2  A    between atoms: C8_8  and  C10_10 
REMARK    3  A    between atoms: C9_9  and  C11_11 
REMARK    4  A    between atoms: C10_10  and  C12_12 
REMARK    5  A    between atoms: C11_11  and  C12_12 
ROOT
HETATM    1  C1  UNL     1     -32.243   9.975  -0.015  1.00 20.00     0.000 A 
HETATM    2  C2  UNL     1     -32.959  10.481   1.071  1.00 20.00     0.001 A 
HETATM    3  C3  UNL     1     -31.534   8.781   0.113  1.00 20.00     0.001 A 
HETATM    4  C4  UNL     1     -32.966   9.792   2.283  1.00 20.00     0.007 A 
HETATM    5  C5  UNL     1     -31.542   8.092   1.326  1.00 20.00     0.007 A 
HETATM    6  C6  UNL     1     -32.258   8.597   2.411  1.00 20.00    -0.058 A 
ENDROOT
BRANCH   6   7
HETATM    7  C8  UNL     1     -32.265   7.857   3.712  1.00 20.00     0.038 C 
BRANCH   7   8
HETATM    8  C10 UNL     1     -33.689   7.604   4.213  1.00 20.00     0.005 C 
BRANCH   8   9
HETATM    9  C12 UNL     1     -33.697   7.235   5.697  1.00 20.00     0.000 C 
BRANCH   9  10
HETATM   10  C11 UNL     1     -34.475   5.942   5.946  1.00 20.00    -0.000 C 
BRANCH  10  11
HETATM   11  C9  UNL     1     -34.935   5.309   4.633  1.00 20.00    -0.005 C 
HETATM   12  C7  UNL     1     -34.177   4.024   4.339  1.00 20.00     0.005 C 
ENDBRANCH  10  11
ENDBRANCH   9  10
ENDBRANCH   8   9
ENDBRANCH   7   8
ENDBRANCH   6   7
TORSDOF 5
ENDMDL
MODEL 5
REMARK VINA RESULT:      -4.9     10.359     11.046
REMARK  5 active torsions:
REMARK  status: ('A' for Active; 'I' for Inactive)
REMARK    1  A    between atoms: C6_6  and  C8_8 
REMARK    2  A    between atoms: C8_8  and  C10_10 
REMARK    3  A    between atoms: C9_9  and  C11_11 
REMARK    4  A    between atoms: C10_10  and  C12_12 
REMARK    5  A    between atoms: C11_11  and  C12_12 
ROOT
HETATM    1  C1  UNL     1     -33.897  18.412   0.389  1.00 20.00     0.000 A 
HETATM    2  C2  UNL     1     -35.139  17.789   0.263  1.00 20.00     0.001 A 
HETATM    3  C3  UNL     1     -32.948  18.286  -0.626  1.00 20.00     0.001 A 
HETATM    4  C4  UNL     1     -35.432  17.041  -0.877  1.00 20.00     0.007 A 
HETATM    5  C5  UNL     1     -33.241  17.538  -1.766  1.00 20.00     0.007 A 
HETATM    6  C6  UNL     1     -34.483  16.915  -1.892  1.00 20.00    -0.058 A 
ENDROOT
BRANCH   6   7
HETATM    7  C8  UNL     1     -34.796  16.112  -3.116  1.00 20.00     0.038 C 
BRANCH   7   8
HETATM    8  C10 UNL     1     -33.525  15.691  -3.859  1.00 20.00     0.005 C 
BRANCH   8   9
HETATM    9  C12 UNL     1     -33.697  14.321  -4.517  1.00 20.00     0.000 C 
BRANCH   9  10
HETATM   10  C11 UNL     1     -35.165  13.892  -4.537  1.00 20.00    -0.000 C 
BRANCH  10  11
HETATM   11  C9  UNL     1     -35.623  13.545  -5.953  1.00 20.00    -0.005 C 
HETATM   12  C7  UNL     1     -34.484  13.666  -6.953  1.00 20.00     0.005 C 
ENDBRANCH  10  11
ENDBRANCH   9  10
ENDBRANCH   8   9
ENDBRANCH   7   8
ENDBRANCH   6   7
TORSDOF 5
ENDMDL
MODEL 6
REMARK VINA RESULT:      -4.8     10.224     11.109
REMARK  5 active torsions:
REMARK  status: ('A' for Active; 'I' for Inactive)
REMARK    1  A    between atoms: C6_6  and  C8_8 
REMARK    2  A    between atoms: C8_8  and  C10_10 
REMARK    3  A    between atoms: C9_9  and  C11_11 
REMARK    4  A    between atoms: C10_10  and  C12_12 
REMARK    5  A    between atoms: C11_11  and  C12_12 
ROOT
HETATM    1  C1  UNL     1     -33.510  18.643   0.471  1.00 20.00     0.000 A 
HETATM    2  C2  UNL     1     -32.636  18.438  -0.597  1.00 20.00     0.001 A 
HETATM    3  C3  UNL     1     -34.776  18.056   0.458  1.00 20.00     0.001 A 
HETATM    4  C4  UNL     1     -33.027  17.647  -1.677  1.00 20.00     0.007 A 
HETATM    5  C5  UNL     1     -35.167  17.264  -0.622  1.00 20.00     0.007 A 
HETATM    6  C6  UNL     1     -34.293  17.059  -1.689  1.00 20.00    -0.058 A 
ENDROOT
BRANCH   6   7
HETATM    7  C8  UNL     1     -34.713  16.209  -2.848  1.00 20.00     0.038 C 
BRANCH   7   8
HETATM    8  C10 UNL     1     -33.617  16.118  -3.912  1.00 20.00     0.005 C 
BRANCH   8   9
HETATM    9  C12 UNL     1     -33.473  14.688  -4.437  1.00 20.00     0.000 C 
BRANCH   9  10
HETATM   10  C11 UNL     1     -34.786  13.914  -4.313  1.00 20.00    -0.000 C 
BRANCH  10  11
HETATM   11  C9  UNL     1     -35.489  13.792  -5.665  1.00 20.00    -0.005 C 
HETATM   12  C7  UNL     1     -34.496  13.851  -6.816  1.00 20.00     0.005 C 
ENDBRANCH  10  11
ENDBRANCH   9  10
ENDBRANCH   8   9
ENDBRANCH   7   8
ENDBRANCH   6   7
TORSDOF 5
ENDMDL
MODEL 7
REMARK VINA RESULT:      -4.5     10.470     11.209
REMARK  5 active torsions:
REMARK  status: ('A' for Active; 'I' for Inactive)
REMARK    1  A    between atoms: C6_6  and  C8_8 
REMARK    2  A    between atoms: C8_8  and  C10_10 
REMARK    3  A    between atoms: C9_9  and  C11_11 
REMARK    4  A    between atoms: C10_10  and  C12_12 
REMARK    5  A    between atoms: C11_11  and  C12_12 
ROOT
HETATM    1  C1  UNL     1     -34.538  17.983   0.097  1.00 20.00     0.000 A 
HETATM    2  C2  UNL     1     -33.285  18.223  -0.468  1.00 20.00     0.001 A 
HETATM    3  C3  UNL     1     -35.489  17.242  -0.605  1.00 20.00     0.001 A 
HETATM    4  C4  UNL     1     -32.983  17.722  -1.733  1.00 20.00     0.007 A 
HETATM    5  C5  UNL     1     -35.186  16.740  -1.871  1.00 20.00     0.007 A 
HETATM    6  C6  UNL     1     -33.933  16.980  -2.436  1.00 20.00    -0.058 A 
ENDROOT
BRANCH   6   7
HETATM    7  C8  UNL     1     -33.610  16.442  -3.795  1.00 20.00     0.038 C 
BRANCH   7   8
HETATM    8  C10 UNL     1     -33.840  14.930  -3.875  1.00 20.00     0.005 C 
BRANCH   8   9
HETATM    9  C12 UNL     1     -34.013  14.473  -5.325  1.00 20.00     0.000 C 
BRANCH   9  10
HETATM   10  C11 UNL     1     -35.400  14.833  -5.860  1.00 20.00    -0.000 C 
BRANCH  10  11
HETATM   11  C9  UNL     1     -36.500  14.121  -5.075  1.00 20.00    -0.005 C 
HETATM   12  C7  UNL     1     -37.482  15.112  -4.469  1.00 20.00     0.005 C 
ENDBRANCH  10  11
ENDBRANCH   9  10
ENDBRANCH   8   9
ENDBRANCH   7   8
ENDBRANCH   6   7
TORSDOF 5
ENDMDL
MODEL 8
REMARK VINA RESULT:      -4.4     10.681     11.764
REMARK  5 active torsions:
REMARK  status: ('A' for Active; 'I' for Inactive)
REMARK    1  A    between atoms: C6_6  and  C8_8 
REMARK    2  A    between atoms: C8_8  and  C10_10 
REMARK    3  A    between atoms: C9_9  and  C11_11 
REMARK    4  A    between atoms: C10_10  and  C12_12 
REMARK    5  A    between atoms: C11_11  and  C12_12 
ROOT
HETATM    1  C1  UNL     1     -35.045  13.626  -6.823  1.00 20.00     0.000 A 
HETATM    2  C2  UNL     1     -34.025  14.556  -7.028  1.00 20.00     0.001 A 
HETATM    3  C3  UNL     1     -35.650  13.519  -5.571  1.00 20.00     0.001 A 
HETATM    4  C4  UNL     1     -33.611  15.379  -5.981  1.00 20.00     0.007 A 
HETATM    5  C5  UNL     1     -35.236  14.343  -4.524  1.00 20.00     0.007 A 
HETATM    6  C6  UNL     1     -34.217  15.272  -4.728  1.00 20.00    -0.058 A 
ENDROOT
BRANCH   6   7
HETATM    7  C8  UNL     1     -33.773  16.155  -3.604  1.00 20.00     0.038 C 
BRANCH   7   8
HETATM    8  C10 UNL     1     -34.839  16.259  -2.510  1.00 20.00     0.005 C 
BRANCH   8   9
HETATM    9  C12 UNL     1     -34.417  17.244  -1.418  1.00 20.00     0.000 C 
BRANCH   9  10
HETATM   10  C11 UNL     1     -33.061  17.878  -1.732  1.00 20.00    -0.000 C 
BRANCH  10  11
HETATM   11  C9  UNL     1     -32.380  18.391  -0.464  1.00 20.00    -0.005 C 
HETATM   12  C7  UNL     1     -33.392  18.674   0.636  1.00 20.00     0.005 C 
ENDBRANCH  10  11
ENDBRANCH   9  10
ENDBRANCH   8   9
ENDBRANCH   7   8
ENDBRANCH   6   7
TORSDOF 5
ENDMDL
MODEL 9
REMARK VINA RESULT:      -4.3      1.520      5.033
REMARK  5 active torsions:
REMARK  status: ('A' for Active; 'I' for Inactive)
REMARK    1  A    between atoms: C6_6  and  C8_8 
REMARK    2  A    between atoms: C8_8  and  C10_10 
REMARK    3  A    between atoms: C9_9  and  C11_11 
REMARK    4  A    between atoms: C10_10  and  C12_12 
REMARK    5  A    between atoms: C11_11  and  C12_12 
ROOT
HETATM    1  C1  UNL     1     -31.833   8.381   1.805  1.00 20.00     0.000 A 
HETATM    2  C2  UNL     1     -33.195   8.078   1.776  1.00 20.00     0.001 A 
HETATM    3  C3  UNL     1     -31.151   8.405   3.022  1.00 20.00     0.001 A 
HETATM    4  C4  UNL     1     -33.874   7.798   2.961  1.00 20.00     0.007 A 
HETATM    5  C5  UNL     1     -31.830   8.124   4.208  1.00 20.00     0.007 A 
HETATM    6  C6  UNL     1     -33.191   7.821   4.178  1.00 20.00    -0.058 A 
ENDROOT
BRANCH   6   7
HETATM    7  C8  UNL     1     -33.918   7.521   5.452  1.00 20.00     0.038 C 
BRANCH   7   8
HETATM    8  C10 UNL     1     -33.549   6.142   6.004  1.00 20.00     0.005 C 
BRANCH   8   9
HETATM    9  C12 UNL     1     -34.710   5.157   5.856  1.00 20.00     0.000 C 
BRANCH   9  10
HETATM   10  C11 UNL     1     -34.930   4.771   4.392  1.00 20.00    -0.000 C 
BRANCH  10  11
HETATM   11  C9  UNL     1     -33.798   3.882   3.876  1.00 20.00    -0.005 C 
HETATM   12  C7  UNL     1     -33.107   4.504   2.673  1.00 20.00     0.005 C 
ENDBRANCH  10  11
ENDBRANCH   9  10
ENDBRANCH   8   9
ENDBRANCH   7   8
ENDBRANCH   6   7
TORSDOF 5
ENDMDL
