MODEL 1
REMARK VINA RESULT:      -5.0      0.000      0.000
REMARK  1 active torsions:
REMARK  status: ('A' for Active; 'I' for Inactive)
REMARK    1  A    between atoms: C4_4  and  C6_6 
ROOT
HETATM    1  C1  UNL     1     -34.623   5.379   5.598  1.00 20.00     0.027 A 
HETATM    2  C2  UNL     1     -34.123   6.618   5.130  1.00 20.00     0.034 A 
HETATM    3  C3  UNL     1     -34.478   4.492   4.557  1.00 20.00     0.142 A 
HETATM    4  C4  UNL     1     -33.707   6.398   3.838  1.00 20.00     0.052 A 
HETATM    5  O7  UNL     1     -33.921   5.105   3.480  1.00 20.00    -0.327 OA
ENDROOT
BRANCH   4   6
HETATM    6  C6  UNL     1     -33.102   7.265   2.816  1.00 20.00     0.060 C 
HETATM    7  C5  UNL     1     -31.847   7.997   3.313  1.00 20.00     0.012 C 
ENDBRANCH   4   6
TORSDOF 1
ENDMDL
MODEL 2
REMARK VINA RESULT:      -4.8      1.258      1.612
REMARK  1 active torsions:
REMARK  status: ('A' for Active; 'I' for Inactive)
REMARK    1  A    between atoms: C4_4  and  C6_6 
ROOT
HETATM    1  C1  UNL     1     -34.725   5.755   5.375  1.00 20.00     0.027 A 
HETATM    2  C2  UNL     1     -34.425   5.722   3.991  1.00 20.00     0.034 A 
HETATM    3  C3  UNL     1     -34.010   6.809   5.894  1.00 20.00     0.142 A 
HETATM    4  C4  UNL     1     -33.550   6.759   3.765  1.00 20.00     0.052 A 
HETATM    5  O7  UNL     1     -33.291   7.425   4.920  1.00 20.00    -0.327 OA
ENDROOT
BRANCH   4   6
HETATM    6  C6  UNL     1     -32.873   7.256   2.559  1.00 20.00     0.060 C 
HETATM    7  C5  UNL     1     -31.767   8.277   2.867  1.00 20.00     0.012 C 
ENDBRANCH   4   6
TORSDOF 1
ENDMDL
MODEL 3
REMARK VINA RESULT:      -4.7      1.511      3.563
REMARK  1 active torsions:
REMARK  status: ('A' for Active; 'I' for Inactive)
REMARK    1  A    between atoms: C4_4  and  C6_6 
ROOT
HETATM    1  C1  UNL     1     -32.527   7.522   2.373  1.00 20.00     0.027 A 
HETATM    2  C2  UNL     1     -33.549   6.875   3.109  1.00 20.00     0.034 A 
HETATM    3  C3  UNL     1     -31.750   8.180   3.297  1.00 20.00     0.142 A 
HETATM    4  C4  UNL     1     -33.322   7.184   4.430  1.00 20.00     0.052 A 
HETATM    5  O7  UNL     1     -32.228   7.980   4.553  1.00 20.00    -0.327 OA
ENDROOT
BRANCH   4   6
HETATM    6  C6  UNL     1     -34.014   6.830   5.678  1.00 20.00     0.060 C 
HETATM    7  C5  UNL     1     -34.589   5.406   5.665  1.00 20.00     0.012 C 
ENDBRANCH   4   6
TORSDOF 1
ENDMDL
MODEL 4
REMARK VINA RESULT:      -4.7      1.370      1.872
REMARK  1 active torsions:
REMARK  status: ('A' for Active; 'I' for Inactive)
REMARK    1  A    between atoms: C4_4  and  C6_6 
ROOT
HETATM    1  C1  UNL     1     -34.656   5.732   4.086  1.00 20.00     0.027 A 
HETATM    2  C2  UNL     1     -33.804   6.217   3.065  1.00 20.00     0.034 A 
HETATM    3  C3  UNL     1     -34.301   6.407   5.231  1.00 20.00     0.142 A 
HETATM    4  C4  UNL     1     -32.992   7.155   3.658  1.00 20.00     0.052 A 
HETATM    5  O7  UNL     1     -33.288   7.275   4.979  1.00 20.00    -0.327 OA
ENDROOT
BRANCH   4   6
HETATM    6  C6  UNL     1     -31.910   8.011   3.152  1.00 20.00     0.060 C 
HETATM    7  C5  UNL     1     -32.195   8.580   1.755  1.00 20.00     0.012 C 
ENDBRANCH   4   6
TORSDOF 1
ENDMDL
MODEL 5
REMARK VINA RESULT:      -4.4      1.012      3.151
REMARK  1 active torsions:
REMARK  status: ('A' for Active; 'I' for Inactive)
REMARK    1  A    between atoms: C4_4  and  C6_6 
ROOT
HETATM    1  C1  UNL     1     -32.206   8.047   3.697  1.00 20.00     0.027 A 
HETATM    2  C2  UNL     1     -33.073   7.512   4.681  1.00 20.00     0.034 A 
HETATM    3  C3  UNL     1     -32.528   7.411   2.520  1.00 20.00     0.142 A 
HETATM    4  C4  UNL     1     -33.862   6.590   4.034  1.00 20.00     0.052 A 
HETATM    5  O7  UNL     1     -33.536   6.521   2.717  1.00 20.00    -0.327 OA
ENDROOT
BRANCH   4   6
HETATM    6  C6  UNL     1     -34.945   5.703   4.484  1.00 20.00     0.060 C 
HETATM    7  C5  UNL     1     -34.516   4.232   4.582  1.00 20.00     0.012 C 
ENDBRANCH   4   6
TORSDOF 1
ENDMDL
MODEL 6
REMARK VINA RESULT:      -4.4      1.673      2.238
REMARK  1 active torsions:
REMARK  status: ('A' for Active; 'I' for Inactive)
REMARK    1  A    between atoms: C4_4  and  C6_6 
ROOT
HETATM    1  C1  UNL     1     -34.545   6.276   6.151  1.00 20.00     0.027 A 
HETATM    2  C2  UNL     1     -34.695   5.534   4.954  1.00 20.00     0.034 A 
HETATM    3  C3  UNL     1     -33.719   7.332   5.843  1.00 20.00     0.142 A 
HETATM    4  C4  UNL     1     -33.953   6.191   4.002  1.00 20.00     0.052 A 
HETATM    5  O7  UNL     1     -33.354   7.288   4.536  1.00 20.00    -0.327 OA
ENDROOT
BRANCH   4   6
HETATM    6  C6  UNL     1     -33.697   5.938   2.577  1.00 20.00     0.060 C 
HETATM    7  C5  UNL     1     -32.950   4.621   2.323  1.00 20.00     0.012 C 
ENDBRANCH   4   6
TORSDOF 1
ENDMDL
MODEL 7
REMARK VINA RESULT:      -3.9      1.998      2.931
REMARK  1 active torsions:
REMARK  status: ('A' for Active; 'I' for Inactive)
REMARK    1  A    between atoms: C4_4  and  C6_6 
ROOT
HETATM    1  C1  UNL     1     -32.752   7.431   4.375  1.00 20.00     0.027 A 
HETATM    2  C2  UNL     1     -31.885   8.302   3.670  1.00 20.00     0.034 A 
HETATM    3  C3  UNL     1     -33.558   6.846   3.426  1.00 20.00     0.142 A 
HETATM    4  C4  UNL     1     -32.224   8.185   2.342  1.00 20.00     0.052 A 
HETATM    5  O7  UNL     1     -33.243   7.301   2.185  1.00 20.00    -0.327 OA
ENDROOT
BRANCH   4   6
HETATM    6  C6  UNL     1     -31.711   8.813   1.116  1.00 20.00     0.060 C 
HETATM    7  C5  UNL     1     -32.490  10.073   0.714  1.00 20.00     0.012 C 
ENDBRANCH   4   6
TORSDOF 1
ENDMDL
MODEL 8
REMARK VINA RESULT:      -3.9      1.416      2.736
REMARK  1 active torsions:
REMARK  status: ('A' for Active; 'I' for Inactive)
REMARK    1  A    between atoms: C4_4  and  C6_6 
ROOT
HETATM    1  C1  UNL     1     -33.449   4.605   2.633  1.00 20.00     0.027 A 
HETATM    2  C2  UNL     1     -34.012   4.457   3.924  1.00 20.00     0.034 A 
HETATM    3  C3  UNL     1     -33.144   5.940   2.502  1.00 20.00     0.142 A 
HETATM    4  C4  UNL     1     -34.009   5.711   4.488  1.00 20.00     0.052 A 
HETATM    5  O7  UNL     1     -33.483   6.621   3.627  1.00 20.00    -0.327 OA
ENDROOT
BRANCH   4   6
HETATM    6  C6  UNL     1     -34.452   6.227   5.791  1.00 20.00     0.060 C 
HETATM    7  C5  UNL     1     -33.739   7.525   6.199  1.00 20.00     0.012 C 
ENDBRANCH   4   6
TORSDOF 1
ENDMDL
MODEL 9
REMARK VINA RESULT:      -3.7      2.805      4.894
REMARK  1 active torsions:
REMARK  status: ('A' for Active; 'I' for Inactive)
REMARK    1  A    between atoms: C4_4  and  C6_6 
ROOT
HETATM    1  C1  UNL     1     -31.917   9.671   0.250  1.00 20.00     0.027 A 
HETATM    2  C2  UNL     1     -31.531   8.490   0.928  1.00 20.00     0.034 A 
HETATM    3  C3  UNL     1     -32.875  10.267   1.037  1.00 20.00     0.142 A 
HETATM    4  C4  UNL     1     -32.280   8.449   2.081  1.00 20.00     0.052 A 
HETATM    5  O7  UNL     1     -33.102   9.528   2.154  1.00 20.00    -0.327 OA
ENDROOT
BRANCH   4   6
HETATM    6  C6  UNL     1     -32.353   7.497   3.198  1.00 20.00     0.060 C 
HETATM    7  C5  UNL     1     -33.178   6.244   2.868  1.00 20.00     0.012 C 
ENDBRANCH   4   6
TORSDOF 1
ENDMDL
