MODEL 1
REMARK VINA RESULT:      -5.8      0.000      0.000
REMARK  3 active torsions:
REMARK  status: ('A' for Active; 'I' for Inactive)
REMARK    1  A    between atoms: C5_5  and  O9_9 
REMARK    2  A    between atoms: C6_6  and  O10_10 
REMARK    3  A    between atoms: C8_8  and  O10_10 
ROOT
HETATM    1  C1  UNL     1     -34.599   5.489   5.676  1.00 20.00     0.003 A 
HETATM    2  C2  UNL     1     -34.143   6.807   5.730  1.00 20.00     0.003 A 
HETATM    3  C3  UNL     1     -34.371   4.719   4.536  1.00 20.00     0.039 A 
HETATM    4  C4  UNL     1     -33.459   7.353   4.643  1.00 20.00     0.039 A 
HETATM    5  C5  UNL     1     -33.687   5.265   3.450  1.00 20.00     0.099 A 
HETATM    6  C6  UNL     1     -33.231   6.582   3.504  1.00 20.00     0.101 A 
ENDROOT
BRANCH   6   7
HETATM    7  O10 UNL     1     -32.563   7.127   2.449  1.00 20.00    -0.349 OA
BRANCH   7   8
HETATM    8  C8  UNL     1     -31.932   8.388   2.663  1.00 20.00     0.171 C 
HETATM    9  C7  UNL     1     -32.245   9.301   1.498  1.00 20.00     0.034 C 
ENDBRANCH   7   8
ENDBRANCH   6   7
BRANCH   5  10
HETATM   10  O9  UNL     1     -33.472   4.502   2.342  1.00 20.00    -0.358 OA
HETATM   11  H20 UNL     1     -33.300   5.069   1.573  1.00 20.00     0.217 HD
ENDBRANCH   5  10
TORSDOF 3
ENDMDL
MODEL 2
REMARK VINA RESULT:      -5.7      1.397      2.276
REMARK  3 active torsions:
REMARK  status: ('A' for Active; 'I' for Inactive)
REMARK    1  A    between atoms: C5_5  and  O9_9 
REMARK    2  A    between atoms: C6_6  and  O10_10 
REMARK    3  A    between atoms: C8_8  and  O10_10 
ROOT
HETATM    1  C1  UNL     1     -34.439   4.321   4.722  1.00 20.00     0.003 A 
HETATM    2  C2  UNL     1     -33.993   4.480   3.409  1.00 20.00     0.003 A 
HETATM    3  C3  UNL     1     -34.432   5.408   5.596  1.00 20.00     0.039 A 
HETATM    4  C4  UNL     1     -33.541   5.725   2.972  1.00 20.00     0.039 A 
HETATM    5  C5  UNL     1     -33.980   6.652   5.159  1.00 20.00     0.099 A 
HETATM    6  C6  UNL     1     -33.535   6.811   3.847  1.00 20.00     0.101 A 
ENDROOT
BRANCH   6   7
HETATM    7  O10 UNL     1     -33.090   8.022   3.408  1.00 20.00    -0.349 OA
BRANCH   7   8
HETATM    8  C8  UNL     1     -31.876   8.035   2.660  1.00 20.00     0.171 C 
HETATM    9  C7  UNL     1     -32.076   8.862   1.409  1.00 20.00     0.034 C 
ENDBRANCH   7   8
ENDBRANCH   6   7
BRANCH   5  10
HETATM   10  O9  UNL     1     -33.977   7.705   6.024  1.00 20.00    -0.358 OA
HETATM   11  H20 UNL     1     -34.686   8.328   5.797  1.00 20.00     0.217 HD
ENDBRANCH   5  10
TORSDOF 3
ENDMDL
MODEL 3
REMARK VINA RESULT:      -4.5      1.771      4.129
REMARK  3 active torsions:
REMARK  status: ('A' for Active; 'I' for Inactive)
REMARK    1  A    between atoms: C5_5  and  O9_9 
REMARK    2  A    between atoms: C6_6  and  O10_10 
REMARK    3  A    between atoms: C8_8  and  O10_10 
ROOT
HETATM    1  C1  UNL     1     -31.762   8.206   3.137  1.00 20.00     0.003 A 
HETATM    2  C2  UNL     1     -32.466   7.440   2.207  1.00 20.00     0.003 A 
HETATM    3  C3  UNL     1     -32.158   8.219   4.474  1.00 20.00     0.039 A 
HETATM    4  C4  UNL     1     -33.567   6.687   2.616  1.00 20.00     0.039 A 
HETATM    5  C5  UNL     1     -33.259   7.465   4.882  1.00 20.00     0.099 A 
HETATM    6  C6  UNL     1     -33.963   6.700   3.953  1.00 20.00     0.101 A 
ENDROOT
BRANCH   6   7
HETATM    7  O10 UNL     1     -35.041   5.960   4.339  1.00 20.00    -0.349 OA
BRANCH   7   8
HETATM    8  C8  UNL     1     -34.785   4.810   5.143  1.00 20.00     0.171 C 
HETATM    9  C7  UNL     1     -34.034   3.789   4.317  1.00 20.00     0.034 C 
ENDBRANCH   7   8
ENDBRANCH   6   7
BRANCH   5  10
HETATM   10  O9  UNL     1     -33.637   7.487   6.191  1.00 20.00    -0.358 OA
HETATM   11  H20 UNL     1     -33.911   8.383   6.445  1.00 20.00     0.217 HD
ENDBRANCH   5  10
TORSDOF 3
ENDMDL
MODEL 4
REMARK VINA RESULT:      -4.4     11.301     12.036
REMARK  3 active torsions:
REMARK  status: ('A' for Active; 'I' for Inactive)
REMARK    1  A    between atoms: C5_5  and  O9_9 
REMARK    2  A    between atoms: C6_6  and  O10_10 
REMARK    3  A    between atoms: C8_8  and  O10_10 
ROOT
HETATM    1  C1  UNL     1     -34.925  16.271  -3.171  1.00 20.00     0.003 A 
HETATM    2  C2  UNL     1     -36.147  15.904  -3.735  1.00 20.00     0.003 A 
HETATM    3  C3  UNL     1     -33.780  15.521  -3.441  1.00 20.00     0.039 A 
HETATM    4  C4  UNL     1     -36.224  14.787  -4.568  1.00 20.00     0.039 A 
HETATM    5  C5  UNL     1     -33.857  14.405  -4.274  1.00 20.00     0.099 A 
HETATM    6  C6  UNL     1     -35.079  14.038  -4.837  1.00 20.00     0.101 A 
ENDROOT
BRANCH   6   7
HETATM    7  O10 UNL     1     -35.168  12.949  -5.652  1.00 20.00    -0.349 OA
BRANCH   7   8
HETATM    8  C8  UNL     1     -35.498  13.187  -7.018  1.00 20.00     0.171 C 
HETATM    9  C7  UNL     1     -34.323  13.851  -7.701  1.00 20.00     0.034 C 
ENDBRANCH   7   8
ENDBRANCH   6   7
BRANCH   5  10
HETATM   10  O9  UNL     1     -32.732  13.680  -4.528  1.00 20.00    -0.358 OA
HETATM   11  H20 UNL     1     -32.924  12.731  -4.468  1.00 20.00     0.217 HD
ENDBRANCH   5  10
TORSDOF 3
ENDMDL
MODEL 5
REMARK VINA RESULT:      -4.4      1.407      3.658
REMARK  3 active torsions:
REMARK  status: ('A' for Active; 'I' for Inactive)
REMARK    1  A    between atoms: C5_5  and  O9_9 
REMARK    2  A    between atoms: C6_6  and  O10_10 
REMARK    3  A    between atoms: C8_8  and  O10_10 
ROOT
HETATM    1  C1  UNL     1     -31.665   8.339   3.452  1.00 20.00     0.003 A 
HETATM    2  C2  UNL     1     -32.109   8.392   4.774  1.00 20.00     0.003 A 
HETATM    3  C3  UNL     1     -32.325   7.531   2.527  1.00 20.00     0.039 A 
HETATM    4  C4  UNL     1     -33.213   7.635   5.169  1.00 20.00     0.039 A 
HETATM    5  C5  UNL     1     -33.429   6.776   2.922  1.00 20.00     0.099 A 
HETATM    6  C6  UNL     1     -33.872   6.828   4.243  1.00 20.00     0.101 A 
ENDROOT
BRANCH   6   7
HETATM    7  O10 UNL     1     -34.948   6.093   4.643  1.00 20.00    -0.349 OA
BRANCH   7   8
HETATM    8  C8  UNL     1     -34.689   4.953   5.459  1.00 20.00     0.171 C 
HETATM    9  C7  UNL     1     -34.130   3.844   4.594  1.00 20.00     0.034 C 
ENDBRANCH   7   8
ENDBRANCH   6   7
BRANCH   5  10
HETATM   10  O9  UNL     1     -34.063   5.988   2.009  1.00 20.00    -0.358 OA
HETATM   11  H20 UNL     1     -34.563   5.289   2.459  1.00 20.00     0.217 HD
ENDBRANCH   5  10
TORSDOF 3
ENDMDL
MODEL 6
REMARK VINA RESULT:      -4.3     11.681     12.611
REMARK  3 active torsions:
REMARK  status: ('A' for Active; 'I' for Inactive)
REMARK    1  A    between atoms: C5_5  and  O9_9 
REMARK    2  A    between atoms: C6_6  and  O10_10 
REMARK    3  A    between atoms: C8_8  and  O10_10 
ROOT
HETATM    1  C1  UNL     1     -34.420  14.157  -7.918  1.00 20.00     0.003 A 
HETATM    2  C2  UNL     1     -33.711  15.206  -7.332  1.00 20.00     0.003 A 
HETATM    3  C3  UNL     1     -35.191  13.307  -7.124  1.00 20.00     0.039 A 
HETATM    4  C4  UNL     1     -33.773  15.404  -5.952  1.00 20.00     0.039 A 
HETATM    5  C5  UNL     1     -35.253  13.507  -5.745  1.00 20.00     0.099 A 
HETATM    6  C6  UNL     1     -34.544  14.555  -5.160  1.00 20.00     0.101 A 
ENDROOT
BRANCH   6   7
HETATM    7  O10 UNL     1     -34.595  14.759  -3.813  1.00 20.00    -0.349 OA
BRANCH   7   8
HETATM    8  C8  UNL     1     -35.216  15.961  -3.362  1.00 20.00     0.171 C 
HETATM    9  C7  UNL     1     -34.286  16.664  -2.398  1.00 20.00     0.034 C 
ENDBRANCH   7   8
ENDBRANCH   6   7
BRANCH   5  10
HETATM   10  O9  UNL     1     -36.008  12.669  -4.981  1.00 20.00    -0.358 OA
HETATM   11  H20 UNL     1     -35.720  12.709  -4.055  1.00 20.00     0.217 HD
ENDBRANCH   5  10
TORSDOF 3
ENDMDL
MODEL 7
REMARK VINA RESULT:      -4.0     12.056     12.422
REMARK  3 active torsions:
REMARK  status: ('A' for Active; 'I' for Inactive)
REMARK    1  A    between atoms: C5_5  and  O9_9 
REMARK    2  A    between atoms: C6_6  and  O10_10 
REMARK    3  A    between atoms: C8_8  and  O10_10 
ROOT
HETATM    1  C1  UNL     1     -35.350  17.048  -1.030  1.00 20.00     0.003 A 
HETATM    2  C2  UNL     1     -35.732  17.483   0.239  1.00 20.00     0.003 A 
HETATM    3  C3  UNL     1     -34.081  17.357  -1.520  1.00 20.00     0.039 A 
HETATM    4  C4  UNL     1     -34.845  18.227   1.018  1.00 20.00     0.039 A 
HETATM    5  C5  UNL     1     -33.194  18.100  -0.742  1.00 20.00     0.099 A 
HETATM    6  C6  UNL     1     -33.576  18.535   0.527  1.00 20.00     0.101 A 
ENDROOT
BRANCH   6   7
HETATM    7  O10 UNL     1     -32.719  19.263   1.297  1.00 20.00    -0.349 OA
BRANCH   7   8
HETATM    8  C8  UNL     1     -32.105  18.593   2.395  1.00 20.00     0.171 C 
HETATM    9  C7  UNL     1     -30.602  18.717   2.271  1.00 20.00     0.034 C 
ENDBRANCH   7   8
ENDBRANCH   6   7
BRANCH   5  10
HETATM   10  O9  UNL     1     -31.958  18.396  -1.233  1.00 20.00    -0.358 OA
HETATM   11  H20 UNL     1     -31.345  18.586  -0.505  1.00 20.00     0.217 HD
ENDBRANCH   5  10
TORSDOF 3
ENDMDL
MODEL 8
REMARK VINA RESULT:      -4.0     11.734     12.201
REMARK  3 active torsions:
REMARK  status: ('A' for Active; 'I' for Inactive)
REMARK    1  A    between atoms: C5_5  and  O9_9 
REMARK    2  A    between atoms: C6_6  and  O10_10 
REMARK    3  A    between atoms: C8_8  and  O10_10 
ROOT
HETATM    1  C1  UNL     1     -34.981  18.184   0.877  1.00 20.00     0.003 A 
HETATM    2  C2  UNL     1     -35.745  17.385   0.025  1.00 20.00     0.003 A 
HETATM    3  C3  UNL     1     -33.681  18.540   0.518  1.00 20.00     0.039 A 
HETATM    4  C4  UNL     1     -35.208  16.943  -1.185  1.00 20.00     0.039 A 
HETATM    5  C5  UNL     1     -33.145  18.099  -0.691  1.00 20.00     0.099 A 
HETATM    6  C6  UNL     1     -33.908  17.301  -1.542  1.00 20.00     0.101 A 
ENDROOT
BRANCH   6   7
HETATM    7  O10 UNL     1     -33.395  16.862  -2.726  1.00 20.00    -0.349 OA
BRANCH   7   8
HETATM    8  C8  UNL     1     -34.201  15.968  -3.491  1.00 20.00     0.171 C 
HETATM    9  C7  UNL     1     -33.302  15.005  -4.234  1.00 20.00     0.034 C 
ENDBRANCH   7   8
ENDBRANCH   6   7
BRANCH   5  10
HETATM   10  O9  UNL     1     -31.873  18.453  -1.028  1.00 20.00    -0.358 OA
HETATM   11  H20 UNL     1     -31.289  17.678  -0.995  1.00 20.00     0.217 HD
ENDBRANCH   5  10
TORSDOF 3
ENDMDL
MODEL 9
REMARK VINA RESULT:      -4.0     11.473     12.404
REMARK  3 active torsions:
REMARK  status: ('A' for Active; 'I' for Inactive)
REMARK    1  A    between atoms: C5_5  and  O9_9 
REMARK    2  A    between atoms: C6_6  and  O10_10 
REMARK    3  A    between atoms: C8_8  and  O10_10 
ROOT
HETATM    1  C1  UNL     1     -34.139  15.481  -3.747  1.00 20.00     0.003 A 
HETATM    2  C2  UNL     1     -35.286  16.186  -3.379  1.00 20.00     0.003 A 
HETATM    3  C3  UNL     1     -34.251  14.313  -4.500  1.00 20.00     0.039 A 
HETATM    4  C4  UNL     1     -36.543  15.721  -3.764  1.00 20.00     0.039 A 
HETATM    5  C5  UNL     1     -35.508  13.849  -4.885  1.00 20.00     0.099 A 
HETATM    6  C6  UNL     1     -36.654  14.552  -4.517  1.00 20.00     0.101 A 
ENDROOT
BRANCH   6   7
HETATM    7  O10 UNL     1     -37.889  14.108  -4.886  1.00 20.00    -0.349 OA
BRANCH   7   8
HETATM    8  C8  UNL     1     -38.833  15.091  -5.304  1.00 20.00     0.171 C 
HETATM    9  C7  UNL     1     -38.511  15.515  -6.720  1.00 20.00     0.034 C 
ENDBRANCH   7   8
ENDBRANCH   6   7
BRANCH   5  10
HETATM   10  O9  UNL     1     -35.604  12.704  -5.619  1.00 20.00    -0.358 OA
HETATM   11  H20 UNL     1     -36.424  12.707  -6.138  1.00 20.00     0.217 HD
ENDBRANCH   5  10
TORSDOF 3
ENDMDL
