MODEL 1
REMARK VINA RESULT:      -7.4      0.000      0.000
REMARK  4 active torsions:
REMARK  status: ('A' for Active; 'I' for Inactive)
REMARK    1  A    between atoms: C6_6  and  C8_8 
REMARK    2  A    between atoms: C8_8  and  C10_10 
REMARK    3  A    between atoms: C9_9  and  C11_11 
REMARK    4  A    between atoms: C10_10  and  C11_11 
ROOT
HETATM    1  C1  UNL     1     -34.613   5.546   5.918  1.00 20.00     0.000 A 
HETATM    2  C2  UNL     1     -34.042   6.819   5.892  1.00 20.00     0.001 A 
HETATM    3  C3  UNL     1     -34.631   4.766   4.761  1.00 20.00     0.001 A 
HETATM    4  C4  UNL     1     -33.489   7.311   4.710  1.00 20.00     0.007 A 
HETATM    5  C5  UNL     1     -34.077   5.257   3.581  1.00 20.00     0.007 A 
HETATM    6  C6  UNL     1     -33.506   6.530   3.555  1.00 20.00    -0.058 A 
ENDROOT
BRANCH   6   7
HETATM    7  C8  UNL     1     -32.911   7.058   2.284  1.00 20.00     0.038 C 
BRANCH   7   8
HETATM    8  C10 UNL     1     -31.973   8.250   2.500  1.00 20.00     0.005 C 
BRANCH   8   9
HETATM    9  C11 UNL     1     -31.540   8.921   1.193  1.00 20.00    -0.000 C 
BRANCH   9  10
HETATM   10  C9  UNL     1     -32.588   9.927   0.714  1.00 20.00    -0.005 C 
HETATM   11  C7  UNL     1     -33.242   9.474  -0.582  1.00 20.00     0.005 C 
ENDBRANCH   9  10
ENDBRANCH   8   9
ENDBRANCH   7   8
ENDBRANCH   6   7
TORSDOF 4
ENDMDL
MODEL 2
REMARK VINA RESULT:      -7.4      0.018      1.457
REMARK  4 active torsions:
REMARK  status: ('A' for Active; 'I' for Inactive)
REMARK    1  A    between atoms: C6_6  and  C8_8 
REMARK    2  A    between atoms: C8_8  and  C10_10 
REMARK    3  A    between atoms: C9_9  and  C11_11 
REMARK    4  A    between atoms: C10_10  and  C11_11 
ROOT
HETATM    1  C1  UNL     1     -34.619   5.556   5.920  1.00 20.00     0.000 A 
HETATM    2  C2  UNL     1     -34.631   4.768   4.769  1.00 20.00     0.001 A 
HETATM    3  C3  UNL     1     -34.044   6.827   5.891  1.00 20.00     0.001 A 
HETATM    4  C4  UNL     1     -34.067   5.251   3.588  1.00 20.00     0.007 A 
HETATM    5  C5  UNL     1     -33.481   7.309   4.710  1.00 20.00     0.007 A 
HETATM    6  C6  UNL     1     -33.492   6.522   3.559  1.00 20.00    -0.058 A 
ENDROOT
BRANCH   6   7
HETATM    7  C8  UNL     1     -32.886   7.042   2.290  1.00 20.00     0.038 C 
BRANCH   7   8
HETATM    8  C10 UNL     1     -31.981   8.259   2.502  1.00 20.00     0.005 C 
BRANCH   8   9
HETATM    9  C11 UNL     1     -31.539   8.919   1.192  1.00 20.00    -0.000 C 
BRANCH   9  10
HETATM   10  C9  UNL     1     -32.573   9.938   0.709  1.00 20.00    -0.005 C 
HETATM   11  C7  UNL     1     -33.267   9.470  -0.560  1.00 20.00     0.005 C 
ENDBRANCH   9  10
ENDBRANCH   8   9
ENDBRANCH   7   8
ENDBRANCH   6   7
TORSDOF 4
ENDMDL
MODEL 3
REMARK VINA RESULT:      -5.5      0.897      5.502
REMARK  4 active torsions:
REMARK  status: ('A' for Active; 'I' for Inactive)
REMARK    1  A    between atoms: C6_6  and  C8_8 
REMARK    2  A    between atoms: C8_8  and  C10_10 
REMARK    3  A    between atoms: C9_9  and  C11_11 
REMARK    4  A    between atoms: C10_10  and  C11_11 
ROOT
HETATM    1  C1  UNL     1     -32.332  10.022   0.069  1.00 20.00     0.000 A 
HETATM    2  C2  UNL     1     -31.574   8.855   0.158  1.00 20.00     0.001 A 
HETATM    3  C3  UNL     1     -33.095  10.444   1.158  1.00 20.00     0.001 A 
HETATM    4  C4  UNL     1     -31.578   8.109   1.337  1.00 20.00     0.007 A 
HETATM    5  C5  UNL     1     -33.099   9.699   2.337  1.00 20.00     0.007 A 
HETATM    6  C6  UNL     1     -32.340   8.532   2.426  1.00 20.00    -0.058 A 
ENDROOT
BRANCH   6   7
HETATM    7  C8  UNL     1     -32.345   7.732   3.694  1.00 20.00     0.038 C 
BRANCH   7   8
HETATM    8  C10 UNL     1     -33.705   7.101   4.011  1.00 20.00     0.005 C 
BRANCH   8   9
HETATM    9  C11 UNL     1     -33.913   6.833   5.504  1.00 20.00    -0.000 C 
BRANCH   9  10
HETATM   10  C9  UNL     1     -34.627   5.500   5.733  1.00 20.00    -0.005 C 
HETATM   11  C7  UNL     1     -34.526   4.597   4.515  1.00 20.00     0.005 C 
ENDBRANCH   9  10
ENDBRANCH   8   9
ENDBRANCH   7   8
ENDBRANCH   6   7
TORSDOF 4
ENDMDL
MODEL 4
REMARK VINA RESULT:      -5.5      0.924      5.370
REMARK  4 active torsions:
REMARK  status: ('A' for Active; 'I' for Inactive)
REMARK    1  A    between atoms: C6_6  and  C8_8 
REMARK    2  A    between atoms: C8_8  and  C10_10 
REMARK    3  A    between atoms: C9_9  and  C11_11 
REMARK    4  A    between atoms: C10_10  and  C11_11 
ROOT
HETATM    1  C1  UNL     1     -32.302  10.012   0.135  1.00 20.00     0.000 A 
HETATM    2  C2  UNL     1     -33.135  10.368   1.195  1.00 20.00     0.001 A 
HETATM    3  C3  UNL     1     -31.510   8.866   0.223  1.00 20.00     0.001 A 
HETATM    4  C4  UNL     1     -33.177   9.578   2.344  1.00 20.00     0.007 A 
HETATM    5  C5  UNL     1     -31.553   8.076   1.371  1.00 20.00     0.007 A 
HETATM    6  C6  UNL     1     -32.387   8.432   2.431  1.00 20.00    -0.058 A 
ENDROOT
BRANCH   6   7
HETATM    7  C8  UNL     1     -32.432   7.582   3.666  1.00 20.00     0.038 C 
BRANCH   7   8
HETATM    8  C10 UNL     1     -33.848   7.139   4.049  1.00 20.00     0.005 C 
BRANCH   8   9
HETATM    9  C11 UNL     1     -33.963   6.679   5.505  1.00 20.00    -0.000 C 
BRANCH   9  10
HETATM   10  C9  UNL     1     -34.690   5.337   5.605  1.00 20.00    -0.005 C 
HETATM   11  C7  UNL     1     -34.421   4.464   4.390  1.00 20.00     0.005 C 
ENDBRANCH   9  10
ENDBRANCH   8   9
ENDBRANCH   7   8
ENDBRANCH   6   7
TORSDOF 4
ENDMDL
MODEL 5
REMARK VINA RESULT:      -5.1      0.960      5.109
REMARK  4 active torsions:
REMARK  status: ('A' for Active; 'I' for Inactive)
REMARK    1  A    between atoms: C6_6  and  C8_8 
REMARK    2  A    between atoms: C8_8  and  C10_10 
REMARK    3  A    between atoms: C9_9  and  C11_11 
REMARK    4  A    between atoms: C10_10  and  C11_11 
ROOT
HETATM    1  C1  UNL     1     -31.789   9.586   1.864  1.00 20.00     0.000 A 
HETATM    2  C2  UNL     1     -32.690   9.056   0.941  1.00 20.00     0.001 A 
HETATM    3  C3  UNL     1     -31.479   8.874   3.024  1.00 20.00     0.001 A 
HETATM    4  C4  UNL     1     -33.282   7.815   1.177  1.00 20.00     0.007 A 
HETATM    5  C5  UNL     1     -32.071   7.634   3.260  1.00 20.00     0.007 A 
HETATM    6  C6  UNL     1     -32.972   7.104   2.336  1.00 20.00    -0.058 A 
ENDROOT
BRANCH   6   7
HETATM    7  C8  UNL     1     -33.607   5.771   2.591  1.00 20.00     0.038 C 
BRANCH   7   8
HETATM    8  C10 UNL     1     -34.788   5.835   3.565  1.00 20.00     0.005 C 
BRANCH   8   9
HETATM    9  C11 UNL     1     -34.747   4.741   4.636  1.00 20.00    -0.000 C 
BRANCH   9  10
HETATM   10  C9  UNL     1     -34.548   5.339   6.030  1.00 20.00    -0.005 C 
HETATM   11  C7  UNL     1     -34.109   6.792   5.956  1.00 20.00     0.005 C 
ENDBRANCH   9  10
ENDBRANCH   8   9
ENDBRANCH   7   8
ENDBRANCH   6   7
TORSDOF 4
ENDMDL
MODEL 6
REMARK VINA RESULT:      -4.9      1.340      4.953
REMARK  4 active torsions:
REMARK  status: ('A' for Active; 'I' for Inactive)
REMARK    1  A    between atoms: C6_6  and  C8_8 
REMARK    2  A    between atoms: C8_8  and  C10_10 
REMARK    3  A    between atoms: C9_9  and  C11_11 
REMARK    4  A    between atoms: C10_10  and  C11_11 
ROOT
HETATM    1  C1  UNL     1     -31.944   8.423   1.839  1.00 20.00     0.000 A 
HETATM    2  C2  UNL     1     -33.221   7.872   1.939  1.00 20.00     0.001 A 
HETATM    3  C3  UNL     1     -31.171   8.607   2.987  1.00 20.00     0.001 A 
HETATM    4  C4  UNL     1     -33.726   7.504   3.186  1.00 20.00     0.007 A 
HETATM    5  C5  UNL     1     -31.676   8.239   4.233  1.00 20.00     0.007 A 
HETATM    6  C6  UNL     1     -32.953   7.688   4.333  1.00 20.00    -0.058 A 
ENDROOT
BRANCH   6   7
HETATM    7  C8  UNL     1     -33.496   7.292   5.673  1.00 20.00     0.038 C 
BRANCH   7   8
HETATM    8  C10 UNL     1     -34.659   6.299   5.591  1.00 20.00     0.005 C 
BRANCH   8   9
HETATM    9  C11 UNL     1     -34.213   4.837   5.702  1.00 20.00    -0.000 C 
BRANCH   9  10
HETATM   10  C9  UNL     1     -34.500   4.071   4.409  1.00 20.00    -0.005 C 
HETATM   11  C7  UNL     1     -33.406   4.291   3.377  1.00 20.00     0.005 C 
ENDBRANCH   9  10
ENDBRANCH   8   9
ENDBRANCH   7   8
ENDBRANCH   6   7
TORSDOF 4
ENDMDL
MODEL 7
REMARK VINA RESULT:      -4.8     10.533     11.318
REMARK  4 active torsions:
REMARK  status: ('A' for Active; 'I' for Inactive)
REMARK    1  A    between atoms: C6_6  and  C8_8 
REMARK    2  A    between atoms: C8_8  and  C10_10 
REMARK    3  A    between atoms: C9_9  and  C11_11 
REMARK    4  A    between atoms: C10_10  and  C11_11 
ROOT
HETATM    1  C1  UNL     1     -34.304  18.351   0.374  1.00 20.00     0.000 A 
HETATM    2  C2  UNL     1     -33.117  18.491  -0.345  1.00 20.00     0.001 A 
HETATM    3  C3  UNL     1     -35.322  17.529  -0.111  1.00 20.00     0.001 A 
HETATM    4  C4  UNL     1     -32.947  17.808  -1.550  1.00 20.00     0.007 A 
HETATM    5  C5  UNL     1     -35.151  16.846  -1.315  1.00 20.00     0.007 A 
HETATM    6  C6  UNL     1     -33.964  16.985  -2.034  1.00 20.00    -0.058 A 
ENDROOT
BRANCH   6   7
HETATM    7  C8  UNL     1     -33.782  16.251  -3.328  1.00 20.00     0.038 C 
BRANCH   7   8
HETATM    8  C10 UNL     1     -35.028  15.475  -3.769  1.00 20.00     0.005 C 
BRANCH   8   9
HETATM    9  C11 UNL     1     -34.710  14.072  -4.295  1.00 20.00    -0.000 C 
BRANCH   9  10
HETATM   10  C9  UNL     1     -35.839  13.547  -5.185  1.00 20.00    -0.005 C 
HETATM   11  C7  UNL     1     -37.109  14.364  -5.015  1.00 20.00     0.005 C 
ENDBRANCH   9  10
ENDBRANCH   8   9
ENDBRANCH   7   8
ENDBRANCH   6   7
TORSDOF 4
ENDMDL
MODEL 8
REMARK VINA RESULT:      -4.8     10.534     11.368
REMARK  4 active torsions:
REMARK  status: ('A' for Active; 'I' for Inactive)
REMARK    1  A    between atoms: C6_6  and  C8_8 
REMARK    2  A    between atoms: C8_8  and  C10_10 
REMARK    3  A    between atoms: C9_9  and  C11_11 
REMARK    4  A    between atoms: C10_10  and  C11_11 
ROOT
HETATM    1  C1  UNL     1     -34.209  18.382   0.461  1.00 20.00     0.000 A 
HETATM    2  C2  UNL     1     -35.245  17.582  -0.020  1.00 20.00     0.001 A 
HETATM    3  C3  UNL     1     -33.031  18.517  -0.276  1.00 20.00     0.001 A 
HETATM    4  C4  UNL     1     -35.105  16.917  -1.238  1.00 20.00     0.007 A 
HETATM    5  C5  UNL     1     -32.891  17.853  -1.493  1.00 20.00     0.007 A 
HETATM    6  C6  UNL     1     -33.928  17.053  -1.975  1.00 20.00    -0.058 A 
ENDROOT
BRANCH   6   7
HETATM    7  C8  UNL     1     -33.776  16.338  -3.284  1.00 20.00     0.038 C 
BRANCH   7   8
HETATM    8  C10 UNL     1     -35.003  15.505  -3.668  1.00 20.00     0.005 C 
BRANCH   8   9
HETATM    9  C11 UNL     1     -34.643  14.135  -4.252  1.00 20.00    -0.000 C 
BRANCH   9  10
HETATM   10  C9  UNL     1     -35.774  13.592  -5.127  1.00 20.00    -0.005 C 
HETATM   11  C7  UNL     1     -37.042  14.416  -4.975  1.00 20.00     0.005 C 
ENDBRANCH   9  10
ENDBRANCH   8   9
ENDBRANCH   7   8
ENDBRANCH   6   7
TORSDOF 4
ENDMDL
MODEL 9
REMARK VINA RESULT:      -4.7      1.114      1.794
REMARK  4 active torsions:
REMARK  status: ('A' for Active; 'I' for Inactive)
REMARK    1  A    between atoms: C6_6  and  C8_8 
REMARK    2  A    between atoms: C8_8  and  C10_10 
REMARK    3  A    between atoms: C9_9  and  C11_11 
REMARK    4  A    between atoms: C10_10  and  C11_11 
ROOT
HETATM    1  C1  UNL     1     -34.494   5.140   6.119  1.00 20.00     0.000 A 
HETATM    2  C2  UNL     1     -34.348   6.504   5.866  1.00 20.00     0.001 A 
HETATM    3  C3  UNL     1     -34.444   4.226   5.066  1.00 20.00     0.001 A 
HETATM    4  C4  UNL     1     -34.153   6.955   4.560  1.00 20.00     0.007 A 
HETATM    5  C5  UNL     1     -34.248   4.676   3.761  1.00 20.00     0.007 A 
HETATM    6  C6  UNL     1     -34.102   6.040   3.508  1.00 20.00    -0.058 A 
ENDROOT
BRANCH   6   7
HETATM    7  C8  UNL     1     -33.891   6.523   2.105  1.00 20.00     0.038 C 
BRANCH   7   8
HETATM    8  C10 UNL     1     -32.475   7.047   1.847  1.00 20.00     0.005 C 
BRANCH   8   9
HETATM    9  C11 UNL     1     -32.435   8.545   1.525  1.00 20.00    -0.000 C 
BRANCH   9  10
HETATM   10  C9  UNL     1     -31.857   9.347   2.692  1.00 20.00    -0.005 C 
HETATM   11  C7  UNL     1     -31.190   8.441   3.714  1.00 20.00     0.005 C 
ENDBRANCH   9  10
ENDBRANCH   8   9
ENDBRANCH   7   8
ENDBRANCH   6   7
TORSDOF 4
ENDMDL
