MODEL 1
REMARK VINA RESULT:      -6.1      0.000      0.000
REMARK  1 active torsions:
REMARK  status: ('A' for Active; 'I' for Inactive)
REMARK    1  A    between atoms: C6_6  and  N9_9 
ROOT
HETATM    1  N8  UNL     1     -32.962  10.209   1.152  1.00 20.00     0.068 N 
HETATM    2  N9  UNL     1     -31.769   8.336   2.043  1.00 20.00    -0.073 NA
HETATM    3  N10 UNL     1     -32.395   9.315   1.580  1.00 20.00    -0.162 NA
ENDROOT
BRANCH   2   4
HETATM    4  C6  UNL     1     -32.528   7.586   2.948  1.00 20.00     0.093 A 
HETATM    5  C3  UNL     1     -33.212   6.452   2.510  1.00 20.00     0.035 A 
HETATM    6  C1  UNL     1     -33.967   5.702   3.411  1.00 20.00     0.009 A 
HETATM    7  C5  UNL     1     -34.041   6.087   4.750  1.00 20.00    -0.062 A 
HETATM    8  C2  UNL     1     -33.356   7.221   5.187  1.00 20.00     0.009 A 
HETATM    9  C7  UNL     1     -34.849   5.287   5.714  1.00 20.00     0.048 C 
HETATM   10  C4  UNL     1     -32.600   7.971   4.286  1.00 20.00     0.035 A 
ENDBRANCH   2   4
TORSDOF 1
ENDMDL
MODEL 2
REMARK VINA RESULT:      -6.1      0.026      1.528
REMARK  1 active torsions:
REMARK  status: ('A' for Active; 'I' for Inactive)
REMARK    1  A    between atoms: C6_6  and  N9_9 
ROOT
HETATM    1  N8  UNL     1     -32.964  10.200   1.160  1.00 20.00     0.068 N 
HETATM    2  N9  UNL     1     -31.766   8.334   2.057  1.00 20.00    -0.073 NA
HETATM    3  N10 UNL     1     -32.395   9.309   1.590  1.00 20.00    -0.162 NA
ENDROOT
BRANCH   2   4
HETATM    4  C6  UNL     1     -32.528   7.574   2.950  1.00 20.00     0.093 A 
HETATM    5  C3  UNL     1     -32.619   7.958   4.289  1.00 20.00     0.035 A 
HETATM    6  C1  UNL     1     -33.380   7.202   5.180  1.00 20.00     0.009 A 
HETATM    7  C5  UNL     1     -34.049   6.061   4.735  1.00 20.00    -0.062 A 
HETATM    8  C2  UNL     1     -33.957   5.679   3.396  1.00 20.00     0.009 A 
HETATM    9  C7  UNL     1     -34.861   5.252   5.687  1.00 20.00     0.048 C 
HETATM   10  C4  UNL     1     -33.197   6.434   2.504  1.00 20.00     0.035 A 
ENDBRANCH   2   4
TORSDOF 1
ENDMDL
MODEL 3
REMARK VINA RESULT:      -4.9      3.081      4.549
REMARK  1 active torsions:
REMARK  status: ('A' for Active; 'I' for Inactive)
REMARK    1  A    between atoms: C6_6  and  N9_9 
ROOT
HETATM    1  N8  UNL     1     -34.720   4.598   5.613  1.00 20.00     0.068 N 
HETATM    2  N9  UNL     1     -33.988   6.873   5.720  1.00 20.00    -0.073 NA
HETATM    3  N10 UNL     1     -34.369   5.683   5.661  1.00 20.00    -0.162 NA
ENDROOT
BRANCH   2   4
HETATM    4  C6  UNL     1     -33.359   7.300   4.547  1.00 20.00     0.093 A 
HETATM    5  C3  UNL     1     -32.255   8.150   4.618  1.00 20.00     0.035 A 
HETATM    6  C1  UNL     1     -31.625   8.575   3.448  1.00 20.00     0.009 A 
HETATM    7  C5  UNL     1     -32.100   8.151   2.207  1.00 20.00    -0.062 A 
HETATM    8  C2  UNL     1     -33.204   7.301   2.136  1.00 20.00     0.009 A 
HETATM    9  C7  UNL     1     -31.429   8.606   0.956  1.00 20.00     0.048 C 
HETATM   10  C4  UNL     1     -33.833   6.875   3.306  1.00 20.00     0.035 A 
ENDBRANCH   2   4
TORSDOF 1
ENDMDL
MODEL 4
REMARK VINA RESULT:      -4.8     10.694     11.384
REMARK  1 active torsions:
REMARK  status: ('A' for Active; 'I' for Inactive)
REMARK    1  A    between atoms: C6_6  and  N9_9 
ROOT
HETATM    1  N8  UNL     1     -35.164  12.780  -7.440  1.00 20.00     0.068 N 
HETATM    2  N9  UNL     1     -35.829  12.968  -5.150  1.00 20.00    -0.073 NA
HETATM    3  N10 UNL     1     -35.479  12.872  -6.347  1.00 20.00    -0.162 NA
ENDROOT
BRANCH   2   4
HETATM    4  C6  UNL     1     -35.281  14.085  -4.513  1.00 20.00     0.093 A 
HETATM    5  C3  UNL     1     -33.898  14.203  -4.379  1.00 20.00     0.035 A 
HETATM    6  C1  UNL     1     -33.350  15.318  -3.745  1.00 20.00     0.009 A 
HETATM    7  C5  UNL     1     -34.187  16.315  -3.242  1.00 20.00    -0.062 A 
HETATM    8  C2  UNL     1     -35.570  16.196  -3.375  1.00 20.00     0.009 A 
HETATM    9  C7  UNL     1     -33.603  17.506  -2.562  1.00 20.00     0.048 C 
HETATM   10  C4  UNL     1     -36.118  15.082  -4.010  1.00 20.00     0.035 A 
ENDBRANCH   2   4
TORSDOF 1
ENDMDL
MODEL 5
REMARK VINA RESULT:      -4.8     10.688     11.400
REMARK  1 active torsions:
REMARK  status: ('A' for Active; 'I' for Inactive)
REMARK    1  A    between atoms: C6_6  and  N9_9 
ROOT
HETATM    1  N8  UNL     1     -35.172  12.804  -7.437  1.00 20.00     0.068 N 
HETATM    2  N9  UNL     1     -35.833  12.974  -5.145  1.00 20.00    -0.073 NA
HETATM    3  N10 UNL     1     -35.485  12.887  -6.343  1.00 20.00    -0.162 NA
ENDROOT
BRANCH   2   4
HETATM    4  C6  UNL     1     -35.299  14.096  -4.504  1.00 20.00     0.093 A 
HETATM    5  C3  UNL     1     -36.149  15.091  -4.019  1.00 20.00     0.035 A 
HETATM    6  C1  UNL     1     -35.618  16.211  -3.379  1.00 20.00     0.009 A 
HETATM    7  C5  UNL     1     -34.237  16.337  -3.225  1.00 20.00    -0.062 A 
HETATM    8  C2  UNL     1     -33.388  15.342  -3.710  1.00 20.00     0.009 A 
HETATM    9  C7  UNL     1     -33.668  17.533  -2.543  1.00 20.00     0.048 C 
HETATM   10  C4  UNL     1     -33.918  14.222  -4.350  1.00 20.00     0.035 A 
ENDBRANCH   2   4
TORSDOF 1
ENDMDL
MODEL 6
REMARK VINA RESULT:      -4.4     11.117     11.599
REMARK  1 active torsions:
REMARK  status: ('A' for Active; 'I' for Inactive)
REMARK    1  A    between atoms: C6_6  and  N9_9 
ROOT
HETATM    1  N8  UNL     1     -33.493  18.130   3.467  1.00 20.00     0.068 N 
HETATM    2  N9  UNL     1     -34.592  19.122   1.588  1.00 20.00    -0.073 NA
HETATM    3  N10 UNL     1     -34.016  18.601   2.568  1.00 20.00    -0.162 NA
ENDROOT
BRANCH   2   4
HETATM    4  C6  UNL     1     -34.404  18.403   0.403  1.00 20.00     0.093 A 
HETATM    5  C3  UNL     1     -35.437  17.612  -0.102  1.00 20.00     0.035 A 
HETATM    6  C1  UNL     1     -35.252  16.896  -1.285  1.00 20.00     0.009 A 
HETATM    7  C5  UNL     1     -34.033  16.968  -1.961  1.00 20.00    -0.062 A 
HETATM    8  C2  UNL     1     -33.002  17.759  -1.454  1.00 20.00     0.009 A 
HETATM    9  C7  UNL     1     -33.834  16.202  -3.223  1.00 20.00     0.048 C 
HETATM   10  C4  UNL     1     -33.187  18.476  -0.272  1.00 20.00     0.035 A 
ENDBRANCH   2   4
TORSDOF 1
ENDMDL
MODEL 7
REMARK VINA RESULT:      -4.2     11.238     11.633
REMARK  1 active torsions:
REMARK  status: ('A' for Active; 'I' for Inactive)
REMARK    1  A    between atoms: C6_6  and  N9_9 
ROOT
HETATM    1  N8  UNL     1     -31.006  18.854   1.608  1.00 20.00     0.068 N 
HETATM    2  N9  UNL     1     -33.269  19.251   0.945  1.00 20.00    -0.073 NA
HETATM    3  N10 UNL     1     -32.086  19.041   1.289  1.00 20.00    -0.162 NA
ENDROOT
BRANCH   2   4
HETATM    4  C6  UNL     1     -33.692  18.408  -0.088  1.00 20.00     0.093 A 
HETATM    5  C3  UNL     1     -32.838  18.135  -1.157  1.00 20.00     0.035 A 
HETATM    6  C1  UNL     1     -33.257  17.293  -2.187  1.00 20.00     0.009 A 
HETATM    7  C5  UNL     1     -34.531  16.725  -2.149  1.00 20.00    -0.062 A 
HETATM    8  C2  UNL     1     -35.384  16.999  -1.080  1.00 20.00     0.009 A 
HETATM    9  C7  UNL     1     -34.981  15.827  -3.250  1.00 20.00     0.048 C 
HETATM   10  C4  UNL     1     -34.965  17.840  -0.049  1.00 20.00     0.035 A 
ENDBRANCH   2   4
TORSDOF 1
ENDMDL
MODEL 8
REMARK VINA RESULT:      -4.2     10.806     11.329
REMARK  1 active torsions:
REMARK  status: ('A' for Active; 'I' for Inactive)
REMARK    1  A    between atoms: C6_6  and  N9_9 
ROOT
HETATM    1  N8  UNL     1     -33.034  14.408  -4.293  1.00 20.00     0.068 N 
HETATM    2  N9  UNL     1     -34.039  16.570  -4.105  1.00 20.00    -0.073 NA
HETATM    3  N10 UNL     1     -33.514  15.439  -4.200  1.00 20.00    -0.162 NA
ENDROOT
BRANCH   2   4
HETATM    4  C6  UNL     1     -34.146  17.009  -2.782  1.00 20.00     0.093 A 
HETATM    5  C3  UNL     1     -35.281  16.696  -2.034  1.00 20.00     0.035 A 
HETATM    6  C1  UNL     1     -35.389  17.132  -0.713  1.00 20.00     0.009 A 
HETATM    7  C5  UNL     1     -34.362  17.884  -0.141  1.00 20.00    -0.062 A 
HETATM    8  C2  UNL     1     -33.227  18.197  -0.890  1.00 20.00     0.009 A 
HETATM    9  C7  UNL     1     -34.476  18.352   1.269  1.00 20.00     0.048 C 
HETATM   10  C4  UNL     1     -33.119  17.760  -2.211  1.00 20.00     0.035 A 
ENDBRANCH   2   4
TORSDOF 1
ENDMDL
MODEL 9
REMARK VINA RESULT:      -4.2     11.022     11.575
REMARK  1 active torsions:
REMARK  status: ('A' for Active; 'I' for Inactive)
REMARK    1  A    between atoms: C6_6  and  N9_9 
ROOT
HETATM    1  N8  UNL     1     -39.077  14.432  -5.304  1.00 20.00     0.068 N 
HETATM    2  N9  UNL     1     -36.800  13.703  -5.225  1.00 20.00    -0.073 NA
HETATM    3  N10 UNL     1     -37.989  14.087  -5.265  1.00 20.00    -0.162 NA
ENDROOT
BRANCH   2   4
HETATM    4  C6  UNL     1     -35.980  14.555  -4.479  1.00 20.00     0.093 A 
HETATM    5  C3  UNL     1     -34.599  14.357  -4.466  1.00 20.00     0.035 A 
HETATM    6  C1  UNL     1     -33.779  15.207  -3.723  1.00 20.00     0.009 A 
HETATM    7  C5  UNL     1     -34.341  16.254  -2.992  1.00 20.00    -0.062 A 
HETATM    8  C2  UNL     1     -35.721  16.451  -3.005  1.00 20.00     0.009 A 
HETATM    9  C7  UNL     1     -33.466  17.162  -2.197  1.00 20.00     0.048 C 
HETATM   10  C4  UNL     1     -36.541  15.602  -3.748  1.00 20.00     0.035 A 
ENDBRANCH   2   4
TORSDOF 1
ENDMDL
