MODEL 1
REMARK VINA RESULT:      -6.5      0.000      0.000
REMARK  3 active torsions:
REMARK  status: ('A' for Active; 'I' for Inactive)
REMARK    1  A    between atoms: C6_6  and  O9_9 
REMARK    2  A    between atoms: C7_7  and  C8_8 
REMARK    3  A    between atoms: C7_7  and  O9_9 
ROOT
HETATM    1  C1  UNL     1     -34.599   5.341   5.729  1.00 20.00     0.000 A 
HETATM    2  C2  UNL     1     -34.132   6.654   5.767  1.00 20.00     0.003 A 
HETATM    3  C3  UNL     1     -34.523   4.609   4.544  1.00 20.00     0.003 A 
HETATM    4  C4  UNL     1     -33.589   7.236   4.622  1.00 20.00     0.037 A 
HETATM    5  C5  UNL     1     -33.981   5.190   3.398  1.00 20.00     0.037 A 
HETATM    6  C6  UNL     1     -33.514   6.503   3.437  1.00 20.00     0.068 A 
ENDROOT
BRANCH   6   7
HETATM    7  O9  UNL     1     -32.986   7.071   2.318  1.00 20.00    -0.350 OA
BRANCH   7   8
HETATM    8  C7  UNL     1     -32.201   8.250   2.496  1.00 20.00     0.190 C 
BRANCH   8   9
HETATM    9  C8  UNL     1     -31.993   8.933   1.158  1.00 20.00     0.141 C 
HETATM   10 CL10 UNL     1     -32.703  10.568   1.166  1.00 20.00    -0.128 Cl
ENDBRANCH   8   9
ENDBRANCH   7   8
ENDBRANCH   6   7
TORSDOF 3
ENDMDL
MODEL 2
REMARK VINA RESULT:      -6.5      0.484      1.575
REMARK  3 active torsions:
REMARK  status: ('A' for Active; 'I' for Inactive)
REMARK    1  A    between atoms: C6_6  and  O9_9 
REMARK    2  A    between atoms: C7_7  and  C8_8 
REMARK    3  A    between atoms: C7_7  and  O9_9 
ROOT
HETATM    1  C1  UNL     1     -34.527   6.004   5.930  1.00 20.00     0.000 A 
HETATM    2  C2  UNL     1     -34.763   5.270   4.769  1.00 20.00     0.003 A 
HETATM    3  C3  UNL     1     -33.742   7.156   5.879  1.00 20.00     0.003 A 
HETATM    4  C4  UNL     1     -34.215   5.687   3.556  1.00 20.00     0.037 A 
HETATM    5  C5  UNL     1     -33.194   7.573   4.666  1.00 20.00     0.037 A 
HETATM    6  C6  UNL     1     -33.429   6.839   3.505  1.00 20.00     0.068 A 
ENDROOT
BRANCH   6   7
HETATM    7  O9  UNL     1     -32.892   7.245   2.322  1.00 20.00    -0.350 OA
BRANCH   7   8
HETATM    8  C7  UNL     1     -31.923   8.291   2.373  1.00 20.00     0.190 C 
BRANCH   8   9
HETATM    9  C8  UNL     1     -31.881   9.015   1.040  1.00 20.00     0.141 C 
HETATM   10 CL10 UNL     1     -32.776  10.554   1.128  1.00 20.00    -0.128 Cl
ENDBRANCH   8   9
ENDBRANCH   7   8
ENDBRANCH   6   7
TORSDOF 3
ENDMDL
MODEL 3
REMARK VINA RESULT:      -4.2      2.699      4.548
REMARK  3 active torsions:
REMARK  status: ('A' for Active; 'I' for Inactive)
REMARK    1  A    between atoms: C6_6  and  O9_9 
REMARK    2  A    between atoms: C7_7  and  C8_8 
REMARK    3  A    between atoms: C7_7  and  O9_9 
ROOT
HETATM    1  C1  UNL     1     -31.421   8.641   2.393  1.00 20.00     0.000 A 
HETATM    2  C2  UNL     1     -31.439   8.454   3.775  1.00 20.00     0.003 A 
HETATM    3  C3  UNL     1     -32.452   8.127   1.607  1.00 20.00     0.003 A 
HETATM    4  C4  UNL     1     -32.488   7.753   4.371  1.00 20.00     0.037 A 
HETATM    5  C5  UNL     1     -33.500   7.426   2.202  1.00 20.00     0.037 A 
HETATM    6  C6  UNL     1     -33.518   7.238   3.584  1.00 20.00     0.068 A 
ENDROOT
BRANCH   6   7
HETATM    7  O9  UNL     1     -34.541   6.553   4.165  1.00 20.00    -0.350 OA
BRANCH   7   8
HETATM    8  C7  UNL     1     -34.417   6.257   5.555  1.00 20.00     0.190 C 
BRANCH   8   9
HETATM    9  C8  UNL     1     -34.538   4.760   5.772  1.00 20.00     0.141 C 
HETATM   10 CL10 UNL     1     -34.195   3.873   4.264  1.00 20.00    -0.128 Cl
ENDBRANCH   8   9
ENDBRANCH   7   8
ENDBRANCH   6   7
TORSDOF 3
ENDMDL
MODEL 4
REMARK VINA RESULT:      -4.2      2.695      4.721
REMARK  3 active torsions:
REMARK  status: ('A' for Active; 'I' for Inactive)
REMARK    1  A    between atoms: C6_6  and  O9_9 
REMARK    2  A    between atoms: C7_7  and  C8_8 
REMARK    3  A    between atoms: C7_7  and  O9_9 
ROOT
HETATM    1  C1  UNL     1     -31.406   8.694   2.273  1.00 20.00     0.000 A 
HETATM    2  C2  UNL     1     -32.472   8.225   1.506  1.00 20.00     0.003 A 
HETATM    3  C3  UNL     1     -31.372   8.445   3.645  1.00 20.00     0.003 A 
HETATM    4  C4  UNL     1     -33.504   7.506   2.110  1.00 20.00     0.037 A 
HETATM    5  C5  UNL     1     -32.404   7.727   4.249  1.00 20.00     0.037 A 
HETATM    6  C6  UNL     1     -33.470   7.258   3.482  1.00 20.00     0.068 A 
ENDROOT
BRANCH   6   7
HETATM    7  O9  UNL     1     -34.478   6.559   4.073  1.00 20.00    -0.350 OA
BRANCH   7   8
HETATM    8  C7  UNL     1     -34.381   6.342   5.480  1.00 20.00     0.190 C 
BRANCH   8   9
HETATM    9  C8  UNL     1     -34.525   4.862   5.780  1.00 20.00     0.141 C 
HETATM   10 CL10 UNL     1     -34.213   3.888   4.320  1.00 20.00    -0.128 Cl
ENDBRANCH   8   9
ENDBRANCH   7   8
ENDBRANCH   6   7
TORSDOF 3
ENDMDL
MODEL 5
REMARK VINA RESULT:      -4.2     10.983     11.603
REMARK  3 active torsions:
REMARK  status: ('A' for Active; 'I' for Inactive)
REMARK    1  A    between atoms: C6_6  and  O9_9 
REMARK    2  A    between atoms: C7_7  and  C8_8 
REMARK    3  A    between atoms: C7_7  and  O9_9 
ROOT
HETATM    1  C1  UNL     1     -34.142  18.441   0.460  1.00 20.00     0.000 A 
HETATM    2  C2  UNL     1     -32.970  18.536  -0.290  1.00 20.00     0.003 A 
HETATM    3  C3  UNL     1     -35.201  17.657   0.003  1.00 20.00     0.003 A 
HETATM    4  C4  UNL     1     -32.857  17.847  -1.498  1.00 20.00     0.037 A 
HETATM    5  C5  UNL     1     -35.088  16.968  -1.205  1.00 20.00     0.037 A 
HETATM    6  C6  UNL     1     -33.917  17.064  -1.955  1.00 20.00     0.068 A 
ENDROOT
BRANCH   6   7
HETATM    7  O9  UNL     1     -33.807  16.393  -3.135  1.00 20.00    -0.350 OA
BRANCH   7   8
HETATM    8  C7  UNL     1     -34.952  15.662  -3.575  1.00 20.00     0.190 C 
BRANCH   8   9
HETATM    9  C8  UNL     1     -34.515  14.337  -4.170  1.00 20.00     0.141 C 
HETATM   10 CL10 UNL     1     -32.738  14.249  -4.280  1.00 20.00    -0.128 Cl
ENDBRANCH   8   9
ENDBRANCH   7   8
ENDBRANCH   6   7
TORSDOF 3
ENDMDL
MODEL 6
REMARK VINA RESULT:      -4.2     11.005     11.670
REMARK  3 active torsions:
REMARK  status: ('A' for Active; 'I' for Inactive)
REMARK    1  A    between atoms: C6_6  and  O9_9 
REMARK    2  A    between atoms: C7_7  and  C8_8 
REMARK    3  A    between atoms: C7_7  and  O9_9 
ROOT
HETATM    1  C1  UNL     1     -34.286  18.382   0.368  1.00 20.00     0.000 A 
HETATM    2  C2  UNL     1     -35.312  17.569  -0.115  1.00 20.00     0.003 A 
HETATM    3  C3  UNL     1     -33.090  18.491  -0.343  1.00 20.00     0.003 A 
HETATM    4  C4  UNL     1     -35.142  16.865  -1.307  1.00 20.00     0.037 A 
HETATM    5  C5  UNL     1     -32.921  17.787  -1.535  1.00 20.00     0.037 A 
HETATM    6  C6  UNL     1     -33.946  16.974  -2.016  1.00 20.00     0.068 A 
ENDROOT
BRANCH   6   7
HETATM    7  O9  UNL     1     -33.780  16.285  -3.179  1.00 20.00    -0.350 OA
BRANCH   7   8
HETATM    8  C7  UNL     1     -34.918  15.595  -3.694  1.00 20.00     0.190 C 
BRANCH   8   9
HETATM    9  C8  UNL     1     -34.498  14.233  -4.213  1.00 20.00     0.141 C 
HETATM   10 CL10 UNL     1     -35.853  13.429  -5.046  1.00 20.00    -0.128 Cl
ENDBRANCH   8   9
ENDBRANCH   7   8
ENDBRANCH   6   7
TORSDOF 3
ENDMDL
MODEL 7
REMARK VINA RESULT:      -4.1     11.018     11.654
REMARK  3 active torsions:
REMARK  status: ('A' for Active; 'I' for Inactive)
REMARK    1  A    between atoms: C6_6  and  O9_9 
REMARK    2  A    between atoms: C7_7  and  C8_8 
REMARK    3  A    between atoms: C7_7  and  O9_9 
ROOT
HETATM    1  C1  UNL     1     -34.141  18.466   0.452  1.00 20.00     0.000 A 
HETATM    2  C2  UNL     1     -35.205  17.683   0.006  1.00 20.00     0.003 A 
HETATM    3  C3  UNL     1     -32.972  18.550  -0.305  1.00 20.00     0.003 A 
HETATM    4  C4  UNL     1     -35.102  16.984  -1.196  1.00 20.00     0.037 A 
HETATM    5  C5  UNL     1     -32.868  17.850  -1.507  1.00 20.00     0.037 A 
HETATM    6  C6  UNL     1     -33.932  17.067  -1.952  1.00 20.00     0.068 A 
ENDROOT
BRANCH   6   7
HETATM    7  O9  UNL     1     -33.830  16.383  -3.125  1.00 20.00    -0.350 OA
BRANCH   7   8
HETATM    8  C7  UNL     1     -34.978  15.651  -3.553  1.00 20.00     0.190 C 
BRANCH   8   9
HETATM    9  C8  UNL     1     -34.543  14.357  -4.214  1.00 20.00     0.141 C 
HETATM   10 CL10 UNL     1     -32.765  14.243  -4.271  1.00 20.00    -0.128 Cl
ENDBRANCH   8   9
ENDBRANCH   7   8
ENDBRANCH   6   7
TORSDOF 3
ENDMDL
MODEL 8
REMARK VINA RESULT:      -4.1      2.190      4.998
REMARK  3 active torsions:
REMARK  status: ('A' for Active; 'I' for Inactive)
REMARK    1  A    between atoms: C6_6  and  O9_9 
REMARK    2  A    between atoms: C7_7  and  C8_8 
REMARK    3  A    between atoms: C7_7  and  O9_9 
ROOT
HETATM    1  C1  UNL     1     -32.289  10.087   0.329  1.00 20.00     0.000 A 
HETATM    2  C2  UNL     1     -31.464   8.965   0.401  1.00 20.00     0.003 A 
HETATM    3  C3  UNL     1     -33.244  10.314   1.320  1.00 20.00     0.003 A 
HETATM    4  C4  UNL     1     -31.593   8.070   1.463  1.00 20.00     0.037 A 
HETATM    5  C5  UNL     1     -33.372   9.420   2.383  1.00 20.00     0.037 A 
HETATM    6  C6  UNL     1     -32.548   8.298   2.454  1.00 20.00     0.068 A 
ENDROOT
BRANCH   6   7
HETATM    7  O9  UNL     1     -32.675   7.425   3.490  1.00 20.00    -0.350 OA
BRANCH   7   8
HETATM    8  C7  UNL     1     -33.637   6.380   3.345  1.00 20.00     0.190 C 
BRANCH   8   9
HETATM    9  C8  UNL     1     -34.375   6.179   4.655  1.00 20.00     0.141 C 
HETATM   10 CL10 UNL     1     -33.739   7.270   5.913  1.00 20.00    -0.128 Cl
ENDBRANCH   8   9
ENDBRANCH   7   8
ENDBRANCH   6   7
TORSDOF 3
ENDMDL
MODEL 9
REMARK VINA RESULT:      -4.1      2.675      5.095
REMARK  3 active torsions:
REMARK  status: ('A' for Active; 'I' for Inactive)
REMARK    1  A    between atoms: C6_6  and  O9_9 
REMARK    2  A    between atoms: C7_7  and  C8_8 
REMARK    3  A    between atoms: C7_7  and  O9_9 
ROOT
HETATM    1  C1  UNL     1     -32.224   9.951   0.159  1.00 20.00     0.000 A 
HETATM    2  C2  UNL     1     -33.023  10.394   1.212  1.00 20.00     0.003 A 
HETATM    3  C3  UNL     1     -31.500   8.765   0.283  1.00 20.00     0.003 A 
HETATM    4  C4  UNL     1     -33.099   9.651   2.391  1.00 20.00     0.037 A 
HETATM    5  C5  UNL     1     -31.577   8.022   1.461  1.00 20.00     0.037 A 
HETATM    6  C6  UNL     1     -32.375   8.465   2.515  1.00 20.00     0.068 A 
ENDROOT
BRANCH   6   7
HETATM    7  O9  UNL     1     -32.448   7.741   3.665  1.00 20.00    -0.350 OA
BRANCH   7   8
HETATM    8  C7  UNL     1     -33.690   7.098   3.951  1.00 20.00     0.190 C 
BRANCH   8   9
HETATM    9  C8  UNL     1     -33.853   6.946   5.451  1.00 20.00     0.141 C 
HETATM   10 CL10 UNL     1     -34.578   5.367   5.851  1.00 20.00    -0.128 Cl
ENDBRANCH   8   9
ENDBRANCH   7   8
ENDBRANCH   6   7
TORSDOF 3
ENDMDL
