MODEL 1
REMARK VINA RESULT:      -5.7      0.000      0.000
REMARK  0 active torsions:
REMARK  status: ('A' for Active; 'I' for Inactive)
ROOT
HETATM    1  C1  UNL     1     -33.707   7.368   5.856  1.00 20.00     0.001 A 
HETATM    2  C2  UNL     1     -34.222   6.084   5.685  1.00 20.00     0.007 A 
HETATM    3  C3  UNL     1     -33.050   8.003   4.801  1.00 20.00     0.007 A 
HETATM    4  C4  UNL     1     -33.424   6.068   3.404  1.00 20.00     0.013 A 
HETATM    5  C5  UNL     1     -34.081   5.434   4.459  1.00 20.00    -0.061 A 
HETATM    6  C6  UNL     1     -32.910   7.353   3.575  1.00 20.00    -0.061 A 
HETATM    7  C7  UNL     1     -34.633   4.061   4.276  1.00 20.00     0.048 C 
HETATM    8  C8  UNL     1     -32.206   8.032   2.448  1.00 20.00     0.048 C 
ENDROOT
TORSDOF 0
ENDMDL
MODEL 2
REMARK VINA RESULT:      -5.7      0.006      3.028
REMARK  0 active torsions:
REMARK  status: ('A' for Active; 'I' for Inactive)
ROOT
HETATM    1  C1  UNL     1     -33.707   7.367   5.853  1.00 20.00     0.001 A 
HETATM    2  C2  UNL     1     -33.052   8.002   4.799  1.00 20.00     0.007 A 
HETATM    3  C3  UNL     1     -34.219   6.080   5.682  1.00 20.00     0.007 A 
HETATM    4  C4  UNL     1     -33.421   6.065   3.402  1.00 20.00     0.013 A 
HETATM    5  C5  UNL     1     -32.908   7.350   3.574  1.00 20.00    -0.061 A 
HETATM    6  C6  UNL     1     -34.075   5.429   4.457  1.00 20.00    -0.061 A 
HETATM    7  C7  UNL     1     -32.207   8.030   2.446  1.00 20.00     0.048 C 
HETATM    8  C8  UNL     1     -34.624   4.054   4.275  1.00 20.00     0.048 C 
ENDROOT
TORSDOF 0
ENDMDL
MODEL 3
REMARK VINA RESULT:      -5.4      0.967      3.460
REMARK  0 active torsions:
REMARK  status: ('A' for Active; 'I' for Inactive)
ROOT
HETATM    1  C1  UNL     1     -34.139   5.449   3.038  1.00 20.00     0.001 A 
HETATM    2  C2  UNL     1     -33.326   6.258   2.246  1.00 20.00     0.007 A 
HETATM    3  C3  UNL     1     -34.356   5.775   4.377  1.00 20.00     0.007 A 
HETATM    4  C4  UNL     1     -32.943   7.720   4.132  1.00 20.00     0.013 A 
HETATM    5  C5  UNL     1     -32.728   7.394   2.793  1.00 20.00    -0.061 A 
HETATM    6  C6  UNL     1     -33.758   6.911   4.924  1.00 20.00    -0.061 A 
HETATM    7  C7  UNL     1     -31.858   8.260   1.945  1.00 20.00     0.048 C 
HETATM    8  C8  UNL     1     -33.988   7.258   6.356  1.00 20.00     0.048 C 
ENDROOT
TORSDOF 0
ENDMDL
MODEL 4
REMARK VINA RESULT:      -5.4      0.979      2.396
REMARK  0 active torsions:
REMARK  status: ('A' for Active; 'I' for Inactive)
ROOT
HETATM    1  C1  UNL     1     -34.060   5.468   2.971  1.00 20.00     0.001 A 
HETATM    2  C2  UNL     1     -34.293   5.782   4.309  1.00 20.00     0.007 A 
HETATM    3  C3  UNL     1     -33.253   6.295   2.191  1.00 20.00     0.007 A 
HETATM    4  C4  UNL     1     -32.913   7.753   4.087  1.00 20.00     0.013 A 
HETATM    5  C5  UNL     1     -33.719   6.925   4.867  1.00 20.00    -0.061 A 
HETATM    6  C6  UNL     1     -32.679   7.438   2.748  1.00 20.00    -0.061 A 
HETATM    7  C7  UNL     1     -33.969   7.260   6.299  1.00 20.00     0.048 C 
HETATM    8  C8  UNL     1     -31.817   8.323   1.913  1.00 20.00     0.048 C 
ENDROOT
TORSDOF 0
ENDMDL
MODEL 5
REMARK VINA RESULT:      -4.9      1.161      2.855
REMARK  0 active torsions:
REMARK  status: ('A' for Active; 'I' for Inactive)
ROOT
HETATM    1  C1  UNL     1     -34.741   4.608   5.440  1.00 20.00     0.001 A 
HETATM    2  C2  UNL     1     -34.482   5.892   5.920  1.00 20.00     0.007 A 
HETATM    3  C3  UNL     1     -34.291   4.233   4.175  1.00 20.00     0.007 A 
HETATM    4  C4  UNL     1     -33.323   6.424   3.868  1.00 20.00     0.013 A 
HETATM    5  C5  UNL     1     -33.773   6.799   5.134  1.00 20.00    -0.061 A 
HETATM    6  C6  UNL     1     -33.581   5.141   3.389  1.00 20.00    -0.061 A 
HETATM    7  C7  UNL     1     -33.495   8.172   5.648  1.00 20.00     0.048 C 
HETATM    8  C8  UNL     1     -33.101   4.739   2.034  1.00 20.00     0.048 C 
ENDROOT
TORSDOF 0
ENDMDL
MODEL 6
REMARK VINA RESULT:      -4.9      1.165      2.444
REMARK  0 active torsions:
REMARK  status: ('A' for Active; 'I' for Inactive)
ROOT
HETATM    1  C1  UNL     1     -34.753   4.605   5.433  1.00 20.00     0.001 A 
HETATM    2  C2  UNL     1     -34.297   4.237   4.168  1.00 20.00     0.007 A 
HETATM    3  C3  UNL     1     -34.494   5.884   5.924  1.00 20.00     0.007 A 
HETATM    4  C4  UNL     1     -33.319   6.429   3.884  1.00 20.00     0.013 A 
HETATM    5  C5  UNL     1     -33.580   5.150   3.393  1.00 20.00    -0.061 A 
HETATM    6  C6  UNL     1     -33.777   6.797   5.149  1.00 20.00    -0.061 A 
HETATM    7  C7  UNL     1     -33.093   4.756   2.040  1.00 20.00     0.048 C 
HETATM    8  C8  UNL     1     -33.498   8.165   5.675  1.00 20.00     0.048 C 
ENDROOT
TORSDOF 0
ENDMDL
MODEL 7
REMARK VINA RESULT:      -4.4      1.200      2.242
REMARK  0 active torsions:
REMARK  status: ('A' for Active; 'I' for Inactive)
ROOT
HETATM    1  C1  UNL     1     -33.207   7.516   3.792  1.00 20.00     0.001 A 
HETATM    2  C2  UNL     1     -33.888   7.082   4.928  1.00 20.00     0.007 A 
HETATM    3  C3  UNL     1     -32.889   6.611   2.779  1.00 20.00     0.007 A 
HETATM    4  C4  UNL     1     -33.934   4.835   4.040  1.00 20.00     0.013 A 
HETATM    5  C5  UNL     1     -34.252   5.741   5.051  1.00 20.00    -0.061 A 
HETATM    6  C6  UNL     1     -33.254   5.270   2.903  1.00 20.00    -0.061 A 
HETATM    7  C7  UNL     1     -34.982   5.276   6.267  1.00 20.00     0.048 C 
HETATM    8  C8  UNL     1     -32.913   4.302   1.820  1.00 20.00     0.048 C 
ENDROOT
TORSDOF 0
ENDMDL
MODEL 8
REMARK VINA RESULT:      -4.4      1.209      2.914
REMARK  0 active torsions:
REMARK  status: ('A' for Active; 'I' for Inactive)
ROOT
HETATM    1  C1  UNL     1     -33.250   7.493   3.797  1.00 20.00     0.001 A 
HETATM    2  C2  UNL     1     -32.928   6.595   2.781  1.00 20.00     0.007 A 
HETATM    3  C3  UNL     1     -33.920   7.047   4.936  1.00 20.00     0.007 A 
HETATM    4  C4  UNL     1     -33.948   4.804   4.042  1.00 20.00     0.013 A 
HETATM    5  C5  UNL     1     -33.277   5.250   2.903  1.00 20.00    -0.061 A 
HETATM    6  C6  UNL     1     -34.268   5.702   5.059  1.00 20.00    -0.061 A 
HETATM    7  C7  UNL     1     -32.932   4.289   1.816  1.00 20.00     0.048 C 
HETATM    8  C8  UNL     1     -34.986   5.226   6.277  1.00 20.00     0.048 C 
ENDROOT
TORSDOF 0
ENDMDL
MODEL 9
REMARK VINA RESULT:      -4.4     12.015     12.449
REMARK  0 active torsions:
REMARK  status: ('A' for Active; 'I' for Inactive)
ROOT
HETATM    1  C1  UNL     1     -35.552  17.397  -0.305  1.00 20.00     0.001 A 
HETATM    2  C2  UNL     1     -35.285  16.781  -1.527  1.00 20.00     0.007 A 
HETATM    3  C3  UNL     1     -34.565  18.155   0.324  1.00 20.00     0.007 A 
HETATM    4  C4  UNL     1     -33.043  17.681  -1.490  1.00 20.00     0.013 A 
HETATM    5  C5  UNL     1     -34.030  16.923  -2.120  1.00 20.00    -0.061 A 
HETATM    6  C6  UNL     1     -33.310  18.298  -0.268  1.00 20.00    -0.061 A 
HETATM    7  C7  UNL     1     -33.745  16.265  -3.427  1.00 20.00     0.048 C 
HETATM    8  C8  UNL     1     -32.255  19.108   0.406  1.00 20.00     0.048 C 
ENDROOT
TORSDOF 0
ENDMDL
