MODEL 1
REMARK VINA RESULT:      -5.5      0.000      0.000
REMARK  0 active torsions:
REMARK  status: ('A' for Active; 'I' for Inactive)
ROOT
HETATM    1  C1  UNL     1     -33.741   7.324   5.910  1.00 20.00     0.002 A 
HETATM    2  C2  UNL     1     -34.220   6.028   5.716  1.00 20.00     0.007 A 
HETATM    3  C3  UNL     1     -33.146   8.013   4.853  1.00 20.00     0.018 A 
HETATM    4  C4  UNL     1     -33.511   6.113   3.407  1.00 20.00     0.025 A 
HETATM    5  C5  UNL     1     -34.104   5.423   4.464  1.00 20.00    -0.061 A 
HETATM    6  C6  UNL     1     -33.031   7.408   3.603  1.00 20.00     0.006 A 
HETATM    7  C7  UNL     1     -34.617   4.037   4.257  1.00 20.00     0.048 C 
HETATM    8  I8  UNL     1     -32.148   8.436   2.027  1.00 20.00    -0.045 I 
ENDROOT
TORSDOF 0
ENDMDL
MODEL 2
REMARK VINA RESULT:      -5.0      0.911      2.368
REMARK  0 active torsions:
REMARK  status: ('A' for Active; 'I' for Inactive)
ROOT
HETATM    1  C1  UNL     1     -33.967   5.196   3.160  1.00 20.00     0.002 A 
HETATM    2  C2  UNL     1     -34.207   5.532   4.492  1.00 20.00     0.007 A 
HETATM    3  C3  UNL     1     -33.351   6.115   2.309  1.00 20.00     0.018 A 
HETATM    4  C4  UNL     1     -33.214   7.704   4.123  1.00 20.00     0.025 A 
HETATM    5  C5  UNL     1     -33.831   6.786   4.973  1.00 20.00    -0.061 A 
HETATM    6  C6  UNL     1     -32.974   7.367   2.790  1.00 20.00     0.006 A 
HETATM    7  C7  UNL     1     -34.089   7.145   6.398  1.00 20.00     0.048 C 
HETATM    8  I8  UNL     1     -32.054   8.734   1.524  1.00 20.00    -0.045 I 
ENDROOT
TORSDOF 0
ENDMDL
MODEL 3
REMARK VINA RESULT:      -4.1     12.015     12.528
REMARK  0 active torsions:
REMARK  status: ('A' for Active; 'I' for Inactive)
ROOT
HETATM    1  C1  UNL     1     -35.608  17.322  -0.483  1.00 20.00     0.002 A 
HETATM    2  C2  UNL     1     -34.587  18.059   0.116  1.00 20.00     0.007 A 
HETATM    3  C3  UNL     1     -35.390  16.696  -1.710  1.00 20.00     0.018 A 
HETATM    4  C4  UNL     1     -33.127  17.542  -1.739  1.00 20.00     0.025 A 
HETATM    5  C5  UNL     1     -33.346  18.169  -0.512  1.00 20.00    -0.061 A 
HETATM    6  C6  UNL     1     -34.150  16.805  -2.338  1.00 20.00     0.006 A 
HETATM    7  C7  UNL     1     -32.254  18.957   0.129  1.00 20.00     0.048 C 
HETATM    8  I8  UNL     1     -33.823  15.870  -4.164  1.00 20.00    -0.045 I 
ENDROOT
TORSDOF 0
ENDMDL
MODEL 4
REMARK VINA RESULT:      -4.1     11.922     12.345
REMARK  0 active torsions:
REMARK  status: ('A' for Active; 'I' for Inactive)
ROOT
HETATM    1  C1  UNL     1     -32.855  18.393  -0.633  1.00 20.00     0.002 A 
HETATM    2  C2  UNL     1     -33.866  18.454   0.325  1.00 20.00     0.007 A 
HETATM    3  C3  UNL     1     -33.037  17.640  -1.793  1.00 20.00     0.018 A 
HETATM    4  C4  UNL     1     -35.242  17.008  -1.037  1.00 20.00     0.025 A 
HETATM    5  C5  UNL     1     -35.060  17.761   0.123  1.00 20.00    -0.061 A 
HETATM    6  C6  UNL     1     -34.229  16.947  -1.995  1.00 20.00     0.006 A 
HETATM    7  C7  UNL     1     -36.141  17.825   1.149  1.00 20.00     0.048 C 
HETATM    8  I8  UNL     1     -34.501  15.827  -3.724  1.00 20.00    -0.045 I 
ENDROOT
TORSDOF 0
ENDMDL
MODEL 5
REMARK VINA RESULT:      -4.0     12.128     12.460
REMARK  0 active torsions:
REMARK  status: ('A' for Active; 'I' for Inactive)
ROOT
HETATM    1  C1  UNL     1     -32.802  18.038  -1.292  1.00 20.00     0.002 A 
HETATM    2  C2  UNL     1     -33.256  17.190  -2.302  1.00 20.00     0.007 A 
HETATM    3  C3  UNL     1     -33.641  18.367  -0.227  1.00 20.00     0.018 A 
HETATM    4  C4  UNL     1     -35.388  16.998  -1.181  1.00 20.00     0.025 A 
HETATM    5  C5  UNL     1     -34.549  16.670  -2.246  1.00 20.00    -0.061 A 
HETATM    6  C6  UNL     1     -34.933  17.848  -0.172  1.00 20.00     0.006 A 
HETATM    7  C7  UNL     1     -35.035  15.763  -3.327  1.00 20.00     0.048 C 
HETATM    8  I8  UNL     1     -36.183  18.335   1.416  1.00 20.00    -0.045 I 
ENDROOT
TORSDOF 0
ENDMDL
MODEL 6
REMARK VINA RESULT:      -3.9      2.549      4.008
REMARK  0 active torsions:
REMARK  status: ('A' for Active; 'I' for Inactive)
ROOT
HETATM    1  C1  UNL     1     -31.387   8.487   3.704  1.00 20.00     0.002 A 
HETATM    2  C2  UNL     1     -31.515   8.985   2.407  1.00 20.00     0.007 A 
HETATM    3  C3  UNL     1     -32.302   7.551   4.185  1.00 20.00     0.018 A 
HETATM    4  C4  UNL     1     -33.472   7.608   2.072  1.00 20.00     0.025 A 
HETATM    5  C5  UNL     1     -32.557   8.545   1.592  1.00 20.00    -0.061 A 
HETATM    6  C6  UNL     1     -33.344   7.111   3.369  1.00 20.00     0.006 A 
HETATM    7  C7  UNL     1     -32.694   9.079   0.205  1.00 20.00     0.048 C 
HETATM    8  I8  UNL     1     -34.705   5.712   4.084  1.00 20.00    -0.045 I 
ENDROOT
TORSDOF 0
ENDMDL
MODEL 7
REMARK VINA RESULT:      -3.9      2.281      3.561
REMARK  0 active torsions:
REMARK  status: ('A' for Active; 'I' for Inactive)
ROOT
HETATM    1  C1  UNL     1     -32.128   8.557   4.868  1.00 20.00     0.002 A 
HETATM    2  C2  UNL     1     -31.710   8.835   3.567  1.00 20.00     0.007 A 
HETATM    3  C3  UNL     1     -33.024   7.515   5.105  1.00 20.00     0.018 A 
HETATM    4  C4  UNL     1     -33.083   7.027   2.740  1.00 20.00     0.025 A 
HETATM    5  C5  UNL     1     -32.188   8.070   2.503  1.00 20.00    -0.061 A 
HETATM    6  C6  UNL     1     -33.501   6.750   4.042  1.00 20.00     0.006 A 
HETATM    7  C7  UNL     1     -31.740   8.369   1.111  1.00 20.00     0.048 C 
HETATM    8  I8  UNL     1     -34.834   5.195   4.395  1.00 20.00    -0.045 I 
ENDROOT
TORSDOF 0
ENDMDL
MODEL 8
REMARK VINA RESULT:      -3.6     12.184     12.627
REMARK  0 active torsions:
REMARK  status: ('A' for Active; 'I' for Inactive)
ROOT
HETATM    1  C1  UNL     1     -34.093  14.406  -4.719  1.00 20.00     0.002 A 
HETATM    2  C2  UNL     1     -33.709  15.260  -3.685  1.00 20.00     0.007 A 
HETATM    3  C3  UNL     1     -35.430  14.341  -5.110  1.00 20.00     0.018 A 
HETATM    4  C4  UNL     1     -36.001  15.984  -3.434  1.00 20.00     0.025 A 
HETATM    5  C5  UNL     1     -34.664  16.048  -3.042  1.00 20.00    -0.061 A 
HETATM    6  C6  UNL     1     -36.384  15.129  -4.468  1.00 20.00     0.006 A 
HETATM    7  C7  UNL     1     -34.253  16.961  -1.935  1.00 20.00     0.048 C 
HETATM    8  I8  UNL     1     -38.376  15.034  -5.052  1.00 20.00    -0.045 I 
ENDROOT
TORSDOF 0
ENDMDL
MODEL 9
REMARK VINA RESULT:      -3.6     12.053     12.879
REMARK  0 active torsions:
REMARK  status: ('A' for Active; 'I' for Inactive)
ROOT
HETATM    1  C1  UNL     1     -33.307  15.864  -6.053  1.00 20.00     0.002 A 
HETATM    2  C2  UNL     1     -34.210  14.809  -6.183  1.00 20.00     0.007 A 
HETATM    3  C3  UNL     1     -33.240  16.582  -4.859  1.00 20.00     0.018 A 
HETATM    4  C4  UNL     1     -34.978  15.189  -3.923  1.00 20.00     0.025 A 
HETATM    5  C5  UNL     1     -35.045  14.472  -5.118  1.00 20.00    -0.061 A 
HETATM    6  C6  UNL     1     -34.074  16.245  -3.794  1.00 20.00     0.006 A 
HETATM    7  C7  UNL     1     -36.011  13.344  -5.258  1.00 20.00     0.048 C 
HETATM    8  I8  UNL     1     -33.972  17.312  -2.014  1.00 20.00    -0.045 I 
ENDROOT
TORSDOF 0
ENDMDL
