MODEL 1
REMARK VINA RESULT:      -2.6      0.000      0.000
REMARK  0 active torsions:
REMARK  status: ('A' for Active; 'I' for Inactive)
ROOT
HETATM    1  C1  UNL     1     -33.762   7.249   5.885  1.00 20.00     0.016 C 
HETATM    2  C2  UNL     1     -34.412   6.074   5.174  1.00 20.00     0.075 C 
HETATM    3  I3  UNL     1     -33.789   5.979   3.138  1.00 20.00    -0.090 I 
ENDROOT
TORSDOF 0
ENDMDL
MODEL 2
REMARK VINA RESULT:      -2.6      1.498      1.595
REMARK  0 active torsions:
REMARK  status: ('A' for Active; 'I' for Inactive)
ROOT
HETATM    1  C1  UNL     1     -34.640   5.212   5.438  1.00 20.00     0.016 C 
HETATM    2  C2  UNL     1     -34.985   5.692   4.038  1.00 20.00     0.075 C 
HETATM    3  I3  UNL     1     -33.337   6.720   3.160  1.00 20.00    -0.090 I 
ENDROOT
TORSDOF 0
ENDMDL
MODEL 3
REMARK VINA RESULT:      -2.5      1.164      1.164
REMARK  0 active torsions:
REMARK  status: ('A' for Active; 'I' for Inactive)
ROOT
HETATM    1  C1  UNL     1     -33.737   7.282   5.850  1.00 20.00     0.016 C 
HETATM    2  C2  UNL     1     -34.057   6.666   4.499  1.00 20.00     0.075 C 
HETATM    3  I3  UNL     1     -32.722   7.383   3.001  1.00 20.00    -0.090 I 
ENDROOT
TORSDOF 0
ENDMDL
MODEL 4
REMARK VINA RESULT:      -2.5      0.945      1.466
REMARK  0 active torsions:
REMARK  status: ('A' for Active; 'I' for Inactive)
ROOT
HETATM    1  C1  UNL     1     -34.595   5.373   5.597  1.00 20.00     0.016 C 
HETATM    2  C2  UNL     1     -34.021   6.768   5.416  1.00 20.00     0.075 C 
HETATM    3  I3  UNL     1     -33.291   7.037   3.432  1.00 20.00    -0.090 I 
ENDROOT
TORSDOF 0
ENDMDL
MODEL 5
REMARK VINA RESULT:      -2.5      2.150      2.513
REMARK  0 active torsions:
REMARK  status: ('A' for Active; 'I' for Inactive)
ROOT
HETATM    1  C1  UNL     1     -34.409   4.277   4.475  1.00 20.00     0.016 C 
HETATM    2  C2  UNL     1     -34.937   5.696   4.346  1.00 20.00     0.075 C 
HETATM    3  I3  UNL     1     -33.741   7.056   5.471  1.00 20.00    -0.090 I 
ENDROOT
TORSDOF 0
ENDMDL
MODEL 6
REMARK VINA RESULT:      -2.5      2.511      2.511
REMARK  0 active torsions:
REMARK  status: ('A' for Active; 'I' for Inactive)
ROOT
HETATM    1  C1  UNL     1     -32.745   7.341   2.965  1.00 20.00     0.016 C 
HETATM    2  C2  UNL     1     -33.361   5.958   2.841  1.00 20.00     0.075 C 
HETATM    3  I3  UNL     1     -34.592   5.521   4.526  1.00 20.00    -0.090 I 
ENDROOT
TORSDOF 0
ENDMDL
MODEL 7
REMARK VINA RESULT:      -2.4      3.841      3.986
REMARK  0 active torsions:
REMARK  status: ('A' for Active; 'I' for Inactive)
ROOT
HETATM    1  C1  UNL     1     -32.933   7.281   2.861  1.00 20.00     0.016 C 
HETATM    2  C2  UNL     1     -31.872   8.324   2.554  1.00 20.00     0.075 C 
HETATM    3  I3  UNL     1     -32.441   9.520   0.884  1.00 20.00    -0.090 I 
ENDROOT
TORSDOF 0
ENDMDL
MODEL 8
REMARK VINA RESULT:      -2.4      1.827      2.115
REMARK  0 active torsions:
REMARK  status: ('A' for Active; 'I' for Inactive)
ROOT
HETATM    1  C1  UNL     1     -34.816   5.560   4.414  1.00 20.00     0.016 C 
HETATM    2  C2  UNL     1     -33.878   5.522   3.219  1.00 20.00     0.075 C 
HETATM    3  I3  UNL     1     -32.783   7.343   3.055  1.00 20.00    -0.090 I 
ENDROOT
TORSDOF 0
ENDMDL
MODEL 9
REMARK VINA RESULT:      -2.3      4.729      4.799
REMARK  0 active torsions:
REMARK  status: ('A' for Active; 'I' for Inactive)
ROOT
HETATM    1  C1  UNL     1     -32.748  10.229   1.064  1.00 20.00     0.016 C 
HETATM    2  C2  UNL     1     -31.903   8.968   1.129  1.00 20.00     0.075 C 
HETATM    3  I3  UNL     1     -32.498   7.740   2.766  1.00 20.00    -0.090 I 
ENDROOT
TORSDOF 0
ENDMDL
