MODEL 1
REMARK VINA RESULT:      -6.6      0.000      0.000
REMARK  1 active torsions:
REMARK  status: ('A' for Active; 'I' for Inactive)
REMARK    1  A    between atoms: C6_6  and  C8_8 
ROOT
HETATM    1  C1  UNL     1     -34.664   5.124   5.596  1.00 20.00     0.000 A 
HETATM    2  C2  UNL     1     -34.469   4.614   4.313  1.00 20.00     0.001 A 
HETATM    3  C3  UNL     1     -34.261   6.425   5.899  1.00 20.00     0.001 A 
HETATM    4  C4  UNL     1     -33.870   5.404   3.332  1.00 20.00     0.007 A 
HETATM    5  C5  UNL     1     -33.662   7.216   4.917  1.00 20.00     0.007 A 
HETATM    6  C6  UNL     1     -33.467   6.704   3.634  1.00 20.00    -0.059 A 
ENDROOT
BRANCH   6   7
HETATM    7  C8  UNL     1     -32.826   7.550   2.586  1.00 20.00     0.034 C 
HETATM    8  C7  UNL     1     -31.590   8.281   3.104  1.00 20.00     0.010 C 
ENDBRANCH   6   7
TORSDOF 1
ENDMDL
MODEL 2
REMARK VINA RESULT:      -6.6      0.001      1.709
REMARK  1 active torsions:
REMARK  status: ('A' for Active; 'I' for Inactive)
REMARK    1  A    between atoms: C6_6  and  C8_8 
ROOT
HETATM    1  C1  UNL     1     -34.664   5.124   5.597  1.00 20.00     0.000 A 
HETATM    2  C2  UNL     1     -34.261   6.425   5.899  1.00 20.00     0.001 A 
HETATM    3  C3  UNL     1     -34.468   4.614   4.313  1.00 20.00     0.001 A 
HETATM    4  C4  UNL     1     -33.662   7.215   4.919  1.00 20.00     0.007 A 
HETATM    5  C5  UNL     1     -33.870   5.404   3.332  1.00 20.00     0.007 A 
HETATM    6  C6  UNL     1     -33.466   6.705   3.635  1.00 20.00    -0.059 A 
ENDROOT
BRANCH   6   7
HETATM    7  C8  UNL     1     -32.826   7.550   2.586  1.00 20.00     0.034 C 
HETATM    8  C7  UNL     1     -31.591   8.282   3.104  1.00 20.00     0.010 C 
ENDBRANCH   6   7
TORSDOF 1
ENDMDL
MODEL 3
REMARK VINA RESULT:      -6.3      0.813      1.954
REMARK  1 active torsions:
REMARK  status: ('A' for Active; 'I' for Inactive)
REMARK    1  A    between atoms: C6_6  and  C8_8 
ROOT
HETATM    1  C1  UNL     1     -34.694   5.699   5.095  1.00 20.00     0.000 A 
HETATM    2  C2  UNL     1     -34.059   6.753   5.752  1.00 20.00     0.001 A 
HETATM    3  C3  UNL     1     -34.408   5.438   3.755  1.00 20.00     0.001 A 
HETATM    4  C4  UNL     1     -33.138   7.547   5.069  1.00 20.00     0.007 A 
HETATM    5  C5  UNL     1     -33.486   6.232   3.071  1.00 20.00     0.007 A 
HETATM    6  C6  UNL     1     -32.852   7.286   3.729  1.00 20.00    -0.059 A 
ENDROOT
BRANCH   6   7
HETATM    7  C8  UNL     1     -31.867   8.135   2.997  1.00 20.00     0.034 C 
HETATM    8  C7  UNL     1     -32.449   8.726   1.716  1.00 20.00     0.010 C 
ENDBRANCH   6   7
TORSDOF 1
ENDMDL
MODEL 4
REMARK VINA RESULT:      -6.0      0.991      1.055
REMARK  1 active torsions:
REMARK  status: ('A' for Active; 'I' for Inactive)
REMARK    1  A    between atoms: C6_6  and  C8_8 
ROOT
HETATM    1  C1  UNL     1     -34.707   6.092   5.290  1.00 20.00     0.000 A 
HETATM    2  C2  UNL     1     -34.679   5.604   3.984  1.00 20.00     0.001 A 
HETATM    3  C3  UNL     1     -33.834   7.111   5.673  1.00 20.00     0.001 A 
HETATM    4  C4  UNL     1     -33.778   6.133   3.060  1.00 20.00     0.007 A 
HETATM    5  C5  UNL     1     -32.932   7.641   4.749  1.00 20.00     0.007 A 
HETATM    6  C6  UNL     1     -32.905   7.152   3.442  1.00 20.00    -0.059 A 
ENDROOT
BRANCH   6   7
HETATM    7  C8  UNL     1     -31.942   7.719   2.455  1.00 20.00     0.034 C 
HETATM    8  C7  UNL     1     -32.530   8.894   1.679  1.00 20.00     0.010 C 
ENDBRANCH   6   7
TORSDOF 1
ENDMDL
MODEL 5
REMARK VINA RESULT:      -5.3      0.897      3.719
REMARK  1 active torsions:
REMARK  status: ('A' for Active; 'I' for Inactive)
REMARK    1  A    between atoms: C6_6  and  C8_8 
ROOT
HETATM    1  C1  UNL     1     -31.807   8.328   3.341  1.00 20.00     0.000 A 
HETATM    2  C2  UNL     1     -32.245   8.218   4.661  1.00 20.00     0.001 A 
HETATM    3  C3  UNL     1     -32.399   7.552   2.343  1.00 20.00     0.001 A 
HETATM    4  C4  UNL     1     -33.273   7.333   4.984  1.00 20.00     0.007 A 
HETATM    5  C5  UNL     1     -33.427   6.666   2.667  1.00 20.00     0.007 A 
HETATM    6  C6  UNL     1     -33.864   6.558   3.987  1.00 20.00    -0.059 A 
ENDROOT
BRANCH   6   7
HETATM    7  C8  UNL     1     -34.964   5.611   4.332  1.00 20.00     0.034 C 
HETATM    8  C7  UNL     1     -34.729   4.911   5.668  1.00 20.00     0.010 C 
ENDBRANCH   6   7
TORSDOF 1
ENDMDL
MODEL 6
REMARK VINA RESULT:      -5.3      0.892      3.374
REMARK  1 active torsions:
REMARK  status: ('A' for Active; 'I' for Inactive)
REMARK    1  A    between atoms: C6_6  and  C8_8 
ROOT
HETATM    1  C1  UNL     1     -31.808   8.330   3.332  1.00 20.00     0.000 A 
HETATM    2  C2  UNL     1     -32.403   7.553   2.337  1.00 20.00     0.001 A 
HETATM    3  C3  UNL     1     -32.239   8.218   4.654  1.00 20.00     0.001 A 
HETATM    4  C4  UNL     1     -33.428   6.666   2.663  1.00 20.00     0.007 A 
HETATM    5  C5  UNL     1     -33.265   7.331   4.981  1.00 20.00     0.007 A 
HETATM    6  C6  UNL     1     -33.858   6.555   3.985  1.00 20.00    -0.059 A 
ENDROOT
BRANCH   6   7
HETATM    7  C8  UNL     1     -34.955   5.606   4.335  1.00 20.00     0.034 C 
HETATM    8  C7  UNL     1     -34.725   4.923   5.680  1.00 20.00     0.010 C 
ENDBRANCH   6   7
TORSDOF 1
ENDMDL
MODEL 7
REMARK VINA RESULT:      -5.0      1.133      2.136
REMARK  1 active torsions:
REMARK  status: ('A' for Active; 'I' for Inactive)
REMARK    1  A    between atoms: C6_6  and  C8_8 
ROOT
HETATM    1  C1  UNL     1     -34.078   6.919   6.316  1.00 20.00     0.000 A 
HETATM    2  C2  UNL     1     -34.673   5.729   5.897  1.00 20.00     0.001 A 
HETATM    3  C3  UNL     1     -33.363   7.699   5.408  1.00 20.00     0.001 A 
HETATM    4  C4  UNL     1     -34.553   5.318   4.570  1.00 20.00     0.007 A 
HETATM    5  C5  UNL     1     -33.242   7.289   4.080  1.00 20.00     0.007 A 
HETATM    6  C6  UNL     1     -33.838   6.099   3.661  1.00 20.00    -0.059 A 
ENDROOT
BRANCH   6   7
HETATM    7  C8  UNL     1     -33.708   5.661   2.241  1.00 20.00     0.034 C 
HETATM    8  C7  UNL     1     -32.915   4.364   2.104  1.00 20.00     0.010 C 
ENDBRANCH   6   7
TORSDOF 1
ENDMDL
MODEL 8
REMARK VINA RESULT:      -5.0      1.128      2.476
REMARK  1 active torsions:
REMARK  status: ('A' for Active; 'I' for Inactive)
REMARK    1  A    between atoms: C6_6  and  C8_8 
ROOT
HETATM    1  C1  UNL     1     -34.079   6.944   6.299  1.00 20.00     0.000 A 
HETATM    2  C2  UNL     1     -33.356   7.709   5.384  1.00 20.00     0.001 A 
HETATM    3  C3  UNL     1     -34.676   5.750   5.891  1.00 20.00     0.001 A 
HETATM    4  C4  UNL     1     -33.229   7.283   4.063  1.00 20.00     0.007 A 
HETATM    5  C5  UNL     1     -34.549   5.323   4.569  1.00 20.00     0.007 A 
HETATM    6  C6  UNL     1     -33.825   6.089   3.655  1.00 20.00    -0.059 A 
ENDROOT
BRANCH   6   7
HETATM    7  C8  UNL     1     -33.691   5.632   2.242  1.00 20.00     0.034 C 
HETATM    8  C7  UNL     1     -32.900   4.332   2.125  1.00 20.00     0.010 C 
ENDBRANCH   6   7
TORSDOF 1
ENDMDL
MODEL 9
REMARK VINA RESULT:      -4.3      1.328      2.754
REMARK  1 active torsions:
REMARK  status: ('A' for Active; 'I' for Inactive)
REMARK    1  A    between atoms: C6_6  and  C8_8 
ROOT
HETATM    1  C1  UNL     1     -33.463   4.516   2.624  1.00 20.00     0.000 A 
HETATM    2  C2  UNL     1     -33.979   3.875   3.750  1.00 20.00     0.001 A 
HETATM    3  C3  UNL     1     -33.252   5.895   2.641  1.00 20.00     0.001 A 
HETATM    4  C4  UNL     1     -34.284   4.612   4.894  1.00 20.00     0.007 A 
HETATM    5  C5  UNL     1     -33.558   6.633   3.785  1.00 20.00     0.007 A 
HETATM    6  C6  UNL     1     -34.074   5.991   4.911  1.00 20.00    -0.059 A 
ENDROOT
BRANCH   6   7
HETATM    7  C8  UNL     1     -34.401   6.780   6.134  1.00 20.00     0.034 C 
HETATM    8  C7  UNL     1     -33.458   7.964   6.330  1.00 20.00     0.010 C 
ENDBRANCH   6   7
TORSDOF 1
ENDMDL
