MODEL 1
REMARK VINA RESULT:      -3.6      0.000      0.000
REMARK  0 active torsions:
REMARK  status: ('A' for Active; 'I' for Inactive)
ROOT
HETATM    1  C1  UNL     1     -33.731   7.236   5.821  1.00 20.00     0.021 C 
HETATM    2  C2  UNL     1     -34.564   4.875   5.562  1.00 20.00     0.021 C 
HETATM    3  C3  UNL     1     -34.493   6.262   4.928  1.00 20.00     0.045 C 
HETATM    4  I4  UNL     1     -33.529   6.133   3.002  1.00 20.00    -0.086 I 
ENDROOT
TORSDOF 0
ENDMDL
MODEL 2
REMARK VINA RESULT:      -3.3      1.706      2.207
REMARK  0 active torsions:
REMARK  status: ('A' for Active; 'I' for Inactive)
ROOT
HETATM    1  C1  UNL     1     -32.974   7.214   3.476  1.00 20.00     0.021 C 
HETATM    2  C2  UNL     1     -33.571   7.399   5.915  1.00 20.00     0.021 C 
HETATM    3  C3  UNL     1     -34.042   6.951   4.534  1.00 20.00     0.045 C 
HETATM    4  I4  UNL     1     -34.520   4.847   4.575  1.00 20.00    -0.086 I 
ENDROOT
TORSDOF 0
ENDMDL
MODEL 3
REMARK VINA RESULT:      -3.2      1.976      2.673
REMARK  0 active torsions:
REMARK  status: ('A' for Active; 'I' for Inactive)
ROOT
HETATM    1  C1  UNL     1     -34.487   4.358   4.574  1.00 20.00     0.021 C 
HETATM    2  C2  UNL     1     -33.716   5.927   2.763  1.00 20.00     0.021 C 
HETATM    3  C3  UNL     1     -34.524   5.790   4.050  1.00 20.00     0.045 C 
HETATM    4  I4  UNL     1     -33.739   7.132   5.547  1.00 20.00    -0.086 I 
ENDROOT
TORSDOF 0
ENDMDL
MODEL 4
REMARK VINA RESULT:      -3.2      1.231      1.963
REMARK  0 active torsions:
REMARK  status: ('A' for Active; 'I' for Inactive)
ROOT
HETATM    1  C1  UNL     1     -35.143   5.785   4.093  1.00 20.00     0.021 C 
HETATM    2  C2  UNL     1     -33.898   7.139   5.812  1.00 20.00     0.021 C 
HETATM    3  C3  UNL     1     -33.774   6.261   4.569  1.00 20.00     0.045 C 
HETATM    4  I4  UNL     1     -32.800   7.366   2.992  1.00 20.00    -0.086 I 
ENDROOT
TORSDOF 0
ENDMDL
MODEL 5
REMARK VINA RESULT:      -3.1      2.516      3.155
REMARK  0 active torsions:
REMARK  status: ('A' for Active; 'I' for Inactive)
ROOT
HETATM    1  C1  UNL     1     -33.035   4.879   2.571  1.00 20.00     0.021 C 
HETATM    2  C2  UNL     1     -32.938   7.291   3.282  1.00 20.00     0.021 C 
HETATM    3  C3  UNL     1     -33.814   6.047   3.169  1.00 20.00     0.045 C 
HETATM    4  I4  UNL     1     -34.559   5.501   5.119  1.00 20.00    -0.086 I 
ENDROOT
TORSDOF 0
ENDMDL
MODEL 6
REMARK VINA RESULT:      -2.8      1.763      2.198
REMARK  0 active torsions:
REMARK  status: ('A' for Active; 'I' for Inactive)
ROOT
HETATM    1  C1  UNL     1     -33.667   7.489   5.897  1.00 20.00     0.021 C 
HETATM    2  C2  UNL     1     -33.582   7.431   3.383  1.00 20.00     0.021 C 
HETATM    3  C3  UNL     1     -33.362   6.639   4.668  1.00 20.00     0.045 C 
HETATM    4  I4  UNL     1     -34.622   4.887   4.667  1.00 20.00    -0.086 I 
ENDROOT
TORSDOF 0
ENDMDL
MODEL 7
REMARK VINA RESULT:      -2.7      5.450      5.625
REMARK  0 active torsions:
REMARK  status: ('A' for Active; 'I' for Inactive)
ROOT
HETATM    1  C1  UNL     1     -32.584  10.849   1.445  1.00 20.00     0.021 C 
HETATM    2  C2  UNL     1     -33.009   9.136  -0.350  1.00 20.00     0.021 C 
HETATM    3  C3  UNL     1     -32.164   9.501   0.868  1.00 20.00     0.045 C 
HETATM    4  I4  UNL     1     -32.364   7.970   2.376  1.00 20.00    -0.086 I 
ENDROOT
TORSDOF 0
ENDMDL
MODEL 8
REMARK VINA RESULT:      -2.7      2.675      2.865
REMARK  0 active torsions:
REMARK  status: ('A' for Active; 'I' for Inactive)
ROOT
HETATM    1  C1  UNL     1     -32.637   7.953   2.667  1.00 20.00     0.021 C 
HETATM    2  C2  UNL     1     -33.934   5.795   2.669  1.00 20.00     0.021 C 
HETATM    3  C3  UNL     1     -32.931   6.662   3.425  1.00 20.00     0.045 C 
HETATM    4  I4  UNL     1     -33.706   7.130   5.384  1.00 20.00    -0.086 I 
ENDROOT
TORSDOF 0
ENDMDL
MODEL 9
REMARK VINA RESULT:      -2.7      3.517      4.093
REMARK  0 active torsions:
REMARK  status: ('A' for Active; 'I' for Inactive)
ROOT
HETATM    1  C1  UNL     1     -33.300   7.029   2.655  1.00 20.00     0.021 C 
HETATM    2  C2  UNL     1     -31.436   8.384   3.667  1.00 20.00     0.021 C 
HETATM    3  C3  UNL     1     -32.032   7.830   2.376  1.00 20.00     0.045 C 
HETATM    4  I4  UNL     1     -32.479   9.453   1.026  1.00 20.00    -0.086 I 
ENDROOT
TORSDOF 0
ENDMDL
