MODEL 1
REMARK VINA RESULT:      -5.4      0.000      0.000
REMARK  0 active torsions:
REMARK  status: ('A' for Active; 'I' for Inactive)
ROOT
HETATM    1  C1  UNL     1     -34.136   5.568   3.444  1.00 20.00     0.000 A 
HETATM    2  C2  UNL     1     -34.716   5.132   4.634  1.00 20.00     0.000 A 
HETATM    3  C3  UNL     1     -33.387   6.745   3.423  1.00 20.00     0.000 A 
HETATM    4  C4  UNL     1     -34.550   5.873   5.804  1.00 20.00     0.000 A 
HETATM    5  C5  UNL     1     -33.220   7.486   4.592  1.00 20.00     0.000 A 
HETATM    6  C6  UNL     1     -33.802   7.050   5.783  1.00 20.00     0.000 A 
ENDROOT
TORSDOF 0
ENDMDL
MODEL 2
REMARK VINA RESULT:      -5.4      0.627      2.019
REMARK  0 active torsions:
REMARK  status: ('A' for Active; 'I' for Inactive)
ROOT
HETATM    1  C1  UNL     1     -34.378   6.101   5.944  1.00 20.00     0.000 A 
HETATM    2  C2  UNL     1     -34.593   4.875   5.314  1.00 20.00     0.000 A 
HETATM    3  C3  UNL     1     -33.856   7.174   5.222  1.00 20.00     0.000 A 
HETATM    4  C4  UNL     1     -34.286   4.723   3.963  1.00 20.00     0.000 A 
HETATM    5  C5  UNL     1     -33.550   7.022   3.870  1.00 20.00     0.000 A 
HETATM    6  C6  UNL     1     -33.764   5.795   3.240  1.00 20.00     0.000 A 
ENDROOT
TORSDOF 0
ENDMDL
MODEL 3
REMARK VINA RESULT:      -5.3      0.302      2.270
REMARK  0 active torsions:
REMARK  status: ('A' for Active; 'I' for Inactive)
ROOT
HETATM    1  C1  UNL     1     -33.275   7.406   4.238  1.00 20.00     0.000 A 
HETATM    2  C2  UNL     1     -33.494   6.445   3.251  1.00 20.00     0.000 A 
HETATM    3  C3  UNL     1     -33.746   7.195   5.534  1.00 20.00     0.000 A 
HETATM    4  C4  UNL     1     -34.184   5.273   3.560  1.00 20.00     0.000 A 
HETATM    5  C5  UNL     1     -34.435   6.023   5.843  1.00 20.00     0.000 A 
HETATM    6  C6  UNL     1     -34.655   5.062   4.856  1.00 20.00     0.000 A 
ENDROOT
TORSDOF 0
ENDMDL
MODEL 4
REMARK VINA RESULT:      -5.3      0.315      1.973
REMARK  0 active torsions:
REMARK  status: ('A' for Active; 'I' for Inactive)
ROOT
HETATM    1  C1  UNL     1     -33.274   7.386   4.245  1.00 20.00     0.000 A 
HETATM    2  C2  UNL     1     -33.755   7.187   5.539  1.00 20.00     0.000 A 
HETATM    3  C3  UNL     1     -33.478   6.412   3.268  1.00 20.00     0.000 A 
HETATM    4  C4  UNL     1     -34.438   6.013   5.856  1.00 20.00     0.000 A 
HETATM    5  C5  UNL     1     -34.162   5.238   3.585  1.00 20.00     0.000 A 
HETATM    6  C6  UNL     1     -34.641   5.038   4.880  1.00 20.00     0.000 A 
ENDROOT
TORSDOF 0
ENDMDL
MODEL 5
REMARK VINA RESULT:      -5.3      0.539      1.982
REMARK  0 active torsions:
REMARK  status: ('A' for Active; 'I' for Inactive)
ROOT
HETATM    1  C1  UNL     1     -33.638   6.138   3.240  1.00 20.00     0.000 A 
HETATM    2  C2  UNL     1     -33.438   7.233   4.079  1.00 20.00     0.000 A 
HETATM    3  C3  UNL     1     -34.223   4.973   3.738  1.00 20.00     0.000 A 
HETATM    4  C4  UNL     1     -33.822   7.164   5.418  1.00 20.00     0.000 A 
HETATM    5  C5  UNL     1     -34.608   4.905   5.077  1.00 20.00     0.000 A 
HETATM    6  C6  UNL     1     -34.407   6.001   5.918  1.00 20.00     0.000 A 
ENDROOT
TORSDOF 0
ENDMDL
MODEL 6
REMARK VINA RESULT:      -5.3      0.416      2.585
REMARK  0 active torsions:
REMARK  status: ('A' for Active; 'I' for Inactive)
ROOT
HETATM    1  C1  UNL     1     -34.407   6.089   5.862  1.00 20.00     0.000 A 
HETATM    2  C2  UNL     1     -33.722   7.230   5.448  1.00 20.00     0.000 A 
HETATM    3  C3  UNL     1     -34.649   5.053   4.959  1.00 20.00     0.000 A 
HETATM    4  C4  UNL     1     -33.278   7.337   4.130  1.00 20.00     0.000 A 
HETATM    5  C5  UNL     1     -34.204   5.160   3.642  1.00 20.00     0.000 A 
HETATM    6  C6  UNL     1     -33.519   6.302   3.227  1.00 20.00     0.000 A 
ENDROOT
TORSDOF 0
ENDMDL
MODEL 7
REMARK VINA RESULT:      -5.1      0.582      1.685
REMARK  0 active torsions:
REMARK  status: ('A' for Active; 'I' for Inactive)
ROOT
HETATM    1  C1  UNL     1     -32.844   6.950   3.231  1.00 20.00     0.000 A 
HETATM    2  C2  UNL     1     -33.554   5.772   3.004  1.00 20.00     0.000 A 
HETATM    3  C3  UNL     1     -32.994   7.634   4.438  1.00 20.00     0.000 A 
HETATM    4  C4  UNL     1     -34.416   5.277   3.982  1.00 20.00     0.000 A 
HETATM    5  C5  UNL     1     -33.856   7.139   5.416  1.00 20.00     0.000 A 
HETATM    6  C6  UNL     1     -34.567   5.961   5.188  1.00 20.00     0.000 A 
ENDROOT
TORSDOF 0
ENDMDL
MODEL 8
REMARK VINA RESULT:      -3.4     12.252     12.741
REMARK  0 active torsions:
REMARK  status: ('A' for Active; 'I' for Inactive)
ROOT
HETATM    1  C1  UNL     1     -34.837  17.883  -0.025  1.00 20.00     0.000 A 
HETATM    2  C2  UNL     1     -35.490  17.041  -0.925  1.00 20.00     0.000 A 
HETATM    3  C3  UNL     1     -33.535  18.309  -0.286  1.00 20.00     0.000 A 
HETATM    4  C4  UNL     1     -34.839  16.625  -2.086  1.00 20.00     0.000 A 
HETATM    5  C5  UNL     1     -32.885  17.893  -1.447  1.00 20.00     0.000 A 
HETATM    6  C6  UNL     1     -33.537  17.050  -2.348  1.00 20.00     0.000 A 
ENDROOT
TORSDOF 0
ENDMDL
MODEL 9
REMARK VINA RESULT:      -3.4     12.253     12.730
REMARK  0 active torsions:
REMARK  status: ('A' for Active; 'I' for Inactive)
ROOT
HETATM    1  C1  UNL     1     -35.489  17.034  -0.941  1.00 20.00     0.000 A 
HETATM    2  C2  UNL     1     -34.826  16.629  -2.100  1.00 20.00     0.000 A 
HETATM    3  C3  UNL     1     -34.850  17.875  -0.029  1.00 20.00     0.000 A 
HETATM    4  C4  UNL     1     -33.524  17.064  -2.345  1.00 20.00     0.000 A 
HETATM    5  C5  UNL     1     -33.548  18.309  -0.276  1.00 20.00     0.000 A 
HETATM    6  C6  UNL     1     -32.885  17.904  -1.434  1.00 20.00     0.000 A 
ENDROOT
TORSDOF 0
ENDMDL
