MODEL 1
REMARK VINA RESULT:      -5.7      0.000      0.000
REMARK  0 active torsions:
REMARK  status: ('A' for Active; 'I' for Inactive)
ROOT
HETATM    1  C1  UNL     1     -34.674   5.115   5.632  1.00 20.00     0.002 A 
HETATM    2  C2  UNL     1     -34.379   6.451   5.903  1.00 20.00     0.002 A 
HETATM    3  C3  UNL     1     -34.280   4.545   4.422  1.00 20.00     0.025 A 
HETATM    4  C4  UNL     1     -33.690   7.218   4.963  1.00 20.00     0.025 A 
HETATM    5  C5  UNL     1     -33.590   5.311   3.482  1.00 20.00     0.055 A 
HETATM    6  C6  UNL     1     -33.295   6.648   3.753  1.00 20.00     0.055 A 
HETATM    7 CL7  UNL     1     -33.128   4.549   2.001  1.00 20.00    -0.083 Cl
HETATM    8 CL8  UNL     1     -32.445   7.648   2.628  1.00 20.00    -0.083 Cl
ENDROOT
TORSDOF 0
ENDMDL
MODEL 2
REMARK VINA RESULT:      -5.6      0.023      2.353
REMARK  0 active torsions:
REMARK  status: ('A' for Active; 'I' for Inactive)
ROOT
HETATM    1  C1  UNL     1     -34.375   6.449   5.881  1.00 20.00     0.002 A 
HETATM    2  C2  UNL     1     -34.675   5.115   5.610  1.00 20.00     0.002 A 
HETATM    3  C3  UNL     1     -33.681   7.213   4.942  1.00 20.00     0.025 A 
HETATM    4  C4  UNL     1     -34.281   4.542   4.401  1.00 20.00     0.025 A 
HETATM    5  C5  UNL     1     -33.287   6.641   3.732  1.00 20.00     0.055 A 
HETATM    6  C6  UNL     1     -33.587   5.305   3.462  1.00 20.00     0.055 A 
HETATM    7 CL7  UNL     1     -32.430   7.636   2.609  1.00 20.00    -0.083 Cl
HETATM    8 CL8  UNL     1     -33.126   4.539   1.982  1.00 20.00    -0.083 Cl
ENDROOT
TORSDOF 0
ENDMDL
MODEL 3
REMARK VINA RESULT:      -5.2      1.401      2.476
REMARK  0 active torsions:
REMARK  status: ('A' for Active; 'I' for Inactive)
ROOT
HETATM    1  C1  UNL     1     -34.052   4.310   3.480  1.00 20.00     0.002 A 
HETATM    2  C2  UNL     1     -34.560   4.334   4.779  1.00 20.00     0.002 A 
HETATM    3  C3  UNL     1     -33.419   5.437   2.957  1.00 20.00     0.025 A 
HETATM    4  C4  UNL     1     -34.435   5.487   5.554  1.00 20.00     0.025 A 
HETATM    5  C5  UNL     1     -33.293   6.589   3.733  1.00 20.00     0.055 A 
HETATM    6  C6  UNL     1     -33.802   6.614   5.032  1.00 20.00     0.055 A 
HETATM    7 CL7  UNL     1     -32.499   7.954   3.030  1.00 20.00    -0.083 Cl
HETATM    8 CL8  UNL     1     -33.677   8.011   6.042  1.00 20.00    -0.083 Cl
ENDROOT
TORSDOF 0
ENDMDL
MODEL 4
REMARK VINA RESULT:      -5.1      1.399      2.607
REMARK  0 active torsions:
REMARK  status: ('A' for Active; 'I' for Inactive)
ROOT
HETATM    1  C1  UNL     1     -34.544   4.319   4.799  1.00 20.00     0.002 A 
HETATM    2  C2  UNL     1     -34.050   4.293   3.495  1.00 20.00     0.002 A 
HETATM    3  C3  UNL     1     -34.426   5.478   5.567  1.00 20.00     0.025 A 
HETATM    4  C4  UNL     1     -33.436   5.424   2.959  1.00 20.00     0.025 A 
HETATM    5  C5  UNL     1     -33.813   6.610   5.031  1.00 20.00     0.055 A 
HETATM    6  C6  UNL     1     -33.317   6.583   3.726  1.00 20.00     0.055 A 
HETATM    7 CL7  UNL     1     -33.695   8.015   6.030  1.00 20.00    -0.083 Cl
HETATM    8 CL8  UNL     1     -32.547   7.953   3.006  1.00 20.00    -0.083 Cl
ENDROOT
TORSDOF 0
ENDMDL
MODEL 5
REMARK VINA RESULT:      -4.8      2.214      2.907
REMARK  0 active torsions:
REMARK  status: ('A' for Active; 'I' for Inactive)
ROOT
HETATM    1  C1  UNL     1     -33.281   5.818   2.231  1.00 20.00     0.002 A 
HETATM    2  C2  UNL     1     -32.763   7.089   2.476  1.00 20.00     0.002 A 
HETATM    3  C3  UNL     1     -33.930   5.121   3.251  1.00 20.00     0.025 A 
HETATM    4  C4  UNL     1     -32.891   7.664   3.740  1.00 20.00     0.025 A 
HETATM    5  C5  UNL     1     -34.059   5.696   4.515  1.00 20.00     0.055 A 
HETATM    6  C6  UNL     1     -33.540   6.967   4.760  1.00 20.00     0.055 A 
HETATM    7 CL7  UNL     1     -34.872   4.784   5.738  1.00 20.00    -0.083 Cl
HETATM    8 CL8  UNL     1     -33.668   7.732   6.305  1.00 20.00    -0.083 Cl
ENDROOT
TORSDOF 0
ENDMDL
MODEL 6
REMARK VINA RESULT:      -4.8      2.216      3.731
REMARK  0 active torsions:
REMARK  status: ('A' for Active; 'I' for Inactive)
ROOT
HETATM    1  C1  UNL     1     -32.741   7.096   2.492  1.00 20.00     0.002 A 
HETATM    2  C2  UNL     1     -33.256   5.824   2.241  1.00 20.00     0.002 A 
HETATM    3  C3  UNL     1     -32.882   7.670   3.756  1.00 20.00     0.025 A 
HETATM    4  C4  UNL     1     -33.913   5.126   3.254  1.00 20.00     0.025 A 
HETATM    5  C5  UNL     1     -33.539   6.971   4.769  1.00 20.00     0.055 A 
HETATM    6  C6  UNL     1     -34.054   5.699   4.518  1.00 20.00     0.055 A 
HETATM    7 CL7  UNL     1     -33.683   7.733   6.313  1.00 20.00    -0.083 Cl
HETATM    8 CL8  UNL     1     -34.878   4.784   5.731  1.00 20.00    -0.083 Cl
ENDROOT
TORSDOF 0
ENDMDL
MODEL 7
REMARK VINA RESULT:      -4.4      1.490      2.517
REMARK  0 active torsions:
REMARK  status: ('A' for Active; 'I' for Inactive)
ROOT
HETATM    1  C1  UNL     1     -33.311   7.872   5.398  1.00 20.00     0.002 A 
HETATM    2  C2  UNL     1     -32.549   8.085   4.249  1.00 20.00     0.002 A 
HETATM    3  C3  UNL     1     -34.034   6.688   5.546  1.00 20.00     0.025 A 
HETATM    4  C4  UNL     1     -32.509   7.114   3.249  1.00 20.00     0.025 A 
HETATM    5  C5  UNL     1     -33.993   5.716   4.546  1.00 20.00     0.055 A 
HETATM    6  C6  UNL     1     -33.231   5.930   3.397  1.00 20.00     0.055 A 
HETATM    7 CL7  UNL     1     -34.909   4.271   4.787  1.00 20.00    -0.083 Cl
HETATM    8 CL8  UNL     1     -33.142   4.765   2.123  1.00 20.00    -0.083 Cl
ENDROOT
TORSDOF 0
ENDMDL
MODEL 8
REMARK VINA RESULT:      -4.4      1.493      2.629
REMARK  0 active torsions:
REMARK  status: ('A' for Active; 'I' for Inactive)
ROOT
HETATM    1  C1  UNL     1     -32.538   8.078   4.221  1.00 20.00     0.002 A 
HETATM    2  C2  UNL     1     -33.301   7.877   5.371  1.00 20.00     0.002 A 
HETATM    3  C3  UNL     1     -32.501   7.100   3.228  1.00 20.00     0.025 A 
HETATM    4  C4  UNL     1     -34.027   6.697   5.529  1.00 20.00     0.025 A 
HETATM    5  C5  UNL     1     -33.228   5.919   3.385  1.00 20.00     0.055 A 
HETATM    6  C6  UNL     1     -33.991   5.718   4.536  1.00 20.00     0.055 A 
HETATM    7 CL7  UNL     1     -33.144   4.744   2.121  1.00 20.00    -0.083 Cl
HETATM    8 CL8  UNL     1     -34.912   4.277   4.789  1.00 20.00    -0.083 Cl
ENDROOT
TORSDOF 0
ENDMDL
MODEL 9
REMARK VINA RESULT:      -3.7     12.636     13.190
REMARK  0 active torsions:
REMARK  status: ('A' for Active; 'I' for Inactive)
ROOT
HETATM    1  C1  UNL     1     -33.634  17.035  -2.473  1.00 20.00     0.002 A 
HETATM    2  C2  UNL     1     -34.919  16.639  -2.105  1.00 20.00     0.002 A 
HETATM    3  C3  UNL     1     -32.879  17.837  -1.616  1.00 20.00     0.025 A 
HETATM    4  C4  UNL     1     -35.451  17.044  -0.881  1.00 20.00     0.025 A 
HETATM    5  C5  UNL     1     -33.411  18.242  -0.391  1.00 20.00     0.055 A 
HETATM    6  C6  UNL     1     -34.697  17.845  -0.024  1.00 20.00     0.055 A 
HETATM    7 CL7  UNL     1     -32.428  19.234   0.627  1.00 20.00    -0.083 Cl
HETATM    8 CL8  UNL     1     -35.411  18.314   1.479  1.00 20.00    -0.083 Cl
ENDROOT
TORSDOF 0
ENDMDL
