MODEL 1
REMARK VINA RESULT:      -6.6      0.000      0.000
REMARK  1 active torsions:
REMARK  status: ('A' for Active; 'I' for Inactive)
REMARK    1  A    between atoms: C6_6  and  C9_9 
ROOT
HETATM    1  C1  UNL     1     -34.648   5.124   5.638  1.00 20.00     0.001 A 
HETATM    2  C2  UNL     1     -34.340   6.462   5.886  1.00 20.00     0.001 A 
HETATM    3  C3  UNL     1     -34.300   4.542   4.420  1.00 20.00     0.007 A 
HETATM    4  C4  UNL     1     -33.682   7.217   4.915  1.00 20.00     0.007 A 
HETATM    5  C5  UNL     1     -33.642   5.297   3.449  1.00 20.00    -0.056 A 
HETATM    6  C6  UNL     1     -33.334   6.635   3.697  1.00 20.00    -0.053 A 
HETATM    7  C7  UNL     1     -33.278   4.652   2.152  1.00 20.00     0.049 C 
ENDROOT
BRANCH   6   8
HETATM    8  C9  UNL     1     -32.632   7.463   2.671  1.00 20.00     0.034 C 
HETATM    9  C8  UNL     1     -31.543   8.341   3.282  1.00 20.00     0.010 C 
ENDBRANCH   6   8
TORSDOF 1
ENDMDL
MODEL 2
REMARK VINA RESULT:      -6.2      0.806      2.450
REMARK  1 active torsions:
REMARK  status: ('A' for Active; 'I' for Inactive)
REMARK    1  A    between atoms: C6_6  and  C9_9 
ROOT
HETATM    1  C1  UNL     1     -34.580   4.432   4.400  1.00 20.00     0.001 A 
HETATM    2  C2  UNL     1     -33.903   4.554   3.186  1.00 20.00     0.001 A 
HETATM    3  C3  UNL     1     -34.520   5.462   5.339  1.00 20.00     0.007 A 
HETATM    4  C4  UNL     1     -33.166   5.706   2.912  1.00 20.00     0.007 A 
HETATM    5  C5  UNL     1     -33.783   6.614   5.065  1.00 20.00    -0.056 A 
HETATM    6  C6  UNL     1     -33.105   6.735   3.852  1.00 20.00    -0.053 A 
HETATM    7  C7  UNL     1     -33.733   7.703   6.085  1.00 20.00     0.049 C 
ENDROOT
BRANCH   6   8
HETATM    8  C9  UNL     1     -32.308   7.958   3.537  1.00 20.00     0.034 C 
HETATM    9  C8  UNL     1     -32.227   8.227   2.037  1.00 20.00     0.010 C 
ENDBRANCH   6   8
TORSDOF 1
ENDMDL
MODEL 3
REMARK VINA RESULT:      -6.0      1.042      3.882
REMARK  1 active torsions:
REMARK  status: ('A' for Active; 'I' for Inactive)
REMARK    1  A    between atoms: C6_6  and  C9_9 
ROOT
HETATM    1  C1  UNL     1     -31.773   8.265   3.151  1.00 20.00     0.001 A 
HETATM    2  C2  UNL     1     -32.332   7.447   2.169  1.00 20.00     0.001 A 
HETATM    3  C3  UNL     1     -32.259   8.219   4.457  1.00 20.00     0.007 A 
HETATM    4  C4  UNL     1     -33.377   6.582   2.495  1.00 20.00     0.007 A 
HETATM    5  C5  UNL     1     -33.304   7.354   4.783  1.00 20.00    -0.056 A 
HETATM    6  C6  UNL     1     -33.863   6.536   3.801  1.00 20.00    -0.053 A 
HETATM    7  C7  UNL     1     -33.807   7.321   6.189  1.00 20.00     0.049 C 
ENDROOT
BRANCH   6   8
HETATM    8  C9  UNL     1     -34.983   5.604   4.125  1.00 20.00     0.034 C 
HETATM    9  C8  UNL     1     -34.486   4.223   4.541  1.00 20.00     0.010 C 
ENDBRANCH   6   8
TORSDOF 1
ENDMDL
MODEL 4
REMARK VINA RESULT:      -5.7      0.761      2.661
REMARK  1 active torsions:
REMARK  status: ('A' for Active; 'I' for Inactive)
REMARK    1  A    between atoms: C6_6  and  C9_9 
ROOT
HETATM    1  C1  UNL     1     -33.992   7.101   6.185  1.00 20.00     0.001 A 
HETATM    2  C2  UNL     1     -34.662   5.920   5.864  1.00 20.00     0.001 A 
HETATM    3  C3  UNL     1     -33.227   7.753   5.219  1.00 20.00     0.007 A 
HETATM    4  C4  UNL     1     -34.567   5.393   4.576  1.00 20.00     0.007 A 
HETATM    5  C5  UNL     1     -33.132   7.226   3.931  1.00 20.00    -0.056 A 
HETATM    6  C6  UNL     1     -33.802   6.046   3.610  1.00 20.00    -0.053 A 
HETATM    7  C7  UNL     1     -32.307   7.943   2.912  1.00 20.00     0.049 C 
ENDROOT
BRANCH   6   8
HETATM    8  C9  UNL     1     -33.714   5.461   2.239  1.00 20.00     0.034 C 
HETATM    9  C8  UNL     1     -32.834   4.215   2.195  1.00 20.00     0.010 C 
ENDBRANCH   6   8
TORSDOF 1
ENDMDL
MODEL 5
REMARK VINA RESULT:      -5.1      0.978      3.217
REMARK  1 active torsions:
REMARK  status: ('A' for Active; 'I' for Inactive)
REMARK    1  A    between atoms: C6_6  and  C9_9 
ROOT
HETATM    1  C1  UNL     1     -31.725   8.331   3.541  1.00 20.00     0.001 A 
HETATM    2  C2  UNL     1     -32.221   8.385   4.844  1.00 20.00     0.001 A 
HETATM    3  C3  UNL     1     -32.287   7.450   2.617  1.00 20.00     0.007 A 
HETATM    4  C4  UNL     1     -33.279   7.559   5.222  1.00 20.00     0.007 A 
HETATM    5  C5  UNL     1     -33.345   6.624   2.995  1.00 20.00    -0.056 A 
HETATM    6  C6  UNL     1     -33.841   6.679   4.298  1.00 20.00    -0.053 A 
HETATM    7  C7  UNL     1     -33.932   5.690   1.988  1.00 20.00     0.049 C 
ENDROOT
BRANCH   6   8
HETATM    8  C9  UNL     1     -34.972   5.803   4.726  1.00 20.00     0.034 C 
HETATM    9  C8  UNL     1     -34.512   4.659   5.624  1.00 20.00     0.010 C 
ENDBRANCH   6   8
TORSDOF 1
ENDMDL
MODEL 6
REMARK VINA RESULT:      -4.9      0.989      2.615
REMARK  1 active torsions:
REMARK  status: ('A' for Active; 'I' for Inactive)
REMARK    1  A    between atoms: C6_6  and  C9_9 
ROOT
HETATM    1  C1  UNL     1     -33.330   7.751   5.970  1.00 20.00     0.001 A 
HETATM    2  C2  UNL     1     -32.664   8.153   4.812  1.00 20.00     0.001 A 
HETATM    3  C3  UNL     1     -34.145   6.620   5.949  1.00 20.00     0.007 A 
HETATM    4  C4  UNL     1     -32.813   7.422   3.633  1.00 20.00     0.007 A 
HETATM    5  C5  UNL     1     -34.294   5.889   4.770  1.00 20.00    -0.056 A 
HETATM    6  C6  UNL     1     -33.629   6.291   3.612  1.00 20.00    -0.053 A 
HETATM    7  C7  UNL     1     -35.172   4.680   4.772  1.00 20.00     0.049 C 
ENDROOT
BRANCH   6   8
HETATM    8  C9  UNL     1     -33.775   5.525   2.338  1.00 20.00     0.034 C 
HETATM    9  C8  UNL     1     -32.798   4.357   2.249  1.00 20.00     0.010 C 
ENDBRANCH   6   8
TORSDOF 1
ENDMDL
MODEL 7
REMARK VINA RESULT:      -4.8      0.952      2.531
REMARK  1 active torsions:
REMARK  status: ('A' for Active; 'I' for Inactive)
REMARK    1  A    between atoms: C6_6  and  C9_9 
ROOT
HETATM    1  C1  UNL     1     -33.625   3.868   3.192  1.00 20.00     0.001 A 
HETATM    2  C2  UNL     1     -34.359   4.016   4.369  1.00 20.00     0.001 A 
HETATM    3  C3  UNL     1     -33.048   4.983   2.585  1.00 20.00     0.007 A 
HETATM    4  C4  UNL     1     -34.514   5.279   4.940  1.00 20.00     0.007 A 
HETATM    5  C5  UNL     1     -33.203   6.247   3.155  1.00 20.00    -0.056 A 
HETATM    6  C6  UNL     1     -33.937   6.394   4.333  1.00 20.00    -0.053 A 
HETATM    7  C7  UNL     1     -32.575   7.426   2.488  1.00 20.00     0.049 C 
ENDROOT
BRANCH   6   8
HETATM    8  C9  UNL     1     -34.118   7.737   4.961  1.00 20.00     0.034 C 
HETATM    9  C8  UNL     1     -33.472   7.823   6.341  1.00 20.00     0.010 C 
ENDBRANCH   6   8
TORSDOF 1
ENDMDL
MODEL 8
REMARK VINA RESULT:      -4.5     12.185     12.823
REMARK  1 active torsions:
REMARK  status: ('A' for Active; 'I' for Inactive)
REMARK    1  A    between atoms: C6_6  and  C9_9 
ROOT
HETATM    1  C1  UNL     1     -34.785  16.617  -2.154  1.00 20.00     0.001 A 
HETATM    2  C2  UNL     1     -33.498  17.092  -2.405  1.00 20.00     0.001 A 
HETATM    3  C3  UNL     1     -35.441  16.968  -0.974  1.00 20.00     0.007 A 
HETATM    4  C4  UNL     1     -32.866  17.918  -1.476  1.00 20.00     0.007 A 
HETATM    5  C5  UNL     1     -34.809  17.795  -0.045  1.00 20.00    -0.056 A 
HETATM    6  C6  UNL     1     -33.521  18.269  -0.296  1.00 20.00    -0.053 A 
HETATM    7  C7  UNL     1     -35.530  18.158   1.212  1.00 20.00     0.049 C 
ENDROOT
BRANCH   6   8
HETATM    8  C9  UNL     1     -32.824  19.153   0.685  1.00 20.00     0.034 C 
HETATM    9  C8  UNL     1     -31.376  18.733   0.917  1.00 20.00     0.010 C 
ENDBRANCH   6   8
TORSDOF 1
ENDMDL
MODEL 9
REMARK VINA RESULT:      -4.4     12.131     12.844
REMARK  1 active torsions:
REMARK  status: ('A' for Active; 'I' for Inactive)
REMARK    1  A    between atoms: C6_6  and  C9_9 
ROOT
HETATM    1  C1  UNL     1     -32.437  18.868   0.532  1.00 20.00     0.001 A 
HETATM    2  C2  UNL     1     -32.125  18.420  -0.751  1.00 20.00     0.001 A 
HETATM    3  C3  UNL     1     -33.700  18.622   1.069  1.00 20.00     0.007 A 
HETATM    4  C4  UNL     1     -33.077  17.726  -1.497  1.00 20.00     0.007 A 
HETATM    5  C5  UNL     1     -34.652  17.928   0.323  1.00 20.00    -0.056 A 
HETATM    6  C6  UNL     1     -34.341  17.480  -0.960  1.00 20.00    -0.053 A 
HETATM    7  C7  UNL     1     -35.998  17.675   0.920  1.00 20.00     0.049 C 
ENDROOT
BRANCH   6   8
HETATM    8  C9  UNL     1     -35.344  16.736  -1.778  1.00 20.00     0.034 C 
HETATM    9  C8  UNL     1     -34.714  16.056  -2.990  1.00 20.00     0.010 C 
ENDBRANCH   6   8
TORSDOF 1
ENDMDL
