MODEL 1
REMARK VINA RESULT:      -7.2      0.000      0.000
REMARK  3 active torsions:
REMARK  status: ('A' for Active; 'I' for Inactive)
REMARK    1  A    between atoms: C6_6  and  C8_8 
REMARK    2  A    between atoms: C8_8  and  C10_10 
REMARK    3  A    between atoms: C9_9  and  C10_10 
ROOT
HETATM    1  C1  UNL     1     -34.593   5.653   5.903  1.00 20.00     0.000 A 
HETATM    2  C2  UNL     1     -33.965   6.897   5.848  1.00 20.00     0.001 A 
HETATM    3  C3  UNL     1     -34.652   4.852   4.763  1.00 20.00     0.001 A 
HETATM    4  C4  UNL     1     -33.396   7.341   4.654  1.00 20.00     0.007 A 
HETATM    5  C5  UNL     1     -34.083   5.295   3.569  1.00 20.00     0.007 A 
HETATM    6  C6  UNL     1     -33.456   6.539   3.514  1.00 20.00    -0.058 A 
ENDROOT
BRANCH   6   7
HETATM    7  C8  UNL     1     -32.842   7.017   2.223  1.00 20.00     0.038 C 
BRANCH   7   8
HETATM    8  C10 UNL     1     -32.114   8.352   2.407  1.00 20.00     0.004 C 
BRANCH   8   9
HETATM    9  C9  UNL     1     -31.842   9.025   1.063  1.00 20.00    -0.004 C 
HETATM   10  C7  UNL     1     -32.641  10.310   0.910  1.00 20.00     0.005 C 
ENDBRANCH   8   9
ENDBRANCH   7   8
ENDBRANCH   6   7
TORSDOF 3
ENDMDL
MODEL 2
REMARK VINA RESULT:      -7.1      0.807      1.213
REMARK  3 active torsions:
REMARK  status: ('A' for Active; 'I' for Inactive)
REMARK    1  A    between atoms: C6_6  and  C8_8 
REMARK    2  A    between atoms: C8_8  and  C10_10 
REMARK    3  A    between atoms: C9_9  and  C10_10 
ROOT
HETATM    1  C1  UNL     1     -34.670   5.617   4.785  1.00 20.00     0.000 A 
HETATM    2  C2  UNL     1     -34.140   6.624   5.592  1.00 20.00     0.001 A 
HETATM    3  C3  UNL     1     -34.247   5.489   3.462  1.00 20.00     0.001 A 
HETATM    4  C4  UNL     1     -33.187   7.503   5.077  1.00 20.00     0.007 A 
HETATM    5  C5  UNL     1     -33.294   6.368   2.947  1.00 20.00     0.007 A 
HETATM    6  C6  UNL     1     -32.764   7.375   3.754  1.00 20.00    -0.058 A 
ENDROOT
BRANCH   6   7
HETATM    7  C8  UNL     1     -31.734   8.324   3.196  1.00 20.00     0.038 C 
BRANCH   7   8
HETATM    8  C10 UNL     1     -31.817   8.407   1.669  1.00 20.00     0.004 C 
BRANCH   8   9
HETATM    9  C9  UNL     1     -32.515   9.691   1.220  1.00 20.00    -0.004 C 
HETATM   10  C7  UNL     1     -33.049   9.569  -0.199  1.00 20.00     0.005 C 
ENDBRANCH   8   9
ENDBRANCH   7   8
ENDBRANCH   6   7
TORSDOF 3
ENDMDL
MODEL 3
REMARK VINA RESULT:      -7.1      0.798      1.824
REMARK  3 active torsions:
REMARK  status: ('A' for Active; 'I' for Inactive)
REMARK    1  A    between atoms: C6_6  and  C8_8 
REMARK    2  A    between atoms: C8_8  and  C10_10 
REMARK    3  A    between atoms: C9_9  and  C10_10 
ROOT
HETATM    1  C1  UNL     1     -34.707   5.568   4.729  1.00 20.00     0.000 A 
HETATM    2  C2  UNL     1     -34.278   5.462   3.406  1.00 20.00     0.001 A 
HETATM    3  C3  UNL     1     -34.179   6.560   5.556  1.00 20.00     0.001 A 
HETATM    4  C4  UNL     1     -33.322   6.348   2.909  1.00 20.00     0.007 A 
HETATM    5  C5  UNL     1     -33.224   7.446   5.059  1.00 20.00     0.007 A 
HETATM    6  C6  UNL     1     -32.795   7.340   3.736  1.00 20.00    -0.058 A 
ENDROOT
BRANCH   6   7
HETATM    7  C8  UNL     1     -31.762   8.299   3.201  1.00 20.00     0.038 C 
BRANCH   7   8
HETATM    8  C10 UNL     1     -31.831   8.404   1.674  1.00 20.00     0.004 C 
BRANCH   8   9
HETATM    9  C9  UNL     1     -32.537   9.688   1.238  1.00 20.00    -0.004 C 
HETATM   10  C7  UNL     1     -33.003   9.605  -0.208  1.00 20.00     0.005 C 
ENDBRANCH   8   9
ENDBRANCH   7   8
ENDBRANCH   6   7
TORSDOF 3
ENDMDL
MODEL 4
REMARK VINA RESULT:      -5.2      1.129      4.595
REMARK  3 active torsions:
REMARK  status: ('A' for Active; 'I' for Inactive)
REMARK    1  A    between atoms: C6_6  and  C8_8 
REMARK    2  A    between atoms: C8_8  and  C10_10 
REMARK    3  A    between atoms: C9_9  and  C10_10 
ROOT
HETATM    1  C1  UNL     1     -31.847   8.321   1.887  1.00 20.00     0.000 A 
HETATM    2  C2  UNL     1     -31.236   8.653   3.095  1.00 20.00     0.001 A 
HETATM    3  C3  UNL     1     -33.042   7.601   1.884  1.00 20.00     0.001 A 
HETATM    4  C4  UNL     1     -31.819   8.266   4.302  1.00 20.00     0.007 A 
HETATM    5  C5  UNL     1     -33.625   7.214   3.091  1.00 20.00     0.007 A 
HETATM    6  C6  UNL     1     -33.014   7.546   4.300  1.00 20.00    -0.058 A 
ENDROOT
BRANCH   6   7
HETATM    7  C8  UNL     1     -33.645   7.127   5.603  1.00 20.00     0.038 C 
BRANCH   7   8
HETATM    8  C10 UNL     1     -34.821   6.173   5.375  1.00 20.00     0.004 C 
BRANCH   8   9
HETATM    9  C9  UNL     1     -34.426   4.725   5.670  1.00 20.00    -0.004 C 
HETATM   10  C7  UNL     1     -34.182   3.942   4.389  1.00 20.00     0.005 C 
ENDBRANCH   8   9
ENDBRANCH   7   8
ENDBRANCH   6   7
TORSDOF 3
ENDMDL
MODEL 5
REMARK VINA RESULT:      -5.0      1.009      4.497
REMARK  3 active torsions:
REMARK  status: ('A' for Active; 'I' for Inactive)
REMARK    1  A    between atoms: C6_6  and  C8_8 
REMARK    2  A    between atoms: C8_8  and  C10_10 
REMARK    3  A    between atoms: C9_9  and  C10_10 
ROOT
HETATM    1  C1  UNL     1     -31.852   9.371   1.839  1.00 20.00     0.000 A 
HETATM    2  C2  UNL     1     -31.477   8.756   3.034  1.00 20.00     0.001 A 
HETATM    3  C3  UNL     1     -32.802   8.770   1.014  1.00 20.00     0.001 A 
HETATM    4  C4  UNL     1     -32.052   7.541   3.403  1.00 20.00     0.007 A 
HETATM    5  C5  UNL     1     -33.377   7.554   1.383  1.00 20.00     0.007 A 
HETATM    6  C6  UNL     1     -33.002   6.939   2.578  1.00 20.00    -0.058 A 
ENDROOT
BRANCH   6   7
HETATM    7  C8  UNL     1     -33.624   5.625   2.976  1.00 20.00     0.038 C 
BRANCH   7   8
HETATM    8  C10 UNL     1     -34.890   5.834   3.813  1.00 20.00     0.004 C 
BRANCH   8   9
HETATM    9  C9  UNL     1     -34.643   5.502   5.284  1.00 20.00    -0.004 C 
HETATM   10  C7  UNL     1     -34.151   6.717   6.056  1.00 20.00     0.005 C 
ENDBRANCH   8   9
ENDBRANCH   7   8
ENDBRANCH   6   7
TORSDOF 3
ENDMDL
MODEL 6
REMARK VINA RESULT:      -4.9      0.941      4.979
REMARK  3 active torsions:
REMARK  status: ('A' for Active; 'I' for Inactive)
REMARK    1  A    between atoms: C6_6  and  C8_8 
REMARK    2  A    between atoms: C8_8  and  C10_10 
REMARK    3  A    between atoms: C9_9  and  C10_10 
ROOT
HETATM    1  C1  UNL     1     -32.199  10.055   0.359  1.00 20.00     0.000 A 
HETATM    2  C2  UNL     1     -33.227  10.296   1.270  1.00 20.00     0.001 A 
HETATM    3  C3  UNL     1     -31.406   8.914   0.487  1.00 20.00     0.001 A 
HETATM    4  C4  UNL     1     -33.463   9.396   2.310  1.00 20.00     0.007 A 
HETATM    5  C5  UNL     1     -31.643   8.015   1.527  1.00 20.00     0.007 A 
HETATM    6  C6  UNL     1     -32.671   8.255   2.438  1.00 20.00    -0.058 A 
ENDROOT
BRANCH   6   7
HETATM    7  C8  UNL     1     -32.925   7.282   3.561  1.00 20.00     0.038 C 
BRANCH   7   8
HETATM    8  C10 UNL     1     -33.830   6.131   3.112  1.00 20.00     0.004 C 
BRANCH   8   9
HETATM    9  C9  UNL     1     -34.857   5.781   4.188  1.00 20.00    -0.004 C 
HETATM   10  C7  UNL     1     -34.358   6.147   5.577  1.00 20.00     0.005 C 
ENDBRANCH   8   9
ENDBRANCH   7   8
ENDBRANCH   6   7
TORSDOF 3
ENDMDL
MODEL 7
REMARK VINA RESULT:      -4.7     10.802     11.532
REMARK  3 active torsions:
REMARK  status: ('A' for Active; 'I' for Inactive)
REMARK    1  A    between atoms: C6_6  and  C8_8 
REMARK    2  A    between atoms: C8_8  and  C10_10 
REMARK    3  A    between atoms: C9_9  and  C10_10 
ROOT
HETATM    1  C1  UNL     1     -34.420  18.370   0.705  1.00 20.00     0.000 A 
HETATM    2  C2  UNL     1     -35.412  17.582   0.123  1.00 20.00     0.001 A 
HETATM    3  C3  UNL     1     -33.207  18.565   0.044  1.00 20.00     0.001 A 
HETATM    4  C4  UNL     1     -35.194  16.989  -1.120  1.00 20.00     0.007 A 
HETATM    5  C5  UNL     1     -32.989  17.972  -1.200  1.00 20.00     0.007 A 
HETATM    6  C6  UNL     1     -33.981  17.184  -1.782  1.00 20.00    -0.058 A 
ENDROOT
BRANCH   6   7
HETATM    7  C8  UNL     1     -33.743  16.544  -3.126  1.00 20.00     0.038 C 
BRANCH   7   8
HETATM    8  C10 UNL     1     -34.928  15.670  -3.549  1.00 20.00     0.004 C 
BRANCH   8   9
HETATM    9  C9  UNL     1     -34.455  14.341  -4.137  1.00 20.00    -0.004 C 
HETATM   10  C7  UNL     1     -32.954  14.344  -4.387  1.00 20.00     0.005 C 
ENDBRANCH   8   9
ENDBRANCH   7   8
ENDBRANCH   6   7
TORSDOF 3
ENDMDL
MODEL 8
REMARK VINA RESULT:      -4.7     10.785     11.476
REMARK  3 active torsions:
REMARK  status: ('A' for Active; 'I' for Inactive)
REMARK    1  A    between atoms: C6_6  and  C8_8 
REMARK    2  A    between atoms: C8_8  and  C10_10 
REMARK    3  A    between atoms: C9_9  and  C10_10 
ROOT
HETATM    1  C1  UNL     1     -34.408  18.358   0.697  1.00 20.00     0.000 A 
HETATM    2  C2  UNL     1     -33.196  18.554   0.034  1.00 20.00     0.001 A 
HETATM    3  C3  UNL     1     -35.404  17.577   0.111  1.00 20.00     0.001 A 
HETATM    4  C4  UNL     1     -32.980  17.970  -1.214  1.00 20.00     0.007 A 
HETATM    5  C5  UNL     1     -35.188  16.993  -1.137  1.00 20.00     0.007 A 
HETATM    6  C6  UNL     1     -33.977  17.190  -1.800  1.00 20.00    -0.058 A 
ENDROOT
BRANCH   6   7
HETATM    7  C8  UNL     1     -33.745  16.558  -3.149  1.00 20.00     0.038 C 
BRANCH   7   8
HETATM    8  C10 UNL     1     -34.920  15.666  -3.560  1.00 20.00     0.004 C 
BRANCH   8   9
HETATM    9  C9  UNL     1     -34.433  14.323  -4.104  1.00 20.00    -0.004 C 
HETATM   10  C7  UNL     1     -32.950  14.362  -4.441  1.00 20.00     0.005 C 
ENDBRANCH   8   9
ENDBRANCH   7   8
ENDBRANCH   6   7
TORSDOF 3
ENDMDL
MODEL 9
REMARK VINA RESULT:      -4.4     10.899     11.648
REMARK  3 active torsions:
REMARK  status: ('A' for Active; 'I' for Inactive)
REMARK    1  A    between atoms: C6_6  and  C8_8 
REMARK    2  A    between atoms: C8_8  and  C10_10 
REMARK    3  A    between atoms: C9_9  and  C10_10 
ROOT
HETATM    1  C1  UNL     1     -34.541  18.042  -0.051  1.00 20.00     0.000 A 
HETATM    2  C2  UNL     1     -35.494  17.223  -0.655  1.00 20.00     0.001 A 
HETATM    3  C3  UNL     1     -33.299  18.230  -0.657  1.00 20.00     0.001 A 
HETATM    4  C4  UNL     1     -35.207  16.593  -1.865  1.00 20.00     0.007 A 
HETATM    5  C5  UNL     1     -33.011  17.600  -1.867  1.00 20.00     0.007 A 
HETATM    6  C6  UNL     1     -33.965  16.781  -2.471  1.00 20.00    -0.058 A 
ENDROOT
BRANCH   6   7
HETATM    7  C8  UNL     1     -33.652  16.100  -3.779  1.00 20.00     0.038 C 
BRANCH   7   8
HETATM    8  C10 UNL     1     -34.325  14.727  -3.872  1.00 20.00     0.004 C 
BRANCH   8   9
HETATM    9  C9  UNL     1     -35.191  14.617  -5.127  1.00 20.00    -0.004 C 
HETATM   10  C7  UNL     1     -36.673  14.602  -4.783  1.00 20.00     0.005 C 
ENDBRANCH   8   9
ENDBRANCH   7   8
ENDBRANCH   6   7
TORSDOF 3
ENDMDL
