MODEL 1
REMARK VINA RESULT:      -5.3      0.000      0.000
REMARK  3 active torsions:
REMARK  status: ('A' for Active; 'I' for Inactive)
REMARK    1  A    between atoms: C4_4  and  S10_10 
REMARK    2  A    between atoms: C5_5  and  C7_7 
REMARK    3  A    between atoms: C7_7  and  S10_10 
ROOT
HETATM    1  C1  UNL     1     -34.434   6.200   5.414  1.00 20.00     0.009 A 
HETATM    2  C2  UNL     1     -33.494   7.253   5.228  1.00 20.00     0.026 A 
HETATM    3  C3  UNL     1     -34.609   5.454   4.269  1.00 20.00     0.051 A 
HETATM    4  C4  UNL     1     -32.984   7.272   3.949  1.00 20.00     0.041 A 
HETATM    5  S9  UNL     1     -33.640   6.024   2.977  1.00 20.00    -0.095 SA
ENDROOT
BRANCH   4   6
HETATM    6  S10 UNL     1     -31.794   8.418   3.320  1.00 20.00    -0.115 SA
BRANCH   6   7
HETATM    7  C7  UNL     1     -32.097   8.250   1.547  1.00 20.00     0.157 C 
BRANCH   7   8
HETATM    8  C5  UNL     1     -32.579   9.545   0.939  1.00 20.00     0.132 C 
HETATM    9  C6  UNL     1     -33.121   9.421  -0.447  1.00 20.00     0.091 C 
HETATM   10  O8  UNL     1     -32.557  10.641   1.482  1.00 20.00    -0.298 OA
ENDBRANCH   7   8
ENDBRANCH   6   7
ENDBRANCH   4   6
TORSDOF 3
ENDMDL
MODEL 2
REMARK VINA RESULT:      -5.2      1.012      1.319
REMARK  3 active torsions:
REMARK  status: ('A' for Active; 'I' for Inactive)
REMARK    1  A    between atoms: C4_4  and  S10_10 
REMARK    2  A    between atoms: C5_5  and  C7_7 
REMARK    3  A    between atoms: C7_7  and  S10_10 
ROOT
HETATM    1  C1  UNL     1     -34.430   5.440   3.724  1.00 20.00     0.009 A 
HETATM    2  C2  UNL     1     -33.477   6.234   3.025  1.00 20.00     0.026 A 
HETATM    3  C3  UNL     1     -34.611   5.871   5.020  1.00 20.00     0.051 A 
HETATM    4  C4  UNL     1     -32.967   7.243   3.811  1.00 20.00     0.041 A 
HETATM    5  S9  UNL     1     -33.635   7.229   5.388  1.00 20.00    -0.095 SA
ENDROOT
BRANCH   4   6
HETATM    6  S10 UNL     1     -31.765   8.442   3.316  1.00 20.00    -0.115 SA
BRANCH   6   7
HETATM    7  C7  UNL     1     -31.928   8.331   1.520  1.00 20.00     0.157 C 
BRANCH   7   8
HETATM    8  C5  UNL     1     -32.544   9.580   0.938  1.00 20.00     0.132 C 
HETATM    9  C6  UNL     1     -33.121   9.414  -0.430  1.00 20.00     0.091 C 
HETATM   10  O8  UNL     1     -32.602  10.671   1.488  1.00 20.00    -0.298 OA
ENDBRANCH   7   8
ENDBRANCH   6   7
ENDBRANCH   4   6
TORSDOF 3
ENDMDL
MODEL 3
REMARK VINA RESULT:      -4.8      1.490      1.579
REMARK  3 active torsions:
REMARK  status: ('A' for Active; 'I' for Inactive)
REMARK    1  A    between atoms: C4_4  and  S10_10 
REMARK    2  A    between atoms: C5_5  and  C7_7 
REMARK    3  A    between atoms: C7_7  and  S10_10 
ROOT
HETATM    1  C1  UNL     1     -34.061   6.883   6.143  1.00 20.00     0.009 A 
HETATM    2  C2  UNL     1     -33.410   7.368   4.973  1.00 20.00     0.026 A 
HETATM    3  C3  UNL     1     -34.738   5.706   5.908  1.00 20.00     0.051 A 
HETATM    4  C4  UNL     1     -33.612   6.544   3.888  1.00 20.00     0.041 A 
HETATM    5  S9  UNL     1     -34.586   5.191   4.282  1.00 20.00    -0.095 SA
ENDROOT
BRANCH   4   6
HETATM    6  S10 UNL     1     -32.974   6.793   2.259  1.00 20.00    -0.115 SA
BRANCH   6   7
HETATM    7  C7  UNL     1     -32.091   8.352   2.498  1.00 20.00     0.157 C 
BRANCH   7   8
HETATM    8  C5  UNL     1     -31.977   9.131   1.210  1.00 20.00     0.132 C 
HETATM    9  C6  UNL     1     -32.795  10.380   1.161  1.00 20.00     0.091 C 
HETATM   10  O8  UNL     1     -31.289   8.822   0.247  1.00 20.00    -0.298 OA
ENDBRANCH   7   8
ENDBRANCH   6   7
ENDBRANCH   4   6
TORSDOF 3
ENDMDL
MODEL 4
REMARK VINA RESULT:      -4.1     10.230     10.779
REMARK  3 active torsions:
REMARK  status: ('A' for Active; 'I' for Inactive)
REMARK    1  A    between atoms: C4_4  and  S10_10 
REMARK    2  A    between atoms: C5_5  and  C7_7 
REMARK    3  A    between atoms: C7_7  and  S10_10 
ROOT
HETATM    1  C1  UNL     1     -35.451  17.171  -0.956  1.00 20.00     0.009 A 
HETATM    2  C2  UNL     1     -35.391  16.480  -2.201  1.00 20.00     0.026 A 
HETATM    3  C3  UNL     1     -34.278  17.837  -0.678  1.00 20.00     0.051 A 
HETATM    4  C4  UNL     1     -34.175  16.646  -2.827  1.00 20.00     0.041 A 
HETATM    5  S9  UNL     1     -33.111  17.630  -1.914  1.00 20.00    -0.095 SA
ENDROOT
BRANCH   4   6
HETATM    6  S10 UNL     1     -33.705  15.956  -4.385  1.00 20.00    -0.115 SA
BRANCH   6   7
HETATM    7  C7  UNL     1     -34.240  14.246  -4.149  1.00 20.00     0.157 C 
BRANCH   7   8
HETATM    8  C5  UNL     1     -35.420  13.905  -5.027  1.00 20.00     0.132 C 
HETATM    9  C6  UNL     1     -35.984  15.058  -5.791  1.00 20.00     0.091 C 
HETATM   10  O8  UNL     1     -35.923  12.797  -5.149  1.00 20.00    -0.298 OA
ENDBRANCH   7   8
ENDBRANCH   6   7
ENDBRANCH   4   6
TORSDOF 3
ENDMDL
MODEL 5
REMARK VINA RESULT:      -4.1     10.688     11.022
REMARK  3 active torsions:
REMARK  status: ('A' for Active; 'I' for Inactive)
REMARK    1  A    between atoms: C4_4  and  S10_10 
REMARK    2  A    between atoms: C5_5  and  C7_7 
REMARK    3  A    between atoms: C7_7  and  S10_10 
ROOT
HETATM    1  C1  UNL     1     -34.390  17.261  -1.272  1.00 20.00     0.009 A 
HETATM    2  C2  UNL     1     -35.572  16.702  -1.836  1.00 20.00     0.026 A 
HETATM    3  C3  UNL     1     -33.318  17.183  -2.134  1.00 20.00     0.051 A 
HETATM    4  C4  UNL     1     -35.360  16.218  -3.108  1.00 20.00     0.041 A 
HETATM    5  S9  UNL     1     -33.740  16.438  -3.617  1.00 20.00    -0.095 SA
ENDROOT
BRANCH   4   6
HETATM    6  S10 UNL     1     -36.570  15.451  -4.144  1.00 20.00    -0.115 SA
BRANCH   6   7
HETATM    7  C7  UNL     1     -35.570  15.133  -5.616  1.00 20.00     0.157 C 
BRANCH   7   8
HETATM    8  C5  UNL     1     -35.503  13.658  -5.935  1.00 20.00     0.132 C 
HETATM    9  C6  UNL     1     -34.830  13.329  -7.227  1.00 20.00     0.091 C 
HETATM   10  O8  UNL     1     -35.941  12.755  -5.235  1.00 20.00    -0.298 OA
ENDBRANCH   7   8
ENDBRANCH   6   7
ENDBRANCH   4   6
TORSDOF 3
ENDMDL
MODEL 6
REMARK VINA RESULT:      -4.0     10.766     11.006
REMARK  3 active torsions:
REMARK  status: ('A' for Active; 'I' for Inactive)
REMARK    1  A    between atoms: C4_4  and  S10_10 
REMARK    2  A    between atoms: C5_5  and  C7_7 
REMARK    3  A    between atoms: C7_7  and  S10_10 
ROOT
HETATM    1  C1  UNL     1     -34.406  17.326  -1.213  1.00 20.00     0.009 A 
HETATM    2  C2  UNL     1     -33.648  16.805  -2.300  1.00 20.00     0.026 A 
HETATM    3  C3  UNL     1     -35.761  17.284  -1.460  1.00 20.00     0.051 A 
HETATM    4  C4  UNL     1     -34.451  16.384  -3.337  1.00 20.00     0.041 A 
HETATM    5  S9  UNL     1     -36.114  16.618  -2.998  1.00 20.00    -0.095 SA
ENDROOT
BRANCH   4   6
HETATM    6  S10 UNL     1     -33.899  15.677  -4.860  1.00 20.00    -0.115 SA
BRANCH   6   7
HETATM    7  C7  UNL     1     -35.475  15.106  -5.535  1.00 20.00     0.157 C 
BRANCH   7   8
HETATM    8  C5  UNL     1     -35.421  13.646  -5.917  1.00 20.00     0.132 C 
HETATM    9  C6  UNL     1     -34.725  13.362  -7.207  1.00 20.00     0.091 C 
HETATM   10  O8  UNL     1     -35.888  12.720  -5.267  1.00 20.00    -0.298 OA
ENDBRANCH   7   8
ENDBRANCH   6   7
ENDBRANCH   4   6
TORSDOF 3
ENDMDL
MODEL 7
REMARK VINA RESULT:      -4.0     10.714     11.528
REMARK  3 active torsions:
REMARK  status: ('A' for Active; 'I' for Inactive)
REMARK    1  A    between atoms: C4_4  and  S10_10 
REMARK    2  A    between atoms: C5_5  and  C7_7 
REMARK    3  A    between atoms: C7_7  and  S10_10 
ROOT
HETATM    1  C1  UNL     1     -33.469  17.593  -1.842  1.00 20.00     0.009 A 
HETATM    2  C2  UNL     1     -33.712  16.528  -2.756  1.00 20.00     0.026 A 
HETATM    3  C3  UNL     1     -33.273  18.794  -2.488  1.00 20.00     0.051 A 
HETATM    4  C4  UNL     1     -33.694  16.955  -4.066  1.00 20.00     0.041 A 
HETATM    5  S9  UNL     1     -33.383  18.635  -4.190  1.00 20.00    -0.095 SA
ENDROOT
BRANCH   4   6
HETATM    6  S10 UNL     1     -33.953  15.944  -5.493  1.00 20.00    -0.115 SA
BRANCH   6   7
HETATM    7  C7  UNL     1     -34.192  14.336  -4.704  1.00 20.00     0.157 C 
BRANCH   7   8
HETATM    8  C5  UNL     1     -35.595  13.817  -4.911  1.00 20.00     0.132 C 
HETATM    9  C6  UNL     1     -36.675  14.819  -4.665  1.00 20.00     0.091 C 
HETATM   10  O8  UNL     1     -35.892  12.681  -5.254  1.00 20.00    -0.298 OA
ENDBRANCH   7   8
ENDBRANCH   6   7
ENDBRANCH   4   6
TORSDOF 3
ENDMDL
MODEL 8
REMARK VINA RESULT:      -3.9     10.329     10.694
REMARK  3 active torsions:
REMARK  status: ('A' for Active; 'I' for Inactive)
REMARK    1  A    between atoms: C4_4  and  S10_10 
REMARK    2  A    between atoms: C5_5  and  C7_7 
REMARK    3  A    between atoms: C7_7  and  S10_10 
ROOT
HETATM    1  C1  UNL     1     -35.365  17.371  -0.343  1.00 20.00     0.009 A 
HETATM    2  C2  UNL     1     -35.303  16.753  -1.625  1.00 20.00     0.026 A 
HETATM    3  C3  UNL     1     -34.223  18.088  -0.060  1.00 20.00     0.051 A 
HETATM    4  C4  UNL     1     -34.118  17.022  -2.273  1.00 20.00     0.041 A 
HETATM    5  S9  UNL     1     -33.084  18.015  -1.336  1.00 20.00    -0.095 SA
ENDROOT
BRANCH   4   6
HETATM    6  S10 UNL     1     -33.656  16.443  -3.878  1.00 20.00    -0.115 SA
BRANCH   6   7
HETATM    7  C7  UNL     1     -35.207  15.674  -4.397  1.00 20.00     0.157 C 
BRANCH   7   8
HETATM    8  C5  UNL     1     -35.070  14.175  -4.523  1.00 20.00     0.132 C 
HETATM    9  C6  UNL     1     -36.165  13.510  -5.291  1.00 20.00     0.091 C 
HETATM   10  O8  UNL     1     -34.161  13.499  -4.060  1.00 20.00    -0.298 OA
ENDBRANCH   7   8
ENDBRANCH   6   7
ENDBRANCH   4   6
TORSDOF 3
ENDMDL
MODEL 9
REMARK VINA RESULT:      -3.8      2.598      5.045
REMARK  3 active torsions:
REMARK  status: ('A' for Active; 'I' for Inactive)
REMARK    1  A    between atoms: C4_4  and  S10_10 
REMARK    2  A    between atoms: C5_5  and  C7_7 
REMARK    3  A    between atoms: C7_7  and  S10_10 
ROOT
HETATM    1  C1  UNL     1     -32.498   9.311   1.341  1.00 20.00     0.009 A 
HETATM    2  C2  UNL     1     -33.122   8.031   1.350  1.00 20.00     0.026 A 
HETATM    3  C3  UNL     1     -31.661   9.486   2.421  1.00 20.00     0.051 A 
HETATM    4  C4  UNL     1     -32.739   7.276   2.436  1.00 20.00     0.041 A 
HETATM    5  S9  UNL     1     -31.630   8.110   3.440  1.00 20.00    -0.095 SA
ENDROOT
BRANCH   4   6
HETATM    6  S10 UNL     1     -33.285   5.636   2.809  1.00 20.00    -0.115 SA
BRANCH   6   7
HETATM    7  C7  UNL     1     -34.754   6.008   3.795  1.00 20.00     0.157 C 
BRANCH   7   8
HETATM    8  C5  UNL     1     -34.494   5.827   5.272  1.00 20.00     0.132 C 
HETATM    9  C6  UNL     1     -33.972   7.041   5.968  1.00 20.00     0.091 C 
HETATM   10  O8  UNL     1     -34.676   4.798   5.908  1.00 20.00    -0.298 OA
ENDBRANCH   7   8
ENDBRANCH   6   7
ENDBRANCH   4   6
TORSDOF 3
ENDMDL
