MODEL 1
REMARK VINA RESULT:      -4.2      0.000      0.000
REMARK  0 active torsions:
REMARK  status: ('A' for Active; 'I' for Inactive)
ROOT
HETATM    1  C1  UNL     1     -34.363   6.259   5.845  1.00 20.00     0.019 A 
HETATM    2  C2  UNL     1     -34.732   5.290   4.880  1.00 20.00     0.019 A 
HETATM    3  C3  UNL     1     -33.617   7.221   5.198  1.00 20.00     0.090 A 
HETATM    4  C4  UNL     1     -34.200   5.687   3.674  1.00 20.00     0.090 A 
HETATM    5  C5  UNL     1     -32.821   7.607   2.859  1.00 20.00     0.154 C 
HETATM    6  N6  UNL     1     -33.525   6.862   3.879  1.00 20.00    -0.371 N 
ENDROOT
TORSDOF 0
ENDMDL
MODEL 2
REMARK VINA RESULT:      -4.2      0.054      1.530
REMARK  0 active torsions:
REMARK  status: ('A' for Active; 'I' for Inactive)
ROOT
HETATM    1  C1  UNL     1     -34.764   5.316   4.944  1.00 20.00     0.019 A 
HETATM    2  C2  UNL     1     -34.360   6.296   5.883  1.00 20.00     0.019 A 
HETATM    3  C3  UNL     1     -34.246   5.679   3.720  1.00 20.00     0.090 A 
HETATM    4  C4  UNL     1     -33.607   7.229   5.205  1.00 20.00     0.090 A 
HETATM    5  C5  UNL     1     -32.848   7.559   2.846  1.00 20.00     0.154 C 
HETATM    6  N6  UNL     1     -33.545   6.844   3.892  1.00 20.00    -0.371 N 
ENDROOT
TORSDOF 0
ENDMDL
MODEL 3
REMARK VINA RESULT:      -4.0      1.007      1.152
REMARK  0 active torsions:
REMARK  status: ('A' for Active; 'I' for Inactive)
ROOT
HETATM    1  C1  UNL     1     -33.879   7.039   5.883  1.00 20.00     0.019 A 
HETATM    2  C2  UNL     1     -34.579   5.808   5.921  1.00 20.00     0.019 A 
HETATM    3  C3  UNL     1     -33.479   7.246   4.581  1.00 20.00     0.090 A 
HETATM    4  C4  UNL     1     -34.585   5.300   4.641  1.00 20.00     0.090 A 
HETATM    5  C5  UNL     1     -33.696   6.013   2.416  1.00 20.00     0.154 C 
HETATM    6  N6  UNL     1     -33.914   6.182   3.835  1.00 20.00    -0.371 N 
ENDROOT
TORSDOF 0
ENDMDL
MODEL 4
REMARK VINA RESULT:      -4.0      0.974      1.734
REMARK  0 active torsions:
REMARK  status: ('A' for Active; 'I' for Inactive)
ROOT
HETATM    1  C1  UNL     1     -34.594   5.976   5.920  1.00 20.00     0.019 A 
HETATM    2  C2  UNL     1     -33.830   7.166   5.831  1.00 20.00     0.019 A 
HETATM    3  C3  UNL     1     -34.601   5.396   4.671  1.00 20.00     0.090 A 
HETATM    4  C4  UNL     1     -33.394   7.277   4.530  1.00 20.00     0.090 A 
HETATM    5  C5  UNL     1     -33.633   5.942   2.430  1.00 20.00     0.154 C 
HETATM    6  N6  UNL     1     -33.868   6.197   3.833  1.00 20.00    -0.371 N 
ENDROOT
TORSDOF 0
ENDMDL
MODEL 5
REMARK VINA RESULT:      -3.8      1.162      2.122
REMARK  0 active torsions:
REMARK  status: ('A' for Active; 'I' for Inactive)
ROOT
HETATM    1  C1  UNL     1     -34.553   4.435   4.433  1.00 20.00     0.019 A 
HETATM    2  C2  UNL     1     -34.065   5.197   3.343  1.00 20.00     0.019 A 
HETATM    3  C3  UNL     1     -34.491   5.233   5.554  1.00 20.00     0.090 A 
HETATM    4  C4  UNL     1     -33.720   6.437   3.832  1.00 20.00     0.090 A 
HETATM    5  C5  UNL     1     -33.756   7.569   6.060  1.00 20.00     0.154 C 
HETATM    6  N6  UNL     1     -33.983   6.448   5.176  1.00 20.00    -0.371 N 
ENDROOT
TORSDOF 0
ENDMDL
MODEL 6
REMARK VINA RESULT:      -3.8      1.177      2.169
REMARK  0 active torsions:
REMARK  status: ('A' for Active; 'I' for Inactive)
ROOT
HETATM    1  C1  UNL     1     -34.018   5.146   3.356  1.00 20.00     0.019 A 
HETATM    2  C2  UNL     1     -34.525   4.392   4.443  1.00 20.00     0.019 A 
HETATM    3  C3  UNL     1     -33.691   6.395   3.838  1.00 20.00     0.090 A 
HETATM    4  C4  UNL     1     -34.494   5.203   5.556  1.00 20.00     0.090 A 
HETATM    5  C5  UNL     1     -33.792   7.549   6.054  1.00 20.00     0.154 C 
HETATM    6  N6  UNL     1     -33.986   6.417   5.177  1.00 20.00    -0.371 N 
ENDROOT
TORSDOF 0
ENDMDL
MODEL 7
REMARK VINA RESULT:      -3.7      0.899      2.659
REMARK  0 active torsions:
REMARK  status: ('A' for Active; 'I' for Inactive)
ROOT
HETATM    1  C1  UNL     1     -33.883   5.869   2.679  1.00 20.00     0.019 A 
HETATM    2  C2  UNL     1     -32.880   6.861   2.545  1.00 20.00     0.019 A 
HETATM    3  C3  UNL     1     -34.347   5.925   3.974  1.00 20.00     0.090 A 
HETATM    4  C4  UNL     1     -32.761   7.491   3.764  1.00 20.00     0.090 A 
HETATM    5  C5  UNL     1     -33.844   7.291   6.008  1.00 20.00     0.154 C 
HETATM    6  N6  UNL     1     -33.657   6.915   4.625  1.00 20.00    -0.371 N 
ENDROOT
TORSDOF 0
ENDMDL
MODEL 8
REMARK VINA RESULT:      -3.7      0.899      2.378
REMARK  0 active torsions:
REMARK  status: ('A' for Active; 'I' for Inactive)
ROOT
HETATM    1  C1  UNL     1     -32.887   6.857   2.549  1.00 20.00     0.019 A 
HETATM    2  C2  UNL     1     -33.883   5.860   2.690  1.00 20.00     0.019 A 
HETATM    3  C3  UNL     1     -32.764   7.492   3.765  1.00 20.00     0.090 A 
HETATM    4  C4  UNL     1     -34.341   5.917   3.988  1.00 20.00     0.090 A 
HETATM    5  C5  UNL     1     -33.841   7.293   6.014  1.00 20.00     0.154 C 
HETATM    6  N6  UNL     1     -33.654   6.912   4.632  1.00 20.00    -0.371 N 
ENDROOT
TORSDOF 0
ENDMDL
MODEL 9
REMARK VINA RESULT:      -3.5      0.923      2.924
REMARK  0 active torsions:
REMARK  status: ('A' for Active; 'I' for Inactive)
ROOT
HETATM    1  C1  UNL     1     -33.101   6.534   2.632  1.00 20.00     0.019 A 
HETATM    2  C2  UNL     1     -32.988   7.571   3.591  1.00 20.00     0.019 A 
HETATM    3  C3  UNL     1     -33.758   5.485   3.235  1.00 20.00     0.090 A 
HETATM    4  C4  UNL     1     -33.579   7.123   4.751  1.00 20.00     0.090 A 
HETATM    5  C5  UNL     1     -34.728   5.031   5.495  1.00 20.00     0.154 C 
HETATM    6  N6  UNL     1     -34.044   5.854   4.523  1.00 20.00    -0.371 N 
ENDROOT
TORSDOF 0
ENDMDL
