MODEL 1
REMARK VINA RESULT:      -6.1      0.000      0.000
REMARK  0 active torsions:
REMARK  status: ('A' for Active; 'I' for Inactive)
ROOT
HETATM    1  C1  UNL     1     -34.442   5.410   5.345  1.00 20.00     0.199 A 
HETATM    2  C2  UNL     1     -34.006   6.713   5.589  1.00 20.00     0.198 A 
HETATM    3  C3  UNL     1     -34.146   4.792   4.130  1.00 20.00     0.198 A 
HETATM    4  C4  UNL     1     -33.274   7.396   4.618  1.00 20.00     0.182 A 
HETATM    5  C5  UNL     1     -33.414   5.475   3.159  1.00 20.00     0.182 A 
HETATM    6  C6  UNL     1     -32.979   6.778   3.402  1.00 20.00     0.117 A 
HETATM    7  F7  UNL     1     -35.146   4.755   6.277  1.00 20.00    -0.199 F 
HETATM    8  F8  UNL     1     -34.290   7.307   6.754  1.00 20.00    -0.199 F 
HETATM    9  F9  UNL     1     -34.566   3.542   3.896  1.00 20.00    -0.199 F 
HETATM   10  F10 UNL     1     -32.862   8.648   4.866  1.00 20.00    -0.201 F 
HETATM   11  F11 UNL     1     -33.138   4.866   1.996  1.00 20.00    -0.201 F 
HETATM   12 CL12 UNL     1     -32.073   7.620   2.205  1.00 20.00    -0.077 Cl
ENDROOT
TORSDOF 0
ENDMDL
MODEL 2
REMARK VINA RESULT:      -6.1      0.022      3.074
REMARK  0 active torsions:
REMARK  status: ('A' for Active; 'I' for Inactive)
ROOT
HETATM    1  C1  UNL     1     -34.434   5.391   5.344  1.00 20.00     0.199 A 
HETATM    2  C2  UNL     1     -34.135   4.774   4.128  1.00 20.00     0.198 A 
HETATM    3  C3  UNL     1     -34.010   6.697   5.585  1.00 20.00     0.198 A 
HETATM    4  C4  UNL     1     -33.413   5.464   3.155  1.00 20.00     0.182 A 
HETATM    5  C5  UNL     1     -33.287   7.388   4.612  1.00 20.00     0.182 A 
HETATM    6  C6  UNL     1     -32.988   6.771   3.397  1.00 20.00     0.117 A 
HETATM    7  F7  UNL     1     -35.127   4.727   6.279  1.00 20.00    -0.199 F 
HETATM    8  F8  UNL     1     -34.542   3.520   3.896  1.00 20.00    -0.199 F 
HETATM    9  F9  UNL     1     -34.297   7.288   6.752  1.00 20.00    -0.199 F 
HETATM   10  F10 UNL     1     -33.133   4.858   1.992  1.00 20.00    -0.201 F 
HETATM   11  F11 UNL     1     -32.887   8.643   4.860  1.00 20.00    -0.201 F 
HETATM   12 CL12 UNL     1     -32.098   7.624   2.195  1.00 20.00    -0.077 Cl
ENDROOT
TORSDOF 0
ENDMDL
MODEL 3
REMARK VINA RESULT:      -5.7      1.252      3.112
REMARK  0 active torsions:
REMARK  status: ('A' for Active; 'I' for Inactive)
ROOT
HETATM    1  C1  UNL     1     -33.891   6.845   5.416  1.00 20.00     0.199 A 
HETATM    2  C2  UNL     1     -34.396   5.547   5.325  1.00 20.00     0.198 A 
HETATM    3  C3  UNL     1     -33.120   7.367   4.377  1.00 20.00     0.198 A 
HETATM    4  C4  UNL     1     -34.130   4.773   4.196  1.00 20.00     0.182 A 
HETATM    5  C5  UNL     1     -32.854   6.593   3.248  1.00 20.00     0.182 A 
HETATM    6  C6  UNL     1     -33.359   5.296   3.157  1.00 20.00     0.117 A 
HETATM    7  F7  UNL     1     -34.146   7.587   6.501  1.00 20.00    -0.199 F 
HETATM    8  F8  UNL     1     -35.136   5.045   6.321  1.00 20.00    -0.199 F 
HETATM    9  F9  UNL     1     -32.636   8.612   4.466  1.00 20.00    -0.199 F 
HETATM   10  F10 UNL     1     -34.622   3.528   4.123  1.00 20.00    -0.201 F 
HETATM   11  F11 UNL     1     -32.112   7.110   2.258  1.00 20.00    -0.201 F 
HETATM   12 CL12 UNL     1     -33.032   4.341   1.762  1.00 20.00    -0.077 Cl
ENDROOT
TORSDOF 0
ENDMDL
MODEL 4
REMARK VINA RESULT:      -5.7      1.251      2.437
REMARK  0 active torsions:
REMARK  status: ('A' for Active; 'I' for Inactive)
ROOT
HETATM    1  C1  UNL     1     -33.895   6.838   5.421  1.00 20.00     0.199 A 
HETATM    2  C2  UNL     1     -33.121   7.364   4.385  1.00 20.00     0.198 A 
HETATM    3  C3  UNL     1     -34.394   5.539   5.327  1.00 20.00     0.198 A 
HETATM    4  C4  UNL     1     -32.849   6.592   3.257  1.00 20.00     0.182 A 
HETATM    5  C5  UNL     1     -34.122   4.766   4.197  1.00 20.00     0.182 A 
HETATM    6  C6  UNL     1     -33.349   5.293   3.162  1.00 20.00     0.117 A 
HETATM    7  F7  UNL     1     -34.157   7.580   6.504  1.00 20.00    -0.199 F 
HETATM    8  F8  UNL     1     -32.642   8.611   4.475  1.00 20.00    -0.199 F 
HETATM    9  F9  UNL     1     -35.137   5.035   6.320  1.00 20.00    -0.199 F 
HETATM   10  F10 UNL     1     -32.105   7.112   2.269  1.00 20.00    -0.201 F 
HETATM   11  F11 UNL     1     -34.610   3.520   4.122  1.00 20.00    -0.201 F 
HETATM   12 CL12 UNL     1     -33.011   4.339   1.769  1.00 20.00    -0.077 Cl
ENDROOT
TORSDOF 0
ENDMDL
MODEL 5
REMARK VINA RESULT:      -5.6      1.605      3.645
REMARK  0 active torsions:
REMARK  status: ('A' for Active; 'I' for Inactive)
ROOT
HETATM    1  C1  UNL     1     -33.296   5.121   2.917  1.00 20.00     0.199 A 
HETATM    2  C2  UNL     1     -34.029   4.651   4.008  1.00 20.00     0.198 A 
HETATM    3  C3  UNL     1     -32.796   6.423   2.923  1.00 20.00     0.198 A 
HETATM    4  C4  UNL     1     -34.260   5.483   5.103  1.00 20.00     0.182 A 
HETATM    5  C5  UNL     1     -33.027   7.255   4.018  1.00 20.00     0.182 A 
HETATM    6  C6  UNL     1     -33.760   6.785   5.108  1.00 20.00     0.117 A 
HETATM    7  F7  UNL     1     -33.075   4.322   1.865  1.00 20.00    -0.199 F 
HETATM    8  F8  UNL     1     -34.509   3.401   4.003  1.00 20.00    -0.199 F 
HETATM    9  F9  UNL     1     -32.093   6.873   1.876  1.00 20.00    -0.199 F 
HETATM   10  F10 UNL     1     -34.966   5.017   6.143  1.00 20.00    -0.201 F 
HETATM   11  F11 UNL     1     -32.539   8.504   4.008  1.00 20.00    -0.201 F 
HETATM   12 CL12 UNL     1     -34.044   7.811   6.461  1.00 20.00    -0.077 Cl
ENDROOT
TORSDOF 0
ENDMDL
MODEL 6
REMARK VINA RESULT:      -5.6      1.605      3.171
REMARK  0 active torsions:
REMARK  status: ('A' for Active; 'I' for Inactive)
ROOT
HETATM    1  C1  UNL     1     -33.297   5.120   2.918  1.00 20.00     0.199 A 
HETATM    2  C2  UNL     1     -32.796   6.423   2.923  1.00 20.00     0.198 A 
HETATM    3  C3  UNL     1     -34.028   4.650   4.008  1.00 20.00     0.198 A 
HETATM    4  C4  UNL     1     -33.027   7.254   4.018  1.00 20.00     0.182 A 
HETATM    5  C5  UNL     1     -34.259   5.482   5.104  1.00 20.00     0.182 A 
HETATM    6  C6  UNL     1     -33.759   6.783   5.110  1.00 20.00     0.117 A 
HETATM    7  F7  UNL     1     -33.074   4.321   1.866  1.00 20.00    -0.199 F 
HETATM    8  F8  UNL     1     -32.094   6.874   1.876  1.00 20.00    -0.199 F 
HETATM    9  F9  UNL     1     -34.508   3.400   4.003  1.00 20.00    -0.199 F 
HETATM   10  F10 UNL     1     -32.540   8.503   4.009  1.00 20.00    -0.201 F 
HETATM   11  F11 UNL     1     -34.965   5.014   6.145  1.00 20.00    -0.201 F 
HETATM   12 CL12 UNL     1     -34.046   7.810   6.461  1.00 20.00    -0.077 Cl
ENDROOT
TORSDOF 0
ENDMDL
MODEL 7
REMARK VINA RESULT:      -5.4      1.920      4.427
REMARK  0 active torsions:
REMARK  status: ('A' for Active; 'I' for Inactive)
ROOT
HETATM    1  C1  UNL     1     -32.734   6.590   2.857  1.00 20.00     0.199 A 
HETATM    2  C2  UNL     1     -33.225   5.283   2.875  1.00 20.00     0.198 A 
HETATM    3  C3  UNL     1     -32.965   7.436   3.941  1.00 20.00     0.198 A 
HETATM    4  C4  UNL     1     -33.949   4.826   3.976  1.00 20.00     0.182 A 
HETATM    5  C5  UNL     1     -33.689   6.978   5.042  1.00 20.00     0.182 A 
HETATM    6  C6  UNL     1     -34.181   5.674   5.060  1.00 20.00     0.117 A 
HETATM    7  F7  UNL     1     -32.040   7.029   1.800  1.00 20.00    -0.199 F 
HETATM    8  F8  UNL     1     -33.003   4.471   1.835  1.00 20.00    -0.199 F 
HETATM    9  F9  UNL     1     -32.494   8.689   3.923  1.00 20.00    -0.199 F 
HETATM   10  F10 UNL     1     -34.415   3.569   3.978  1.00 20.00    -0.201 F 
HETATM   11  F11 UNL     1     -33.903   7.805   6.076  1.00 20.00    -0.201 F 
HETATM   12 CL12 UNL     1     -35.072   5.108   6.420  1.00 20.00    -0.077 Cl
ENDROOT
TORSDOF 0
ENDMDL
MODEL 8
REMARK VINA RESULT:      -5.4      1.923      3.217
REMARK  0 active torsions:
REMARK  status: ('A' for Active; 'I' for Inactive)
ROOT
HETATM    1  C1  UNL     1     -32.732   6.595   2.836  1.00 20.00     0.199 A 
HETATM    2  C2  UNL     1     -32.970   7.440   3.921  1.00 20.00     0.198 A 
HETATM    3  C3  UNL     1     -33.210   5.285   2.854  1.00 20.00     0.198 A 
HETATM    4  C4  UNL     1     -33.686   6.974   5.023  1.00 20.00     0.182 A 
HETATM    5  C5  UNL     1     -33.926   4.819   3.957  1.00 20.00     0.182 A 
HETATM    6  C6  UNL     1     -34.163   5.663   5.042  1.00 20.00     0.117 A 
HETATM    7  F7  UNL     1     -32.044   7.043   1.778  1.00 20.00    -0.199 F 
HETATM    8  F8  UNL     1     -32.511   8.697   3.903  1.00 20.00    -0.199 F 
HETATM    9  F9  UNL     1     -32.981   4.475   1.813  1.00 20.00    -0.199 F 
HETATM   10  F10 UNL     1     -33.906   7.797   6.058  1.00 20.00    -0.201 F 
HETATM   11  F11 UNL     1     -34.378   3.556   3.959  1.00 20.00    -0.201 F 
HETATM   12 CL12 UNL     1     -35.048   5.088   6.402  1.00 20.00    -0.077 Cl
ENDROOT
TORSDOF 0
ENDMDL
MODEL 9
REMARK VINA RESULT:      -5.1      1.889      3.335
REMARK  0 active torsions:
REMARK  status: ('A' for Active; 'I' for Inactive)
ROOT
HETATM    1  C1  UNL     1     -32.285   7.984   3.824  1.00 20.00     0.199 A 
HETATM    2  C2  UNL     1     -32.892   7.824   5.071  1.00 20.00     0.198 A 
HETATM    3  C3  UNL     1     -32.596   7.112   2.780  1.00 20.00     0.198 A 
HETATM    4  C4  UNL     1     -33.809   6.794   5.272  1.00 20.00     0.182 A 
HETATM    5  C5  UNL     1     -33.514   6.081   2.983  1.00 20.00     0.182 A 
HETATM    6  C6  UNL     1     -34.120   5.922   4.229  1.00 20.00     0.117 A 
HETATM    7  F7  UNL     1     -31.403   8.973   3.630  1.00 20.00    -0.199 F 
HETATM    8  F8  UNL     1     -32.592   8.661   6.072  1.00 20.00    -0.199 F 
HETATM    9  F9  UNL     1     -32.014   7.265   1.585  1.00 20.00    -0.199 F 
HETATM   10  F10 UNL     1     -34.384   6.653   6.476  1.00 20.00    -0.201 F 
HETATM   11  F11 UNL     1     -33.803   5.252   1.969  1.00 20.00    -0.201 F 
HETATM   12 CL12 UNL     1     -35.255   4.651   4.478  1.00 20.00    -0.077 Cl
ENDROOT
TORSDOF 0
ENDMDL
