MODEL 1
REMARK VINA RESULT:      -6.2      0.000      0.000
REMARK  0 active torsions:
REMARK  status: ('A' for Active; 'I' for Inactive)
ROOT
HETATM    1  C1  UNL     1     -34.640   5.384   5.630  1.00 20.00     0.000 A 
HETATM    2  C2  UNL     1     -34.114   6.640   5.927  1.00 20.00     0.001 A 
HETATM    3  C3  UNL     1     -34.540   4.873   4.336  1.00 20.00     0.001 A 
HETATM    4  C4  UNL     1     -33.485   7.387   4.930  1.00 20.00     0.007 A 
HETATM    5  C5  UNL     1     -33.912   5.620   3.339  1.00 20.00     0.007 A 
HETATM    6  C6  UNL     1     -33.384   6.875   3.636  1.00 20.00    -0.062 A 
HETATM    7  C7  UNL     1     -32.712   7.673   2.569  1.00 20.00     0.048 C 
ENDROOT
TORSDOF 0
ENDMDL
MODEL 2
REMARK VINA RESULT:      -6.2      0.045      1.827
REMARK  0 active torsions:
REMARK  status: ('A' for Active; 'I' for Inactive)
ROOT
HETATM    1  C1  UNL     1     -34.647   5.351   5.611  1.00 20.00     0.000 A 
HETATM    2  C2  UNL     1     -34.525   4.829   4.324  1.00 20.00     0.001 A 
HETATM    3  C3  UNL     1     -34.140   6.619   5.901  1.00 20.00     0.001 A 
HETATM    4  C4  UNL     1     -33.899   5.574   3.325  1.00 20.00     0.007 A 
HETATM    5  C5  UNL     1     -33.513   7.363   4.901  1.00 20.00     0.007 A 
HETATM    6  C6  UNL     1     -33.393   6.840   3.614  1.00 20.00    -0.062 A 
HETATM    7  C7  UNL     1     -32.722   7.638   2.546  1.00 20.00     0.048 C 
ENDROOT
TORSDOF 0
ENDMDL
MODEL 3
REMARK VINA RESULT:      -5.4      0.869      2.416
REMARK  0 active torsions:
REMARK  status: ('A' for Active; 'I' for Inactive)
ROOT
HETATM    1  C1  UNL     1     -33.956   4.612   3.261  1.00 20.00     0.000 A 
HETATM    2  C2  UNL     1     -33.430   5.866   2.956  1.00 20.00     0.001 A 
HETATM    3  C3  UNL     1     -34.461   4.358   4.537  1.00 20.00     0.001 A 
HETATM    4  C4  UNL     1     -33.409   6.869   3.926  1.00 20.00     0.007 A 
HETATM    5  C5  UNL     1     -34.439   5.360   5.507  1.00 20.00     0.007 A 
HETATM    6  C6  UNL     1     -33.914   6.615   5.201  1.00 20.00    -0.062 A 
HETATM    7  C7  UNL     1     -33.893   7.687   6.239  1.00 20.00     0.048 C 
ENDROOT
TORSDOF 0
ENDMDL
MODEL 4
REMARK VINA RESULT:      -5.4      0.690      1.690
REMARK  0 active torsions:
REMARK  status: ('A' for Active; 'I' for Inactive)
ROOT
HETATM    1  C1  UNL     1     -34.372   6.456   5.912  1.00 20.00     0.000 A 
HETATM    2  C2  UNL     1     -33.707   7.241   4.971  1.00 20.00     0.001 A 
HETATM    3  C3  UNL     1     -34.665   5.122   5.627  1.00 20.00     0.001 A 
HETATM    4  C4  UNL     1     -33.333   6.692   3.744  1.00 20.00     0.007 A 
HETATM    5  C5  UNL     1     -34.292   4.574   4.399  1.00 20.00     0.007 A 
HETATM    6  C6  UNL     1     -33.625   5.359   3.459  1.00 20.00    -0.062 A 
HETATM    7  C7  UNL     1     -33.225   4.772   2.148  1.00 20.00     0.048 C 
ENDROOT
TORSDOF 0
ENDMDL
MODEL 5
REMARK VINA RESULT:      -5.4      0.693      2.154
REMARK  0 active torsions:
REMARK  status: ('A' for Active; 'I' for Inactive)
ROOT
HETATM    1  C1  UNL     1     -34.377   6.443   5.900  1.00 20.00     0.000 A 
HETATM    2  C2  UNL     1     -34.661   5.108   5.614  1.00 20.00     0.001 A 
HETATM    3  C3  UNL     1     -33.716   7.233   4.958  1.00 20.00     0.001 A 
HETATM    4  C4  UNL     1     -34.286   4.562   4.386  1.00 20.00     0.007 A 
HETATM    5  C5  UNL     1     -33.340   6.686   3.731  1.00 20.00     0.007 A 
HETATM    6  C6  UNL     1     -33.626   5.351   3.446  1.00 20.00    -0.062 A 
HETATM    7  C7  UNL     1     -33.224   4.768   2.133  1.00 20.00     0.048 C 
ENDROOT
TORSDOF 0
ENDMDL
MODEL 6
REMARK VINA RESULT:      -5.1      0.790      2.735
REMARK  0 active torsions:
REMARK  status: ('A' for Active; 'I' for Inactive)
ROOT
HETATM    1  C1  UNL     1     -32.646   7.556   3.103  1.00 20.00     0.000 A 
HETATM    2  C2  UNL     1     -32.822   7.891   4.445  1.00 20.00     0.001 A 
HETATM    3  C3  UNL     1     -33.198   6.378   2.599  1.00 20.00     0.001 A 
HETATM    4  C4  UNL     1     -33.551   7.048   5.285  1.00 20.00     0.007 A 
HETATM    5  C5  UNL     1     -33.926   5.535   3.440  1.00 20.00     0.007 A 
HETATM    6  C6  UNL     1     -34.102   5.871   4.781  1.00 20.00    -0.062 A 
HETATM    7  C7  UNL     1     -34.882   4.969   5.678  1.00 20.00     0.048 C 
ENDROOT
TORSDOF 0
ENDMDL
MODEL 7
REMARK VINA RESULT:      -5.1      0.795      3.286
REMARK  0 active torsions:
REMARK  status: ('A' for Active; 'I' for Inactive)
ROOT
HETATM    1  C1  UNL     1     -32.630   7.562   3.081  1.00 20.00     0.000 A 
HETATM    2  C2  UNL     1     -33.168   6.378   2.581  1.00 20.00     0.001 A 
HETATM    3  C3  UNL     1     -32.819   7.904   4.421  1.00 20.00     0.001 A 
HETATM    4  C4  UNL     1     -33.896   5.532   3.420  1.00 20.00     0.007 A 
HETATM    5  C5  UNL     1     -33.547   7.059   5.259  1.00 20.00     0.007 A 
HETATM    6  C6  UNL     1     -34.084   5.874   4.758  1.00 20.00    -0.062 A 
HETATM    7  C7  UNL     1     -34.862   4.971   5.656  1.00 20.00     0.048 C 
ENDROOT
TORSDOF 0
ENDMDL
MODEL 8
REMARK VINA RESULT:      -4.9      0.781      2.577
REMARK  0 active torsions:
REMARK  status: ('A' for Active; 'I' for Inactive)
ROOT
HETATM    1  C1  UNL     1     -33.082   8.032   4.834  1.00 20.00     0.000 A 
HETATM    2  C2  UNL     1     -33.682   7.382   5.911  1.00 20.00     0.001 A 
HETATM    3  C3  UNL     1     -32.988   7.394   3.597  1.00 20.00     0.001 A 
HETATM    4  C4  UNL     1     -34.191   6.092   5.751  1.00 20.00     0.007 A 
HETATM    5  C5  UNL     1     -33.496   6.105   3.438  1.00 20.00     0.007 A 
HETATM    6  C6  UNL     1     -34.097   5.455   4.514  1.00 20.00    -0.062 A 
HETATM    7  C7  UNL     1     -34.641   4.076   4.343  1.00 20.00     0.048 C 
ENDROOT
TORSDOF 0
ENDMDL
MODEL 9
REMARK VINA RESULT:      -3.9     12.109     12.566
REMARK  0 active torsions:
REMARK  status: ('A' for Active; 'I' for Inactive)
ROOT
HETATM    1  C1  UNL     1     -34.096  18.475   0.434  1.00 20.00     0.000 A 
HETATM    2  C2  UNL     1     -32.987  18.499  -0.412  1.00 20.00     0.001 A 
HETATM    3  C3  UNL     1     -35.212  17.707   0.100  1.00 20.00     0.001 A 
HETATM    4  C4  UNL     1     -32.994  17.754  -1.592  1.00 20.00     0.007 A 
HETATM    5  C5  UNL     1     -35.218  16.964  -1.080  1.00 20.00     0.007 A 
HETATM    6  C6  UNL     1     -34.109  16.987  -1.925  1.00 20.00    -0.062 A 
HETATM    7  C7  UNL     1     -34.117  16.191  -3.186  1.00 20.00     0.048 C 
ENDROOT
TORSDOF 0
ENDMDL
