MODEL 1
REMARK VINA RESULT:      -4.8      0.000      0.000
REMARK  2 active torsions:
REMARK  status: ('A' for Active; 'I' for Inactive)
REMARK    1  A    between atoms: C5_5  and  N8_8 
REMARK    2  A    between atoms: C6_6  and  S11_11 
ROOT
HETATM    1  C1  UNL     1     -33.829   5.821   2.778  1.00 20.00     0.037 A 
HETATM    2  C2  UNL     1     -33.178   7.263   4.604  1.00 20.00     0.037 A 
HETATM    3  C3  UNL     1     -33.159   6.653   1.883  1.00 20.00     0.021 A 
HETATM    4  C4  UNL     1     -32.507   8.094   3.709  1.00 20.00     0.021 A 
HETATM    5  C5  UNL     1     -33.839   6.126   4.140  1.00 20.00     0.102 A 
HETATM    6  C6  UNL     1     -32.498   7.790   2.347  1.00 20.00    -0.000 A 
ENDROOT
BRANCH   5   7
HETATM    7  N8  UNL     1     -34.522   5.279   5.052  1.00 20.00    -0.116 N 
HETATM    8  O9  UNL     1     -34.823   4.114   4.693  1.00 20.00    -0.532 OA
HETATM    9  O10 UNL     1     -34.804   5.717   6.194  1.00 20.00    -0.532 OA
ENDBRANCH   5   7
BRANCH   6  10
HETATM   10  S11 UNL     1     -31.641   8.853   1.202  1.00 20.00    -0.134 SA
HETATM   11  C7  UNL     1     -32.812  10.227   1.132  1.00 20.00     0.095 C 
ENDBRANCH   6  10
TORSDOF 2
ENDMDL
MODEL 2
REMARK VINA RESULT:      -4.8      0.021      1.457
REMARK  2 active torsions:
REMARK  status: ('A' for Active; 'I' for Inactive)
REMARK    1  A    between atoms: C5_5  and  N8_8 
REMARK    2  A    between atoms: C6_6  and  S11_11 
ROOT
HETATM    1  C1  UNL     1     -33.176   7.269   4.597  1.00 20.00     0.037 A 
HETATM    2  C2  UNL     1     -33.849   5.837   2.771  1.00 20.00     0.037 A 
HETATM    3  C3  UNL     1     -32.510   8.101   3.699  1.00 20.00     0.021 A 
HETATM    4  C4  UNL     1     -33.184   6.671   1.873  1.00 20.00     0.021 A 
HETATM    5  C5  UNL     1     -33.846   6.136   4.133  1.00 20.00     0.102 A 
HETATM    6  C6  UNL     1     -32.514   7.803   2.337  1.00 20.00    -0.000 A 
ENDROOT
BRANCH   5   7
HETATM    7  N8  UNL     1     -34.524   5.288   5.048  1.00 20.00    -0.116 N 
HETATM    8  O9  UNL     1     -34.836   4.127   4.685  1.00 20.00    -0.532 OA
HETATM    9  O10 UNL     1     -34.791   5.720   6.195  1.00 20.00    -0.532 OA
ENDBRANCH   5   7
BRANCH   6  10
HETATM   10  S11 UNL     1     -31.662   8.867   1.189  1.00 20.00    -0.134 SA
HETATM   11  C7  UNL     1     -32.826  10.247   1.134  1.00 20.00     0.095 C 
ENDBRANCH   6  10
TORSDOF 2
ENDMDL
MODEL 3
REMARK VINA RESULT:      -4.6     11.314     11.615
REMARK  2 active torsions:
REMARK  status: ('A' for Active; 'I' for Inactive)
REMARK    1  A    between atoms: C5_5  and  N8_8 
REMARK    2  A    between atoms: C6_6  and  S11_11 
ROOT
HETATM    1  C1  UNL     1     -36.282  15.551  -3.706  1.00 20.00     0.037 A 
HETATM    2  C2  UNL     1     -34.175  14.573  -4.368  1.00 20.00     0.037 A 
HETATM    3  C3  UNL     1     -35.602  16.506  -2.952  1.00 20.00     0.021 A 
HETATM    4  C4  UNL     1     -33.494  15.529  -3.615  1.00 20.00     0.021 A 
HETATM    5  C5  UNL     1     -35.569  14.584  -4.414  1.00 20.00     0.102 A 
HETATM    6  C6  UNL     1     -34.208  16.496  -2.906  1.00 20.00    -0.000 A 
ENDROOT
BRANCH   5   7
HETATM    7  N8  UNL     1     -36.261  13.611  -5.181  1.00 20.00    -0.116 N 
HETATM    8  O9  UNL     1     -35.606  12.703  -5.748  1.00 20.00    -0.532 OA
HETATM    9  O10 UNL     1     -37.511  13.683  -5.271  1.00 20.00    -0.532 OA
ENDBRANCH   5   7
BRANCH   6  10
HETATM   10  S11 UNL     1     -33.338  17.717  -1.942  1.00 20.00    -0.134 SA
HETATM   11  C7  UNL     1     -34.404  17.766  -0.485  1.00 20.00     0.095 C 
ENDBRANCH   6  10
TORSDOF 2
ENDMDL
MODEL 4
REMARK VINA RESULT:      -4.4     11.326     12.238
REMARK  2 active torsions:
REMARK  status: ('A' for Active; 'I' for Inactive)
REMARK    1  A    between atoms: C5_5  and  N8_8 
REMARK    2  A    between atoms: C6_6  and  S11_11 
ROOT
HETATM    1  C1  UNL     1     -34.745  14.830  -3.843  1.00 20.00     0.037 A 
HETATM    2  C2  UNL     1     -34.055  15.697  -5.990  1.00 20.00     0.037 A 
HETATM    3  C3  UNL     1     -34.345  16.019  -3.234  1.00 20.00     0.021 A 
HETATM    4  C4  UNL     1     -33.656  16.887  -5.381  1.00 20.00     0.021 A 
HETATM    5  C5  UNL     1     -34.600  14.669  -5.221  1.00 20.00     0.102 A 
HETATM    6  C6  UNL     1     -33.801  17.048  -4.002  1.00 20.00    -0.000 A 
ENDROOT
BRANCH   5   7
HETATM    7  N8  UNL     1     -35.007  13.458  -5.841  1.00 20.00    -0.116 N 
HETATM    8  O9  UNL     1     -35.908  12.771  -5.302  1.00 20.00    -0.532 OA
HETATM    9  O10 UNL     1     -34.455  13.108  -6.912  1.00 20.00    -0.532 OA
ENDBRANCH   5   7
BRANCH   6  10
HETATM   10  S11 UNL     1     -33.289  18.567  -3.224  1.00 20.00    -0.134 SA
HETATM   11  C7  UNL     1     -32.984  17.961  -1.550  1.00 20.00     0.095 C 
ENDBRANCH   6  10
TORSDOF 2
ENDMDL
MODEL 5
REMARK VINA RESULT:      -4.4     11.332     12.197
REMARK  2 active torsions:
REMARK  status: ('A' for Active; 'I' for Inactive)
REMARK    1  A    between atoms: C5_5  and  N8_8 
REMARK    2  A    between atoms: C6_6  and  S11_11 
ROOT
HETATM    1  C1  UNL     1     -34.054  15.696  -5.989  1.00 20.00     0.037 A 
HETATM    2  C2  UNL     1     -34.764  14.848  -3.841  1.00 20.00     0.037 A 
HETATM    3  C3  UNL     1     -33.655  16.888  -5.387  1.00 20.00     0.021 A 
HETATM    4  C4  UNL     1     -34.364  16.040  -3.239  1.00 20.00     0.021 A 
HETATM    5  C5  UNL     1     -34.609  14.675  -5.217  1.00 20.00     0.102 A 
HETATM    6  C6  UNL     1     -33.809  17.061  -4.011  1.00 20.00    -0.000 A 
ENDROOT
BRANCH   5   7
HETATM    7  N8  UNL     1     -35.016  13.462  -5.830  1.00 20.00    -0.116 N 
HETATM    8  O9  UNL     1     -34.472  13.111  -6.906  1.00 20.00    -0.532 OA
HETATM    9  O10 UNL     1     -35.908  12.771  -5.280  1.00 20.00    -0.532 OA
ENDBRANCH   5   7
BRANCH   6  10
HETATM   10  S11 UNL     1     -33.299  18.585  -3.241  1.00 20.00    -0.134 SA
HETATM   11  C7  UNL     1     -32.967  17.983  -1.571  1.00 20.00     0.095 C 
ENDBRANCH   6  10
TORSDOF 2
ENDMDL
MODEL 6
REMARK VINA RESULT:      -4.3     11.748     12.115
REMARK  2 active torsions:
REMARK  status: ('A' for Active; 'I' for Inactive)
REMARK    1  A    between atoms: C5_5  and  N8_8 
REMARK    2  A    between atoms: C6_6  and  S11_11 
ROOT
HETATM    1  C1  UNL     1     -33.514  14.838  -4.982  1.00 20.00     0.037 A 
HETATM    2  C2  UNL     1     -35.918  14.604  -5.034  1.00 20.00     0.037 A 
HETATM    3  C3  UNL     1     -33.616  15.635  -3.843  1.00 20.00     0.021 A 
HETATM    4  C4  UNL     1     -36.020  15.401  -3.894  1.00 20.00     0.021 A 
HETATM    5  C5  UNL     1     -34.665  14.322  -5.578  1.00 20.00     0.102 A 
HETATM    6  C6  UNL     1     -34.869  15.917  -3.298  1.00 20.00    -0.000 A 
ENDROOT
BRANCH   5   7
HETATM    7  N8  UNL     1     -34.562  13.510  -6.738  1.00 20.00    -0.116 N 
HETATM    8  O9  UNL     1     -35.037  12.348  -6.713  1.00 20.00    -0.532 OA
HETATM    9  O10 UNL     1     -33.999  13.976  -7.758  1.00 20.00    -0.532 OA
ENDBRANCH   5   7
BRANCH   6  10
HETATM   10  S11 UNL     1     -34.999  16.937  -1.843  1.00 20.00    -0.134 SA
HETATM   11  C7  UNL     1     -33.290  17.509  -1.721  1.00 20.00     0.095 C 
ENDBRANCH   6  10
TORSDOF 2
ENDMDL
MODEL 7
REMARK VINA RESULT:      -4.1      4.050      5.070
REMARK  2 active torsions:
REMARK  status: ('A' for Active; 'I' for Inactive)
REMARK    1  A    between atoms: C5_5  and  N8_8 
REMARK    2  A    between atoms: C6_6  and  S11_11 
ROOT
HETATM    1  C1  UNL     1     -32.335   8.469   3.658  1.00 20.00     0.037 A 
HETATM    2  C2  UNL     1     -33.320   7.087   1.939  1.00 20.00     0.037 A 
HETATM    3  C3  UNL     1     -32.905   7.657   4.637  1.00 20.00     0.021 A 
HETATM    4  C4  UNL     1     -33.890   6.274   2.918  1.00 20.00     0.021 A 
HETATM    5  C5  UNL     1     -32.542   8.183   2.308  1.00 20.00     0.102 A 
HETATM    6  C6  UNL     1     -33.682   6.559   4.269  1.00 20.00    -0.000 A 
ENDROOT
BRANCH   5   7
HETATM    7  N8  UNL     1     -31.962   9.010   1.310  1.00 20.00    -0.116 N 
HETATM    8  O9  UNL     1     -32.353  10.198   1.202  1.00 20.00    -0.532 OA
HETATM    9  O10 UNL     1     -31.073   8.532   0.565  1.00 20.00    -0.532 OA
ENDBRANCH   5   7
BRANCH   6  10
HETATM   10  S11 UNL     1     -34.412   5.522   5.521  1.00 20.00    -0.134 SA
HETATM   11  C7  UNL     1     -34.395   3.940   4.649  1.00 20.00     0.095 C 
ENDBRANCH   6  10
TORSDOF 2
ENDMDL
MODEL 8
REMARK VINA RESULT:      -4.1     11.831     12.193
REMARK  2 active torsions:
REMARK  status: ('A' for Active; 'I' for Inactive)
REMARK    1  A    between atoms: C5_5  and  N8_8 
REMARK    2  A    between atoms: C6_6  and  S11_11 
ROOT
HETATM    1  C1  UNL     1     -33.029  17.497  -2.324  1.00 20.00     0.037 A 
HETATM    2  C2  UNL     1     -34.691  17.562  -0.572  1.00 20.00     0.037 A 
HETATM    3  C3  UNL     1     -33.942  16.868  -3.168  1.00 20.00     0.021 A 
HETATM    4  C4  UNL     1     -35.605  16.933  -1.417  1.00 20.00     0.021 A 
HETATM    5  C5  UNL     1     -33.403  17.845  -1.026  1.00 20.00     0.102 A 
HETATM    6  C6  UNL     1     -35.231  16.585  -2.715  1.00 20.00    -0.000 A 
ENDROOT
BRANCH   5   7
HETATM    7  N8  UNL     1     -32.473  18.486  -0.166  1.00 20.00    -0.116 N 
HETATM    8  O9  UNL     1     -32.903  19.165   0.798  1.00 20.00    -0.532 OA
HETATM    9  O10 UNL     1     -31.246  18.355  -0.392  1.00 20.00    -0.532 OA
ENDBRANCH   5   7
BRANCH   6  10
HETATM   10  S11 UNL     1     -36.399  15.779  -3.794  1.00 20.00    -0.134 SA
HETATM   11  C7  UNL     1     -35.347  14.466  -4.451  1.00 20.00     0.095 C 
ENDBRANCH   6  10
TORSDOF 2
ENDMDL
MODEL 9
REMARK VINA RESULT:      -4.1      4.056      4.861
REMARK  2 active torsions:
REMARK  status: ('A' for Active; 'I' for Inactive)
REMARK    1  A    between atoms: C5_5  and  N8_8 
REMARK    2  A    between atoms: C6_6  and  S11_11 
ROOT
HETATM    1  C1  UNL     1     -33.296   7.090   1.941  1.00 20.00     0.037 A 
HETATM    2  C2  UNL     1     -32.306   8.476   3.654  1.00 20.00     0.037 A 
HETATM    3  C3  UNL     1     -33.872   6.287   2.924  1.00 20.00     0.021 A 
HETATM    4  C4  UNL     1     -32.882   7.673   4.637  1.00 20.00     0.021 A 
HETATM    5  C5  UNL     1     -32.512   8.185   2.306  1.00 20.00     0.102 A 
HETATM    6  C6  UNL     1     -33.666   6.577   4.272  1.00 20.00    -0.000 A 
ENDROOT
BRANCH   5   7
HETATM    7  N8  UNL     1     -31.925   9.003   1.305  1.00 20.00    -0.116 N 
HETATM    8  O9  UNL     1     -32.315  10.190   1.183  1.00 20.00    -0.532 OA
HETATM    9  O10 UNL     1     -31.031   8.519   0.571  1.00 20.00    -0.532 OA
ENDBRANCH   5   7
BRANCH   6  10
HETATM   10  S11 UNL     1     -34.401   5.550   5.529  1.00 20.00    -0.134 SA
HETATM   11  C7  UNL     1     -34.399   3.965   4.662  1.00 20.00     0.095 C 
ENDBRANCH   6  10
TORSDOF 2
ENDMDL
