MODEL 1
REMARK VINA RESULT:      -6.4      0.000      0.000
REMARK  0 active torsions:
REMARK  status: ('A' for Active; 'I' for Inactive)
ROOT
HETATM    1  C1  UNL     1     -34.918   5.443   4.616  1.00 20.00     0.001 A 
HETATM    2  C2  UNL     1     -34.547   6.103   5.790  1.00 20.00     0.003 A 
HETATM    3  C3  UNL     1     -34.322   5.761   3.388  1.00 20.00     0.014 A 
HETATM    4  C4  UNL     1     -33.568   7.101   5.782  1.00 20.00     0.038 A 
HETATM    5  C5  UNL     1     -32.523   7.357   2.355  1.00 20.00     0.039 A 
HETATM    6  C6  UNL     1     -31.750   8.299   2.994  1.00 20.00     0.143 A 
HETATM    7  C7  UNL     1     -33.337   6.763   3.356  1.00 20.00    -0.001 A 
HETATM    8  C8  UNL     1     -32.994   7.396   4.547  1.00 20.00     0.085 A 
HETATM    9  O9  UNL     1     -32.027   8.331   4.323  1.00 20.00    -0.322 OA
ENDROOT
TORSDOF 0
ENDMDL
MODEL 2
REMARK VINA RESULT:      -6.2      0.914      1.953
REMARK  0 active torsions:
REMARK  status: ('A' for Active; 'I' for Inactive)
ROOT
HETATM    1  C1  UNL     1     -34.460   6.213   5.815  1.00 20.00     0.001 A 
HETATM    2  C2  UNL     1     -34.889   5.526   4.677  1.00 20.00     0.003 A 
HETATM    3  C3  UNL     1     -33.479   7.209   5.730  1.00 20.00     0.014 A 
HETATM    4  C4  UNL     1     -34.357   5.808   3.415  1.00 20.00     0.038 A 
HETATM    5  C5  UNL     1     -31.951   8.414   3.980  1.00 20.00     0.039 A 
HETATM    6  C6  UNL     1     -31.876   8.202   2.623  1.00 20.00     0.143 A 
HETATM    7  C7  UNL     1     -32.928   7.509   4.473  1.00 20.00    -0.001 A 
HETATM    8  C8  UNL     1     -33.382   6.802   3.363  1.00 20.00     0.085 A 
HETATM    9  O9  UNL     1     -32.740   7.228   2.238  1.00 20.00    -0.322 OA
ENDROOT
TORSDOF 0
ENDMDL
MODEL 3
REMARK VINA RESULT:      -5.4      1.161      3.087
REMARK  0 active torsions:
REMARK  status: ('A' for Active; 'I' for Inactive)
ROOT
HETATM    1  C1  UNL     1     -32.648   7.186   2.163  1.00 20.00     0.001 A 
HETATM    2  C2  UNL     1     -32.116   8.079   3.096  1.00 20.00     0.003 A 
HETATM    3  C3  UNL     1     -33.578   6.209   2.545  1.00 20.00     0.014 A 
HETATM    4  C4  UNL     1     -32.493   8.032   4.442  1.00 20.00     0.038 A 
HETATM    5  C5  UNL     1     -34.853   5.333   4.656  1.00 20.00     0.039 A 
HETATM    6  C6  UNL     1     -34.782   5.795   5.950  1.00 20.00     0.143 A 
HETATM    7  C7  UNL     1     -33.971   6.142   3.893  1.00 20.00    -0.001 A 
HETATM    8  C8  UNL     1     -33.418   7.050   4.792  1.00 20.00     0.085 A 
HETATM    9  O9  UNL     1     -33.915   6.836   6.044  1.00 20.00    -0.322 OA
ENDROOT
TORSDOF 0
ENDMDL
MODEL 4
REMARK VINA RESULT:      -5.3      1.657      3.710
REMARK  0 active torsions:
REMARK  status: ('A' for Active; 'I' for Inactive)
ROOT
HETATM    1  C1  UNL     1     -32.393   8.088   3.543  1.00 20.00     0.001 A 
HETATM    2  C2  UNL     1     -32.559   7.250   2.438  1.00 20.00     0.003 A 
HETATM    3  C3  UNL     1     -32.963   7.771   4.783  1.00 20.00     0.014 A 
HETATM    4  C4  UNL     1     -33.298   6.067   2.530  1.00 20.00     0.038 A 
HETATM    5  C5  UNL     1     -34.423   5.931   5.938  1.00 20.00     0.039 A 
HETATM    6  C6  UNL     1     -34.944   4.783   5.387  1.00 20.00     0.143 A 
HETATM    7  C7  UNL     1     -33.711   6.587   4.899  1.00 20.00    -0.001 A 
HETATM    8  C8  UNL     1     -33.853   5.778   3.775  1.00 20.00     0.085 A 
HETATM    9  O9  UNL     1     -34.604   4.681   4.076  1.00 20.00    -0.322 OA
ENDROOT
TORSDOF 0
ENDMDL
MODEL 5
REMARK VINA RESULT:      -4.8      1.264      2.345
REMARK  0 active torsions:
REMARK  status: ('A' for Active; 'I' for Inactive)
ROOT
HETATM    1  C1  UNL     1     -34.680   4.290   4.655  1.00 20.00     0.001 A 
HETATM    2  C2  UNL     1     -34.068   4.363   3.401  1.00 20.00     0.003 A 
HETATM    3  C3  UNL     1     -34.560   5.336   5.580  1.00 20.00     0.014 A 
HETATM    4  C4  UNL     1     -33.316   5.480   3.025  1.00 20.00     0.038 A 
HETATM    5  C5  UNL     1     -33.457   7.695   5.849  1.00 20.00     0.039 A 
HETATM    6  C6  UNL     1     -32.686   8.385   4.942  1.00 20.00     0.143 A 
HETATM    7  C7  UNL     1     -33.808   6.469   5.223  1.00 20.00    -0.001 A 
HETATM    8  C8  UNL     1     -33.214   6.503   3.965  1.00 20.00     0.085 A 
HETATM    9  O9  UNL     1     -32.532   7.672   3.797  1.00 20.00    -0.322 OA
ENDROOT
TORSDOF 0
ENDMDL
MODEL 6
REMARK VINA RESULT:      -4.7      1.879      2.656
REMARK  0 active torsions:
REMARK  status: ('A' for Active; 'I' for Inactive)
ROOT
HETATM    1  C1  UNL     1     -33.784   7.525   5.761  1.00 20.00     0.001 A 
HETATM    2  C2  UNL     1     -34.472   6.413   6.252  1.00 20.00     0.003 A 
HETATM    3  C3  UNL     1     -33.172   7.498   4.500  1.00 20.00     0.014 A 
HETATM    4  C4  UNL     1     -34.576   5.236   5.504  1.00 20.00     0.038 A 
HETATM    5  C5  UNL     1     -32.800   5.908   2.455  1.00 20.00     0.039 A 
HETATM    6  C6  UNL     1     -33.238   4.615   2.288  1.00 20.00     0.143 A 
HETATM    7  C7  UNL     1     -33.262   6.326   3.731  1.00 20.00    -0.001 A 
HETATM    8  C8  UNL     1     -33.957   5.240   4.255  1.00 20.00     0.085 A 
HETATM    9  O9  UNL     1     -33.941   4.200   3.374  1.00 20.00    -0.322 OA
ENDROOT
TORSDOF 0
ENDMDL
MODEL 7
REMARK VINA RESULT:      -4.4     11.768     12.159
REMARK  0 active torsions:
REMARK  status: ('A' for Active; 'I' for Inactive)
ROOT
HETATM    1  C1  UNL     1     -35.603  16.943  -1.301  1.00 20.00     0.001 A 
HETATM    2  C2  UNL     1     -34.705  16.704  -2.344  1.00 20.00     0.003 A 
HETATM    3  C3  UNL     1     -35.208  17.641  -0.152  1.00 20.00     0.014 A 
HETATM    4  C4  UNL     1     -33.383  17.153  -2.279  1.00 20.00     0.038 A 
HETATM    5  C5  UNL     1     -33.117  18.819   0.892  1.00 20.00     0.039 A 
HETATM    6  C6  UNL     1     -31.856  18.951   0.358  1.00 20.00     0.143 A 
HETATM    7  C7  UNL     1     -33.883  18.101  -0.064  1.00 20.00    -0.001 A 
HETATM    8  C8  UNL     1     -33.019  17.844  -1.125  1.00 20.00     0.085 A 
HETATM    9  O9  UNL     1     -31.785  18.363  -0.864  1.00 20.00    -0.322 OA
ENDROOT
TORSDOF 0
ENDMDL
MODEL 8
REMARK VINA RESULT:      -4.4     11.451     12.763
REMARK  0 active torsions:
REMARK  status: ('A' for Active; 'I' for Inactive)
ROOT
HETATM    1  C1  UNL     1     -33.298  16.287  -4.845  1.00 20.00     0.001 A 
HETATM    2  C2  UNL     1     -33.949  15.591  -3.824  1.00 20.00     0.003 A 
HETATM    3  C3  UNL     1     -33.361  15.848  -6.174  1.00 20.00     0.014 A 
HETATM    4  C4  UNL     1     -34.686  14.433  -4.091  1.00 20.00     0.038 A 
HETATM    5  C5  UNL     1     -34.395  13.940  -7.637  1.00 20.00     0.039 A 
HETATM    6  C6  UNL     1     -35.181  12.885  -7.234  1.00 20.00     0.143 A 
HETATM    7  C7  UNL     1     -34.096  14.686  -6.467  1.00 20.00    -0.001 A 
HETATM    8  C8  UNL     1     -34.731  14.021  -5.422  1.00 20.00     0.085 A 
HETATM    9  O9  UNL     1     -35.391  12.925  -5.893  1.00 20.00    -0.322 OA
ENDROOT
TORSDOF 0
ENDMDL
MODEL 9
REMARK VINA RESULT:      -4.2     11.669     12.012
REMARK  0 active torsions:
REMARK  status: ('A' for Active; 'I' for Inactive)
ROOT
HETATM    1  C1  UNL     1     -33.327  18.508   0.119  1.00 20.00     0.001 A 
HETATM    2  C2  UNL     1     -34.626  18.234   0.553  1.00 20.00     0.003 A 
HETATM    3  C3  UNL     1     -32.852  18.007  -1.100  1.00 20.00     0.014 A 
HETATM    4  C4  UNL     1     -35.498  17.454  -0.212  1.00 20.00     0.038 A 
HETATM    5  C5  UNL     1     -33.616  16.550  -3.135  1.00 20.00     0.039 A 
HETATM    6  C6  UNL     1     -34.835  15.947  -3.344  1.00 20.00     0.143 A 
HETATM    7  C7  UNL     1     -33.710  17.219  -1.886  1.00 20.00    -0.001 A 
HETATM    8  C8  UNL     1     -34.997  16.970  -1.419  1.00 20.00     0.085 A 
HETATM    9  O9  UNL     1     -35.679  16.195  -2.310  1.00 20.00    -0.322 OA
ENDROOT
TORSDOF 0
ENDMDL
