MODEL 1
REMARK VINA RESULT:      -5.8      0.000      0.000
REMARK  1 active torsions:
REMARK  status: ('A' for Active; 'I' for Inactive)
REMARK    1  A    between atoms: C6_6  and  S8_8 
ROOT
HETATM    1  C1  UNL     1     -34.661   5.006   5.581  1.00 20.00     0.000 A 
HETATM    2  C2  UNL     1     -34.319   6.316   5.917  1.00 20.00     0.001 A 
HETATM    3  C3  UNL     1     -34.432   4.535   4.288  1.00 20.00     0.001 A 
HETATM    4  C4  UNL     1     -33.747   7.155   4.960  1.00 20.00     0.018 A 
HETATM    5  C5  UNL     1     -33.860   5.373   3.331  1.00 20.00     0.018 A 
HETATM    6  C6  UNL     1     -33.518   6.684   3.667  1.00 20.00    -0.000 A 
ENDROOT
BRANCH   6   7
HETATM    7  S8  UNL     1     -32.789   7.755   2.444  1.00 20.00    -0.134 SA
HETATM    8  C7  UNL     1     -31.373   8.365   3.385  1.00 20.00     0.095 C 
ENDBRANCH   6   7
TORSDOF 1
ENDMDL
MODEL 2
REMARK VINA RESULT:      -5.8      0.004      1.709
REMARK  1 active torsions:
REMARK  status: ('A' for Active; 'I' for Inactive)
REMARK    1  A    between atoms: C6_6  and  S8_8 
ROOT
HETATM    1  C1  UNL     1     -34.660   5.004   5.582  1.00 20.00     0.000 A 
HETATM    2  C2  UNL     1     -34.430   4.532   4.289  1.00 20.00     0.001 A 
HETATM    3  C3  UNL     1     -34.320   6.316   5.916  1.00 20.00     0.001 A 
HETATM    4  C4  UNL     1     -33.860   5.371   3.331  1.00 20.00     0.018 A 
HETATM    5  C5  UNL     1     -33.750   7.154   4.958  1.00 20.00     0.018 A 
HETATM    6  C6  UNL     1     -33.520   6.682   3.665  1.00 20.00    -0.000 A 
ENDROOT
BRANCH   6   7
HETATM    7  S8  UNL     1     -32.792   7.754   2.442  1.00 20.00    -0.134 SA
HETATM    8  C7  UNL     1     -31.372   8.358   3.380  1.00 20.00     0.095 C 
ENDBRANCH   6   7
TORSDOF 1
ENDMDL
MODEL 3
REMARK VINA RESULT:      -5.5      1.078      1.140
REMARK  1 active torsions:
REMARK  status: ('A' for Active; 'I' for Inactive)
REMARK    1  A    between atoms: C6_6  and  S8_8 
ROOT
HETATM    1  C1  UNL     1     -34.793   5.531   5.029  1.00 20.00     0.000 A 
HETATM    2  C2  UNL     1     -34.233   6.545   5.807  1.00 20.00     0.001 A 
HETATM    3  C3  UNL     1     -34.404   5.377   3.698  1.00 20.00     0.001 A 
HETATM    4  C4  UNL     1     -33.285   7.406   5.253  1.00 20.00     0.018 A 
HETATM    5  C5  UNL     1     -33.456   6.238   3.145  1.00 20.00     0.018 A 
HETATM    6  C6  UNL     1     -32.895   7.252   3.922  1.00 20.00    -0.000 A 
ENDROOT
BRANCH   6   7
HETATM    7  S8  UNL     1     -31.684   8.351   3.215  1.00 20.00    -0.134 SA
HETATM    8  C7  UNL     1     -32.471   8.680   1.623  1.00 20.00     0.095 C 
ENDBRANCH   6   7
TORSDOF 1
ENDMDL
MODEL 4
REMARK VINA RESULT:      -4.1      1.649      3.852
REMARK  1 active torsions:
REMARK  status: ('A' for Active; 'I' for Inactive)
REMARK    1  A    between atoms: C6_6  and  S8_8 
ROOT
HETATM    1  C1  UNL     1     -31.591   8.413   3.430  1.00 20.00     0.000 A 
HETATM    2  C2  UNL     1     -32.118   7.662   2.379  1.00 20.00     0.001 A 
HETATM    3  C3  UNL     1     -32.144   8.310   4.707  1.00 20.00     0.001 A 
HETATM    4  C4  UNL     1     -33.197   6.808   2.605  1.00 20.00     0.018 A 
HETATM    5  C5  UNL     1     -33.224   7.456   4.933  1.00 20.00     0.018 A 
HETATM    6  C6  UNL     1     -33.750   6.704   3.881  1.00 20.00    -0.000 A 
ENDROOT
BRANCH   6   7
HETATM    7  S8  UNL     1     -35.130   5.614   4.170  1.00 20.00    -0.134 SA
HETATM    8  C7  UNL     1     -34.238   4.066   4.439  1.00 20.00     0.095 C 
ENDBRANCH   6   7
TORSDOF 1
ENDMDL
MODEL 5
REMARK VINA RESULT:      -4.1      1.644      3.520
REMARK  1 active torsions:
REMARK  status: ('A' for Active; 'I' for Inactive)
REMARK    1  A    between atoms: C6_6  and  S8_8 
ROOT
HETATM    1  C1  UNL     1     -31.619   8.445   3.416  1.00 20.00     0.000 A 
HETATM    2  C2  UNL     1     -32.160   8.317   4.696  1.00 20.00     0.001 A 
HETATM    3  C3  UNL     1     -32.154   7.710   2.357  1.00 20.00     0.001 A 
HETATM    4  C4  UNL     1     -33.234   7.455   4.917  1.00 20.00     0.018 A 
HETATM    5  C5  UNL     1     -33.228   6.848   2.578  1.00 20.00     0.018 A 
HETATM    6  C6  UNL     1     -33.768   6.721   3.858  1.00 20.00    -0.000 A 
ENDROOT
BRANCH   6   7
HETATM    7  S8  UNL     1     -35.140   5.619   4.140  1.00 20.00    -0.134 SA
HETATM    8  C7  UNL     1     -34.235   4.087   4.455  1.00 20.00     0.095 C 
ENDBRANCH   6   7
TORSDOF 1
ENDMDL
MODEL 6
REMARK VINA RESULT:      -4.0      1.535      2.642
REMARK  1 active torsions:
REMARK  status: ('A' for Active; 'I' for Inactive)
REMARK    1  A    between atoms: C6_6  and  S8_8 
ROOT
HETATM    1  C1  UNL     1     -33.937   6.911   5.017  1.00 20.00     0.000 A 
HETATM    2  C2  UNL     1     -34.351   6.572   3.728  1.00 20.00     0.001 A 
HETATM    3  C3  UNL     1     -32.831   7.742   5.198  1.00 20.00     0.001 A 
HETATM    4  C4  UNL     1     -33.659   7.063   2.621  1.00 20.00     0.018 A 
HETATM    5  C5  UNL     1     -32.139   8.234   4.091  1.00 20.00     0.018 A 
HETATM    6  C6  UNL     1     -32.553   7.894   2.803  1.00 20.00    -0.000 A 
ENDROOT
BRANCH   6   7
HETATM    7  S8  UNL     1     -31.669   8.522   1.389  1.00 20.00    -0.134 SA
HETATM    8  C7  UNL     1     -32.597  10.045   1.105  1.00 20.00     0.095 C 
ENDBRANCH   6   7
TORSDOF 1
ENDMDL
MODEL 7
REMARK VINA RESULT:      -3.7     12.121     12.516
REMARK  1 active torsions:
REMARK  status: ('A' for Active; 'I' for Inactive)
REMARK    1  A    between atoms: C6_6  and  S8_8 
ROOT
HETATM    1  C1  UNL     1     -33.747  18.277  -0.114  1.00 20.00     0.000 A 
HETATM    2  C2  UNL     1     -35.015  17.695  -0.142  1.00 20.00     0.001 A 
HETATM    3  C3  UNL     1     -32.862  18.074  -1.173  1.00 20.00     0.001 A 
HETATM    4  C4  UNL     1     -35.398  16.910  -1.230  1.00 20.00     0.018 A 
HETATM    5  C5  UNL     1     -33.245  17.288  -2.260  1.00 20.00     0.018 A 
HETATM    6  C6  UNL     1     -34.513  16.707  -2.289  1.00 20.00    -0.000 A 
ENDROOT
BRANCH   6   7
HETATM    7  S8  UNL     1     -35.001  15.703  -3.679  1.00 20.00    -0.134 SA
HETATM    8  C7  UNL     1     -33.371  15.198  -4.271  1.00 20.00     0.095 C 
ENDBRANCH   6   7
TORSDOF 1
ENDMDL
MODEL 8
REMARK VINA RESULT:      -3.7     12.123     12.533
REMARK  1 active torsions:
REMARK  status: ('A' for Active; 'I' for Inactive)
REMARK    1  A    between atoms: C6_6  and  S8_8 
ROOT
HETATM    1  C1  UNL     1     -33.747  18.281  -0.108  1.00 20.00     0.000 A 
HETATM    2  C2  UNL     1     -32.862  18.080  -1.169  1.00 20.00     0.001 A 
HETATM    3  C3  UNL     1     -35.013  17.696  -0.136  1.00 20.00     0.001 A 
HETATM    4  C4  UNL     1     -33.244  17.294  -2.256  1.00 20.00     0.018 A 
HETATM    5  C5  UNL     1     -35.395  16.911  -1.224  1.00 20.00     0.018 A 
HETATM    6  C6  UNL     1     -34.510  16.710  -2.284  1.00 20.00    -0.000 A 
ENDROOT
BRANCH   6   7
HETATM    7  S8  UNL     1     -34.999  15.707  -3.674  1.00 20.00    -0.134 SA
HETATM    8  C7  UNL     1     -33.370  15.215  -4.277  1.00 20.00     0.095 C 
ENDBRANCH   6   7
TORSDOF 1
ENDMDL
MODEL 9
REMARK VINA RESULT:      -3.6     12.138     12.655
REMARK  1 active torsions:
REMARK  status: ('A' for Active; 'I' for Inactive)
REMARK    1  A    between atoms: C6_6  and  S8_8 
ROOT
HETATM    1  C1  UNL     1     -33.524  17.064  -2.464  1.00 20.00     0.000 A 
HETATM    2  C2  UNL     1     -34.819  16.598  -2.235  1.00 20.00     0.001 A 
HETATM    3  C3  UNL     1     -32.902  17.884  -1.522  1.00 20.00     0.001 A 
HETATM    4  C4  UNL     1     -35.492  16.952  -1.066  1.00 20.00     0.018 A 
HETATM    5  C5  UNL     1     -33.574  18.238  -0.353  1.00 20.00     0.018 A 
HETATM    6  C6  UNL     1     -34.869  17.772  -0.124  1.00 20.00    -0.000 A 
ENDROOT
BRANCH   6   7
HETATM    7  S8  UNL     1     -35.729  18.225   1.370  1.00 20.00    -0.134 SA
HETATM    8  C7  UNL     1     -34.321  18.384   2.490  1.00 20.00     0.095 C 
ENDBRANCH   6   7
TORSDOF 1
ENDMDL
