MODEL 1
REMARK VINA RESULT:      -6.8      0.000      0.000
REMARK  2 active torsions:
REMARK  status: ('A' for Active; 'I' for Inactive)
REMARK    1  A    between atoms: C6_6  and  C10_10 
REMARK    2  A    between atoms: C9_9  and  C10_10 
ROOT
HETATM    1  C1  UNL     1     -34.766   5.561   5.475  1.00 20.00     0.000 A 
HETATM    2  C2  UNL     1     -34.629   5.068   4.178  1.00 20.00     0.001 A 
HETATM    3  C3  UNL     1     -34.106   6.731   5.851  1.00 20.00     0.001 A 
HETATM    4  C4  UNL     1     -33.832   5.747   3.255  1.00 20.00     0.007 A 
HETATM    5  C5  UNL     1     -33.309   7.409   4.927  1.00 20.00     0.007 A 
HETATM    6  C6  UNL     1     -33.173   6.917   3.630  1.00 20.00    -0.054 A 
ENDROOT
BRANCH   6   7
HETATM    7  C10 UNL     1     -32.306   7.656   2.625  1.00 20.00     0.014 C 
HETATM    8  C8  UNL     1     -31.206   8.447   3.343  1.00 20.00     0.015 C 
BRANCH   7   9
HETATM    9  C9  UNL     1     -33.108   8.593   1.699  1.00 20.00     0.004 C 
HETATM   10  C7  UNL     1     -32.224   9.522   0.877  1.00 20.00     0.006 C 
ENDBRANCH   7   9
ENDBRANCH   6   7
TORSDOF 2
ENDMDL
MODEL 2
REMARK VINA RESULT:      -6.8      0.063      1.529
REMARK  2 active torsions:
REMARK  status: ('A' for Active; 'I' for Inactive)
REMARK    1  A    between atoms: C6_6  and  C10_10 
REMARK    2  A    between atoms: C9_9  and  C10_10 
ROOT
HETATM    1  C1  UNL     1     -34.780   5.541   5.528  1.00 20.00     0.000 A 
HETATM    2  C2  UNL     1     -34.107   6.704   5.903  1.00 20.00     0.001 A 
HETATM    3  C3  UNL     1     -34.656   5.052   4.227  1.00 20.00     0.001 A 
HETATM    4  C4  UNL     1     -33.311   7.378   4.977  1.00 20.00     0.007 A 
HETATM    5  C5  UNL     1     -33.859   5.726   3.301  1.00 20.00     0.007 A 
HETATM    6  C6  UNL     1     -33.187   6.889   3.676  1.00 20.00    -0.054 A 
ENDROOT
BRANCH   6   7
HETATM    7  C10 UNL     1     -32.319   7.623   2.668  1.00 20.00     0.014 C 
HETATM    8  C8  UNL     1     -31.247   8.453   3.384  1.00 20.00     0.015 C 
BRANCH   7   9
HETATM    9  C9  UNL     1     -33.126   8.522   1.708  1.00 20.00     0.004 C 
HETATM   10  C7  UNL     1     -32.246   9.437   0.866  1.00 20.00     0.006 C 
ENDBRANCH   7   9
ENDBRANCH   6   7
TORSDOF 2
ENDMDL
MODEL 3
REMARK VINA RESULT:      -5.3      0.945      1.425
REMARK  2 active torsions:
REMARK  status: ('A' for Active; 'I' for Inactive)
REMARK    1  A    between atoms: C6_6  and  C10_10 
REMARK    2  A    between atoms: C9_9  and  C10_10 
ROOT
HETATM    1  C1  UNL     1     -34.591   5.080   5.943  1.00 20.00     0.000 A 
HETATM    2  C2  UNL     1     -34.572   4.564   4.648  1.00 20.00     0.001 A 
HETATM    3  C3  UNL     1     -34.217   6.405   6.172  1.00 20.00     0.001 A 
HETATM    4  C4  UNL     1     -34.180   5.372   3.580  1.00 20.00     0.007 A 
HETATM    5  C5  UNL     1     -33.825   7.213   5.104  1.00 20.00     0.007 A 
HETATM    6  C6  UNL     1     -33.807   6.697   3.809  1.00 20.00    -0.054 A 
ENDROOT
BRANCH   6   7
HETATM    7  C10 UNL     1     -33.381   7.577   2.647  1.00 20.00     0.014 C 
HETATM    8  C8  UNL     1     -33.589   6.848   1.314  1.00 20.00     0.015 C 
BRANCH   7   9
HETATM    9  C9  UNL     1     -31.922   8.068   2.755  1.00 20.00     0.004 C 
HETATM   10  C7  UNL     1     -31.418   8.731   1.479  1.00 20.00     0.006 C 
ENDBRANCH   7   9
ENDBRANCH   6   7
TORSDOF 2
ENDMDL
MODEL 4
REMARK VINA RESULT:      -5.2      1.030      4.369
REMARK  2 active torsions:
REMARK  status: ('A' for Active; 'I' for Inactive)
REMARK    1  A    between atoms: C6_6  and  C10_10 
REMARK    2  A    between atoms: C9_9  and  C10_10 
ROOT
HETATM    1  C1  UNL     1     -31.468   8.585   1.995  1.00 20.00     0.000 A 
HETATM    2  C2  UNL     1     -31.255   8.495   3.371  1.00 20.00     0.001 A 
HETATM    3  C3  UNL     1     -32.652   8.100   1.439  1.00 20.00     0.001 A 
HETATM    4  C4  UNL     1     -32.227   7.921   4.191  1.00 20.00     0.007 A 
HETATM    5  C5  UNL     1     -33.624   7.527   2.260  1.00 20.00     0.007 A 
HETATM    6  C6  UNL     1     -33.411   7.437   3.635  1.00 20.00    -0.054 A 
ENDROOT
BRANCH   6   7
HETATM    7  C10 UNL     1     -34.470   6.813   4.528  1.00 20.00     0.014 C 
HETATM    8  C8  UNL     1     -34.013   6.822   5.992  1.00 20.00     0.015 C 
BRANCH   7   9
HETATM    9  C9  UNL     1     -34.856   5.380   4.107  1.00 20.00     0.004 C 
HETATM   10  C7  UNL     1     -34.453   4.327   5.132  1.00 20.00     0.006 C 
ENDBRANCH   7   9
ENDBRANCH   6   7
TORSDOF 2
ENDMDL
MODEL 5
REMARK VINA RESULT:      -5.2      1.040      4.150
REMARK  2 active torsions:
REMARK  status: ('A' for Active; 'I' for Inactive)
REMARK    1  A    between atoms: C6_6  and  C10_10 
REMARK    2  A    between atoms: C9_9  and  C10_10 
ROOT
HETATM    1  C1  UNL     1     -31.442   8.549   1.998  1.00 20.00     0.000 A 
HETATM    2  C2  UNL     1     -32.604   8.020   1.436  1.00 20.00     0.001 A 
HETATM    3  C3  UNL     1     -31.254   8.510   3.380  1.00 20.00     0.001 A 
HETATM    4  C4  UNL     1     -33.578   7.452   2.256  1.00 20.00     0.007 A 
HETATM    5  C5  UNL     1     -32.230   7.940   4.200  1.00 20.00     0.007 A 
HETATM    6  C6  UNL     1     -33.391   7.411   3.638  1.00 20.00    -0.054 A 
ENDROOT
BRANCH   6   7
HETATM    7  C10 UNL     1     -34.452   6.792   4.531  1.00 20.00     0.014 C 
HETATM    8  C8  UNL     1     -33.998   6.805   5.995  1.00 20.00     0.015 C 
BRANCH   7   9
HETATM    9  C9  UNL     1     -34.840   5.358   4.113  1.00 20.00     0.004 C 
HETATM   10  C7  UNL     1     -34.453   4.309   5.148  1.00 20.00     0.006 C 
ENDBRANCH   7   9
ENDBRANCH   6   7
TORSDOF 2
ENDMDL
MODEL 6
REMARK VINA RESULT:      -4.9      1.305      4.513
REMARK  2 active torsions:
REMARK  status: ('A' for Active; 'I' for Inactive)
REMARK    1  A    between atoms: C6_6  and  C10_10 
REMARK    2  A    between atoms: C9_9  and  C10_10 
ROOT
HETATM    1  C1  UNL     1     -32.286  10.156   0.515  1.00 20.00     0.000 A 
HETATM    2  C2  UNL     1     -31.468   9.028   0.485  1.00 20.00     0.001 A 
HETATM    3  C3  UNL     1     -33.291  10.265   1.477  1.00 20.00     0.001 A 
HETATM    4  C4  UNL     1     -31.653   8.007   1.418  1.00 20.00     0.007 A 
HETATM    5  C5  UNL     1     -33.475   9.243   2.410  1.00 20.00     0.007 A 
HETATM    6  C6  UNL     1     -32.656   8.115   2.380  1.00 20.00    -0.054 A 
ENDROOT
BRANCH   6   7
HETATM    7  C10 UNL     1     -32.858   7.004   3.396  1.00 20.00     0.014 C 
HETATM    8  C8  UNL     1     -33.033   5.654   2.690  1.00 20.00     0.015 C 
BRANCH   7   9
HETATM    9  C9  UNL     1     -34.044   7.256   4.350  1.00 20.00     0.004 C 
HETATM   10  C7  UNL     1     -33.634   7.293   5.817  1.00 20.00     0.006 C 
ENDBRANCH   7   9
ENDBRANCH   6   7
TORSDOF 2
ENDMDL
MODEL 7
REMARK VINA RESULT:      -4.9      1.308      4.636
REMARK  2 active torsions:
REMARK  status: ('A' for Active; 'I' for Inactive)
REMARK    1  A    between atoms: C6_6  and  C10_10 
REMARK    2  A    between atoms: C9_9  and  C10_10 
ROOT
HETATM    1  C1  UNL     1     -32.268  10.160   0.515  1.00 20.00     0.000 A 
HETATM    2  C2  UNL     1     -33.283  10.262   1.466  1.00 20.00     0.001 A 
HETATM    3  C3  UNL     1     -31.444   9.034   0.490  1.00 20.00     0.001 A 
HETATM    4  C4  UNL     1     -33.474   9.238   2.394  1.00 20.00     0.007 A 
HETATM    5  C5  UNL     1     -31.637   8.010   1.418  1.00 20.00     0.007 A 
HETATM    6  C6  UNL     1     -32.651   8.111   2.370  1.00 20.00    -0.054 A 
ENDROOT
BRANCH   6   7
HETATM    7  C10 UNL     1     -32.860   6.996   3.379  1.00 20.00     0.014 C 
HETATM    8  C8  UNL     1     -33.065   5.655   2.665  1.00 20.00     0.015 C 
BRANCH   7   9
HETATM    9  C9  UNL     1     -34.031   7.260   4.348  1.00 20.00     0.004 C 
HETATM   10  C7  UNL     1     -33.602   7.298   5.809  1.00 20.00     0.006 C 
ENDBRANCH   7   9
ENDBRANCH   6   7
TORSDOF 2
ENDMDL
MODEL 8
REMARK VINA RESULT:      -4.7     10.779     11.678
REMARK  2 active torsions:
REMARK  status: ('A' for Active; 'I' for Inactive)
REMARK    1  A    between atoms: C6_6  and  C10_10 
REMARK    2  A    between atoms: C9_9  and  C10_10 
ROOT
HETATM    1  C1  UNL     1     -34.223  18.365   0.507  1.00 20.00     0.000 A 
HETATM    2  C2  UNL     1     -35.260  17.584  -0.002  1.00 20.00     0.001 A 
HETATM    3  C3  UNL     1     -33.036  18.506  -0.213  1.00 20.00     0.001 A 
HETATM    4  C4  UNL     1     -35.111  16.944  -1.233  1.00 20.00     0.007 A 
HETATM    5  C5  UNL     1     -32.888  17.865  -1.444  1.00 20.00     0.007 A 
HETATM    6  C6  UNL     1     -33.925  17.084  -1.953  1.00 20.00    -0.054 A 
ENDROOT
BRANCH   6   7
HETATM    7  C10 UNL     1     -33.763  16.388  -3.293  1.00 20.00     0.014 C 
HETATM    8  C8  UNL     1     -33.529  17.414  -4.409  1.00 20.00     0.015 C 
BRANCH   7   9
HETATM    9  C9  UNL     1     -34.954  15.478  -3.657  1.00 20.00     0.004 C 
HETATM   10  C7  UNL     1     -34.527  14.132  -4.229  1.00 20.00     0.006 C 
ENDBRANCH   7   9
ENDBRANCH   6   7
TORSDOF 2
ENDMDL
MODEL 9
REMARK VINA RESULT:      -4.7     10.746     11.712
REMARK  2 active torsions:
REMARK  status: ('A' for Active; 'I' for Inactive)
REMARK    1  A    between atoms: C6_6  and  C10_10 
REMARK    2  A    between atoms: C9_9  and  C10_10 
ROOT
HETATM    1  C1  UNL     1     -34.278  18.341   0.495  1.00 20.00     0.000 A 
HETATM    2  C2  UNL     1     -33.082  18.492  -0.207  1.00 20.00     0.001 A 
HETATM    3  C3  UNL     1     -35.305  17.559  -0.035  1.00 20.00     0.001 A 
HETATM    4  C4  UNL     1     -32.912  17.860  -1.438  1.00 20.00     0.007 A 
HETATM    5  C5  UNL     1     -35.134  16.927  -1.267  1.00 20.00     0.007 A 
HETATM    6  C6  UNL     1     -33.938  17.077  -1.969  1.00 20.00    -0.054 A 
ENDROOT
BRANCH   6   7
HETATM    7  C10 UNL     1     -33.753  16.388  -3.310  1.00 20.00     0.014 C 
HETATM    8  C8  UNL     1     -33.527  17.423  -4.419  1.00 20.00     0.015 C 
BRANCH   7   9
HETATM    9  C9  UNL     1     -34.927  15.461  -3.687  1.00 20.00     0.004 C 
HETATM   10  C7  UNL     1     -34.472  14.105  -4.212  1.00 20.00     0.006 C 
ENDBRANCH   7   9
ENDBRANCH   6   7
TORSDOF 2
ENDMDL
