MODEL 1
REMARK VINA RESULT:      -5.5      0.000      0.000
REMARK  0 active torsions:
REMARK  status: ('A' for Active; 'I' for Inactive)
ROOT
HETATM    1  C1  UNL     1     -34.099   5.444   3.589  1.00 20.00     0.008 A 
HETATM    2  C2  UNL     1     -33.613   7.055   5.323  1.00 20.00     0.008 A 
HETATM    3  C3  UNL     1     -33.509   6.284   2.644  1.00 20.00     0.019 A 
HETATM    4  C4  UNL     1     -33.023   7.894   4.378  1.00 20.00     0.019 A 
HETATM    5  C5  UNL     1     -34.152   5.830   4.928  1.00 20.00    -0.062 A 
HETATM    6  C6  UNL     1     -32.971   7.509   3.039  1.00 20.00     0.006 A 
HETATM    7  C7  UNL     1     -34.784   4.933   5.938  1.00 20.00     0.048 C 
HETATM    8  I8  UNL     1     -32.095   8.760   1.631  1.00 20.00    -0.045 I 
ENDROOT
TORSDOF 0
ENDMDL
MODEL 2
REMARK VINA RESULT:      -5.5      0.061      1.709
REMARK  0 active torsions:
REMARK  status: ('A' for Active; 'I' for Inactive)
ROOT
HETATM    1  C1  UNL     1     -33.653   7.121   5.280  1.00 20.00     0.008 A 
HETATM    2  C2  UNL     1     -34.068   5.463   3.573  1.00 20.00     0.008 A 
HETATM    3  C3  UNL     1     -33.060   7.952   4.329  1.00 20.00     0.019 A 
HETATM    4  C4  UNL     1     -33.475   6.293   2.621  1.00 20.00     0.019 A 
HETATM    5  C5  UNL     1     -34.157   5.877   4.902  1.00 20.00    -0.062 A 
HETATM    6  C6  UNL     1     -32.971   7.538   3.000  1.00 20.00     0.006 A 
HETATM    7  C7  UNL     1     -34.789   4.988   5.919  1.00 20.00     0.048 C 
HETATM    8  I8  UNL     1     -32.086   8.773   1.585  1.00 20.00    -0.045 I 
ENDROOT
TORSDOF 0
ENDMDL
MODEL 3
REMARK VINA RESULT:      -4.2      2.409      3.757
REMARK  0 active torsions:
REMARK  status: ('A' for Active; 'I' for Inactive)
ROOT
HETATM    1  C1  UNL     1     -33.122   6.925   1.782  1.00 20.00     0.008 A 
HETATM    2  C2  UNL     1     -32.211   8.272   3.570  1.00 20.00     0.008 A 
HETATM    3  C3  UNL     1     -33.769   6.120   2.720  1.00 20.00     0.019 A 
HETATM    4  C4  UNL     1     -32.858   7.467   4.507  1.00 20.00     0.019 A 
HETATM    5  C5  UNL     1     -32.342   8.001   2.207  1.00 20.00    -0.062 A 
HETATM    6  C6  UNL     1     -33.637   6.390   4.082  1.00 20.00     0.006 A 
HETATM    7  C7  UNL     1     -31.648   8.861   1.206  1.00 20.00     0.048 C 
HETATM    8  I8  UNL     1     -34.599   5.190   5.477  1.00 20.00    -0.045 I 
ENDROOT
TORSDOF 0
ENDMDL
MODEL 4
REMARK VINA RESULT:      -4.1     11.878     12.384
REMARK  0 active torsions:
REMARK  status: ('A' for Active; 'I' for Inactive)
ROOT
HETATM    1  C1  UNL     1     -33.017  17.776  -1.504  1.00 20.00     0.008 A 
HETATM    2  C2  UNL     1     -35.227  16.800  -1.453  1.00 20.00     0.008 A 
HETATM    3  C3  UNL     1     -33.261  18.391  -0.276  1.00 20.00     0.019 A 
HETATM    4  C4  UNL     1     -35.470  17.415  -0.225  1.00 20.00     0.019 A 
HETATM    5  C5  UNL     1     -34.000  16.982  -2.093  1.00 20.00    -0.062 A 
HETATM    6  C6  UNL     1     -34.487  18.210   0.364  1.00 20.00     0.006 A 
HETATM    7  C7  UNL     1     -33.741  16.327  -3.408  1.00 20.00     0.048 C 
HETATM    8  I8  UNL     1     -34.850  19.126   2.192  1.00 20.00    -0.045 I 
ENDROOT
TORSDOF 0
ENDMDL
MODEL 5
REMARK VINA RESULT:      -4.1     11.869     12.322
REMARK  0 active torsions:
REMARK  status: ('A' for Active; 'I' for Inactive)
ROOT
HETATM    1  C1  UNL     1     -35.217  16.778  -1.496  1.00 20.00     0.008 A 
HETATM    2  C2  UNL     1     -33.013  17.768  -1.503  1.00 20.00     0.008 A 
HETATM    3  C3  UNL     1     -35.484  17.381  -0.267  1.00 20.00     0.019 A 
HETATM    4  C4  UNL     1     -33.279  18.371  -0.274  1.00 20.00     0.019 A 
HETATM    5  C5  UNL     1     -33.981  16.971  -2.114  1.00 20.00    -0.062 A 
HETATM    6  C6  UNL     1     -34.515  18.178   0.345  1.00 20.00     0.006 A 
HETATM    7  C7  UNL     1     -33.695  16.324  -3.427  1.00 20.00     0.048 C 
HETATM    8  I8  UNL     1     -34.911  19.074   2.176  1.00 20.00    -0.045 I 
ENDROOT
TORSDOF 0
ENDMDL
MODEL 6
REMARK VINA RESULT:      -4.0     11.943     12.290
REMARK  0 active torsions:
REMARK  status: ('A' for Active; 'I' for Inactive)
ROOT
HETATM    1  C1  UNL     1     -35.483  17.029  -1.124  1.00 20.00     0.008 A 
HETATM    2  C2  UNL     1     -33.441  17.140  -2.411  1.00 20.00     0.008 A 
HETATM    3  C3  UNL     1     -34.877  17.758  -0.100  1.00 20.00     0.019 A 
HETATM    4  C4  UNL     1     -32.835  17.870  -1.388  1.00 20.00     0.019 A 
HETATM    5  C5  UNL     1     -34.765  16.719  -2.279  1.00 20.00    -0.062 A 
HETATM    6  C6  UNL     1     -33.554  18.178  -0.232  1.00 20.00     0.006 A 
HETATM    7  C7  UNL     1     -35.411  15.938  -3.372  1.00 20.00     0.048 C 
HETATM    8  I8  UNL     1     -32.652  19.262   1.293  1.00 20.00    -0.045 I 
ENDROOT
TORSDOF 0
ENDMDL
MODEL 7
REMARK VINA RESULT:      -4.0     11.738     12.163
REMARK  0 active torsions:
REMARK  status: ('A' for Active; 'I' for Inactive)
ROOT
HETATM    1  C1  UNL     1     -33.208  18.319  -0.431  1.00 20.00     0.008 A 
HETATM    2  C2  UNL     1     -35.453  17.450  -0.220  1.00 20.00     0.008 A 
HETATM    3  C3  UNL     1     -33.071  17.666  -1.656  1.00 20.00     0.019 A 
HETATM    4  C4  UNL     1     -35.315  16.797  -1.445  1.00 20.00     0.019 A 
HETATM    5  C5  UNL     1     -34.398  18.210   0.287  1.00 20.00    -0.062 A 
HETATM    6  C6  UNL     1     -34.124  16.905  -2.164  1.00 20.00     0.006 A 
HETATM    7  C7  UNL     1     -34.545  18.905   1.599  1.00 20.00     0.048 C 
HETATM    8  I8  UNL     1     -33.919  15.933  -3.987  1.00 20.00    -0.045 I 
ENDROOT
TORSDOF 0
ENDMDL
MODEL 8
REMARK VINA RESULT:      -4.0     11.726     12.189
REMARK  0 active torsions:
REMARK  status: ('A' for Active; 'I' for Inactive)
ROOT
HETATM    1  C1  UNL     1     -35.218  17.639   0.042  1.00 20.00     0.008 A 
HETATM    2  C2  UNL     1     -32.985  18.373  -0.514  1.00 20.00     0.008 A 
HETATM    3  C3  UNL     1     -35.285  16.931  -1.158  1.00 20.00     0.019 A 
HETATM    4  C4  UNL     1     -33.051  17.666  -1.715  1.00 20.00     0.019 A 
HETATM    5  C5  UNL     1     -34.069  18.360   0.364  1.00 20.00    -0.062 A 
HETATM    6  C6  UNL     1     -34.201  16.945  -2.037  1.00 20.00     0.006 A 
HETATM    7  C7  UNL     1     -33.999  19.118   1.646  1.00 20.00     0.048 C 
HETATM    8  I8  UNL     1     -34.301  15.893  -3.825  1.00 20.00    -0.045 I 
ENDROOT
TORSDOF 0
ENDMDL
MODEL 9
REMARK VINA RESULT:      -3.9     11.893     12.308
REMARK  0 active torsions:
REMARK  status: ('A' for Active; 'I' for Inactive)
ROOT
HETATM    1  C1  UNL     1     -32.979  17.885  -1.573  1.00 20.00     0.008 A 
HETATM    2  C2  UNL     1     -35.079  17.566  -0.421  1.00 20.00     0.008 A 
HETATM    3  C3  UNL     1     -33.476  17.183  -2.672  1.00 20.00     0.019 A 
HETATM    4  C4  UNL     1     -35.576  16.864  -1.520  1.00 20.00     0.019 A 
HETATM    5  C5  UNL     1     -33.781  18.075  -0.447  1.00 20.00    -0.062 A 
HETATM    6  C6  UNL     1     -34.774  16.673  -2.645  1.00 20.00     0.006 A 
HETATM    7  C7  UNL     1     -33.249  18.823   0.728  1.00 20.00     0.048 C 
HETATM    8  I8  UNL     1     -35.512  15.627  -4.281  1.00 20.00    -0.045 I 
ENDROOT
TORSDOF 0
ENDMDL
