MODEL 1
REMARK VINA RESULT:      -5.9      0.000      0.000
REMARK  1 active torsions:
REMARK  status: ('A' for Active; 'I' for Inactive)
REMARK    1  A    between atoms: C6_6  and  C9_9 
ROOT
HETATM    1  C1  UNL     1     -34.110   5.612   2.926  1.00 20.00     0.001 A 
HETATM    2  C2  UNL     1     -34.329   5.903   4.273  1.00 20.00     0.007 A 
HETATM    3  C3  UNL     1     -33.254   6.414   2.170  1.00 20.00     0.007 A 
HETATM    4  C4  UNL     1     -32.838   7.797   4.108  1.00 20.00     0.013 A 
HETATM    5  C5  UNL     1     -33.694   6.995   4.863  1.00 20.00    -0.061 A 
HETATM    6  C6  UNL     1     -32.618   7.506   2.761  1.00 20.00    -0.058 A 
HETATM    7  C7  UNL     1     -33.928   7.303   6.304  1.00 20.00     0.048 C 
ENDROOT
BRANCH   6   8
HETATM    8  C9  UNL     1     -31.703   8.363   1.952  1.00 20.00     0.034 C 
HETATM    9  C8  UNL     1     -32.460   9.388   1.112  1.00 20.00     0.010 C 
ENDBRANCH   6   8
TORSDOF 1
ENDMDL
MODEL 2
REMARK VINA RESULT:      -5.9      0.903      2.208
REMARK  1 active torsions:
REMARK  status: ('A' for Active; 'I' for Inactive)
REMARK    1  A    between atoms: C6_6  and  C9_9 
ROOT
HETATM    1  C1  UNL     1     -33.435   7.578   5.725  1.00 20.00     0.001 A 
HETATM    2  C2  UNL     1     -34.131   6.371   5.651  1.00 20.00     0.007 A 
HETATM    3  C3  UNL     1     -32.745   8.053   4.610  1.00 20.00     0.007 A 
HETATM    4  C4  UNL     1     -33.446   6.116   3.348  1.00 20.00     0.013 A 
HETATM    5  C5  UNL     1     -34.136   5.641   4.464  1.00 20.00    -0.061 A 
HETATM    6  C6  UNL     1     -32.751   7.323   3.422  1.00 20.00    -0.058 A 
HETATM    7  C7  UNL     1     -34.883   4.351   4.386  1.00 20.00     0.048 C 
ENDROOT
BRANCH   6   8
HETATM    8  C9  UNL     1     -32.011   7.831   2.230  1.00 20.00     0.034 C 
HETATM    9  C8  UNL     1     -32.522   9.193   1.766  1.00 20.00     0.010 C 
ENDBRANCH   6   8
TORSDOF 1
ENDMDL
MODEL 3
REMARK VINA RESULT:      -5.6      0.979      4.034
REMARK  1 active torsions:
REMARK  status: ('A' for Active; 'I' for Inactive)
REMARK    1  A    between atoms: C6_6  and  C9_9 
ROOT
HETATM    1  C1  UNL     1     -32.486   8.195   5.109  1.00 20.00     0.001 A 
HETATM    2  C2  UNL     1     -31.903   8.547   3.891  1.00 20.00     0.007 A 
HETATM    3  C3  UNL     1     -33.497   7.235   5.145  1.00 20.00     0.007 A 
HETATM    4  C4  UNL     1     -33.344   6.982   2.747  1.00 20.00     0.013 A 
HETATM    5  C5  UNL     1     -32.332   7.942   2.711  1.00 20.00    -0.061 A 
HETATM    6  C6  UNL     1     -33.926   6.628   3.964  1.00 20.00    -0.058 A 
HETATM    7  C7  UNL     1     -31.706   8.319   1.410  1.00 20.00     0.048 C 
ENDROOT
BRANCH   6   8
HETATM    8  C9  UNL     1     -35.009   5.603   4.004  1.00 20.00     0.034 C 
HETATM    9  C8  UNL     1     -34.566   4.317   4.698  1.00 20.00     0.010 C 
ENDBRANCH   6   8
TORSDOF 1
ENDMDL
MODEL 4
REMARK VINA RESULT:      -5.2      1.165      4.026
REMARK  1 active torsions:
REMARK  status: ('A' for Active; 'I' for Inactive)
REMARK    1  A    between atoms: C6_6  and  C9_9 
ROOT
HETATM    1  C1  UNL     1     -33.307   7.780   5.928  1.00 20.00     0.001 A 
HETATM    2  C2  UNL     1     -32.602   8.309   4.846  1.00 20.00     0.007 A 
HETATM    3  C3  UNL     1     -34.064   6.619   5.766  1.00 20.00     0.007 A 
HETATM    4  C4  UNL     1     -33.412   6.518   3.441  1.00 20.00     0.013 A 
HETATM    5  C5  UNL     1     -32.655   7.678   3.604  1.00 20.00    -0.061 A 
HETATM    6  C6  UNL     1     -34.116   5.988   4.523  1.00 20.00    -0.058 A 
HETATM    7  C7  UNL     1     -31.900   8.245   2.449  1.00 20.00     0.048 C 
ENDROOT
BRANCH   6   8
HETATM    8  C9  UNL     1     -34.927   4.747   4.350  1.00 20.00     0.034 C 
HETATM    9  C8  UNL     1     -34.057   3.505   4.174  1.00 20.00     0.010 C 
ENDBRANCH   6   8
TORSDOF 1
ENDMDL
MODEL 5
REMARK VINA RESULT:      -5.0      1.017      2.495
REMARK  1 active torsions:
REMARK  status: ('A' for Active; 'I' for Inactive)
REMARK    1  A    between atoms: C6_6  and  C9_9 
ROOT
HETATM    1  C1  UNL     1     -34.313   6.255   5.100  1.00 20.00     0.001 A 
HETATM    2  C2  UNL     1     -34.272   5.136   4.267  1.00 20.00     0.007 A 
HETATM    3  C3  UNL     1     -33.558   7.385   4.786  1.00 20.00     0.007 A 
HETATM    4  C4  UNL     1     -32.719   6.277   2.810  1.00 20.00     0.013 A 
HETATM    5  C5  UNL     1     -33.475   5.147   3.123  1.00 20.00    -0.061 A 
HETATM    6  C6  UNL     1     -32.761   7.396   3.641  1.00 20.00    -0.058 A 
HETATM    7  C7  UNL     1     -33.433   3.950   2.233  1.00 20.00     0.048 C 
ENDROOT
BRANCH   6   8
HETATM    8  C9  UNL     1     -31.952   8.605   3.308  1.00 20.00     0.034 C 
HETATM    9  C8  UNL     1     -31.910   8.879   1.807  1.00 20.00     0.010 C 
ENDBRANCH   6   8
TORSDOF 1
ENDMDL
MODEL 6
REMARK VINA RESULT:      -4.9      0.993      3.701
REMARK  1 active torsions:
REMARK  status: ('A' for Active; 'I' for Inactive)
REMARK    1  A    between atoms: C6_6  and  C9_9 
ROOT
HETATM    1  C1  UNL     1     -33.841   5.949   2.193  1.00 20.00     0.001 A 
HETATM    2  C2  UNL     1     -32.912   6.958   1.935  1.00 20.00     0.007 A 
HETATM    3  C3  UNL     1     -34.319   5.757   3.489  1.00 20.00     0.007 A 
HETATM    4  C4  UNL     1     -32.939   7.580   4.270  1.00 20.00     0.013 A 
HETATM    5  C5  UNL     1     -32.461   7.772   2.973  1.00 20.00    -0.061 A 
HETATM    6  C6  UNL     1     -33.868   6.572   4.527  1.00 20.00    -0.058 A 
HETATM    7  C7  UNL     1     -31.468   8.851   2.696  1.00 20.00     0.048 C 
ENDROOT
BRANCH   6   8
HETATM    8  C9  UNL     1     -34.379   6.365   5.914  1.00 20.00     0.034 C 
HETATM    9  C8  UNL     1     -34.740   4.907   6.188  1.00 20.00     0.010 C 
ENDBRANCH   6   8
TORSDOF 1
ENDMDL
MODEL 7
REMARK VINA RESULT:      -4.6     10.830     11.426
REMARK  1 active torsions:
REMARK  status: ('A' for Active; 'I' for Inactive)
REMARK    1  A    between atoms: C6_6  and  C9_9 
ROOT
HETATM    1  C1  UNL     1     -35.535  17.363  -0.349  1.00 20.00     0.001 A 
HETATM    2  C2  UNL     1     -34.552  18.103   0.309  1.00 20.00     0.007 A 
HETATM    3  C3  UNL     1     -35.262  16.792  -1.592  1.00 20.00     0.007 A 
HETATM    4  C4  UNL     1     -33.025  17.701  -1.520  1.00 20.00     0.013 A 
HETATM    5  C5  UNL     1     -33.298  18.272  -0.276  1.00 20.00    -0.061 A 
HETATM    6  C6  UNL     1     -34.007  16.961  -2.177  1.00 20.00    -0.058 A 
HETATM    7  C7  UNL     1     -32.247  19.062   0.429  1.00 20.00     0.048 C 
ENDROOT
BRANCH   6   8
HETATM    8  C9  UNL     1     -33.717  16.351  -3.508  1.00 20.00     0.034 C 
HETATM    9  C8  UNL     1     -34.574  15.118  -3.781  1.00 20.00     0.010 C 
ENDBRANCH   6   8
TORSDOF 1
ENDMDL
MODEL 8
REMARK VINA RESULT:      -4.6     11.096     11.689
REMARK  1 active torsions:
REMARK  status: ('A' for Active; 'I' for Inactive)
REMARK    1  A    between atoms: C6_6  and  C9_9 
ROOT
HETATM    1  C1  UNL     1     -35.564  17.411  -0.289  1.00 20.00     0.001 A 
HETATM    2  C2  UNL     1     -35.311  16.801  -1.519  1.00 20.00     0.007 A 
HETATM    3  C3  UNL     1     -34.560  18.145   0.343  1.00 20.00     0.007 A 
HETATM    4  C4  UNL     1     -33.054  17.660  -1.483  1.00 20.00     0.013 A 
HETATM    5  C5  UNL     1     -34.057  16.925  -2.114  1.00 20.00    -0.061 A 
HETATM    6  C6  UNL     1     -33.306  18.270  -0.254  1.00 20.00    -0.058 A 
HETATM    7  C7  UNL     1     -33.790  16.274  -3.430  1.00 20.00     0.048 C 
ENDROOT
BRANCH   6   8
HETATM    8  C9  UNL     1     -32.232  19.055   0.423  1.00 20.00     0.034 C 
HETATM    9  C8  UNL     1     -32.151  18.757   1.918  1.00 20.00     0.010 C 
ENDBRANCH   6   8
TORSDOF 1
ENDMDL
MODEL 9
REMARK VINA RESULT:      -4.5     10.808     11.325
REMARK  1 active torsions:
REMARK  status: ('A' for Active; 'I' for Inactive)
REMARK    1  A    between atoms: C6_6  and  C9_9 
ROOT
HETATM    1  C1  UNL     1     -32.915  18.097  -1.201  1.00 20.00     0.001 A 
HETATM    2  C2  UNL     1     -33.798  18.265  -0.134  1.00 20.00     0.007 A 
HETATM    3  C3  UNL     1     -33.278  17.299  -2.286  1.00 20.00     0.007 A 
HETATM    4  C4  UNL     1     -35.405  16.838  -1.237  1.00 20.00     0.013 A 
HETATM    5  C5  UNL     1     -35.042  17.636  -0.151  1.00 20.00    -0.061 A 
HETATM    6  C6  UNL     1     -34.523  16.670  -2.304  1.00 20.00    -0.058 A 
HETATM    7  C7  UNL     1     -35.985  17.818   0.990  1.00 20.00     0.048 C 
ENDROOT
BRANCH   6   8
HETATM    8  C9  UNL     1     -34.909  15.816  -3.465  1.00 20.00     0.034 C 
HETATM    9  C8  UNL     1     -33.718  15.071  -4.060  1.00 20.00     0.010 C 
ENDBRANCH   6   8
TORSDOF 1
ENDMDL
