MODEL 1
REMARK VINA RESULT:      -5.9      0.000      0.000
REMARK  0 active torsions:
REMARK  status: ('A' for Active; 'I' for Inactive)
ROOT
HETATM    1  C1  UNL     1     -33.908   4.969   3.265  1.00 20.00     0.000 A 
HETATM    2  C2  UNL     1     -34.464   4.507   4.458  1.00 20.00     0.003 A 
HETATM    3  C3  UNL     1     -33.442   6.280   3.174  1.00 20.00     0.003 A 
HETATM    4  C4  UNL     1     -34.551   5.357   5.561  1.00 20.00     0.042 A 
HETATM    5  C5  UNL     1     -33.530   7.130   4.277  1.00 20.00     0.042 A 
HETATM    6  C6  UNL     1     -34.085   6.667   5.470  1.00 20.00     0.116 A 
HETATM    7  F7  UNL     1     -34.170   7.483   6.529  1.00 20.00    -0.206 F 
ENDROOT
TORSDOF 0
ENDMDL
MODEL 2
REMARK VINA RESULT:      -5.9      0.019      1.826
REMARK  0 active torsions:
REMARK  status: ('A' for Active; 'I' for Inactive)
ROOT
HETATM    1  C1  UNL     1     -33.904   4.957   3.258  1.00 20.00     0.000 A 
HETATM    2  C2  UNL     1     -33.449   6.273   3.167  1.00 20.00     0.003 A 
HETATM    3  C3  UNL     1     -34.452   4.489   4.452  1.00 20.00     0.003 A 
HETATM    4  C4  UNL     1     -33.545   7.120   4.271  1.00 20.00     0.042 A 
HETATM    5  C5  UNL     1     -34.546   5.336   5.556  1.00 20.00     0.042 A 
HETATM    6  C6  UNL     1     -34.093   6.652   5.465  1.00 20.00     0.116 A 
HETATM    7  F7  UNL     1     -34.183   7.466   6.525  1.00 20.00    -0.206 F 
ENDROOT
TORSDOF 0
ENDMDL
MODEL 3
REMARK VINA RESULT:      -5.9      1.604      2.563
REMARK  0 active torsions:
REMARK  status: ('A' for Active; 'I' for Inactive)
ROOT
HETATM    1  C1  UNL     1     -34.616   5.171   5.580  1.00 20.00     0.000 A 
HETATM    2  C2  UNL     1     -34.226   6.477   5.877  1.00 20.00     0.003 A 
HETATM    3  C3  UNL     1     -34.445   4.667   4.291  1.00 20.00     0.003 A 
HETATM    4  C4  UNL     1     -33.664   7.278   4.883  1.00 20.00     0.042 A 
HETATM    5  C5  UNL     1     -33.884   5.469   3.297  1.00 20.00     0.042 A 
HETATM    6  C6  UNL     1     -33.494   6.775   3.594  1.00 20.00     0.116 A 
HETATM    7  F7  UNL     1     -32.955   7.545   2.640  1.00 20.00    -0.206 F 
ENDROOT
TORSDOF 0
ENDMDL
MODEL 4
REMARK VINA RESULT:      -5.9      1.602      2.400
REMARK  0 active torsions:
REMARK  status: ('A' for Active; 'I' for Inactive)
ROOT
HETATM    1  C1  UNL     1     -34.616   5.141   5.570  1.00 20.00     0.000 A 
HETATM    2  C2  UNL     1     -34.437   4.640   4.280  1.00 20.00     0.003 A 
HETATM    3  C3  UNL     1     -34.234   6.448   5.870  1.00 20.00     0.003 A 
HETATM    4  C4  UNL     1     -33.878   5.449   3.290  1.00 20.00     0.042 A 
HETATM    5  C5  UNL     1     -33.674   7.256   4.880  1.00 20.00     0.042 A 
HETATM    6  C6  UNL     1     -33.497   6.756   3.591  1.00 20.00     0.116 A 
HETATM    7  F7  UNL     1     -32.959   7.532   2.640  1.00 20.00    -0.206 F 
ENDROOT
TORSDOF 0
ENDMDL
MODEL 5
REMARK VINA RESULT:      -5.7      2.004      3.225
REMARK  0 active torsions:
REMARK  status: ('A' for Active; 'I' for Inactive)
ROOT
HETATM    1  C1  UNL     1     -34.338   6.406   5.863  1.00 20.00     0.000 A 
HETATM    2  C2  UNL     1     -33.736   7.206   4.892  1.00 20.00     0.003 A 
HETATM    3  C3  UNL     1     -34.631   5.072   5.585  1.00 20.00     0.003 A 
HETATM    4  C4  UNL     1     -33.426   6.669   3.642  1.00 20.00     0.042 A 
HETATM    5  C5  UNL     1     -34.322   4.535   4.334  1.00 20.00     0.042 A 
HETATM    6  C6  UNL     1     -33.719   5.335   3.364  1.00 20.00     0.116 A 
HETATM    7  F7  UNL     1     -33.422   4.820   2.163  1.00 20.00    -0.206 F 
ENDROOT
TORSDOF 0
ENDMDL
MODEL 6
REMARK VINA RESULT:      -5.6      1.681      2.476
REMARK  0 active torsions:
REMARK  status: ('A' for Active; 'I' for Inactive)
ROOT
HETATM    1  C1  UNL     1     -33.143   7.648   4.418  1.00 20.00     0.000 A 
HETATM    2  C2  UNL     1     -33.746   7.193   5.591  1.00 20.00     0.003 A 
HETATM    3  C3  UNL     1     -33.169   6.859   3.268  1.00 20.00     0.003 A 
HETATM    4  C4  UNL     1     -34.378   5.950   5.611  1.00 20.00     0.042 A 
HETATM    5  C5  UNL     1     -33.800   5.615   3.290  1.00 20.00     0.042 A 
HETATM    6  C6  UNL     1     -34.404   5.161   4.461  1.00 20.00     0.116 A 
HETATM    7  F7  UNL     1     -35.011   3.967   4.482  1.00 20.00    -0.206 F 
ENDROOT
TORSDOF 0
ENDMDL
MODEL 7
REMARK VINA RESULT:      -5.6      1.678      2.793
REMARK  0 active torsions:
REMARK  status: ('A' for Active; 'I' for Inactive)
ROOT
HETATM    1  C1  UNL     1     -33.126   7.661   4.423  1.00 20.00     0.000 A 
HETATM    2  C2  UNL     1     -33.186   6.883   3.267  1.00 20.00     0.003 A 
HETATM    3  C3  UNL     1     -33.714   7.206   5.602  1.00 20.00     0.003 A 
HETATM    4  C4  UNL     1     -33.834   5.648   3.292  1.00 20.00     0.042 A 
HETATM    5  C5  UNL     1     -34.363   5.971   5.627  1.00 20.00     0.042 A 
HETATM    6  C6  UNL     1     -34.422   5.193   4.471  1.00 20.00     0.116 A 
HETATM    7  F7  UNL     1     -35.045   4.007   4.495  1.00 20.00    -0.206 F 
ENDROOT
TORSDOF 0
ENDMDL
MODEL 8
REMARK VINA RESULT:      -5.5      1.122      1.824
REMARK  0 active torsions:
REMARK  status: ('A' for Active; 'I' for Inactive)
ROOT
HETATM    1  C1  UNL     1     -32.955   6.915   3.058  1.00 20.00     0.000 A 
HETATM    2  C2  UNL     1     -33.593   5.687   2.885  1.00 20.00     0.003 A 
HETATM    3  C3  UNL     1     -33.049   7.586   4.277  1.00 20.00     0.003 A 
HETATM    4  C4  UNL     1     -34.323   5.129   3.935  1.00 20.00     0.042 A 
HETATM    5  C5  UNL     1     -33.780   7.028   5.326  1.00 20.00     0.042 A 
HETATM    6  C6  UNL     1     -34.417   5.799   5.154  1.00 20.00     0.116 A 
HETATM    7  F7  UNL     1     -35.119   5.263   6.161  1.00 20.00    -0.206 F 
ENDROOT
TORSDOF 0
ENDMDL
MODEL 9
REMARK VINA RESULT:      -5.5      1.495      2.079
REMARK  0 active torsions:
REMARK  status: ('A' for Active; 'I' for Inactive)
ROOT
HETATM    1  C1  UNL     1     -34.837   5.511   4.555  1.00 20.00     0.000 A 
HETATM    2  C2  UNL     1     -34.439   6.282   5.648  1.00 20.00     0.003 A 
HETATM    3  C3  UNL     1     -34.237   5.701   3.311  1.00 20.00     0.003 A 
HETATM    4  C4  UNL     1     -33.438   7.242   5.495  1.00 20.00     0.042 A 
HETATM    5  C5  UNL     1     -33.237   6.662   3.158  1.00 20.00     0.042 A 
HETATM    6  C6  UNL     1     -32.838   7.432   4.250  1.00 20.00     0.116 A 
HETATM    7  F7  UNL     1     -31.878   8.354   4.104  1.00 20.00    -0.206 F 
ENDROOT
TORSDOF 0
ENDMDL
