MODEL 1
REMARK VINA RESULT:      -7.3      0.000      0.000
REMARK  1 active torsions:
REMARK  status: ('A' for Active; 'I' for Inactive)
REMARK    1  A    between atoms: C1_1  and  C8_8 
ROOT
HETATM    1  C1  UNL     1     -32.884   7.631   2.667  1.00 20.00    -0.067 C 
HETATM    2  C2  UNL     1     -32.391   8.340   1.832  1.00 20.00    -0.105 C 
HETATM    3  C9  UNL     1     -31.793   9.203   0.815  1.00 20.00     0.112 C 
ENDROOT
BRANCH   1   4
HETATM    4  C8  UNL     1     -33.470   6.785   3.659  1.00 20.00     0.017 A 
HETATM    5  C6  UNL     1     -33.668   7.263   4.955  1.00 20.00     0.020 A 
HETATM    6  C4  UNL     1     -34.240   6.438   5.923  1.00 20.00     0.001 A 
HETATM    7  C3  UNL     1     -34.614   5.135   5.595  1.00 20.00     0.000 A 
HETATM    8  C5  UNL     1     -34.418   4.657   4.300  1.00 20.00     0.001 A 
HETATM    9  C7  UNL     1     -33.845   5.482   3.332  1.00 20.00     0.020 A 
ENDBRANCH   1   4
TORSDOF 1
ENDMDL
MODEL 2
REMARK VINA RESULT:      -4.4     11.569     11.984
REMARK  1 active torsions:
REMARK  status: ('A' for Active; 'I' for Inactive)
REMARK    1  A    between atoms: C1_1  and  C8_8 
ROOT
HETATM    1  C1  UNL     1     -33.962  16.198  -3.123  1.00 20.00    -0.067 C 
HETATM    2  C2  UNL     1     -33.854  15.561  -4.136  1.00 20.00    -0.105 C 
HETATM    3  C9  UNL     1     -33.723  14.785  -5.368  1.00 20.00     0.112 C 
ENDROOT
BRANCH   1   4
HETATM    4  C8  UNL     1     -34.090  16.954  -1.917  1.00 20.00     0.017 A 
HETATM    5  C6  UNL     1     -35.272  16.895  -1.178  1.00 20.00     0.020 A 
HETATM    6  C4  UNL     1     -35.397  17.633  -0.001  1.00 20.00     0.001 A 
HETATM    7  C3  UNL     1     -34.339  18.430   0.437  1.00 20.00     0.000 A 
HETATM    8  C5  UNL     1     -33.158  18.489  -0.301  1.00 20.00     0.001 A 
HETATM    9  C7  UNL     1     -33.033  17.751  -1.478  1.00 20.00     0.020 A 
ENDBRANCH   1   4
TORSDOF 1
ENDMDL
MODEL 3
REMARK VINA RESULT:      -4.4     11.568     11.951
REMARK  1 active torsions:
REMARK  status: ('A' for Active; 'I' for Inactive)
REMARK    1  A    between atoms: C1_1  and  C8_8 
ROOT
HETATM    1  C1  UNL     1     -33.959  16.208  -3.127  1.00 20.00    -0.067 C 
HETATM    2  C2  UNL     1     -33.845  15.580  -4.145  1.00 20.00    -0.105 C 
HETATM    3  C9  UNL     1     -33.708  14.815  -5.383  1.00 20.00     0.112 C 
ENDROOT
BRANCH   1   4
HETATM    4  C8  UNL     1     -34.094  16.953  -1.915  1.00 20.00     0.017 A 
HETATM    5  C6  UNL     1     -33.040  17.748  -1.463  1.00 20.00     0.020 A 
HETATM    6  C4  UNL     1     -33.172  18.475  -0.280  1.00 20.00     0.001 A 
HETATM    7  C3  UNL     1     -34.358  18.407   0.451  1.00 20.00     0.000 A 
HETATM    8  C5  UNL     1     -35.412  17.613  -0.001  1.00 20.00     0.001 A 
HETATM    9  C7  UNL     1     -35.280  16.886  -1.184  1.00 20.00     0.020 A 
ENDBRANCH   1   4
TORSDOF 1
ENDMDL
MODEL 4
REMARK VINA RESULT:      -4.4      1.101      4.878
REMARK  1 active torsions:
REMARK  status: ('A' for Active; 'I' for Inactive)
REMARK    1  A    between atoms: C1_1  and  C8_8 
ROOT
HETATM    1  C1  UNL     1     -33.416   7.512   3.629  1.00 20.00    -0.067 C 
HETATM    2  C2  UNL     1     -33.835   6.863   4.548  1.00 20.00    -0.105 C 
HETATM    3  C9  UNL     1     -34.344   6.071   5.667  1.00 20.00     0.112 C 
ENDROOT
BRANCH   1   4
HETATM    4  C8  UNL     1     -32.921   8.286   2.534  1.00 20.00     0.017 A 
HETATM    5  C6  UNL     1     -33.581   9.453   2.148  1.00 20.00     0.020 A 
HETATM    6  C4  UNL     1     -33.098  10.207   1.079  1.00 20.00     0.001 A 
HETATM    7  C3  UNL     1     -31.954   9.794   0.396  1.00 20.00     0.000 A 
HETATM    8  C5  UNL     1     -31.294   8.628   0.780  1.00 20.00     0.001 A 
HETATM    9  C7  UNL     1     -31.777   7.873   1.850  1.00 20.00     0.020 A 
ENDBRANCH   1   4
TORSDOF 1
ENDMDL
MODEL 5
REMARK VINA RESULT:      -4.3     11.397     12.008
REMARK  1 active torsions:
REMARK  status: ('A' for Active; 'I' for Inactive)
REMARK    1  A    between atoms: C1_1  and  C8_8 
ROOT
HETATM    1  C1  UNL     1     -33.751  17.019  -2.142  1.00 20.00    -0.067 C 
HETATM    2  C2  UNL     1     -33.100  17.727  -1.423  1.00 20.00    -0.105 C 
HETATM    3  C9  UNL     1     -32.309  18.589  -0.546  1.00 20.00     0.112 C 
ENDROOT
BRANCH   1   4
HETATM    4  C8  UNL     1     -34.526  16.178  -3.000  1.00 20.00     0.017 A 
HETATM    5  C6  UNL     1     -33.909  15.149  -3.712  1.00 20.00     0.020 A 
HETATM    6  C4  UNL     1     -34.666  14.329  -4.549  1.00 20.00     0.001 A 
HETATM    7  C3  UNL     1     -36.039  14.539  -4.674  1.00 20.00     0.000 A 
HETATM    8  C5  UNL     1     -36.656  15.567  -3.962  1.00 20.00     0.001 A 
HETATM    9  C7  UNL     1     -35.899  16.387  -3.125  1.00 20.00     0.020 A 
ENDBRANCH   1   4
TORSDOF 1
ENDMDL
