REMARK  2 active torsions:
REMARK  status: ('A' for Active; 'I' for Inactive)
REMARK    1  A    between atoms: C5_5  and  S7_7 
REMARK    2  A    between atoms: C6_6  and  S8_8 
ROOT
HETATM    1  C1  UNL     1     -32.618   5.776   1.454  1.00 20.00     0.001 A 
HETATM    2  C2  UNL     1     -31.965   7.005   1.544  1.00 20.00     0.001 A 
HETATM    3  C3  UNL     1     -33.687   5.491   2.305  1.00 20.00     0.019 A 
HETATM    4  C4  UNL     1     -32.379   7.949   2.484  1.00 20.00     0.019 A 
HETATM    5  C5  UNL     1     -34.101   6.435   3.244  1.00 20.00     0.014 A 
HETATM    6  C6  UNL     1     -33.447   7.664   3.334  1.00 20.00     0.014 A 
ENDROOT
BRANCH   5   7
HETATM    7  S7  UNL     1     -35.483   5.977   4.292  1.00 20.00    -0.142 SA
HETATM    8  H13 UNL     1     -35.679   4.757   3.773  1.00 20.00     0.107 HD
ENDBRANCH   5   7
BRANCH   6   9
HETATM    9  S8  UNL     1     -33.906   8.940   4.508  1.00 20.00    -0.142 SA
HETATM   10  H14 UNL     1     -32.977   9.834   4.142  1.00 20.00     0.107 HD
ENDBRANCH   6   9
TORSDOF 2
