REMARK  0 active torsions:
REMARK  status: ('A' for Active; 'I' for Inactive)
ROOT
HETATM    1  C1  UNL     1     -31.892   6.100   1.353  1.00 20.00     0.001 A 
HETATM    2  C2  UNL     1     -31.678   7.472   1.519  1.00 20.00     0.003 A 
HETATM    3  C3  UNL     1     -32.895   5.430   2.067  1.00 20.00     0.016 A 
HETATM    4  C4  UNL     1     -32.457   8.227   2.403  1.00 20.00     0.040 A 
HETATM    5  C5  UNL     1     -34.752   5.937   3.843  1.00 20.00     0.161 A 
HETATM    6  C6  UNL     1     -33.683   6.175   2.957  1.00 20.00     0.019 A 
HETATM    7  C7  UNL     1     -33.443   7.531   3.095  1.00 20.00     0.113 A 
HETATM    8  N8  UNL     1     -35.144   7.046   4.477  1.00 20.00    -0.140 NA
HETATM    9  O9  UNL     1     -34.313   8.053   4.002  1.00 20.00    -0.213 OA
ENDROOT
TORSDOF 0
