REMARK  0 active torsions:
REMARK  status: ('A' for Active; 'I' for Inactive)
ROOT
HETATM    1  C1  UNL     1     -32.266   6.650   1.513  1.00 20.00     0.019 A 
HETATM    2  C2  UNL     1     -32.107   7.839   2.268  1.00 20.00     0.019 A 
HETATM    3  C3  UNL     1     -33.298   5.937   2.082  1.00 20.00     0.090 A 
HETATM    4  C4  UNL     1     -33.046   7.816   3.275  1.00 20.00     0.090 A 
HETATM    5  C5  UNL     1     -34.847   6.249   4.020  1.00 20.00     0.154 C 
HETATM    6  N6  UNL     1     -33.764   6.655   3.152  1.00 20.00    -0.371 N 
ENDROOT
TORSDOF 0
