REMARK  1 active torsions:
REMARK  status: ('A' for Active; 'I' for Inactive)
REMARK    1  A    between atoms: C1_1  and  C8_8 
ROOT
HETATM    1  C1  UNL     1     -32.742   7.725   1.779  1.00 20.00    -0.067 C 
HETATM    2  C2  UNL     1     -32.209   8.553   1.092  1.00 20.00    -0.105 C 
HETATM    3  C9  UNL     1     -31.560   9.561   0.254  1.00 20.00     0.112 C 
ENDROOT
BRANCH   1   4
HETATM    4  C8  UNL     1     -33.377   6.738   2.594  1.00 20.00     0.017 A 
HETATM    5  C6  UNL     1     -32.948   5.412   2.547  1.00 20.00     0.020 A 
HETATM    6  C4  UNL     1     -33.569   4.449   3.343  1.00 20.00     0.001 A 
HETATM    7  C3  UNL     1     -34.619   4.813   4.186  1.00 20.00     0.000 A 
HETATM    8  C5  UNL     1     -35.048   6.139   4.234  1.00 20.00     0.001 A 
HETATM    9  C7  UNL     1     -34.427   7.102   3.438  1.00 20.00     0.020 A 
ENDBRANCH   1   4
TORSDOF 1
