REMARK  0 active torsions:
REMARK  status: ('A' for Active; 'I' for Inactive)
ROOT
HETATM    1  C1  UNL     1     -34.568   7.409   4.402  1.00 20.00     0.035 A 
HETATM    2  C2  UNL     1     -33.697   8.163   3.581  1.00 20.00     0.035 A 
HETATM    3  C3  UNL     1     -34.447   6.102   3.990  1.00 20.00     0.049 A 
HETATM    4  C4  UNL     1     -33.104   7.263   2.725  1.00 20.00     0.049 A 
HETATM    5  C5  UNL     1     -35.073   4.847   4.428  1.00 20.00     0.076 C 
HETATM    6  C6  UNL     1     -32.118   7.403   1.645  1.00 20.00     0.076 C 
HETATM    7  O7  UNL     1     -33.557   6.005   2.968  1.00 20.00    -0.320 OA
ENDROOT
TORSDOF 0
