REMARK  1 active torsions:
REMARK  status: ('A' for Active; 'I' for Inactive)
REMARK    1  A    between atoms: C4_4  and  C7_7 
ROOT
HETATM    1  C1  UNL     1     -31.731   7.529   1.621  1.00 20.00     0.006 A 
HETATM    2  C2  UNL     1     -32.067   6.290   1.074  1.00 20.00     0.043 A 
HETATM    3  C3  UNL     1     -32.407   8.000   2.746  1.00 20.00     0.043 A 
HETATM    4  C4  UNL     1     -33.755   5.995   2.777  1.00 20.00     0.029 A 
HETATM    5  C5  UNL     1     -33.078   5.523   1.652  1.00 20.00     0.126 A 
HETATM    6  C6  UNL     1     -33.419   7.234   3.324  1.00 20.00     0.126 A 
HETATM    7  F8  UNL     1     -33.394   4.335   1.119  1.00 20.00    -0.205 F 
HETATM    8  F9  UNL     1     -34.063   7.695   4.405  1.00 20.00    -0.205 F 
ENDROOT
BRANCH   4   9
HETATM    9  C7  UNL     1     -34.836   5.175   3.396  1.00 20.00     0.130 C 
HETATM   10 BR10 UNL     1     -34.049   3.676   4.354  1.00 20.00    -0.091 Br
ENDBRANCH   4   9
TORSDOF 1
