REMARK  1 active torsions:
REMARK  status: ('A' for Active; 'I' for Inactive)
REMARK    1  A    between atoms: C4_4  and  S7_7 
ROOT
HETATM    1  C1  UNL     1     -33.210   8.035   2.916  1.00 20.00     0.009 A 
HETATM    2  C2  UNL     1     -34.015   7.253   3.794  1.00 20.00     0.026 A 
HETATM    3  C3  UNL     1     -32.570   7.260   1.974  1.00 20.00     0.051 A 
HETATM    4  C4  UNL     1     -33.961   5.911   3.489  1.00 20.00     0.040 A 
HETATM    5  S6  UNL     1     -32.941   5.598   2.149  1.00 20.00    -0.095 SA
ENDROOT
BRANCH   4   6
HETATM    6  S7  UNL     1     -34.809   4.627   4.330  1.00 20.00    -0.127 SA
HETATM    7  C5  UNL     1     -33.658   3.251   4.079  1.00 20.00     0.096 C 
ENDBRANCH   4   6
TORSDOF 1
