REMARK  3 active torsions:
REMARK  status: ('A' for Active; 'I' for Inactive)
REMARK    1  A    between atoms: C4_4  and  S10_10 
REMARK    2  A    between atoms: C5_5  and  C7_7 
REMARK    3  A    between atoms: C7_7  and  S10_10 
ROOT
HETATM    1  C1  UNL     1     -32.701  10.419   0.354  1.00 20.00     0.009 A 
HETATM    2  C2  UNL     1     -32.395   9.604   1.482  1.00 20.00     0.026 A 
HETATM    3  C3  UNL     1     -32.526   9.745  -0.834  1.00 20.00     0.051 A 
HETATM    4  C4  UNL     1     -31.998   8.337   1.113  1.00 20.00     0.041 A 
HETATM    5  S9  UNL     1     -31.995   8.135  -0.587  1.00 20.00    -0.095 SA
ENDROOT
BRANCH   4   6
HETATM    6  S10 UNL     1     -31.536   7.032   2.211  1.00 20.00    -0.115 SA
BRANCH   6   7
HETATM    7  C7  UNL     1     -33.145   6.249   2.468  1.00 20.00     0.157 C 
BRANCH   7   8
HETATM    8  C5  UNL     1     -33.875   6.850   3.646  1.00 20.00     0.132 C 
HETATM    9  C6  UNL     1     -35.213   6.247   3.926  1.00 20.00     0.091 C 
HETATM   10  O8  UNL     1     -33.462   7.756   4.358  1.00 20.00    -0.298 OA
ENDBRANCH   7   8
ENDBRANCH   6   7
ENDBRANCH   4   6
TORSDOF 3
