REMARK  3 active torsions:
REMARK  status: ('A' for Active; 'I' for Inactive)
REMARK    1  A    between atoms: C5_5  and  O9_9 
REMARK    2  A    between atoms: C6_6  and  O10_10 
REMARK    3  A    between atoms: C8_8  and  O10_10 
ROOT
HETATM    1  C1  UNL     1     -34.944   6.356   4.407  1.00 20.00     0.003 A 
HETATM    2  C2  UNL     1     -34.519   7.667   4.620  1.00 20.00     0.003 A 
HETATM    3  C3  UNL     1     -34.449   5.629   3.324  1.00 20.00     0.039 A 
HETATM    4  C4  UNL     1     -33.598   8.251   3.750  1.00 20.00     0.039 A 
HETATM    5  C5  UNL     1     -33.528   6.214   2.454  1.00 20.00     0.099 A 
HETATM    6  C6  UNL     1     -33.103   7.525   2.668  1.00 20.00     0.101 A 
ENDROOT
BRANCH   6   7
HETATM    7  O10 UNL     1     -32.205   8.107   1.825  1.00 20.00    -0.349 OA
BRANCH   7   8
HETATM    8  C8  UNL     1     -32.627   9.286   1.143  1.00 20.00     0.171 C 
HETATM    9  C7  UNL     1     -31.904   9.373  -0.185  1.00 20.00     0.034 C 
ENDBRANCH   7   8
ENDBRANCH   6   7
BRANCH   5  10
HETATM   10  O9  UNL     1     -33.053   5.494   1.400  1.00 20.00    -0.358 OA
HETATM   11  H20 UNL     1     -33.447   4.607   1.395  1.00 20.00     0.217 HD
ENDBRANCH   5  10
TORSDOF 3
