REMARK  1 active torsions:
REMARK  status: ('A' for Active; 'I' for Inactive)
REMARK    1  A    between atoms: C6_6  and  C9_9 
ROOT
HETATM    1  C1  UNL     1     -34.689   6.957   4.371  1.00 20.00     0.001 A 
HETATM    2  C2  UNL     1     -34.925   5.636   3.991  1.00 20.00     0.001 A 
HETATM    3  C3  UNL     1     -33.721   7.712   3.707  1.00 20.00     0.007 A 
HETATM    4  C4  UNL     1     -34.194   5.069   2.948  1.00 20.00     0.007 A 
HETATM    5  C5  UNL     1     -32.990   7.145   2.664  1.00 20.00    -0.056 A 
HETATM    6  C6  UNL     1     -33.226   5.823   2.284  1.00 20.00    -0.053 A 
HETATM    7  C7  UNL     1     -31.960   7.971   1.967  1.00 20.00     0.049 C 
ENDROOT
BRANCH   6   8
HETATM    8  C9  UNL     1     -32.455   5.194   1.170  1.00 20.00     0.034 C 
HETATM    9  C8  UNL     1     -31.368   4.253   1.679  1.00 20.00     0.010 C 
ENDBRANCH   6   8
TORSDOF 1
