REMARK  0 active torsions:
REMARK  status: ('A' for Active; 'I' for Inactive)
ROOT
HETATM    1  C1  UNL     1     -32.418   8.941   1.125  1.00 20.00     0.021 C 
HETATM    2  C2  UNL     1     -32.120   6.468   1.490  1.00 20.00     0.021 C 
HETATM    3  C3  UNL     1     -32.210   7.837   2.158  1.00 20.00     0.045 C 
HETATM    4  I4  UNL     1     -33.840   7.850   3.573  1.00 20.00    -0.086 I 
ENDROOT
TORSDOF 0
