REMARK  0 active torsions:
REMARK  status: ('A' for Active; 'I' for Inactive)
ROOT
HETATM    1  C1  UNL     1     -31.734   7.245   1.417  1.00 20.00     0.001 A 
HETATM    2  C2  UNL     1     -32.331   5.993   1.265  1.00 20.00     0.001 A 
HETATM    3  C3  UNL     1     -32.237   8.149   2.352  1.00 20.00     0.008 A 
HETATM    4  C4  UNL     1     -33.431   5.646   2.049  1.00 20.00     0.019 A 
HETATM    5  C5  UNL     1     -33.338   7.802   3.136  1.00 20.00    -0.045 A 
HETATM    6  C6  UNL     1     -33.935   6.550   2.984  1.00 20.00     0.012 A 
HETATM    7  C7  UNL     1     -33.834   8.811   4.121  1.00 20.00     0.049 C 
HETATM    8  I8  UNL     1     -35.587   5.966   4.127  1.00 20.00    -0.044 I 
ENDROOT
TORSDOF 0
