REMARK  0 active torsions:
REMARK  status: ('A' for Active; 'I' for Inactive)
ROOT
HETATM    1  C1  UNL     1     -35.133   5.686   4.179  1.00 20.00     0.001 A 
HETATM    2  C2  UNL     1     -35.013   6.968   4.720  1.00 20.00     0.003 A 
HETATM    3  C3  UNL     1     -34.387   5.302   3.056  1.00 20.00     0.014 A 
HETATM    4  C4  UNL     1     -34.146   7.913   4.162  1.00 20.00     0.038 A 
HETATM    5  C5  UNL     1     -32.610   6.242   1.380  1.00 20.00     0.046 A 
HETATM    6  C6  UNL     1     -33.508   6.236   2.479  1.00 20.00     0.000 A 
HETATM    7  C7  UNL     1     -33.418   7.503   3.048  1.00 20.00     0.086 A 
HETATM    8  C8  UNL     1     -32.039   7.493   1.351  1.00 20.00     0.050 A 
HETATM    9  C9  UNL     1     -31.046   8.122   0.470  1.00 20.00     0.077 C 
HETATM   10  O10 UNL     1     -32.523   8.266   2.359  1.00 20.00    -0.315 OA
ENDROOT
TORSDOF 0
