REMARK  3 active torsions:
REMARK  status: ('A' for Active; 'I' for Inactive)
REMARK    1  A    between atoms: C6_6  and  C9_9 
REMARK    2  A    between atoms: C8_8  and  C9_9 
REMARK    3  A    between atoms: C8_8  and  O10_10 
ROOT
HETATM    1  C1  UNL     1     -31.427   6.487   0.790  1.00 20.00     0.000 A 
HETATM    2  C2  UNL     1     -32.416   5.604   1.223  1.00 20.00     0.001 A 
HETATM    3  C3  UNL     1     -31.344   7.766   1.340  1.00 20.00     0.001 A 
HETATM    4  C4  UNL     1     -33.323   6.001   2.206  1.00 20.00     0.007 A 
HETATM    5  C5  UNL     1     -32.252   8.163   2.322  1.00 20.00     0.007 A 
HETATM    6  C6  UNL     1     -33.241   7.280   2.755  1.00 20.00    -0.052 A 
ENDROOT
BRANCH   6   7
HETATM    7  C9  UNL     1     -34.211   7.705   3.805  1.00 20.00     0.038 C 
HETATM    8  C7  UNL     1     -33.598   8.732   4.779  1.00 20.00     0.017 C 
BRANCH   7   9
HETATM    9  C8  UNL     1     -34.793   6.518   4.606  1.00 20.00     0.173 C 
BRANCH   9  10
HETATM   10  O10 UNL     1     -35.853   5.927   3.862  1.00 20.00    -0.400 OA
HETATM   11  H22 UNL     1     -36.190   5.190   4.395  1.00 20.00     0.209 HD
ENDBRANCH   9  10
ENDBRANCH   7   9
ENDBRANCH   6   7
TORSDOF 3
