REMARK  1 active torsions:
REMARK  status: ('A' for Active; 'I' for Inactive)
REMARK    1  A    between atoms: C6_6  and  C9_9 
ROOT
HETATM    1  C1  UNL     1     -33.031   5.220   2.154  1.00 20.00     0.001 A 
HETATM    2  C2  UNL     1     -33.797   5.703   3.215  1.00 20.00     0.007 A 
HETATM    3  C3  UNL     1     -32.275   6.103   1.382  1.00 20.00     0.007 A 
HETATM    4  C4  UNL     1     -33.051   7.949   2.733  1.00 20.00     0.013 A 
HETATM    5  C5  UNL     1     -33.807   7.067   3.505  1.00 20.00    -0.061 A 
HETATM    6  C6  UNL     1     -32.285   7.467   1.671  1.00 20.00    -0.058 A 
HETATM    7  C7  UNL     1     -34.625   7.581   4.641  1.00 20.00     0.048 C 
ENDROOT
BRANCH   6   8
HETATM    8  C9  UNL     1     -31.477   8.411   0.845  1.00 20.00     0.034 C 
HETATM    9  C8  UNL     1     -32.260   8.955  -0.347  1.00 20.00     0.010 C 
ENDBRANCH   6   8
TORSDOF 1
