REMARK  0 active torsions:
REMARK  status: ('A' for Active; 'I' for Inactive)
ROOT
HETATM    1  C1  UNL     1     -32.679   5.518   1.502  1.00 20.00     0.002 A 
HETATM    2  C2  UNL     1     -33.486   5.846   2.592  1.00 20.00     0.007 A 
HETATM    3  C3  UNL     1     -31.913   6.503   0.880  1.00 20.00     0.018 A 
HETATM    4  C4  UNL     1     -32.760   8.146   2.435  1.00 20.00     0.025 A 
HETATM    5  C5  UNL     1     -33.526   7.160   3.058  1.00 20.00    -0.061 A 
HETATM    6  C6  UNL     1     -31.953   7.817   1.346  1.00 20.00     0.006 A 
HETATM    7  C7  UNL     1     -34.390   7.511   4.223  1.00 20.00     0.048 C 
HETATM    8  I8  UNL     1     -30.810   9.284   0.419  1.00 20.00    -0.045 I 
ENDROOT
TORSDOF 0
