REMARK  4 active torsions:
REMARK  status: ('A' for Active; 'I' for Inactive)
REMARK    1  A    between atoms: C6_6  and  C7_7 
REMARK    2  A    between atoms: C7_7  and  C8_8 
REMARK    3  A    between atoms: C8_8  and  C9_9 
REMARK    4  A    between atoms: C9_9  and  O10_10 
ROOT
HETATM    1  C1  UNL     1     -34.137   6.062   3.363  1.00 20.00     0.000 A 
HETATM    2  C2  UNL     1     -34.012   7.381   3.799  1.00 20.00     0.001 A 
HETATM    3  C3  UNL     1     -33.424   5.625   2.247  1.00 20.00     0.001 A 
HETATM    4  C4  UNL     1     -33.173   8.263   3.117  1.00 20.00     0.007 A 
HETATM    5  C5  UNL     1     -32.586   6.507   1.566  1.00 20.00     0.007 A 
HETATM    6  C6  UNL     1     -32.460   7.826   2.001  1.00 20.00    -0.058 A 
ENDROOT
BRANCH   6   7
HETATM    7  C7  UNL     1     -31.564   8.769   1.272  1.00 20.00     0.041 C 
BRANCH   7   8
HETATM    8  C8  UNL     1     -32.299   9.515   0.150  1.00 20.00     0.030 C 
BRANCH   8   9
HETATM    9  C9  UNL     1     -33.434  10.379   0.682  1.00 20.00     0.164 C 
BRANCH   9  10
HETATM   10  O10 UNL     1     -32.896  11.348   1.570  1.00 20.00    -0.401 OA
HETATM   11  H22 UNL     1     -33.643  11.880   1.890  1.00 20.00     0.209 HD
ENDBRANCH   9  10
ENDBRANCH   8   9
ENDBRANCH   7   8
ENDBRANCH   6   7
TORSDOF 4
