REMARK  4 active torsions:
REMARK  status: ('A' for Active; 'I' for Inactive)
REMARK    1  A    between atoms: C6_6  and  C7_7 
REMARK    2  A    between atoms: C7_7  and  C8_8 
REMARK    3  A    between atoms: C8_8  and  C9_9 
REMARK    4  A    between atoms: C9_9  and  S10_10 
ROOT
HETATM    1  C1  UNL     1     -32.321   8.880   3.686  1.00 20.00     0.000 A 
HETATM    2  C2  UNL     1     -33.249   8.804   4.724  1.00 20.00     0.001 A 
HETATM    3  C3  UNL     1     -32.370   7.962   2.637  1.00 20.00     0.001 A 
HETATM    4  C4  UNL     1     -34.227   7.809   4.713  1.00 20.00     0.007 A 
HETATM    5  C5  UNL     1     -33.347   6.967   2.626  1.00 20.00     0.007 A 
HETATM    6  C6  UNL     1     -34.276   6.891   3.664  1.00 20.00    -0.058 A 
ENDROOT
BRANCH   6   7
HETATM    7  C7  UNL     1     -35.321   5.826   3.652  1.00 20.00     0.039 C 
BRANCH   7   8
HETATM    8  C8  UNL     1     -34.906   4.519   4.355  1.00 20.00     0.014 C 
BRANCH   8   9
HETATM    9  C9  UNL     1     -33.660   3.891   3.730  1.00 20.00     0.071 C 
BRANCH   9  10
HETATM   10  S10 UNL     1     -33.210   2.361   4.600  1.00 20.00    -0.182 SA
HETATM   11  H22 UNL     1     -32.139   2.081   3.846  1.00 20.00     0.101 HD
ENDBRANCH   9  10
ENDBRANCH   8   9
ENDBRANCH   7   8
ENDBRANCH   6   7
TORSDOF 4
