REMARK  0 active torsions:
REMARK  status: ('A' for Active; 'I' for Inactive)
ROOT
HETATM    1  C1  UNL     1     -33.905   6.874   3.829  1.00 20.00     0.008 A 
HETATM    2  C2  UNL     1     -33.384   5.046   2.339  1.00 20.00     0.008 A 
HETATM    3  C3  UNL     1     -33.159   7.739   3.030  1.00 20.00     0.019 A 
HETATM    4  C4  UNL     1     -32.638   5.911   1.539  1.00 20.00     0.019 A 
HETATM    5  C5  UNL     1     -34.018   5.527   3.484  1.00 20.00    -0.062 A 
HETATM    6  C6  UNL     1     -32.525   7.258   1.884  1.00 20.00     0.006 A 
HETATM    7  C7  UNL     1     -34.814   4.602   4.341  1.00 20.00     0.048 C 
HETATM    8  I8  UNL     1     -31.411   8.547   0.694  1.00 20.00    -0.045 I 
ENDROOT
TORSDOF 0
