REMARK  4 active torsions:
REMARK  status: ('A' for Active; 'I' for Inactive)
REMARK    1  A    between atoms: C6_6  and  C8_8 
REMARK    2  A    between atoms: C8_8  and  C10_10 
REMARK    3  A    between atoms: C9_9  and  C11_11 
REMARK    4  A    between atoms: C10_10  and  C11_11 
ROOT
HETATM    1  C1  UNL     1     -35.007   4.977   4.277  1.00 20.00     0.000 A 
HETATM    2  C2  UNL     1     -35.497   6.280   4.370  1.00 20.00     0.001 A 
HETATM    3  C3  UNL     1     -33.815   4.727   3.598  1.00 20.00     0.001 A 
HETATM    4  C4  UNL     1     -34.795   7.333   3.784  1.00 20.00     0.007 A 
HETATM    5  C5  UNL     1     -33.112   5.780   3.012  1.00 20.00     0.007 A 
HETATM    6  C6  UNL     1     -33.602   7.083   3.104  1.00 20.00    -0.058 A 
ENDROOT
BRANCH   6   7
HETATM    7  C8  UNL     1     -32.847   8.213   2.474  1.00 20.00     0.038 C 
BRANCH   7   8
HETATM    8  C10 UNL     1     -32.053   7.798   1.232  1.00 20.00     0.005 C 
BRANCH   8   9
HETATM    9  C11 UNL     1     -31.220   8.938   0.637  1.00 20.00    -0.000 C 
BRANCH   9  10
HETATM   10  C9  UNL     1     -32.110  10.099   0.193  1.00 20.00    -0.005 C 
HETATM   11  C7  UNL     1     -33.135   9.653  -0.838  1.00 20.00     0.005 C 
ENDBRANCH   9  10
ENDBRANCH   8   9
ENDBRANCH   7   8
ENDBRANCH   6   7
TORSDOF 4
