REMARK  1 active torsions:
REMARK  status: ('A' for Active; 'I' for Inactive)
REMARK    1  A    between atoms: C6_6  and  O8_8 
ROOT
HETATM    1  C1  UNL     1     -31.671   7.400   1.540  1.00 20.00     0.000 A 
HETATM    2  C2  UNL     1     -32.543   8.008   2.444  1.00 20.00     0.003 A 
HETATM    3  C3  UNL     1     -31.780   6.035   1.276  1.00 20.00     0.003 A 
HETATM    4  C4  UNL     1     -33.524   7.250   3.083  1.00 20.00     0.037 A 
HETATM    5  C5  UNL     1     -32.761   5.277   1.916  1.00 20.00     0.037 A 
HETATM    6  C6  UNL     1     -33.633   5.885   2.820  1.00 20.00     0.068 A 
ENDROOT
BRANCH   6   7
HETATM    7  O8  UNL     1     -34.589   5.145   3.445  1.00 20.00    -0.356 OA
HETATM    8  C7  UNL     1     -35.446   5.829   4.358  1.00 20.00     0.210 C 
ENDBRANCH   6   7
TORSDOF 1
