REMARK  0 active torsions:
REMARK  status: ('A' for Active; 'I' for Inactive)
ROOT
HETATM    1  C1  UNL     1     -31.767   5.817   1.451  1.00 20.00     0.000 A 
HETATM    2  C2  UNL     1     -32.882   5.217   2.038  1.00 20.00     0.000 A 
HETATM    3  C3  UNL     1     -31.498   7.166   1.683  1.00 20.00     0.000 A 
HETATM    4  C4  UNL     1     -33.727   5.966   2.857  1.00 20.00     0.000 A 
HETATM    5  C5  UNL     1     -32.343   7.915   2.502  1.00 20.00     0.000 A 
HETATM    6  C6  UNL     1     -33.457   7.315   3.089  1.00 20.00     0.000 A 
ENDROOT
TORSDOF 0
