REMARK  3 active torsions:
REMARK  status: ('A' for Active; 'I' for Inactive)
REMARK    1  A    between atoms: C6_6  and  O9_9 
REMARK    2  A    between atoms: C7_7  and  C8_8 
REMARK    3  A    between atoms: C7_7  and  O9_9 
ROOT
HETATM    1  C1  UNL     1     -34.882   5.567   4.008  1.00 20.00     0.000 A 
HETATM    2  C2  UNL     1     -34.766   6.950   4.146  1.00 20.00     0.003 A 
HETATM    3  C3  UNL     1     -34.115   4.895   3.057  1.00 20.00     0.003 A 
HETATM    4  C4  UNL     1     -33.884   7.661   3.333  1.00 20.00     0.037 A 
HETATM    5  C5  UNL     1     -33.233   5.606   2.243  1.00 20.00     0.037 A 
HETATM    6  C6  UNL     1     -33.117   6.989   2.381  1.00 20.00     0.068 A 
ENDROOT
BRANCH   6   7
HETATM    7  O9  UNL     1     -32.258   7.682   1.586  1.00 20.00    -0.350 OA
BRANCH   7   8
HETATM    8  C7  UNL     1     -32.606   9.030   1.273  1.00 20.00     0.190 C 
BRANCH   8   9
HETATM    9  C8  UNL     1     -32.110   9.378  -0.118  1.00 20.00     0.141 C 
HETATM   10 CL10 UNL     1     -32.507  11.066  -0.529  1.00 20.00    -0.128 Cl
ENDBRANCH   8   9
ENDBRANCH   7   8
ENDBRANCH   6   7
TORSDOF 3
