REMARK  0 active torsions:
REMARK  status: ('A' for Active; 'I' for Inactive)
ROOT
HETATM    1  C1  UNL     1     -32.886  10.137   0.776  1.00 20.00     0.016 C 
HETATM    2  C2  UNL     1     -32.347   8.726   0.800  1.00 20.00     0.081 C 
HETATM    3 BR3  UNL     1     -32.500   7.990   2.593  1.00 20.00    -0.097 Br
ENDROOT
TORSDOF 0
