REMARK  0 active torsions:
REMARK  status: ('A' for Active; 'I' for Inactive)
ROOT
HETATM    1  C1  UNL     1     -32.744   7.987   2.559  1.00 20.00    -0.030 C 
HETATM    2  C2  UNL     1     -33.742   7.759   3.424  1.00 20.00    -0.030 C 
HETATM    3  C3  UNL     1     -32.262   6.963   1.575  1.00 20.00     0.026 C 
HETATM    4  C4  UNL     1     -34.459   6.445   3.520  1.00 20.00     0.026 C 
HETATM    5  C5  UNL     1     -33.214   5.774   1.430  1.00 20.00     0.004 C 
HETATM    6  C6  UNL     1     -33.737   5.312   2.787  1.00 20.00     0.004 C 
ENDROOT
TORSDOF 0
