REMARK  3 active torsions:
REMARK  status: ('A' for Active; 'I' for Inactive)
REMARK    1  A    between atoms: C5_5  and  S7_7 
REMARK    2  A    between atoms: C6_6  and  S8_8 
REMARK    3  A    between atoms: S7_7  and  S8_8 
ROOT
HETATM    1  S7  UNL     1     -33.834   5.814   2.049  1.00 20.00    -0.093 SA
ENDROOT
BRANCH   1   2
HETATM    2  C5  UNL     1     -34.752   6.510   3.464  1.00 20.00     0.050 C 
HETATM    3  C1  UNL     1     -35.279   5.381   4.341  1.00 20.00     0.022 C 
HETATM    4  C2  UNL     1     -33.848   7.451   4.251  1.00 20.00     0.022 C 
ENDBRANCH   1   2
BRANCH   1   5
HETATM    5  S8  UNL     1     -33.859   7.392   0.736  1.00 20.00    -0.093 SA
BRANCH   5   6
HETATM    6  C6  UNL     1     -32.347   8.275   1.190  1.00 20.00     0.050 C 
HETATM    7  C3  UNL     1     -31.236   7.274   1.484  1.00 20.00     0.022 C 
HETATM    8  C4  UNL     1     -31.953   9.231   0.070  1.00 20.00     0.022 C 
ENDBRANCH   5   6
ENDBRANCH   1   5
TORSDOF 3
