REMARK  1 active torsions:
REMARK  status: ('A' for Active; 'I' for Inactive)
REMARK    1  A    between atoms: C6_6  and  C8_8 
ROOT
HETATM    1  C1  UNL     1     -31.597   6.373   1.074  1.00 20.00     0.000 A 
HETATM    2  C2  UNL     1     -31.535   7.720   1.430  1.00 20.00     0.001 A 
HETATM    3  C3  UNL     1     -32.535   5.535   1.676  1.00 20.00     0.001 A 
HETATM    4  C4  UNL     1     -32.411   8.229   2.389  1.00 20.00     0.007 A 
HETATM    5  C5  UNL     1     -33.411   6.044   2.635  1.00 20.00     0.007 A 
HETATM    6  C6  UNL     1     -33.349   7.391   2.991  1.00 20.00    -0.059 A 
ENDROOT
BRANCH   6   7
HETATM    7  C8  UNL     1     -34.286   7.934   4.017  1.00 20.00     0.034 C 
HETATM    8  C7  UNL     1     -33.720   7.834   5.431  1.00 20.00     0.010 C 
ENDBRANCH   6   7
TORSDOF 1
