REMARK  0 active torsions:
REMARK  status: ('A' for Active; 'I' for Inactive)
ROOT
HETATM    1  C1  UNL     1     -31.867   6.205   0.871  1.00 20.00     0.001 A 
HETATM    2  C2  UNL     1     -31.438   7.438   1.391  1.00 20.00     0.001 A 
HETATM    3  C3  UNL     1     -32.964   5.537   1.424  1.00 20.00     0.012 A 
HETATM    4  C4  UNL     1     -32.097   8.026   2.474  1.00 20.00     0.008 A 
HETATM    5  C5  UNL     1     -33.611   6.127   2.496  1.00 20.00    -0.030 A 
HETATM    6  C6  UNL     1     -33.181   7.357   3.014  1.00 20.00    -0.044 A 
HETATM    7  C7  UNL     1     -34.759   5.668   3.259  1.00 20.00     0.008 A 
HETATM    8  C8  UNL     1     -35.016   6.586   4.204  1.00 20.00    -0.021 A 
HETATM    9  C9  UNL     1     -34.058   7.752   4.161  1.00 20.00     0.066 A 
ENDROOT
TORSDOF 0
