REMARK  0 active torsions:
REMARK  status: ('A' for Active; 'I' for Inactive)
ROOT
HETATM    1  C1  UNL     1     -31.697   7.320   1.522  1.00 20.00     0.001 A 
HETATM    2  C2  UNL     1     -31.778   5.948   1.293  1.00 20.00     0.002 A 
HETATM    3  C3  UNL     1     -32.556   7.946   2.434  1.00 20.00     0.014 A 
HETATM    4  C4  UNL     1     -32.716   5.159   1.966  1.00 20.00     0.030 A 
HETATM    5  C5  UNL     1     -34.511   7.463   4.091  1.00 20.00     0.030 A 
HETATM    6  C6  UNL     1     -35.146   6.283   4.404  1.00 20.00     0.089 A 
HETATM    7  C7  UNL     1     -33.509   7.171   3.123  1.00 20.00    -0.008 A 
HETATM    8  C8  UNL     1     -33.567   5.799   2.874  1.00 20.00     0.042 A 
HETATM    9  N9  UNL     1     -34.569   5.285   3.665  1.00 20.00    -0.365 N 
HETATM   10  H16 UNL     1     -34.840   4.312   3.696  1.00 20.00     0.165 HD
ENDROOT
TORSDOF 0
