REMARK  0 active torsions:
REMARK  status: ('A' for Active; 'I' for Inactive)
ROOT
HETATM    1  C1  UNL     1     -32.504   8.212   2.265  1.00 20.00     0.016 C 
HETATM    2  C2  UNL     1     -32.247   8.566   0.810  1.00 20.00     0.075 C 
HETATM    3  I3  UNL     1     -32.567  10.645   0.467  1.00 20.00    -0.090 I 
ENDROOT
TORSDOF 0
