REMARK  2 active torsions:
REMARK  status: ('A' for Active; 'I' for Inactive)
REMARK    1  A    between atoms: C6_6  and  C9_9 
REMARK    2  A    between atoms: C9_9  and  C10_10 
ROOT
HETATM    1  C1  UNL     1     -34.098   6.708   3.991  1.00 20.00     0.000 A 
HETATM    2  C2  UNL     1     -33.604   8.002   4.160  1.00 20.00     0.001 A 
HETATM    3  C3  UNL     1     -33.774   5.983   2.844  1.00 20.00     0.001 A 
HETATM    4  C4  UNL     1     -32.787   8.570   3.182  1.00 20.00     0.007 A 
HETATM    5  C5  UNL     1     -32.957   6.550   1.867  1.00 20.00     0.007 A 
HETATM    6  C6  UNL     1     -32.464   7.844   2.035  1.00 20.00    -0.058 A 
ENDROOT
BRANCH   6   7
HETATM    7  C9  UNL     1     -31.580   8.458   0.977  1.00 20.00     0.042 C 
BRANCH   7   8
HETATM    8  C10 UNL     1     -32.354   9.231  -0.109  1.00 20.00    -0.019 C 
HETATM    9  C7  UNL     1     -33.166  10.387   0.478  1.00 20.00     0.010 C 
HETATM   10  C8  UNL     1     -31.377   9.767  -1.158  1.00 20.00     0.010 C 
ENDBRANCH   7   8
ENDBRANCH   6   7
TORSDOF 2
