REMARK  0 active torsions:
REMARK  status: ('A' for Active; 'I' for Inactive)
ROOT
HETATM    1  C1  UNL     1     -32.108   8.155   2.326  1.00 20.00     0.001 A 
HETATM    2  C2  UNL     1     -31.640   7.242   1.381  1.00 20.00     0.007 A 
HETATM    3  C3  UNL     1     -33.170   7.810   3.163  1.00 20.00     0.007 A 
HETATM    4  C4  UNL     1     -33.295   5.640   2.110  1.00 20.00     0.013 A 
HETATM    5  C5  UNL     1     -32.234   5.984   1.273  1.00 20.00    -0.061 A 
HETATM    6  C6  UNL     1     -33.763   6.552   3.055  1.00 20.00    -0.061 A 
HETATM    7  C7  UNL     1     -31.732   5.008   0.263  1.00 20.00     0.048 C 
HETATM    8  C8  UNL     1     -34.898   6.184   3.949  1.00 20.00     0.048 C 
ENDROOT
TORSDOF 0
