REMARK  1 active torsions:
REMARK  status: ('A' for Active; 'I' for Inactive)
REMARK    1  A    between atoms: C2_2  and  C8_8 
ROOT
HETATM    1  C1  UNL     1     -33.000   6.234   2.224  1.00 20.00    -0.081 C 
HETATM    2  C2  UNL     1     -32.599   7.502   2.401  1.00 20.00    -0.078 C 
HETATM    3  C3  UNL     1     -33.969   5.813   3.289  1.00 20.00     0.034 C 
HETATM    4  C4  UNL     1     -33.240   8.115   3.610  1.00 20.00     0.034 C 
HETATM    5  C5  UNL     1     -34.361   7.135   3.941  1.00 20.00     0.009 C 
HETATM    6  C6  UNL     1     -32.594   5.255   1.179  1.00 20.00     0.043 C 
ENDROOT
BRANCH   2   7
HETATM    7  C8  UNL     1     -31.629   8.303   1.604  1.00 20.00     0.030 C 
HETATM    8  C7  UNL     1     -32.338   9.041   0.485  1.00 20.00     0.010 C 
ENDBRANCH   2   7
TORSDOF 1
