REMARK  0 active torsions:
REMARK  status: ('A' for Active; 'I' for Inactive)
ROOT
HETATM    1  C1  UNL     1     -33.612   6.070   2.751  1.00 20.00     0.000 C 
HETATM    2  C2  UNL     1     -33.410   7.488   3.275  1.00 20.00     0.000 C 
HETATM    3  C3  UNL     1     -33.275   5.958   1.268  1.00 20.00     0.000 C 
HETATM    4  C4  UNL     1     -32.003   8.004   2.977  1.00 20.00     0.004 C 
HETATM    5  C5  UNL     1     -31.868   6.473   0.969  1.00 20.00     0.004 C 
HETATM    6  C6  UNL     1     -31.624   7.896   1.493  1.00 20.00    -0.018 C 
HETATM    7  C7  UNL     1     -32.354   8.943   0.646  1.00 20.00     0.010 C 
ENDROOT
TORSDOF 0
