REMARK  3 active torsions:
REMARK  status: ('A' for Active; 'I' for Inactive)
REMARK    1  A    between atoms: C6_6  and  C8_8 
REMARK    2  A    between atoms: C8_8  and  C10_10 
REMARK    3  A    between atoms: C9_9  and  C10_10 
ROOT
HETATM    1  C1  UNL     1     -32.250   8.307   2.211  1.00 20.00     0.000 A 
HETATM    2  C2  UNL     1     -32.873   8.617   3.420  1.00 20.00     0.001 A 
HETATM    3  C3  UNL     1     -32.597   7.143   1.526  1.00 20.00     0.001 A 
HETATM    4  C4  UNL     1     -33.844   7.763   3.944  1.00 20.00     0.007 A 
HETATM    5  C5  UNL     1     -33.568   6.289   2.050  1.00 20.00     0.007 A 
HETATM    6  C6  UNL     1     -34.191   6.599   3.258  1.00 20.00    -0.058 A 
ENDROOT
BRANCH   6   7
HETATM    7  C8  UNL     1     -35.240   5.675   3.824  1.00 20.00     0.038 C 
BRANCH   7   8
HETATM    8  C10 UNL     1     -34.621   4.615   4.739  1.00 20.00     0.004 C 
BRANCH   8   9
HETATM    9  C9  UNL     1     -33.583   3.776   3.993  1.00 20.00    -0.004 C 
HETATM   10  C7  UNL     1     -32.936   2.749   4.907  1.00 20.00     0.005 C 
ENDBRANCH   8   9
ENDBRANCH   7   8
ENDBRANCH   6   7
TORSDOF 3
