REMARK  5 active torsions:
REMARK  status: ('A' for Active; 'I' for Inactive)
REMARK    1  A    between atoms: C6_6  and  C8_8 
REMARK    2  A    between atoms: C8_8  and  C10_10 
REMARK    3  A    between atoms: C9_9  and  C11_11 
REMARK    4  A    between atoms: C10_10  and  C12_12 
REMARK    5  A    between atoms: C11_11  and  C12_12 
ROOT
HETATM    1  C1  UNL     1     -35.152   4.906   4.914  1.00 20.00     0.000 A 
HETATM    2  C2  UNL     1     -34.202   4.014   4.416  1.00 20.00     0.001 A 
HETATM    3  C3  UNL     1     -35.378   6.119   4.262  1.00 20.00     0.001 A 
HETATM    4  C4  UNL     1     -33.479   4.334   3.268  1.00 20.00     0.007 A 
HETATM    5  C5  UNL     1     -34.654   6.439   3.114  1.00 20.00     0.007 A 
HETATM    6  C6  UNL     1     -33.705   5.547   2.616  1.00 20.00    -0.058 A 
ENDROOT
BRANCH   6   7
HETATM    7  C8  UNL     1     -32.928   5.891   1.384  1.00 20.00     0.038 C 
BRANCH   7   8
HETATM    8  C10 UNL     1     -31.635   6.638   1.718  1.00 20.00     0.005 C 
BRANCH   8   9
HETATM    9  C12 UNL     1     -31.927   7.964   2.423  1.00 20.00     0.000 C 
BRANCH   9  10
HETATM   10  C11 UNL     1     -32.751   8.897   1.535  1.00 20.00    -0.000 C 
BRANCH  10  11
HETATM   11  C9  UNL     1     -32.030   9.193   0.220  1.00 20.00    -0.005 C 
HETATM   12  C7  UNL     1     -32.861  10.093  -0.681  1.00 20.00     0.005 C 
ENDBRANCH  10  11
ENDBRANCH   9  10
ENDBRANCH   8   9
ENDBRANCH   7   8
ENDBRANCH   6   7
TORSDOF 5
