REMARK  1 active torsions:
REMARK  status: ('A' for Active; 'I' for Inactive)
REMARK    1  A    between atoms: C6_6  and  N8_8 
ROOT
HETATM    1  C1  UNL     1     -32.154   8.003   1.288  1.00 20.00     0.000 A 
HETATM    2  C2  UNL     1     -32.806   8.513   2.411  1.00 20.00     0.002 A 
HETATM    3  C3  UNL     1     -32.196   6.635   1.018  1.00 20.00     0.002 A 
HETATM    4  C4  UNL     1     -33.499   7.655   3.264  1.00 20.00     0.029 A 
HETATM    5  C5  UNL     1     -32.890   5.777   1.872  1.00 20.00     0.029 A 
HETATM    6  C6  UNL     1     -33.541   6.287   2.995  1.00 20.00     0.027 A 
ENDROOT
BRANCH   6   7
HETATM    7  N8  UNL     1     -34.242   5.419   3.858  1.00 20.00    -0.394 N 
HETATM    8  C7  UNL     1     -33.868   4.054   4.058  1.00 20.00     0.146 C 
HETATM    9  H17 UNL     1     -35.034   5.800   4.340  1.00 20.00     0.159 HD
ENDBRANCH   6   7
TORSDOF 1
