REMARK  2 active torsions:
REMARK  status: ('A' for Active; 'I' for Inactive)
REMARK    1  A    between atoms: C6_6  and  C8_8 
REMARK    2  A    between atoms: C8_8  and  C9_9 
ROOT
HETATM    1  C1  UNL     1     -33.546   5.765   2.856  1.00 20.00     0.000 A 
HETATM    2  C2  UNL     1     -33.330   7.005   3.457  1.00 20.00     0.001 A 
HETATM    3  C3  UNL     1     -32.952   5.471   1.629  1.00 20.00     0.001 A 
HETATM    4  C4  UNL     1     -32.520   7.952   2.830  1.00 20.00     0.007 A 
HETATM    5  C5  UNL     1     -32.142   6.418   1.002  1.00 20.00     0.007 A 
HETATM    6  C6  UNL     1     -31.926   7.658   1.603  1.00 20.00    -0.058 A 
ENDROOT
BRANCH   6   7
HETATM    7  C8  UNL     1     -31.060   8.670   0.932  1.00 20.00     0.038 C 
BRANCH   7   8
HETATM    8  C9  UNL     1     -31.862   9.587  -0.004  1.00 20.00     0.000 C 
HETATM    9  C7  UNL     1     -32.963  10.332   0.734  1.00 20.00     0.005 C 
ENDBRANCH   7   8
ENDBRANCH   6   7
TORSDOF 2
