REMARK  0 active torsions:
REMARK  status: ('A' for Active; 'I' for Inactive)
ROOT
HETATM    1  C1  UNL     1     -35.391   5.603   4.401  1.00 20.00     0.001 A 
HETATM    2  C2  UNL     1     -35.304   6.967   4.664  1.00 20.00     0.001 A 
HETATM    3  C3  UNL     1     -31.701   5.976   1.252  1.00 20.00     0.001 A 
HETATM    4  C4  UNL     1     -31.614   7.340   1.515  1.00 20.00     0.001 A 
HETATM    5  C5  UNL     1     -34.518   5.011   3.488  1.00 20.00     0.012 A 
HETATM    6  C6  UNL     1     -34.345   7.745   4.014  1.00 20.00     0.012 A 
HETATM    7  C7  UNL     1     -32.660   5.199   1.902  1.00 20.00     0.012 A 
HETATM    8  C8  UNL     1     -32.487   7.932   2.428  1.00 20.00     0.012 A 
HETATM    9  C9  UNL     1     -33.546   5.778   2.825  1.00 20.00    -0.026 A 
HETATM   10  C10 UNL     1     -33.459   7.165   3.092  1.00 20.00    -0.026 A 
ENDROOT
TORSDOF 0
