REMARK  0 active torsions:
REMARK  status: ('A' for Active; 'I' for Inactive)
ROOT
HETATM    1  C1  UNL     1     -32.238   5.643   1.380  1.00 20.00     0.001 A 
HETATM    2  C2  UNL     1     -31.679   6.917   1.476  1.00 20.00     0.001 A 
HETATM    3  C3  UNL     1     -33.324   5.295   2.184  1.00 20.00     0.007 A 
HETATM    4  C4  UNL     1     -32.204   7.843   2.378  1.00 20.00     0.007 A 
HETATM    5  C5  UNL     1     -33.849   6.221   3.085  1.00 20.00    -0.056 A 
HETATM    6  C6  UNL     1     -33.289   7.495   3.182  1.00 20.00    -0.056 A 
HETATM    7  C7  UNL     1     -35.012   5.827   3.935  1.00 20.00     0.049 C 
HETATM    8  C8  UNL     1     -33.834   8.503   4.140  1.00 20.00     0.049 C 
ENDROOT
TORSDOF 0
