REMARK  1 active torsions:
REMARK  status: ('A' for Active; 'I' for Inactive)
REMARK    1  A    between atoms: C6_6  and  N9_9 
ROOT
HETATM    1  N8  UNL     1     -32.734  10.330   0.469  1.00 20.00     0.068 N 
HETATM    2  N9  UNL     1     -31.777   8.197   0.977  1.00 20.00    -0.073 NA
HETATM    3  N10 UNL     1     -32.280   9.311   0.713  1.00 20.00    -0.162 NA
ENDROOT
BRANCH   2   4
HETATM    4  C6  UNL     1     -32.589   7.418   1.808  1.00 20.00     0.093 A 
HETATM    5  C3  UNL     1     -32.551   6.027   1.714  1.00 20.00     0.035 A 
HETATM    6  C1  UNL     1     -33.359   5.250   2.544  1.00 20.00     0.009 A 
HETATM    7  C5  UNL     1     -34.205   5.865   3.468  1.00 20.00    -0.062 A 
HETATM    8  C2  UNL     1     -34.242   7.256   3.562  1.00 20.00     0.009 A 
HETATM    9  C7  UNL     1     -35.070   5.034   4.355  1.00 20.00     0.048 C 
HETATM   10  C4  UNL     1     -33.434   8.033   2.732  1.00 20.00     0.035 A 
ENDBRANCH   2   4
TORSDOF 1
