REMARK  0 active torsions:
REMARK  status: ('A' for Active; 'I' for Inactive)
ROOT
HETATM    1  C1  UNL     1     -32.856   8.676   3.073  1.00 20.00     0.007 A 
HETATM    2  C2  UNL     1     -33.706   7.851   3.810  1.00 20.00     0.007 A 
HETATM    3  C3  UNL     1     -32.567   6.920   1.439  1.00 20.00     0.007 A 
HETATM    4  C4  UNL     1     -33.416   6.095   2.176  1.00 20.00     0.007 A 
HETATM    5  C5  UNL     1     -32.287   8.211   1.888  1.00 20.00    -0.062 A 
HETATM    6  C6  UNL     1     -33.986   6.560   3.361  1.00 20.00    -0.062 A 
HETATM    7  C7  UNL     1     -31.379   9.093   1.100  1.00 20.00     0.048 C 
HETATM    8  C8  UNL     1     -34.893   5.677   4.151  1.00 20.00     0.048 C 
ENDROOT
TORSDOF 0
