REMARK  0 active torsions:
REMARK  status: ('A' for Active; 'I' for Inactive)
ROOT
HETATM    1  C1  UNL     1     -35.722   6.173   4.556  1.00 20.00     0.018 C 
HETATM    2  C2  UNL     1     -34.787   6.480   3.867  1.00 20.00    -0.078 C 
HETATM    3  C3  UNL     1     -31.504   7.557   1.447  1.00 20.00     0.000 A 
HETATM    4  C4  UNL     1     -32.288   6.455   1.108  1.00 20.00     0.001 A 
HETATM    5  C5  UNL     1     -31.805   8.303   2.586  1.00 20.00     0.001 A 
HETATM    6  C6  UNL     1     -33.374   6.098   1.908  1.00 20.00     0.020 A 
HETATM    7  C7  UNL     1     -32.890   7.947   3.386  1.00 20.00     0.020 A 
HETATM    8  C8  UNL     1     -33.675   6.845   3.047  1.00 20.00     0.016 A 
ENDROOT
TORSDOF 0
