REMARK  2 active torsions:
REMARK  status: ('A' for Active; 'I' for Inactive)
REMARK    1  A    between atoms: C6_6  and  C10_10 
REMARK    2  A    between atoms: C9_9  and  C10_10 
ROOT
HETATM    1  C1  UNL     1     -35.274   5.585   4.163  1.00 20.00     0.000 A 
HETATM    2  C2  UNL     1     -35.187   6.933   4.514  1.00 20.00     0.001 A 
HETATM    3  C3  UNL     1     -34.457   5.073   3.155  1.00 20.00     0.001 A 
HETATM    4  C4  UNL     1     -34.283   7.767   3.856  1.00 20.00     0.007 A 
HETATM    5  C5  UNL     1     -33.553   5.907   2.498  1.00 20.00     0.007 A 
HETATM    6  C6  UNL     1     -33.466   7.255   2.849  1.00 20.00    -0.054 A 
ENDROOT
BRANCH   6   7
HETATM    7  C10 UNL     1     -32.481   8.163   2.132  1.00 20.00     0.014 C 
HETATM    8  C8  UNL     1     -31.256   7.367   1.668  1.00 20.00     0.015 C 
BRANCH   7   9
HETATM    9  C9  UNL     1     -33.109   8.921   0.945  1.00 20.00     0.004 C 
HETATM   10  C7  UNL     1     -32.122   9.836   0.230  1.00 20.00     0.006 C 
ENDBRANCH   7   9
ENDBRANCH   6   7
TORSDOF 2
