REMARK  1 active torsions:
REMARK  status: ('A' for Active; 'I' for Inactive)
REMARK    1  A    between atoms: C6_6  and  C8_8 
ROOT
HETATM    1  C1  UNL     1     -32.222   7.382   1.643  1.00 20.00     0.000 A 
HETATM    2  C2  UNL     1     -33.050   8.002   2.579  1.00 20.00     0.001 A 
HETATM    3  C3  UNL     1     -32.218   5.992   1.529  1.00 20.00     0.001 A 
HETATM    4  C4  UNL     1     -33.874   7.232   3.401  1.00 20.00     0.011 A 
HETATM    5  C5  UNL     1     -33.041   5.221   2.350  1.00 20.00     0.011 A 
HETATM    6  C6  UNL     1     -33.869   5.841   3.286  1.00 20.00    -0.037 A 
ENDROOT
BRANCH   6   7
HETATM    7  C8  UNL     1     -34.728   5.038   4.142  1.00 20.00     0.001 C 
HETATM    8  C7  UNL     1     -34.415   3.820   4.562  1.00 20.00     0.012 C 
ENDBRANCH   6   7
TORSDOF 1
