REMARK  1 active torsions:
REMARK  status: ('A' for Active; 'I' for Inactive)
REMARK    1  A    between atoms: C6_6  and  S8_8 
ROOT
HETATM    1  C1  UNL     1     -34.173   5.818   3.736  1.00 20.00     0.000 A 
HETATM    2  C2  UNL     1     -33.842   7.111   4.141  1.00 20.00     0.001 A 
HETATM    3  C3  UNL     1     -33.737   5.342   2.499  1.00 20.00     0.001 A 
HETATM    4  C4  UNL     1     -33.074   7.927   3.311  1.00 20.00     0.018 A 
HETATM    5  C5  UNL     1     -32.969   6.158   1.669  1.00 20.00     0.018 A 
HETATM    6  C6  UNL     1     -32.637   7.451   2.075  1.00 20.00    -0.000 A 
ENDROOT
BRANCH   6   7
HETATM    7  S8  UNL     1     -31.657   8.494   1.014  1.00 20.00    -0.134 SA
HETATM    8  C7  UNL     1     -32.816   9.860   0.779  1.00 20.00     0.095 C 
ENDBRANCH   6   7
TORSDOF 1
