REMARK  0 active torsions:
REMARK  status: ('A' for Active; 'I' for Inactive)
ROOT
HETATM    1  C1  UNL     1     -31.728   6.187   1.094  1.00 20.00     0.000 A 
HETATM    2  C2  UNL     1     -31.507   7.490   1.541  1.00 20.00     0.001 A 
HETATM    3  C3  UNL     1     -32.779   5.437   1.622  1.00 20.00     0.001 A 
HETATM    4  C4  UNL     1     -32.337   8.042   2.517  1.00 20.00     0.007 A 
HETATM    5  C5  UNL     1     -33.608   5.989   2.598  1.00 20.00     0.007 A 
HETATM    6  C6  UNL     1     -33.388   7.292   3.046  1.00 20.00    -0.062 A 
HETATM    7  C7  UNL     1     -34.275   7.882   4.089  1.00 20.00     0.048 C 
ENDROOT
TORSDOF 0
