MODEL 1
REMARK VINA RESULT:      -5.5      0.000      0.000
REMARK  0 active torsions:
REMARK  status: ('A' for Active; 'I' for Inactive)
ROOT
HETATM    1  C1  UNL     1     -34.820   5.341   5.826  1.00 20.00     0.000 A 
HETATM    2  C2  UNL     1     -34.106   6.524   6.013  1.00 20.00     0.001 A 
HETATM    3  C3  UNL     1     -34.837   4.725   4.575  1.00 20.00     0.001 A 
HETATM    4  C4  UNL     1     -33.409   7.093   4.947  1.00 20.00     0.019 A 
HETATM    5  C5  UNL     1     -34.139   5.294   3.509  1.00 20.00     0.019 A 
HETATM    6  C6  UNL     1     -33.425   6.478   3.695  1.00 20.00     0.011 A 
HETATM    7  S7  UNL     1     -32.525   7.210   2.319  1.00 20.00    -0.053 SA
ENDROOT
TORSDOF 0
ENDMDL
MODEL 2
REMARK VINA RESULT:      -5.5      0.040      1.827
REMARK  0 active torsions:
REMARK  status: ('A' for Active; 'I' for Inactive)
ROOT
HETATM    1  C1  UNL     1     -34.858   5.309   5.815  1.00 20.00     0.000 A 
HETATM    2  C2  UNL     1     -34.849   4.696   4.562  1.00 20.00     0.001 A 
HETATM    3  C3  UNL     1     -34.157   6.498   6.016  1.00 20.00     0.001 A 
HETATM    4  C4  UNL     1     -34.138   5.272   3.509  1.00 20.00     0.019 A 
HETATM    5  C5  UNL     1     -33.446   7.074   4.963  1.00 20.00     0.019 A 
HETATM    6  C6  UNL     1     -33.437   6.462   3.709  1.00 20.00     0.011 A 
HETATM    7  S7  UNL     1     -32.520   7.207   2.351  1.00 20.00    -0.053 SA
ENDROOT
TORSDOF 0
ENDMDL
MODEL 3
REMARK VINA RESULT:      -3.8      2.116      2.972
REMARK  0 active torsions:
REMARK  status: ('A' for Active; 'I' for Inactive)
ROOT
HETATM    1  C1  UNL     1     -32.624   6.364   2.225  1.00 20.00     0.000 A 
HETATM    2  C2  UNL     1     -32.618   7.259   3.295  1.00 20.00     0.001 A 
HETATM    3  C3  UNL     1     -33.337   5.169   2.317  1.00 20.00     0.001 A 
HETATM    4  C4  UNL     1     -33.326   6.958   4.458  1.00 20.00     0.019 A 
HETATM    5  C5  UNL     1     -34.045   4.869   3.481  1.00 20.00     0.019 A 
HETATM    6  C6  UNL     1     -34.039   5.763   4.552  1.00 20.00     0.011 A 
HETATM    7  S7  UNL     1     -34.954   5.374   6.053  1.00 20.00    -0.053 SA
ENDROOT
TORSDOF 0
ENDMDL
MODEL 4
REMARK VINA RESULT:      -3.8      2.115      3.475
REMARK  0 active torsions:
REMARK  status: ('A' for Active; 'I' for Inactive)
ROOT
HETATM    1  C1  UNL     1     -32.616   6.391   2.234  1.00 20.00     0.000 A 
HETATM    2  C2  UNL     1     -33.317   5.189   2.324  1.00 20.00     0.001 A 
HETATM    3  C3  UNL     1     -32.627   7.287   3.302  1.00 20.00     0.001 A 
HETATM    4  C4  UNL     1     -34.031   4.883   3.482  1.00 20.00     0.019 A 
HETATM    5  C5  UNL     1     -33.340   6.982   4.461  1.00 20.00     0.019 A 
HETATM    6  C6  UNL     1     -34.043   5.779   4.552  1.00 20.00     0.011 A 
HETATM    7  S7  UNL     1     -34.962   5.386   6.048  1.00 20.00    -0.053 SA
ENDROOT
TORSDOF 0
ENDMDL
MODEL 5
REMARK VINA RESULT:      -3.7     12.123     12.431
REMARK  0 active torsions:
REMARK  status: ('A' for Active; 'I' for Inactive)
ROOT
HETATM    1  C1  UNL     1     -33.356  16.680  -2.409  1.00 20.00     0.000 A 
HETATM    2  C2  UNL     1     -34.677  16.563  -1.979  1.00 20.00     0.001 A 
HETATM    3  C3  UNL     1     -32.905  15.926  -3.493  1.00 20.00     0.001 A 
HETATM    4  C4  UNL     1     -35.548  15.691  -2.633  1.00 20.00     0.019 A 
HETATM    5  C5  UNL     1     -33.776  15.055  -4.147  1.00 20.00     0.019 A 
HETATM    6  C6  UNL     1     -35.098  14.936  -3.717  1.00 20.00     0.011 A 
HETATM    7  S7  UNL     1     -36.221  13.812  -4.562  1.00 20.00    -0.053 SA
ENDROOT
TORSDOF 0
ENDMDL
MODEL 6
REMARK VINA RESULT:      -3.7     12.108     12.470
REMARK  0 active torsions:
REMARK  status: ('A' for Active; 'I' for Inactive)
ROOT
HETATM    1  C1  UNL     1     -33.357  16.687  -2.410  1.00 20.00     0.000 A 
HETATM    2  C2  UNL     1     -32.859  15.949  -3.483  1.00 20.00     0.001 A 
HETATM    3  C3  UNL     1     -34.684  16.533  -2.011  1.00 20.00     0.001 A 
HETATM    4  C4  UNL     1     -33.689  15.054  -4.158  1.00 20.00     0.019 A 
HETATM    5  C5  UNL     1     -35.515  15.638  -2.686  1.00 20.00     0.019 A 
HETATM    6  C6  UNL     1     -35.018  14.898  -3.760  1.00 20.00     0.011 A 
HETATM    7  S7  UNL     1     -36.090  13.744  -4.630  1.00 20.00    -0.053 SA
ENDROOT
TORSDOF 0
ENDMDL
MODEL 7
REMARK VINA RESULT:      -3.6     12.008     12.530
REMARK  0 active torsions:
REMARK  status: ('A' for Active; 'I' for Inactive)
ROOT
HETATM    1  C1  UNL     1     -34.151  17.660  -0.968  1.00 20.00     0.000 A 
HETATM    2  C2  UNL     1     -32.995  17.677  -1.748  1.00 20.00     0.001 A 
HETATM    3  C3  UNL     1     -35.164  16.741  -1.240  1.00 20.00     0.001 A 
HETATM    4  C4  UNL     1     -32.852  16.773  -2.801  1.00 20.00     0.019 A 
HETATM    5  C5  UNL     1     -35.021  15.838  -2.294  1.00 20.00     0.019 A 
HETATM    6  C6  UNL     1     -33.865  15.853  -3.075  1.00 20.00     0.011 A 
HETATM    7  S7  UNL     1     -33.682  14.687  -4.433  1.00 20.00    -0.053 SA
ENDROOT
TORSDOF 0
ENDMDL
MODEL 8
REMARK VINA RESULT:      -3.6     11.990     12.438
REMARK  0 active torsions:
REMARK  status: ('A' for Active; 'I' for Inactive)
ROOT
HETATM    1  C1  UNL     1     -34.697  14.410  -3.946  1.00 20.00     0.000 A 
HETATM    2  C2  UNL     1     -33.406  14.873  -4.200  1.00 20.00     0.001 A 
HETATM    3  C3  UNL     1     -35.472  15.011  -2.954  1.00 20.00     0.001 A 
HETATM    4  C4  UNL     1     -32.890  15.939  -3.462  1.00 20.00     0.019 A 
HETATM    5  C5  UNL     1     -34.956  16.076  -2.216  1.00 20.00     0.019 A 
HETATM    6  C6  UNL     1     -33.665  16.541  -2.470  1.00 20.00     0.011 A 
HETATM    7  S7  UNL     1     -33.001  17.916  -1.517  1.00 20.00    -0.053 SA
ENDROOT
TORSDOF 0
ENDMDL
MODEL 9
REMARK VINA RESULT:      -3.6     12.036     12.449
REMARK  0 active torsions:
REMARK  status: ('A' for Active; 'I' for Inactive)
ROOT
HETATM    1  C1  UNL     1     -34.695  14.466  -3.974  1.00 20.00     0.000 A 
HETATM    2  C2  UNL     1     -35.519  15.036  -3.004  1.00 20.00     0.001 A 
HETATM    3  C3  UNL     1     -33.400  14.949  -4.161  1.00 20.00     0.001 A 
HETATM    4  C4  UNL     1     -35.048  16.089  -2.220  1.00 20.00     0.019 A 
HETATM    5  C5  UNL     1     -32.929  16.002  -3.377  1.00 20.00     0.019 A 
HETATM    6  C6  UNL     1     -33.753  16.573  -2.406  1.00 20.00     0.011 A 
HETATM    7  S7  UNL     1     -33.143  17.931  -1.396  1.00 20.00    -0.053 SA
ENDROOT
TORSDOF 0
ENDMDL
