MODEL 1
REMARK VINA RESULT:      -5.2      0.000      0.000
REMARK  3 active torsions:
REMARK  status: ('A' for Active; 'I' for Inactive)
REMARK    1  A    between atoms: C5_5  and  O9_9 
REMARK    2  A    between atoms: C6_6  and  O10_10 
REMARK    3  A    between atoms: C8_8  and  O10_10 
ROOT
HETATM    1  C1  UNL     1     -34.883   5.338   5.654  1.00 20.00     0.003 A 
HETATM    2  C2  UNL     1     -34.238   6.542   5.934  1.00 20.00     0.003 A 
HETATM    3  C3  UNL     1     -34.688   4.712   4.423  1.00 20.00     0.039 A 
HETATM    4  C4  UNL     1     -33.398   7.121   4.983  1.00 20.00     0.039 A 
HETATM    5  C5  UNL     1     -33.848   5.289   3.472  1.00 20.00     0.099 A 
HETATM    6  C6  UNL     1     -33.203   6.494   3.751  1.00 20.00     0.101 A 
ENDROOT
BRANCH   6   7
HETATM    7  O10 UNL     1     -32.380   7.070   2.831  1.00 20.00    -0.349 OA
BRANCH   7   8
HETATM    8  C8  UNL     1     -32.947   8.071   1.989  1.00 20.00     0.171 C 
HETATM    9  C7  UNL     1     -32.252   8.038   0.645  1.00 20.00     0.034 C 
ENDBRANCH   7   8
ENDBRANCH   6   7
BRANCH   5  10
HETATM   10  O9  UNL     1     -33.666   4.669   2.273  1.00 20.00    -0.358 OA
HETATM   11  H20 UNL     1     -32.722   4.648   2.046  1.00 20.00     0.217 HD
ENDBRANCH   5  10
TORSDOF 3
ENDMDL
MODEL 2
REMARK VINA RESULT:      -5.1      1.057      2.196
REMARK  3 active torsions:
REMARK  status: ('A' for Active; 'I' for Inactive)
REMARK    1  A    between atoms: C5_5  and  O9_9 
REMARK    2  A    between atoms: C6_6  and  O10_10 
REMARK    3  A    between atoms: C8_8  and  O10_10 
ROOT
HETATM    1  C1  UNL     1     -34.964   5.250   5.418  1.00 20.00     0.003 A 
HETATM    2  C2  UNL     1     -34.851   4.873   4.079  1.00 20.00     0.003 A 
HETATM    3  C3  UNL     1     -34.178   6.287   5.918  1.00 20.00     0.039 A 
HETATM    4  C4  UNL     1     -33.952   5.533   3.242  1.00 20.00     0.039 A 
HETATM    5  C5  UNL     1     -33.279   6.949   5.082  1.00 20.00     0.099 A 
HETATM    6  C6  UNL     1     -33.166   6.571   3.744  1.00 20.00     0.101 A 
ENDROOT
BRANCH   6   7
HETATM    7  O10 UNL     1     -32.291   7.208   2.915  1.00 20.00    -0.349 OA
BRANCH   7   8
HETATM    8  C8  UNL     1     -32.603   7.215   1.524  1.00 20.00     0.171 C 
HETATM    9  C7  UNL     1     -32.782   8.647   1.066  1.00 20.00     0.034 C 
ENDBRANCH   7   8
ENDBRANCH   6   7
BRANCH   5  10
HETATM   10  O9  UNL     1     -32.516   7.960   5.583  1.00 20.00    -0.358 OA
HETATM   11  H20 UNL     1     -32.026   8.396   4.868  1.00 20.00     0.217 HD
ENDBRANCH   5  10
TORSDOF 3
ENDMDL
MODEL 3
REMARK VINA RESULT:      -4.7     11.193     11.897
REMARK  3 active torsions:
REMARK  status: ('A' for Active; 'I' for Inactive)
REMARK    1  A    between atoms: C5_5  and  O9_9 
REMARK    2  A    between atoms: C6_6  and  O10_10 
REMARK    3  A    between atoms: C8_8  and  O10_10 
ROOT
HETATM    1  C1  UNL     1     -33.617  17.005  -2.215  1.00 20.00     0.003 A 
HETATM    2  C2  UNL     1     -34.886  16.488  -1.957  1.00 20.00     0.003 A 
HETATM    3  C3  UNL     1     -32.797  16.398  -3.166  1.00 20.00     0.039 A 
HETATM    4  C4  UNL     1     -35.336  15.364  -2.649  1.00 20.00     0.039 A 
HETATM    5  C5  UNL     1     -33.246  15.275  -3.860  1.00 20.00     0.099 A 
HETATM    6  C6  UNL     1     -34.515  14.757  -3.601  1.00 20.00     0.101 A 
ENDROOT
BRANCH   6   7
HETATM    7  O10 UNL     1     -34.966  13.660  -4.270  1.00 20.00    -0.349 OA
BRANCH   7   8
HETATM    8  C8  UNL     1     -36.159  13.811  -5.036  1.00 20.00     0.171 C 
HETATM    9  C7  UNL     1     -35.831  14.539  -6.323  1.00 20.00     0.034 C 
ENDBRANCH   7   8
ENDBRANCH   6   7
BRANCH   5  10
HETATM   10  O9  UNL     1     -32.436  14.691  -4.786  1.00 20.00    -0.358 OA
HETATM   11  H20 UNL     1     -32.609  13.737  -4.829  1.00 20.00     0.217 HD
ENDBRANCH   5  10
TORSDOF 3
ENDMDL
MODEL 4
REMARK VINA RESULT:      -4.3     11.482     12.470
REMARK  3 active torsions:
REMARK  status: ('A' for Active; 'I' for Inactive)
REMARK    1  A    between atoms: C5_5  and  O9_9 
REMARK    2  A    between atoms: C6_6  and  O10_10 
REMARK    3  A    between atoms: C8_8  and  O10_10 
ROOT
HETATM    1  C1  UNL     1     -33.650  15.370  -4.268  1.00 20.00     0.003 A 
HETATM    2  C2  UNL     1     -34.477  15.359  -3.146  1.00 20.00     0.003 A 
HETATM    3  C3  UNL     1     -34.124  14.890  -5.489  1.00 20.00     0.039 A 
HETATM    4  C4  UNL     1     -35.779  14.868  -3.243  1.00 20.00     0.039 A 
HETATM    5  C5  UNL     1     -35.426  14.399  -5.588  1.00 20.00     0.099 A 
HETATM    6  C6  UNL     1     -36.253  14.388  -4.465  1.00 20.00     0.101 A 
ENDROOT
BRANCH   6   7
HETATM    7  O10 UNL     1     -37.527  13.911  -4.547  1.00 20.00    -0.349 OA
BRANCH   7   8
HETATM    8  C8  UNL     1     -38.576  14.789  -4.147  1.00 20.00     0.171 C 
HETATM    9  C7  UNL     1     -38.696  15.909  -5.158  1.00 20.00     0.034 C 
ENDBRANCH   7   8
ENDBRANCH   6   7
BRANCH   5  10
HETATM   10  O9  UNL     1     -35.877  13.932  -6.785  1.00 20.00    -0.358 OA
HETATM   11  H20 UNL     1     -35.129  13.677  -7.348  1.00 20.00     0.217 HD
ENDBRANCH   5  10
TORSDOF 3
ENDMDL
MODEL 5
REMARK VINA RESULT:      -4.3     11.610     12.329
REMARK  3 active torsions:
REMARK  status: ('A' for Active; 'I' for Inactive)
REMARK    1  A    between atoms: C5_5  and  O9_9 
REMARK    2  A    between atoms: C6_6  and  O10_10 
REMARK    3  A    between atoms: C8_8  and  O10_10 
ROOT
HETATM    1  C1  UNL     1     -33.964  16.239  -2.398  1.00 20.00     0.003 A 
HETATM    2  C2  UNL     1     -33.131  15.911  -3.468  1.00 20.00     0.003 A 
HETATM    3  C3  UNL     1     -35.300  15.843  -2.408  1.00 20.00     0.039 A 
HETATM    4  C4  UNL     1     -33.635  15.188  -4.548  1.00 20.00     0.039 A 
HETATM    5  C5  UNL     1     -35.806  15.118  -3.487  1.00 20.00     0.099 A 
HETATM    6  C6  UNL     1     -34.973  14.791  -4.557  1.00 20.00     0.101 A 
ENDROOT
BRANCH   6   7
HETATM    7  O10 UNL     1     -35.453  14.084  -5.618  1.00 20.00    -0.349 OA
BRANCH   7   8
HETATM    8  C8  UNL     1     -35.435  14.729  -6.890  1.00 20.00     0.171 C 
HETATM    9  C7  UNL     1     -36.477  15.828  -6.901  1.00 20.00     0.034 C 
ENDBRANCH   7   8
ENDBRANCH   6   7
BRANCH   5  10
HETATM   10  O9  UNL     1     -37.113  14.737  -3.486  1.00 20.00    -0.358 OA
HETATM   11  H20 UNL     1     -37.243  13.981  -4.079  1.00 20.00     0.217 HD
ENDBRANCH   5  10
TORSDOF 3
ENDMDL
MODEL 6
REMARK VINA RESULT:      -4.2     15.623     15.989
REMARK  3 active torsions:
REMARK  status: ('A' for Active; 'I' for Inactive)
REMARK    1  A    between atoms: C5_5  and  O9_9 
REMARK    2  A    between atoms: C6_6  and  O10_10 
REMARK    3  A    between atoms: C8_8  and  O10_10 
ROOT
HETATM    1  C1  UNL     1     -25.319  16.260  12.331  1.00 20.00     0.003 A 
HETATM    2  C2  UNL     1     -25.991  17.478  12.235  1.00 20.00     0.003 A 
HETATM    3  C3  UNL     1     -24.258  15.979  11.471  1.00 20.00     0.039 A 
HETATM    4  C4  UNL     1     -25.603  18.415  11.278  1.00 20.00     0.039 A 
HETATM    5  C5  UNL     1     -23.868  16.916  10.514  1.00 20.00     0.099 A 
HETATM    6  C6  UNL     1     -24.541  18.134  10.417  1.00 20.00     0.101 A 
ENDROOT
BRANCH   6   7
HETATM    7  O10 UNL     1     -24.171  19.058   9.487  1.00 20.00    -0.349 OA
BRANCH   7   8
HETATM    8  C8  UNL     1     -25.057  19.263   8.388  1.00 20.00     0.171 C 
HETATM    9  C7  UNL     1     -24.344  18.895   7.104  1.00 20.00     0.034 C 
ENDBRANCH   7   8
ENDBRANCH   6   7
BRANCH   5  10
HETATM   10  O9  UNL     1     -22.830  16.630   9.679  1.00 20.00    -0.358 OA
HETATM   11  H20 UNL     1     -22.285  17.420   9.540  1.00 20.00     0.217 HD
ENDBRANCH   5  10
TORSDOF 3
ENDMDL
MODEL 7
REMARK VINA RESULT:      -4.1     11.527     12.247
REMARK  3 active torsions:
REMARK  status: ('A' for Active; 'I' for Inactive)
REMARK    1  A    between atoms: C5_5  and  O9_9 
REMARK    2  A    between atoms: C6_6  and  O10_10 
REMARK    3  A    between atoms: C8_8  and  O10_10 
ROOT
HETATM    1  C1  UNL     1     -34.557  14.958  -3.747  1.00 20.00     0.003 A 
HETATM    2  C2  UNL     1     -33.292  15.526  -3.896  1.00 20.00     0.003 A 
HETATM    3  C3  UNL     1     -35.400  15.391  -2.725  1.00 20.00     0.039 A 
HETATM    4  C4  UNL     1     -32.870  16.527  -3.022  1.00 20.00     0.039 A 
HETATM    5  C5  UNL     1     -34.980  16.393  -1.851  1.00 20.00     0.099 A 
HETATM    6  C6  UNL     1     -33.714  16.961  -1.999  1.00 20.00     0.101 A 
ENDROOT
BRANCH   6   7
HETATM    7  O10 UNL     1     -33.290  17.940  -1.152  1.00 20.00    -0.349 OA
BRANCH   7   8
HETATM    8  C8  UNL     1     -32.021  18.530  -1.424  1.00 20.00     0.171 C 
HETATM    9  C7  UNL     1     -31.116  18.328  -0.228  1.00 20.00     0.034 C 
ENDBRANCH   7   8
ENDBRANCH   6   7
BRANCH   5  10
HETATM   10  O9  UNL     1     -35.812  16.808  -0.856  1.00 20.00    -0.358 OA
HETATM   11  H20 UNL     1     -35.301  17.213  -0.137  1.00 20.00     0.217 HD
ENDBRANCH   5  10
TORSDOF 3
ENDMDL
MODEL 8
REMARK VINA RESULT:      -4.0      9.198      9.871
REMARK  3 active torsions:
REMARK  status: ('A' for Active; 'I' for Inactive)
REMARK    1  A    between atoms: C5_5  and  O9_9 
REMARK    2  A    between atoms: C6_6  and  O10_10 
REMARK    3  A    between atoms: C8_8  and  O10_10 
ROOT
HETATM    1  C1  UNL     1     -41.937   8.215   0.481  1.00 20.00     0.003 A 
HETATM    2  C2  UNL     1     -41.380   8.208  -0.798  1.00 20.00     0.003 A 
HETATM    3  C3  UNL     1     -42.304   7.015   1.089  1.00 20.00     0.039 A 
HETATM    4  C4  UNL     1     -41.191   7.000  -1.469  1.00 20.00     0.039 A 
HETATM    5  C5  UNL     1     -42.115   5.807   0.419  1.00 20.00     0.099 A 
HETATM    6  C6  UNL     1     -41.559   5.799  -0.861  1.00 20.00     0.101 A 
ENDROOT
BRANCH   6   7
HETATM    7  O10 UNL     1     -41.370   4.626  -1.527  1.00 20.00    -0.349 OA
BRANCH   7   8
HETATM    8  C8  UNL     1     -42.476   4.113  -2.265  1.00 20.00     0.171 C 
HETATM    9  C7  UNL     1     -41.981   3.047  -3.219  1.00 20.00     0.034 C 
ENDBRANCH   7   8
ENDBRANCH   6   7
BRANCH   5  10
HETATM   10  O9  UNL     1     -42.479   4.642   1.022  1.00 20.00    -0.358 OA
HETATM   11  H20 UNL     1     -42.512   4.759   1.985  1.00 20.00     0.217 HD
ENDBRANCH   5  10
TORSDOF 3
ENDMDL
MODEL 9
REMARK VINA RESULT:      -4.0     11.769     12.779
REMARK  3 active torsions:
REMARK  status: ('A' for Active; 'I' for Inactive)
REMARK    1  A    between atoms: C5_5  and  O9_9 
REMARK    2  A    between atoms: C6_6  and  O10_10 
REMARK    3  A    between atoms: C8_8  and  O10_10 
ROOT
HETATM    1  C1  UNL     1     -34.032  15.759  -2.744  1.00 20.00     0.003 A 
HETATM    2  C2  UNL     1     -35.419  15.801  -2.888  1.00 20.00     0.003 A 
HETATM    3  C3  UNL     1     -33.233  15.340  -3.807  1.00 20.00     0.039 A 
HETATM    4  C4  UNL     1     -36.006  15.424  -4.095  1.00 20.00     0.039 A 
HETATM    5  C5  UNL     1     -33.819  14.964  -5.015  1.00 20.00     0.099 A 
HETATM    6  C6  UNL     1     -35.206  15.005  -5.159  1.00 20.00     0.101 A 
ENDROOT
BRANCH   6   7
HETATM    7  O10 UNL     1     -35.792  14.639  -6.333  1.00 20.00    -0.349 OA
BRANCH   7   8
HETATM    8  C8  UNL     1     -36.461  15.660  -7.071  1.00 20.00     0.171 C 
HETATM    9  C7  UNL     1     -35.447  16.412  -7.905  1.00 20.00     0.034 C 
ENDBRANCH   7   8
ENDBRANCH   6   7
BRANCH   5  10
HETATM   10  O9  UNL     1     -33.028  14.556  -6.046  1.00 20.00    -0.358 OA
HETATM   11  H20 UNL     1     -33.372  14.897  -6.887  1.00 20.00     0.217 HD
ENDBRANCH   5  10
TORSDOF 3
ENDMDL
