MODEL 1
REMARK VINA RESULT:      -5.6      0.000      0.000
REMARK  2 active torsions:
REMARK  status: ('A' for Active; 'I' for Inactive)
REMARK    1  A    between atoms: C6_6  and  C9_9 
REMARK    2  A    between atoms: C9_9  and  C10_10 
ROOT
HETATM    1  C1  UNL     1     -34.884   5.348   5.385  1.00 20.00     0.000 A 
HETATM    2  C2  UNL     1     -34.708   4.909   4.073  1.00 20.00     0.001 A 
HETATM    3  C3  UNL     1     -34.191   6.466   5.846  1.00 20.00     0.001 A 
HETATM    4  C4  UNL     1     -33.838   5.589   3.222  1.00 20.00     0.007 A 
HETATM    5  C5  UNL     1     -33.320   7.147   4.994  1.00 20.00     0.007 A 
HETATM    6  C6  UNL     1     -33.144   6.708   3.682  1.00 20.00    -0.058 A 
ENDROOT
BRANCH   6   7
HETATM    7  C9  UNL     1     -32.201   7.444   2.761  1.00 20.00     0.042 C 
BRANCH   7   8
HETATM    8  C10 UNL     1     -32.849   7.893   1.436  1.00 20.00    -0.019 C 
HETATM    9  C7  UNL     1     -33.161   9.393   1.429  1.00 20.00     0.010 C 
HETATM   10  C8  UNL     1     -31.923   7.555   0.265  1.00 20.00     0.010 C 
ENDBRANCH   7   8
ENDBRANCH   6   7
TORSDOF 2
ENDMDL
MODEL 2
REMARK VINA RESULT:      -5.6      0.005      1.528
REMARK  2 active torsions:
REMARK  status: ('A' for Active; 'I' for Inactive)
REMARK    1  A    between atoms: C6_6  and  C9_9 
REMARK    2  A    between atoms: C9_9  and  C10_10 
ROOT
HETATM    1  C1  UNL     1     -34.887   5.353   5.383  1.00 20.00     0.000 A 
HETATM    2  C2  UNL     1     -34.192   6.471   5.843  1.00 20.00     0.001 A 
HETATM    3  C3  UNL     1     -34.711   4.911   4.073  1.00 20.00     0.001 A 
HETATM    4  C4  UNL     1     -33.320   7.148   4.991  1.00 20.00     0.007 A 
HETATM    5  C5  UNL     1     -33.838   5.588   3.221  1.00 20.00     0.007 A 
HETATM    6  C6  UNL     1     -33.143   6.707   3.680  1.00 20.00    -0.058 A 
ENDROOT
BRANCH   6   7
HETATM    7  C9  UNL     1     -32.199   7.440   2.757  1.00 20.00     0.042 C 
BRANCH   7   8
HETATM    8  C10 UNL     1     -32.847   7.890   1.433  1.00 20.00    -0.019 C 
HETATM    9  C7  UNL     1     -33.159   9.389   1.427  1.00 20.00     0.010 C 
HETATM   10  C8  UNL     1     -31.921   7.552   0.262  1.00 20.00     0.010 C 
ENDBRANCH   7   8
ENDBRANCH   6   7
TORSDOF 2
ENDMDL
MODEL 3
REMARK VINA RESULT:      -4.7     10.849     11.593
REMARK  2 active torsions:
REMARK  status: ('A' for Active; 'I' for Inactive)
REMARK    1  A    between atoms: C6_6  and  C9_9 
REMARK    2  A    between atoms: C9_9  and  C10_10 
ROOT
HETATM    1  C1  UNL     1     -33.986  17.780  -0.954  1.00 20.00     0.000 A 
HETATM    2  C2  UNL     1     -32.909  17.639  -1.829  1.00 20.00     0.001 A 
HETATM    3  C3  UNL     1     -35.091  16.938  -1.066  1.00 20.00     0.001 A 
HETATM    4  C4  UNL     1     -32.939  16.656  -2.817  1.00 20.00     0.007 A 
HETATM    5  C5  UNL     1     -35.121  15.954  -2.054  1.00 20.00     0.007 A 
HETATM    6  C6  UNL     1     -34.045  15.813  -2.930  1.00 20.00    -0.058 A 
ENDROOT
BRANCH   6   7
HETATM    7  C9  UNL     1     -34.077  14.748  -4.000  1.00 20.00     0.042 C 
BRANCH   7   8
HETATM    8  C10 UNL     1     -35.300  14.841  -4.934  1.00 20.00    -0.019 C 
HETATM    9  C7  UNL     1     -34.893  14.898  -6.409  1.00 20.00     0.010 C 
HETATM   10  C8  UNL     1     -36.222  13.642  -4.700  1.00 20.00     0.010 C 
ENDBRANCH   7   8
ENDBRANCH   6   7
TORSDOF 2
ENDMDL
MODEL 4
REMARK VINA RESULT:      -4.7     10.839     11.569
REMARK  2 active torsions:
REMARK  status: ('A' for Active; 'I' for Inactive)
REMARK    1  A    between atoms: C6_6  and  C9_9 
REMARK    2  A    between atoms: C9_9  and  C10_10 
ROOT
HETATM    1  C1  UNL     1     -34.022  17.822  -0.875  1.00 20.00     0.000 A 
HETATM    2  C2  UNL     1     -35.119  16.970  -1.004  1.00 20.00     0.001 A 
HETATM    3  C3  UNL     1     -32.934  17.694  -1.737  1.00 20.00     0.001 A 
HETATM    4  C4  UNL     1     -35.127  15.990  -1.996  1.00 20.00     0.007 A 
HETATM    5  C5  UNL     1     -32.942  16.713  -2.730  1.00 20.00     0.007 A 
HETATM    6  C6  UNL     1     -34.039  15.861  -2.859  1.00 20.00    -0.058 A 
ENDROOT
BRANCH   6   7
HETATM    7  C9  UNL     1     -34.048  14.800  -3.933  1.00 20.00     0.042 C 
BRANCH   7   8
HETATM    8  C10 UNL     1     -35.265  14.877  -4.875  1.00 20.00    -0.019 C 
HETATM    9  C7  UNL     1     -34.848  14.961  -6.346  1.00 20.00     0.010 C 
HETATM   10  C8  UNL     1     -36.162  13.654  -4.663  1.00 20.00     0.010 C 
ENDBRANCH   7   8
ENDBRANCH   6   7
TORSDOF 2
ENDMDL
MODEL 5
REMARK VINA RESULT:      -4.4     10.891     11.948
REMARK  2 active torsions:
REMARK  status: ('A' for Active; 'I' for Inactive)
REMARK    1  A    between atoms: C6_6  and  C9_9 
REMARK    2  A    between atoms: C9_9  and  C10_10 
ROOT
HETATM    1  C1  UNL     1     -34.392  15.322  -3.231  1.00 20.00     0.000 A 
HETATM    2  C2  UNL     1     -33.158  15.953  -3.392  1.00 20.00     0.001 A 
HETATM    3  C3  UNL     1     -35.281  15.767  -2.254  1.00 20.00     0.001 A 
HETATM    4  C4  UNL     1     -32.814  17.029  -2.575  1.00 20.00     0.007 A 
HETATM    5  C5  UNL     1     -34.937  16.845  -1.437  1.00 20.00     0.007 A 
HETATM    6  C6  UNL     1     -33.704  17.475  -1.597  1.00 20.00    -0.058 A 
ENDROOT
BRANCH   6   7
HETATM    7  C9  UNL     1     -33.331  18.641  -0.712  1.00 20.00     0.042 C 
BRANCH   7   8
HETATM    8  C10 UNL     1     -32.377  18.268   0.439  1.00 20.00    -0.019 C 
HETATM    9  C7  UNL     1     -30.953  18.774   0.191  1.00 20.00     0.010 C 
HETATM   10  C8  UNL     1     -32.905  18.842   1.756  1.00 20.00     0.010 C 
ENDBRANCH   7   8
ENDBRANCH   6   7
TORSDOF 2
ENDMDL
MODEL 6
REMARK VINA RESULT:      -4.4     10.681     11.844
REMARK  2 active torsions:
REMARK  status: ('A' for Active; 'I' for Inactive)
REMARK    1  A    between atoms: C6_6  and  C9_9 
REMARK    2  A    between atoms: C9_9  and  C10_10 
ROOT
HETATM    1  C1  UNL     1     -34.672  14.423  -3.753  1.00 20.00     0.000 A 
HETATM    2  C2  UNL     1     -35.322  15.235  -2.823  1.00 20.00     0.001 A 
HETATM    3  C3  UNL     1     -33.400  14.765  -4.209  1.00 20.00     0.001 A 
HETATM    4  C4  UNL     1     -34.698  16.389  -2.349  1.00 20.00     0.007 A 
HETATM    5  C5  UNL     1     -32.776  15.920  -3.736  1.00 20.00     0.007 A 
HETATM    6  C6  UNL     1     -33.425  16.731  -2.806  1.00 20.00    -0.058 A 
ENDROOT
BRANCH   6   7
HETATM    7  C9  UNL     1     -32.750  17.981  -2.294  1.00 20.00     0.042 C 
BRANCH   7   8
HETATM    8  C10 UNL     1     -32.607  18.028  -0.761  1.00 20.00    -0.019 C 
HETATM    9  C7  UNL     1     -31.170  18.332  -0.327  1.00 20.00     0.010 C 
HETATM   10  C8  UNL     1     -33.552  19.085  -0.184  1.00 20.00     0.010 C 
ENDBRANCH   7   8
ENDBRANCH   6   7
TORSDOF 2
ENDMDL
MODEL 7
REMARK VINA RESULT:      -4.3     10.996     11.877
REMARK  2 active torsions:
REMARK  status: ('A' for Active; 'I' for Inactive)
REMARK    1  A    between atoms: C6_6  and  C9_9 
REMARK    2  A    between atoms: C9_9  and  C10_10 
ROOT
HETATM    1  C1  UNL     1     -34.242  17.612  -0.762  1.00 20.00     0.000 A 
HETATM    2  C2  UNL     1     -33.063  17.756  -1.492  1.00 20.00     0.001 A 
HETATM    3  C3  UNL     1     -35.203  16.686  -1.162  1.00 20.00     0.001 A 
HETATM    4  C4  UNL     1     -32.845  16.971  -2.624  1.00 20.00     0.007 A 
HETATM    5  C5  UNL     1     -34.985  15.901  -2.296  1.00 20.00     0.007 A 
HETATM    6  C6  UNL     1     -33.806  16.044  -3.026  1.00 20.00    -0.058 A 
ENDROOT
BRANCH   6   7
HETATM    7  C9  UNL     1     -33.571  15.195  -4.253  1.00 20.00     0.042 C 
BRANCH   7   8
HETATM    8  C10 UNL     1     -34.464  15.571  -5.451  1.00 20.00    -0.019 C 
HETATM    9  C7  UNL     1     -34.604  17.088  -5.608  1.00 20.00     0.010 C 
HETATM   10  C8  UNL     1     -33.886  14.972  -6.736  1.00 20.00     0.010 C 
ENDBRANCH   7   8
ENDBRANCH   6   7
TORSDOF 2
ENDMDL
MODEL 8
REMARK VINA RESULT:      -4.3     11.281     11.912
REMARK  2 active torsions:
REMARK  status: ('A' for Active; 'I' for Inactive)
REMARK    1  A    between atoms: C6_6  and  C9_9 
REMARK    2  A    between atoms: C9_9  and  C10_10 
ROOT
HETATM    1  C1  UNL     1     -31.596  18.593   1.784  1.00 20.00     0.000 A 
HETATM    2  C2  UNL     1     -30.765  18.439   0.674  1.00 20.00     0.001 A 
HETATM    3  C3  UNL     1     -32.979  18.505   1.639  1.00 20.00     0.001 A 
HETATM    4  C4  UNL     1     -31.320  18.196  -0.582  1.00 20.00     0.007 A 
HETATM    5  C5  UNL     1     -33.534  18.262   0.382  1.00 20.00     0.007 A 
HETATM    6  C6  UNL     1     -32.705  18.108  -0.729  1.00 20.00    -0.058 A 
ENDROOT
BRANCH   6   7
HETATM    7  C9  UNL     1     -33.305  17.846  -2.089  1.00 20.00     0.042 C 
BRANCH   7   8
HETATM    8  C10 UNL     1     -33.780  16.394  -2.291  1.00 20.00    -0.019 C 
HETATM    9  C7  UNL     1     -35.307  16.284  -2.299  1.00 20.00     0.010 C 
HETATM   10  C8  UNL     1     -33.218  15.844  -3.605  1.00 20.00     0.010 C 
ENDBRANCH   7   8
ENDBRANCH   6   7
TORSDOF 2
ENDMDL
MODEL 9
REMARK VINA RESULT:      -4.3     10.707     11.621
REMARK  2 active torsions:
REMARK  status: ('A' for Active; 'I' for Inactive)
REMARK    1  A    between atoms: C6_6  and  C9_9 
REMARK    2  A    between atoms: C9_9  and  C10_10 
ROOT
HETATM    1  C1  UNL     1     -34.005  14.496  -4.201  1.00 20.00     0.000 A 
HETATM    2  C2  UNL     1     -35.203  14.662  -3.505  1.00 20.00     0.001 A 
HETATM    3  C3  UNL     1     -32.929  15.346  -3.952  1.00 20.00     0.001 A 
HETATM    4  C4  UNL     1     -35.323  15.681  -2.559  1.00 20.00     0.007 A 
HETATM    5  C5  UNL     1     -33.050  16.365  -3.005  1.00 20.00     0.007 A 
HETATM    6  C6  UNL     1     -34.246  16.532  -2.310  1.00 20.00    -0.058 A 
ENDROOT
BRANCH   6   7
HETATM    7  C9  UNL     1     -34.377  17.635  -1.286  1.00 20.00     0.042 C 
BRANCH   7   8
HETATM    8  C10 UNL     1     -35.317  17.289  -0.115  1.00 20.00    -0.019 C 
HETATM    9  C7  UNL     1     -34.714  17.676   1.238  1.00 20.00     0.010 C 
HETATM   10  C8  UNL     1     -36.660  17.999  -0.302  1.00 20.00     0.010 C 
ENDBRANCH   7   8
ENDBRANCH   6   7
TORSDOF 2
ENDMDL
