MODEL 1
REMARK VINA RESULT:      -3.1      0.000      0.000
REMARK  0 active torsions:
REMARK  status: ('A' for Active; 'I' for Inactive)
ROOT
HETATM    1  C1  UNL     1     -33.909   6.679   5.844  1.00 20.00     0.021 C 
HETATM    2  C2  UNL     1     -34.806   4.735   4.521  1.00 20.00     0.021 C 
HETATM    3  C3  UNL     1     -34.441   6.216   4.491  1.00 20.00     0.045 C 
HETATM    4  I4  UNL     1     -32.954   6.569   2.967  1.00 20.00    -0.086 I 
ENDROOT
TORSDOF 0
ENDMDL
MODEL 2
REMARK VINA RESULT:      -2.8      2.443      3.105
REMARK  0 active torsions:
REMARK  status: ('A' for Active; 'I' for Inactive)
ROOT
HETATM    1  C1  UNL     1     -33.185   4.545   2.415  1.00 20.00     0.021 C 
HETATM    2  C2  UNL     1     -32.789   6.906   3.193  1.00 20.00     0.021 C 
HETATM    3  C3  UNL     1     -33.819   5.793   3.024  1.00 20.00     0.045 C 
HETATM    4  I4  UNL     1     -34.686   5.306   4.939  1.00 20.00    -0.086 I 
ENDROOT
TORSDOF 0
ENDMDL
MODEL 3
REMARK VINA RESULT:      -2.6      8.714      9.047
REMARK  0 active torsions:
REMARK  status: ('A' for Active; 'I' for Inactive)
ROOT
HETATM    1  C1  UNL     1     -41.003   5.593  -1.009  1.00 20.00     0.021 C 
HETATM    2  C2  UNL     1     -42.608   5.593   0.929  1.00 20.00     0.021 C 
HETATM    3  C3  UNL     1     -41.371   6.246   0.320  1.00 20.00     0.045 C 
HETATM    4  I4  UNL     1     -41.733   8.352   0.019  1.00 20.00    -0.086 I 
ENDROOT
TORSDOF 0
ENDMDL
MODEL 4
REMARK VINA RESULT:      -2.5      1.909      2.561
REMARK  0 active torsions:
REMARK  status: ('A' for Active; 'I' for Inactive)
ROOT
HETATM    1  C1  UNL     1     -32.772   6.827   3.253  1.00 20.00     0.021 C 
HETATM    2  C2  UNL     1     -33.409   7.192   5.660  1.00 20.00     0.021 C 
HETATM    3  C3  UNL     1     -33.907   6.798   4.272  1.00 20.00     0.045 C 
HETATM    4  I4  UNL     1     -34.766   4.819   4.344  1.00 20.00    -0.086 I 
ENDROOT
TORSDOF 0
ENDMDL
MODEL 5
REMARK VINA RESULT:      -2.5      8.984      9.136
REMARK  0 active torsions:
REMARK  status: ('A' for Active; 'I' for Inactive)
ROOT
HETATM    1  C1  UNL     1     -41.387   7.926   0.129  1.00 20.00     0.021 C 
HETATM    2  C2  UNL     1     -40.986   5.692  -0.958  1.00 20.00     0.021 C 
HETATM    3  C3  UNL     1     -41.329   6.416   0.341  1.00 20.00     0.045 C 
HETATM    4  I4  UNL     1     -43.230   5.715   1.083  1.00 20.00    -0.086 I 
ENDROOT
TORSDOF 0
ENDMDL
MODEL 6
REMARK VINA RESULT:      -2.4      9.051      9.221
REMARK  0 active torsions:
REMARK  status: ('A' for Active; 'I' for Inactive)
ROOT
HETATM    1  C1  UNL     1     -42.548   5.511   0.981  1.00 20.00     0.021 C 
HETATM    2  C2  UNL     1     -40.958   5.547  -0.970  1.00 20.00     0.021 C 
HETATM    3  C3  UNL     1     -42.173   6.207  -0.325  1.00 20.00     0.045 C 
HETATM    4  I4  UNL     1     -41.753   8.289   0.057  1.00 20.00    -0.086 I 
ENDROOT
TORSDOF 0
ENDMDL
MODEL 7
REMARK VINA RESULT:      -2.4      9.022      9.379
REMARK  0 active torsions:
REMARK  status: ('A' for Active; 'I' for Inactive)
ROOT
HETATM    1  C1  UNL     1     -43.406   7.199   1.062  1.00 20.00     0.021 C 
HETATM    2  C2  UNL     1     -41.663   8.791   0.190  1.00 20.00     0.021 C 
HETATM    3  C3  UNL     1     -41.931   7.385   0.720  1.00 20.00     0.045 C 
HETATM    4  I4  UNL     1     -41.340   5.927  -0.758  1.00 20.00    -0.086 I 
ENDROOT
TORSDOF 0
ENDMDL
MODEL 8
REMARK VINA RESULT:      -2.4     16.073     16.925
REMARK  0 active torsions:
REMARK  status: ('A' for Active; 'I' for Inactive)
ROOT
HETATM    1  C1  UNL     1     -22.656  17.752  12.304  1.00 20.00     0.021 C 
HETATM    2  C2  UNL     1     -24.337  16.307  11.111  1.00 20.00     0.021 C 
HETATM    3  C3  UNL     1     -23.541  17.608  11.069  1.00 20.00     0.045 C 
HETATM    4  I4  UNL     1     -22.317  17.655   9.291  1.00 20.00    -0.086 I 
ENDROOT
TORSDOF 0
ENDMDL
MODEL 9
REMARK VINA RESULT:      -2.3     16.236     16.814
REMARK  0 active torsions:
REMARK  status: ('A' for Active; 'I' for Inactive)
ROOT
HETATM    1  C1  UNL     1     -22.645  17.784  12.311  1.00 20.00     0.021 C 
HETATM    2  C2  UNL     1     -23.505  16.901  10.117  1.00 20.00     0.021 C 
HETATM    3  C3  UNL     1     -23.548  16.756  11.635  1.00 20.00     0.045 C 
HETATM    4  I4  UNL     1     -25.575  16.999  12.332  1.00 20.00    -0.086 I 
ENDROOT
TORSDOF 0
ENDMDL
