MODEL 1
REMARK VINA RESULT:      -3.1      0.000      0.000
REMARK  3 active torsions:
REMARK  status: ('A' for Active; 'I' for Inactive)
REMARK    1  A    between atoms: C3_3  and  S5_5 
REMARK    2  A    between atoms: C4_4  and  S6_6 
REMARK    3  A    between atoms: S5_5  and  S6_6 
ROOT
HETATM    1  S5  UNL     1     -33.167   5.047   2.441  1.00 20.00    -0.098 SA
ENDROOT
BRANCH   1   2
HETATM    2  C3  UNL     1     -32.741   6.733   2.939  1.00 20.00     0.081 C 
HETATM    3  C1  UNL     1     -32.504   7.605   1.721  1.00 20.00     0.017 C 
ENDBRANCH   1   2
BRANCH   1   4
HETATM    4  S6  UNL     1     -34.329   4.425   4.020  1.00 20.00    -0.098 SA
BRANCH   4   5
HETATM    5  C4  UNL     1     -34.872   6.001   4.720  1.00 20.00     0.081 C 
HETATM    6  C2  UNL     1     -34.378   6.149   6.147  1.00 20.00     0.017 C 
ENDBRANCH   4   5
ENDBRANCH   1   4
TORSDOF 3
ENDMDL
MODEL 2
REMARK VINA RESULT:      -3.0      0.107      3.555
REMARK  3 active torsions:
REMARK  status: ('A' for Active; 'I' for Inactive)
REMARK    1  A    between atoms: C3_3  and  S5_5 
REMARK    2  A    between atoms: C4_4  and  S6_6 
REMARK    3  A    between atoms: S5_5  and  S6_6 
ROOT
HETATM    1  S5  UNL     1     -34.391   4.548   4.000  1.00 20.00    -0.098 SA
ENDROOT
BRANCH   1   2
HETATM    2  C3  UNL     1     -34.791   6.151   4.736  1.00 20.00     0.081 C 
HETATM    3  C1  UNL     1     -34.324   6.206   6.178  1.00 20.00     0.017 C 
ENDBRANCH   1   2
BRANCH   1   4
HETATM    4  S6  UNL     1     -33.191   5.099   2.423  1.00 20.00    -0.098 SA
BRANCH   4   5
HETATM    5  C4  UNL     1     -32.706   6.774   2.899  1.00 20.00     0.081 C 
HETATM    6  C2  UNL     1     -32.482   7.634   1.669  1.00 20.00     0.017 C 
ENDBRANCH   4   5
ENDBRANCH   1   4
TORSDOF 3
ENDMDL
MODEL 3
REMARK VINA RESULT:      -3.0      1.291      1.736
REMARK  3 active torsions:
REMARK  status: ('A' for Active; 'I' for Inactive)
REMARK    1  A    between atoms: C3_3  and  S5_5 
REMARK    2  A    between atoms: C4_4  and  S6_6 
REMARK    3  A    between atoms: S5_5  and  S6_6 
ROOT
HETATM    1  S5  UNL     1     -32.588   7.115   2.847  1.00 20.00    -0.098 SA
ENDROOT
BRANCH   1   2
HETATM    2  C3  UNL     1     -32.396   7.626   1.123  1.00 20.00     0.081 C 
HETATM    3  C1  UNL     1     -32.972   9.013   0.911  1.00 20.00     0.017 C 
ENDBRANCH   1   2
BRANCH   1   4
HETATM    4  S6  UNL     1     -33.342   5.212   2.638  1.00 20.00    -0.098 SA
BRANCH   4   5
HETATM    5  C4  UNL     1     -34.569   5.155   3.966  1.00 20.00     0.081 C 
HETATM    6  C2  UNL     1     -34.290   6.234   4.995  1.00 20.00     0.017 C 
ENDBRANCH   4   5
ENDBRANCH   1   4
TORSDOF 3
ENDMDL
MODEL 4
REMARK VINA RESULT:      -3.0      1.276      3.949
REMARK  3 active torsions:
REMARK  status: ('A' for Active; 'I' for Inactive)
REMARK    1  A    between atoms: C3_3  and  S5_5 
REMARK    2  A    between atoms: C4_4  and  S6_6 
REMARK    3  A    between atoms: S5_5  and  S6_6 
ROOT
HETATM    1  S5  UNL     1     -33.344   5.199   2.676  1.00 20.00    -0.098 SA
ENDROOT
BRANCH   1   2
HETATM    2  C3  UNL     1     -34.596   5.172   3.981  1.00 20.00     0.081 C 
HETATM    3  C1  UNL     1     -34.307   6.238   5.020  1.00 20.00     0.017 C 
ENDBRANCH   1   2
BRANCH   1   4
HETATM    4  S6  UNL     1     -32.589   7.103   2.861  1.00 20.00    -0.098 SA
BRANCH   4   5
HETATM    5  C4  UNL     1     -32.414   7.598   1.130  1.00 20.00     0.081 C 
HETATM    6  C2  UNL     1     -32.958   8.998   0.919  1.00 20.00     0.017 C 
ENDBRANCH   4   5
ENDBRANCH   1   4
TORSDOF 3
ENDMDL
MODEL 5
REMARK VINA RESULT:      -2.8     16.612     16.825
REMARK  3 active torsions:
REMARK  status: ('A' for Active; 'I' for Inactive)
REMARK    1  A    between atoms: C3_3  and  S5_5 
REMARK    2  A    between atoms: C4_4  and  S6_6 
REMARK    3  A    between atoms: S5_5  and  S6_6 
ROOT
HETATM    1  S5  UNL     1     -24.043  17.055  10.199  1.00 20.00    -0.098 SA
ENDROOT
BRANCH   1   2
HETATM    2  C3  UNL     1     -22.504  17.817  10.766  1.00 20.00     0.081 C 
HETATM    3  C1  UNL     1     -22.372  17.694  12.272  1.00 20.00     0.017 C 
ENDBRANCH   1   2
BRANCH   1   4
HETATM    4  S6  UNL     1     -24.696  16.109  11.905  1.00 20.00    -0.098 SA
BRANCH   4   5
HETATM    5  C4  UNL     1     -26.184  17.056  12.304  1.00 20.00     0.081 C 
HETATM    6  C2  UNL     1     -25.953  18.536  12.068  1.00 20.00     0.017 C 
ENDBRANCH   4   5
ENDBRANCH   1   4
TORSDOF 3
ENDMDL
MODEL 6
REMARK VINA RESULT:      -2.7     16.715     17.241
REMARK  3 active torsions:
REMARK  status: ('A' for Active; 'I' for Inactive)
REMARK    1  A    between atoms: C3_3  and  S5_5 
REMARK    2  A    between atoms: C4_4  and  S6_6 
REMARK    3  A    between atoms: S5_5  and  S6_6 
ROOT
HETATM    1  S5  UNL     1     -24.471  16.254  11.516  1.00 20.00    -0.098 SA
ENDROOT
BRANCH   1   2
HETATM    2  C3  UNL     1     -25.876  17.050  12.331  1.00 20.00     0.081 C 
HETATM    3  C1  UNL     1     -25.846  18.549  12.101  1.00 20.00     0.017 C 
ENDBRANCH   1   2
BRANCH   1   4
HETATM    4  S6  UNL     1     -22.947  17.574  11.925  1.00 20.00    -0.098 SA
BRANCH   4   5
HETATM    5  C4  UNL     1     -22.235  17.833  10.282  1.00 20.00     0.081 C 
HETATM    6  C2  UNL     1     -23.196  18.608   9.402  1.00 20.00     0.017 C 
ENDBRANCH   4   5
ENDBRANCH   1   4
TORSDOF 3
ENDMDL
MODEL 7
REMARK VINA RESULT:      -2.6     16.818     17.396
REMARK  3 active torsions:
REMARK  status: ('A' for Active; 'I' for Inactive)
REMARK    1  A    between atoms: C3_3  and  S5_5 
REMARK    2  A    between atoms: C4_4  and  S6_6 
REMARK    3  A    between atoms: S5_5  and  S6_6 
ROOT
HETATM    1  S5  UNL     1     -23.216  17.761  11.930  1.00 20.00    -0.098 SA
ENDROOT
BRANCH   1   2
HETATM    2  C3  UNL     1     -24.961  17.503  12.330  1.00 20.00     0.081 C 
HETATM    3  C1  UNL     1     -25.779  18.723  11.953  1.00 20.00     0.017 C 
ENDBRANCH   1   2
BRANCH   1   4
HETATM    4  S6  UNL     1     -23.155  17.210   9.949  1.00 20.00    -0.098 SA
BRANCH   4   5
HETATM    5  C4  UNL     1     -22.995  18.812   9.127  1.00 20.00     0.081 C 
HETATM    6  C2  UNL     1     -24.330  19.257   8.562  1.00 20.00     0.017 C 
ENDBRANCH   4   5
ENDBRANCH   1   4
TORSDOF 3
ENDMDL
MODEL 8
REMARK VINA RESULT:      -2.6     11.804     12.451
REMARK  3 active torsions:
REMARK  status: ('A' for Active; 'I' for Inactive)
REMARK    1  A    between atoms: C3_3  and  S5_5 
REMARK    2  A    between atoms: C4_4  and  S6_6 
REMARK    3  A    between atoms: S5_5  and  S6_6 
ROOT
HETATM    1  S5  UNL     1     -34.442  15.391  -5.947  1.00 20.00    -0.098 SA
ENDROOT
BRANCH   1   2
HETATM    2  C3  UNL     1     -35.947  14.391  -5.870  1.00 20.00     0.081 C 
HETATM    3  C1  UNL     1     -36.069  13.715  -4.518  1.00 20.00     0.017 C 
ENDBRANCH   1   2
BRANCH   1   4
HETATM    4  S6  UNL     1     -33.362  14.644  -4.363  1.00 20.00    -0.098 SA
BRANCH   4   5
HETATM    5  C4  UNL     1     -33.226  16.097  -3.294  1.00 20.00     0.081 C 
HETATM    6  C2  UNL     1     -34.374  16.138  -2.303  1.00 20.00     0.017 C 
ENDBRANCH   4   5
ENDBRANCH   1   4
TORSDOF 3
ENDMDL
MODEL 9
REMARK VINA RESULT:      -2.6     11.790     12.479
REMARK  3 active torsions:
REMARK  status: ('A' for Active; 'I' for Inactive)
REMARK    1  A    between atoms: C3_3  and  S5_5 
REMARK    2  A    between atoms: C4_4  and  S6_6 
REMARK    3  A    between atoms: S5_5  and  S6_6 
ROOT
HETATM    1  S5  UNL     1     -33.323  14.577  -4.397  1.00 20.00    -0.098 SA
ENDROOT
BRANCH   1   2
HETATM    2  C3  UNL     1     -33.261  16.113  -3.445  1.00 20.00     0.081 C 
HETATM    3  C1  UNL     1     -34.315  16.107  -2.354  1.00 20.00     0.017 C 
ENDBRANCH   1   2
BRANCH   1   4
HETATM    4  S6  UNL     1     -34.364  15.163  -6.072  1.00 20.00    -0.098 SA
BRANCH   4   5
HETATM    5  C4  UNL     1     -36.062  14.743  -5.615  1.00 20.00     0.081 C 
HETATM    6  C2  UNL     1     -36.076  13.663  -4.550  1.00 20.00     0.017 C 
ENDBRANCH   4   5
ENDBRANCH   1   4
TORSDOF 3
ENDMDL
