MODEL 1
REMARK VINA RESULT:      -6.0      0.000      0.000
REMARK  4 active torsions:
REMARK  status: ('A' for Active; 'I' for Inactive)
REMARK    1  A    between atoms: C6_6  and  C7_7 
REMARK    2  A    between atoms: C7_7  and  C8_8 
REMARK    3  A    between atoms: C8_8  and  C9_9 
REMARK    4  A    between atoms: C9_9  and  O10_10 
ROOT
HETATM    1  C1  UNL     1     -34.779   5.077   5.757  1.00 20.00     0.000 C 
HETATM    2  C2  UNL     1     -35.023   4.903   4.262  1.00 20.00     0.000 C 
HETATM    3  C3  UNL     1     -34.405   6.516   6.100  1.00 20.00     0.000 C 
HETATM    4  C4  UNL     1     -33.832   5.382   3.436  1.00 20.00     0.004 C 
HETATM    5  C5  UNL     1     -33.212   6.998   5.277  1.00 20.00     0.004 C 
HETATM    6  C6  UNL     1     -33.458   6.832   3.772  1.00 20.00    -0.014 C 
ENDROOT
BRANCH   6   7
HETATM    7  C7  UNL     1     -32.231   7.272   2.974  1.00 20.00     0.007 C 
BRANCH   7   8
HETATM    8  C8  UNL     1     -32.529   7.310   1.480  1.00 20.00     0.026 C 
BRANCH   8   9
HETATM    9  C9  UNL     1     -32.864   8.720   1.016  1.00 20.00     0.164 C 
BRANCH   9  10
HETATM   10  O10 UNL     1     -33.422   8.653  -0.289  1.00 20.00    -0.401 OA
HETATM   11  H28 UNL     1     -33.927   9.472  -0.421  1.00 20.00     0.209 HD
ENDBRANCH   9  10
ENDBRANCH   8   9
ENDBRANCH   7   8
ENDBRANCH   6   7
TORSDOF 4
ENDMDL
MODEL 2
REMARK VINA RESULT:      -5.5      0.581      1.686
REMARK  4 active torsions:
REMARK  status: ('A' for Active; 'I' for Inactive)
REMARK    1  A    between atoms: C6_6  and  C7_7 
REMARK    2  A    between atoms: C7_7  and  C8_8 
REMARK    3  A    between atoms: C8_8  and  C9_9 
REMARK    4  A    between atoms: C9_9  and  O10_10 
ROOT
HETATM    1  C1  UNL     1     -35.156   5.024   4.848  1.00 20.00     0.000 C 
HETATM    2  C2  UNL     1     -34.373   6.000   5.720  1.00 20.00     0.000 C 
HETATM    3  C3  UNL     1     -34.288   4.442   3.736  1.00 20.00     0.000 C 
HETATM    4  C4  UNL     1     -33.721   7.101   4.887  1.00 20.00     0.004 C 
HETATM    5  C5  UNL     1     -33.636   5.541   2.900  1.00 20.00     0.004 C 
HETATM    6  C6  UNL     1     -32.839   6.521   3.772  1.00 20.00    -0.014 C 
ENDROOT
BRANCH   6   7
HETATM    7  C7  UNL     1     -32.242   7.639   2.920  1.00 20.00     0.007 C 
BRANCH   7   8
HETATM    8  C8  UNL     1     -32.557   7.436   1.443  1.00 20.00     0.026 C 
BRANCH   8   9
HETATM    9  C9  UNL     1     -32.856   8.758   0.751  1.00 20.00     0.164 C 
BRANCH   9  10
HETATM   10  O10 UNL     1     -33.578   8.497  -0.444  1.00 20.00    -0.401 OA
HETATM   11  H28 UNL     1     -33.188   7.700  -0.840  1.00 20.00     0.209 HD
ENDBRANCH   9  10
ENDBRANCH   8   9
ENDBRANCH   7   8
ENDBRANCH   6   7
TORSDOF 4
ENDMDL
MODEL 3
REMARK VINA RESULT:      -4.7     11.015     11.607
REMARK  4 active torsions:
REMARK  status: ('A' for Active; 'I' for Inactive)
REMARK    1  A    between atoms: C6_6  and  C7_7 
REMARK    2  A    between atoms: C7_7  and  C8_8 
REMARK    3  A    between atoms: C8_8  and  C9_9 
REMARK    4  A    between atoms: C9_9  and  O10_10 
ROOT
HETATM    1  C1  UNL     1     -33.847  18.337  -1.026  1.00 20.00     0.000 C 
HETATM    2  C2  UNL     1     -32.634  17.767  -1.755  1.00 20.00     0.000 C 
HETATM    3  C3  UNL     1     -34.839  17.242  -0.646  1.00 20.00     0.000 C 
HETATM    4  C4  UNL     1     -33.044  16.939  -2.970  1.00 20.00     0.004 C 
HETATM    5  C5  UNL     1     -35.253  16.413  -1.860  1.00 20.00     0.004 C 
HETATM    6  C6  UNL     1     -34.036  15.831  -2.591  1.00 20.00    -0.014 C 
ENDROOT
BRANCH   6   7
HETATM    7  C7  UNL     1     -34.473  15.051  -3.830  1.00 20.00     0.007 C 
BRANCH   7   8
HETATM    8  C8  UNL     1     -35.979  14.824  -3.836  1.00 20.00     0.026 C 
BRANCH   8   9
HETATM    9  C9  UNL     1     -36.368  13.698  -4.784  1.00 20.00     0.164 C 
BRANCH   9  10
HETATM   10  O10 UNL     1     -35.920  12.465  -4.239  1.00 20.00    -0.401 OA
HETATM   11  H28 UNL     1     -34.949  12.498  -4.231  1.00 20.00     0.209 HD
ENDBRANCH   9  10
ENDBRANCH   8   9
ENDBRANCH   7   8
ENDBRANCH   6   7
TORSDOF 4
ENDMDL
MODEL 4
REMARK VINA RESULT:      -4.6     10.897     11.666
REMARK  4 active torsions:
REMARK  status: ('A' for Active; 'I' for Inactive)
REMARK    1  A    between atoms: C6_6  and  C7_7 
REMARK    2  A    between atoms: C7_7  and  C8_8 
REMARK    3  A    between atoms: C8_8  and  C9_9 
REMARK    4  A    between atoms: C9_9  and  O10_10 
ROOT
HETATM    1  C1  UNL     1     -33.319  18.148  -0.687  1.00 20.00     0.000 C 
HETATM    2  C2  UNL     1     -34.811  17.837  -0.747  1.00 20.00     0.000 C 
HETATM    3  C3  UNL     1     -32.669  18.051  -2.064  1.00 20.00     0.000 C 
HETATM    4  C4  UNL     1     -35.078  16.481  -1.397  1.00 20.00     0.004 C 
HETATM    5  C5  UNL     1     -32.933  16.695  -2.715  1.00 20.00     0.004 C 
HETATM    6  C6  UNL     1     -34.434  16.382  -2.786  1.00 20.00    -0.014 C 
ENDROOT
BRANCH   6   7
HETATM    7  C7  UNL     1     -34.668  15.000  -3.392  1.00 20.00     0.007 C 
BRANCH   7   8
HETATM    8  C8  UNL     1     -36.134  14.798  -3.756  1.00 20.00     0.026 C 
BRANCH   8   9
HETATM    9  C9  UNL     1     -36.300  13.718  -4.815  1.00 20.00     0.164 C 
BRANCH   9  10
HETATM   10  O10 UNL     1     -35.925  12.466  -4.257  1.00 20.00    -0.401 OA
HETATM   11  H28 UNL     1     -35.228  12.102  -4.827  1.00 20.00     0.209 HD
ENDBRANCH   9  10
ENDBRANCH   8   9
ENDBRANCH   7   8
ENDBRANCH   6   7
TORSDOF 4
ENDMDL
MODEL 5
REMARK VINA RESULT:      -4.6     11.066     11.849
REMARK  4 active torsions:
REMARK  status: ('A' for Active; 'I' for Inactive)
REMARK    1  A    between atoms: C6_6  and  C7_7 
REMARK    2  A    between atoms: C7_7  and  C8_8 
REMARK    3  A    between atoms: C8_8  and  C9_9 
REMARK    4  A    between atoms: C9_9  and  O10_10 
ROOT
HETATM    1  C1  UNL     1     -33.348  18.091  -0.627  1.00 20.00     0.000 C 
HETATM    2  C2  UNL     1     -34.840  17.785  -0.692  1.00 20.00     0.000 C 
HETATM    3  C3  UNL     1     -32.699  18.018  -2.006  1.00 20.00     0.000 C 
HETATM    4  C4  UNL     1     -35.112  16.443  -1.367  1.00 20.00     0.004 C 
HETATM    5  C5  UNL     1     -32.968  16.676  -2.683  1.00 20.00     0.004 C 
HETATM    6  C6  UNL     1     -34.469  16.369  -2.758  1.00 20.00    -0.014 C 
ENDROOT
BRANCH   6   7
HETATM    7  C7  UNL     1     -34.708  14.999  -3.391  1.00 20.00     0.007 C 
BRANCH   7   8
HETATM    8  C8  UNL     1     -33.644  14.679  -4.433  1.00 20.00     0.026 C 
BRANCH   8   9
HETATM    9  C9  UNL     1     -34.123  15.014  -5.838  1.00 20.00     0.164 C 
BRANCH   9  10
HETATM   10  O10 UNL     1     -33.173  14.526  -6.775  1.00 20.00    -0.401 OA
HETATM   11  H28 UNL     1     -32.932  15.274  -7.346  1.00 20.00     0.209 HD
ENDBRANCH   9  10
ENDBRANCH   8   9
ENDBRANCH   7   8
ENDBRANCH   6   7
TORSDOF 4
ENDMDL
MODEL 6
REMARK VINA RESULT:      -4.6     11.217     11.873
REMARK  4 active torsions:
REMARK  status: ('A' for Active; 'I' for Inactive)
REMARK    1  A    between atoms: C6_6  and  C7_7 
REMARK    2  A    between atoms: C7_7  and  C8_8 
REMARK    3  A    between atoms: C8_8  and  C9_9 
REMARK    4  A    between atoms: C9_9  and  O10_10 
ROOT
HETATM    1  C1  UNL     1     -33.780  18.411  -0.988  1.00 20.00     0.000 C 
HETATM    2  C2  UNL     1     -32.634  17.757  -1.752  1.00 20.00     0.000 C 
HETATM    3  C3  UNL     1     -34.805  17.380  -0.523  1.00 20.00     0.000 C 
HETATM    4  C4  UNL     1     -33.142  16.910  -2.916  1.00 20.00     0.004 C 
HETATM    5  C5  UNL     1     -35.317  16.533  -1.686  1.00 20.00     0.004 C 
HETATM    6  C6  UNL     1     -34.167  15.866  -2.452  1.00 20.00    -0.014 C 
ENDROOT
BRANCH   6   7
HETATM    7  C7  UNL     1     -34.701  15.069  -3.641  1.00 20.00     0.007 C 
BRANCH   7   8
HETATM    8  C8  UNL     1     -33.612  14.827  -4.678  1.00 20.00     0.026 C 
BRANCH   8   9
HETATM    9  C9  UNL     1     -34.135  15.031  -6.092  1.00 20.00     0.164 C 
BRANCH   9  10
HETATM   10  O10 UNL     1     -33.180  14.522  -7.013  1.00 20.00    -0.401 OA
HETATM   11  H28 UNL     1     -32.416  14.227  -6.490  1.00 20.00     0.209 HD
ENDBRANCH   9  10
ENDBRANCH   8   9
ENDBRANCH   7   8
ENDBRANCH   6   7
TORSDOF 4
ENDMDL
MODEL 7
REMARK VINA RESULT:      -4.5     11.322     11.962
REMARK  4 active torsions:
REMARK  status: ('A' for Active; 'I' for Inactive)
REMARK    1  A    between atoms: C6_6  and  C7_7 
REMARK    2  A    between atoms: C7_7  and  C8_8 
REMARK    3  A    between atoms: C8_8  and  C9_9 
REMARK    4  A    between atoms: C9_9  and  O10_10 
ROOT
HETATM    1  C1  UNL     1     -34.746  14.685  -4.771  1.00 20.00     0.000 C 
HETATM    2  C2  UNL     1     -35.752  14.802  -3.630  1.00 20.00     0.000 C 
HETATM    3  C3  UNL     1     -33.309  14.779  -4.265  1.00 20.00     0.000 C 
HETATM    4  C4  UNL     1     -35.529  16.071  -2.811  1.00 20.00     0.004 C 
HETATM    5  C5  UNL     1     -33.084  16.048  -3.446  1.00 20.00     0.004 C 
HETATM    6  C6  UNL     1     -34.088  16.164  -2.292  1.00 20.00    -0.014 C 
ENDROOT
BRANCH   6   7
HETATM    7  C7  UNL     1     -33.875  17.466  -1.521  1.00 20.00     0.007 C 
BRANCH   7   8
HETATM    8  C8  UNL     1     -32.469  18.011  -1.736  1.00 20.00     0.026 C 
BRANCH   8   9
HETATM    9  C9  UNL     1     -31.846  18.474  -0.426  1.00 20.00     0.164 C 
BRANCH   9  10
HETATM   10  O10 UNL     1     -30.440  18.284  -0.494  1.00 20.00    -0.401 OA
HETATM   11  H28 UNL     1     -30.048  19.153  -0.676  1.00 20.00     0.209 HD
ENDBRANCH   9  10
ENDBRANCH   8   9
ENDBRANCH   7   8
ENDBRANCH   6   7
TORSDOF 4
ENDMDL
MODEL 8
REMARK VINA RESULT:      -4.2     15.560     16.710
REMARK  4 active torsions:
REMARK  status: ('A' for Active; 'I' for Inactive)
REMARK    1  A    between atoms: C6_6  and  C7_7 
REMARK    2  A    between atoms: C7_7  and  C8_8 
REMARK    3  A    between atoms: C8_8  and  C9_9 
REMARK    4  A    between atoms: C9_9  and  O10_10 
ROOT
HETATM    1  C1  UNL     1     -22.495  18.499   8.736  1.00 20.00     0.000 C 
HETATM    2  C2  UNL     1     -24.001  18.402   8.515  1.00 20.00     0.000 C 
HETATM    3  C3  UNL     1     -22.032  17.582   9.865  1.00 20.00     0.000 C 
HETATM    4  C4  UNL     1     -24.777  18.666   9.803  1.00 20.00     0.004 C 
HETATM    5  C5  UNL     1     -22.806  17.845  11.155  1.00 20.00     0.004 C 
HETATM    6  C6  UNL     1     -24.322  17.740  10.939  1.00 20.00    -0.014 C 
ENDROOT
BRANCH   6   7
HETATM    7  C7  UNL     1     -25.074  18.059  12.230  1.00 20.00     0.007 C 
BRANCH   7   8
HETATM    8  C8  UNL     1     -26.385  18.779  11.941  1.00 20.00     0.026 C 
BRANCH   8   9
HETATM    9  C9  UNL     1     -27.585  17.919  12.310  1.00 20.00     0.164 C 
BRANCH   9  10
HETATM   10  O10 UNL     1     -27.234  16.551  12.155  1.00 20.00    -0.401 OA
HETATM   11  H28 UNL     1     -27.742  16.054  12.817  1.00 20.00     0.209 HD
ENDBRANCH   9  10
ENDBRANCH   8   9
ENDBRANCH   7   8
ENDBRANCH   6   7
TORSDOF 4
ENDMDL
MODEL 9
REMARK VINA RESULT:      -4.2     11.082     11.709
REMARK  4 active torsions:
REMARK  status: ('A' for Active; 'I' for Inactive)
REMARK    1  A    between atoms: C6_6  and  C7_7 
REMARK    2  A    between atoms: C7_7  and  C8_8 
REMARK    3  A    between atoms: C8_8  and  C9_9 
REMARK    4  A    between atoms: C9_9  and  O10_10 
ROOT
HETATM    1  C1  UNL     1     -33.965  14.795  -4.926  1.00 20.00     0.000 C 
HETATM    2  C2  UNL     1     -35.229  14.289  -4.240  1.00 20.00     0.000 C 
HETATM    3  C3  UNL     1     -32.930  15.276  -3.913  1.00 20.00     0.000 C 
HETATM    4  C4  UNL     1     -35.816  15.337  -3.297  1.00 20.00     0.004 C 
HETATM    5  C5  UNL     1     -33.514  16.326  -2.969  1.00 20.00     0.004 C 
HETATM    6  C6  UNL     1     -34.782  15.817  -2.270  1.00 20.00    -0.014 C 
ENDROOT
BRANCH   6   7
HETATM    7  C7  UNL     1     -35.375  16.903  -1.373  1.00 20.00     0.007 C 
BRANCH   7   8
HETATM    8  C8  UNL     1     -34.282  17.746  -0.731  1.00 20.00     0.026 C 
BRANCH   8   9
HETATM    9  C9  UNL     1     -34.491  17.878   0.771  1.00 20.00     0.164 C 
BRANCH   9  10
HETATM   10  O10 UNL     1     -35.460  16.925   1.184  1.00 20.00    -0.401 OA
HETATM   11  H28 UNL     1     -35.029  16.055   1.158  1.00 20.00     0.209 HD
ENDBRANCH   9  10
ENDBRANCH   8   9
ENDBRANCH   7   8
ENDBRANCH   6   7
TORSDOF 4
ENDMDL
