MODEL 1
REMARK VINA RESULT:      -5.7      0.000      0.000
REMARK  0 active torsions:
REMARK  status: ('A' for Active; 'I' for Inactive)
ROOT
HETATM    1  C1  UNL     1     -34.873   5.240   5.766  1.00 20.00     0.002 A 
HETATM    2  C2  UNL     1     -34.296   6.477   6.055  1.00 20.00     0.002 A 
HETATM    3  C3  UNL     1     -34.657   4.643   4.524  1.00 20.00     0.025 A 
HETATM    4  C4  UNL     1     -33.505   7.117   5.102  1.00 20.00     0.025 A 
HETATM    5  C5  UNL     1     -33.865   5.283   3.571  1.00 20.00     0.055 A 
HETATM    6  C6  UNL     1     -33.289   6.520   3.860  1.00 20.00     0.055 A 
HETATM    7 CL7  UNL     1     -33.634   4.494   2.050  1.00 20.00    -0.083 Cl
HETATM    8 CL8  UNL     1     -32.299   7.364   2.721  1.00 20.00    -0.083 Cl
ENDROOT
TORSDOF 0
ENDMDL
MODEL 2
REMARK VINA RESULT:      -5.7      0.013      2.353
REMARK  0 active torsions:
REMARK  status: ('A' for Active; 'I' for Inactive)
ROOT
HETATM    1  C1  UNL     1     -34.295   6.478   6.059  1.00 20.00     0.002 A 
HETATM    2  C2  UNL     1     -34.880   5.247   5.763  1.00 20.00     0.002 A 
HETATM    3  C3  UNL     1     -33.496   7.117   5.111  1.00 20.00     0.025 A 
HETATM    4  C4  UNL     1     -34.667   4.655   4.518  1.00 20.00     0.025 A 
HETATM    5  C5  UNL     1     -33.283   6.526   3.866  1.00 20.00     0.055 A 
HETATM    6  C6  UNL     1     -33.868   5.295   3.569  1.00 20.00     0.055 A 
HETATM    7 CL7  UNL     1     -32.285   7.366   2.731  1.00 20.00    -0.083 Cl
HETATM    8 CL8  UNL     1     -33.642   4.510   2.045  1.00 20.00    -0.083 Cl
ENDROOT
TORSDOF 0
ENDMDL
MODEL 3
REMARK VINA RESULT:      -4.2      2.157      3.691
REMARK  0 active torsions:
REMARK  status: ('A' for Active; 'I' for Inactive)
ROOT
HETATM    1  C1  UNL     1     -32.836   6.089   2.363  1.00 20.00     0.002 A 
HETATM    2  C2  UNL     1     -33.469   4.847   2.406  1.00 20.00     0.002 A 
HETATM    3  C3  UNL     1     -32.918   6.952   3.456  1.00 20.00     0.025 A 
HETATM    4  C4  UNL     1     -34.183   4.467   3.543  1.00 20.00     0.025 A 
HETATM    5  C5  UNL     1     -33.632   6.572   4.592  1.00 20.00     0.055 A 
HETATM    6  C6  UNL     1     -34.265   5.330   4.635  1.00 20.00     0.055 A 
HETATM    7 CL7  UNL     1     -33.697   7.684   5.915  1.00 20.00    -0.083 Cl
HETATM    8 CL8  UNL     1     -35.165   4.802   6.014  1.00 20.00    -0.083 Cl
ENDROOT
TORSDOF 0
ENDMDL
MODEL 4
REMARK VINA RESULT:      -4.2      2.163      2.871
REMARK  0 active torsions:
REMARK  status: ('A' for Active; 'I' for Inactive)
ROOT
HETATM    1  C1  UNL     1     -33.481   4.829   2.440  1.00 20.00     0.002 A 
HETATM    2  C2  UNL     1     -32.838   6.066   2.381  1.00 20.00     0.002 A 
HETATM    3  C3  UNL     1     -34.194   4.467   3.582  1.00 20.00     0.025 A 
HETATM    4  C4  UNL     1     -32.910   6.940   3.466  1.00 20.00     0.025 A 
HETATM    5  C5  UNL     1     -34.265   5.341   4.666  1.00 20.00     0.055 A 
HETATM    6  C6  UNL     1     -33.623   6.578   4.608  1.00 20.00     0.055 A 
HETATM    7 CL7  UNL     1     -35.165   4.837   6.054  1.00 20.00    -0.083 Cl
HETATM    8 CL8  UNL     1     -33.674   7.705   5.918  1.00 20.00    -0.083 Cl
ENDROOT
TORSDOF 0
ENDMDL
MODEL 5
REMARK VINA RESULT:      -4.1      1.780      2.729
REMARK  0 active torsions:
REMARK  status: ('A' for Active; 'I' for Inactive)
ROOT
HETATM    1  C1  UNL     1     -34.541   4.280   3.609  1.00 20.00     0.002 A 
HETATM    2  C2  UNL     1     -33.685   4.605   2.558  1.00 20.00     0.002 A 
HETATM    3  C3  UNL     1     -34.622   5.113   4.725  1.00 20.00     0.025 A 
HETATM    4  C4  UNL     1     -32.909   5.763   2.622  1.00 20.00     0.025 A 
HETATM    5  C5  UNL     1     -33.847   6.271   4.789  1.00 20.00     0.055 A 
HETATM    6  C6  UNL     1     -32.991   6.596   3.737  1.00 20.00     0.055 A 
HETATM    7 CL7  UNL     1     -33.991   7.264   6.197  1.00 20.00    -0.083 Cl
HETATM    8 CL8  UNL     1     -32.004   8.016   3.757  1.00 20.00    -0.083 Cl
ENDROOT
TORSDOF 0
ENDMDL
MODEL 6
REMARK VINA RESULT:      -4.1      1.777      3.019
REMARK  0 active torsions:
REMARK  status: ('A' for Active; 'I' for Inactive)
ROOT
HETATM    1  C1  UNL     1     -33.677   4.586   2.575  1.00 20.00     0.002 A 
HETATM    2  C2  UNL     1     -34.534   4.262   3.626  1.00 20.00     0.002 A 
HETATM    3  C3  UNL     1     -32.909   5.749   2.634  1.00 20.00     0.025 A 
HETATM    4  C4  UNL     1     -34.624   5.102   4.736  1.00 20.00     0.025 A 
HETATM    5  C5  UNL     1     -32.998   6.588   3.744  1.00 20.00     0.055 A 
HETATM    6  C6  UNL     1     -33.856   6.264   4.795  1.00 20.00     0.055 A 
HETATM    7 CL7  UNL     1     -32.021   8.014   3.760  1.00 20.00    -0.083 Cl
HETATM    8 CL8  UNL     1     -34.011   7.263   6.198  1.00 20.00    -0.083 Cl
ENDROOT
TORSDOF 0
ENDMDL
MODEL 7
REMARK VINA RESULT:      -3.9      9.266      9.727
REMARK  0 active torsions:
REMARK  status: ('A' for Active; 'I' for Inactive)
ROOT
HETATM    1  C1  UNL     1     -41.483   8.590  -0.550  1.00 20.00     0.002 A 
HETATM    2  C2  UNL     1     -42.449   8.578   0.456  1.00 20.00     0.002 A 
HETATM    3  C3  UNL     1     -41.046   7.391  -1.112  1.00 20.00     0.025 A 
HETATM    4  C4  UNL     1     -42.977   7.366   0.901  1.00 20.00     0.025 A 
HETATM    5  C5  UNL     1     -41.574   6.179  -0.668  1.00 20.00     0.055 A 
HETATM    6  C6  UNL     1     -42.539   6.166   0.339  1.00 20.00     0.055 A 
HETATM    7 CL7  UNL     1     -40.993   4.726  -1.403  1.00 20.00    -0.083 Cl
HETATM    8 CL8  UNL     1     -43.232   4.698   0.933  1.00 20.00    -0.083 Cl
ENDROOT
TORSDOF 0
ENDMDL
MODEL 8
REMARK VINA RESULT:      -3.9     16.744     17.372
REMARK  0 active torsions:
REMARK  status: ('A' for Active; 'I' for Inactive)
ROOT
HETATM    1  C1  UNL     1     -22.483  18.055   8.374  1.00 20.00     0.002 A 
HETATM    2  C2  UNL     1     -23.779  18.496   8.105  1.00 20.00     0.002 A 
HETATM    3  C3  UNL     1     -22.101  17.770   9.685  1.00 20.00     0.025 A 
HETATM    4  C4  UNL     1     -24.692  18.652   9.148  1.00 20.00     0.025 A 
HETATM    5  C5  UNL     1     -23.015  17.926  10.727  1.00 20.00     0.055 A 
HETATM    6  C6  UNL     1     -24.310  18.367  10.459  1.00 20.00     0.055 A 
HETATM    7 CL7  UNL     1     -22.484  17.556  12.331  1.00 20.00    -0.083 Cl
HETATM    8 CL8  UNL     1     -25.488  18.581  11.706  1.00 20.00    -0.083 Cl
ENDROOT
TORSDOF 0
ENDMDL
MODEL 9
REMARK VINA RESULT:      -3.9      9.274      9.699
REMARK  0 active torsions:
REMARK  status: ('A' for Active; 'I' for Inactive)
ROOT
HETATM    1  C1  UNL     1     -42.446   8.570   0.460  1.00 20.00     0.002 A 
HETATM    2  C2  UNL     1     -41.471   8.581  -0.538  1.00 20.00     0.002 A 
HETATM    3  C3  UNL     1     -42.991   7.361   0.889  1.00 20.00     0.025 A 
HETATM    4  C4  UNL     1     -41.043   7.381  -1.107  1.00 20.00     0.025 A 
HETATM    5  C5  UNL     1     -42.563   6.161   0.321  1.00 20.00     0.055 A 
HETATM    6  C6  UNL     1     -41.588   6.172  -0.677  1.00 20.00     0.055 A 
HETATM    7 CL7  UNL     1     -43.275   4.694   0.895  1.00 20.00    -0.083 Cl
HETATM    8 CL8  UNL     1     -41.016   4.720  -1.421  1.00 20.00    -0.083 Cl
ENDROOT
TORSDOF 0
ENDMDL
