MODEL 1
REMARK VINA RESULT:      -6.3      0.000      0.000
REMARK  2 active torsions:
REMARK  status: ('A' for Active; 'I' for Inactive)
REMARK    1  A    between atoms: C6_6  and  C8_8 
REMARK    2  A    between atoms: C8_8  and  C9_9 
ROOT
HETATM    1  C1  UNL     1     -34.946   5.120   5.392  1.00 20.00     0.000 A 
HETATM    2  C2  UNL     1     -34.339   6.249   5.941  1.00 20.00     0.001 A 
HETATM    3  C3  UNL     1     -34.673   4.752   4.074  1.00 20.00     0.001 A 
HETATM    4  C4  UNL     1     -33.459   7.011   5.172  1.00 20.00     0.007 A 
HETATM    5  C5  UNL     1     -33.794   5.514   3.306  1.00 20.00     0.007 A 
HETATM    6  C6  UNL     1     -33.187   6.644   3.854  1.00 20.00    -0.058 A 
ENDROOT
BRANCH   6   7
HETATM    7  C8  UNL     1     -32.246   7.458   3.031  1.00 20.00     0.038 C 
BRANCH   7   8
HETATM    8  C9  UNL     1     -32.560   7.361   1.530  1.00 20.00     0.000 C 
HETATM    9  C7  UNL     1     -32.836   8.725   0.917  1.00 20.00     0.005 C 
ENDBRANCH   7   8
ENDBRANCH   6   7
TORSDOF 2
ENDMDL
MODEL 2
REMARK VINA RESULT:      -6.3      0.009      1.611
REMARK  2 active torsions:
REMARK  status: ('A' for Active; 'I' for Inactive)
REMARK    1  A    between atoms: C6_6  and  C8_8 
REMARK    2  A    between atoms: C8_8  and  C9_9 
ROOT
HETATM    1  C1  UNL     1     -34.943   5.125   5.389  1.00 20.00     0.000 A 
HETATM    2  C2  UNL     1     -34.675   4.758   4.071  1.00 20.00     0.001 A 
HETATM    3  C3  UNL     1     -34.332   6.252   5.939  1.00 20.00     0.001 A 
HETATM    4  C4  UNL     1     -33.793   5.518   3.302  1.00 20.00     0.007 A 
HETATM    5  C5  UNL     1     -33.451   7.011   5.170  1.00 20.00     0.007 A 
HETATM    6  C6  UNL     1     -33.181   6.644   3.851  1.00 20.00    -0.058 A 
ENDROOT
BRANCH   6   7
HETATM    7  C8  UNL     1     -32.239   7.457   3.029  1.00 20.00     0.038 C 
BRANCH   7   8
HETATM    8  C9  UNL     1     -32.558   7.371   1.529  1.00 20.00     0.000 C 
HETATM    9  C7  UNL     1     -32.832   8.739   0.926  1.00 20.00     0.005 C 
ENDBRANCH   7   8
ENDBRANCH   6   7
TORSDOF 2
ENDMDL
MODEL 3
REMARK VINA RESULT:      -4.5     11.186     12.025
REMARK  2 active torsions:
REMARK  status: ('A' for Active; 'I' for Inactive)
REMARK    1  A    between atoms: C6_6  and  C8_8 
REMARK    2  A    between atoms: C8_8  and  C9_9 
ROOT
HETATM    1  C1  UNL     1     -34.481  14.486  -4.045  1.00 20.00     0.000 A 
HETATM    2  C2  UNL     1     -33.222  15.081  -4.103  1.00 20.00     0.001 A 
HETATM    3  C3  UNL     1     -35.429  14.943  -3.129  1.00 20.00     0.001 A 
HETATM    4  C4  UNL     1     -32.908  16.134  -3.243  1.00 20.00     0.007 A 
HETATM    5  C5  UNL     1     -35.115  15.996  -2.270  1.00 20.00     0.007 A 
HETATM    6  C6  UNL     1     -33.854  16.591  -2.326  1.00 20.00    -0.058 A 
ENDROOT
BRANCH   6   7
HETATM    7  C8  UNL     1     -33.520  17.717  -1.407  1.00 20.00     0.038 C 
BRANCH   7   8
HETATM    8  C9  UNL     1     -32.113  18.276  -1.666  1.00 20.00     0.000 C 
HETATM    9  C7  UNL     1     -31.296  18.375  -0.387  1.00 20.00     0.005 C 
ENDBRANCH   7   8
ENDBRANCH   6   7
TORSDOF 2
ENDMDL
MODEL 4
REMARK VINA RESULT:      -4.5     11.161     12.001
REMARK  2 active torsions:
REMARK  status: ('A' for Active; 'I' for Inactive)
REMARK    1  A    between atoms: C6_6  and  C8_8 
REMARK    2  A    between atoms: C8_8  and  C9_9 
ROOT
HETATM    1  C1  UNL     1     -34.440  14.488  -4.029  1.00 20.00     0.000 A 
HETATM    2  C2  UNL     1     -35.392  14.929  -3.111  1.00 20.00     0.001 A 
HETATM    3  C3  UNL     1     -33.188  15.101  -4.086  1.00 20.00     0.001 A 
HETATM    4  C4  UNL     1     -35.093  15.984  -2.249  1.00 20.00     0.007 A 
HETATM    5  C5  UNL     1     -32.890  16.156  -3.224  1.00 20.00     0.007 A 
HETATM    6  C6  UNL     1     -33.842  16.598  -2.305  1.00 20.00    -0.058 A 
ENDROOT
BRANCH   6   7
HETATM    7  C8  UNL     1     -33.522  17.727  -1.384  1.00 20.00     0.038 C 
BRANCH   7   8
HETATM    8  C9  UNL     1     -32.103  18.270  -1.608  1.00 20.00     0.000 C 
HETATM    9  C7  UNL     1     -31.325  18.382  -0.306  1.00 20.00     0.005 C 
ENDBRANCH   7   8
ENDBRANCH   6   7
TORSDOF 2
ENDMDL
MODEL 5
REMARK VINA RESULT:      -4.5     11.141     11.863
REMARK  2 active torsions:
REMARK  status: ('A' for Active; 'I' for Inactive)
REMARK    1  A    between atoms: C6_6  and  C8_8 
REMARK    2  A    between atoms: C8_8  and  C9_9 
ROOT
HETATM    1  C1  UNL     1     -34.047  17.724  -1.070  1.00 20.00     0.000 A 
HETATM    2  C2  UNL     1     -32.951  17.608  -1.924  1.00 20.00     0.001 A 
HETATM    3  C3  UNL     1     -35.123  16.844  -1.190  1.00 20.00     0.001 A 
HETATM    4  C4  UNL     1     -32.930  16.611  -2.899  1.00 20.00     0.007 A 
HETATM    5  C5  UNL     1     -35.101  15.848  -2.165  1.00 20.00     0.007 A 
HETATM    6  C6  UNL     1     -34.005  15.731  -3.020  1.00 20.00    -0.058 A 
ENDROOT
BRANCH   6   7
HETATM    7  C8  UNL     1     -33.983  14.665  -4.064  1.00 20.00     0.038 C 
BRANCH   7   8
HETATM    8  C9  UNL     1     -35.340  13.956  -4.193  1.00 20.00     0.000 C 
HETATM    9  C7  UNL     1     -36.038  14.297  -5.500  1.00 20.00     0.005 C 
ENDBRANCH   7   8
ENDBRANCH   6   7
TORSDOF 2
ENDMDL
MODEL 6
REMARK VINA RESULT:      -4.5     11.138     11.873
REMARK  2 active torsions:
REMARK  status: ('A' for Active; 'I' for Inactive)
REMARK    1  A    between atoms: C6_6  and  C8_8 
REMARK    2  A    between atoms: C8_8  and  C9_9 
ROOT
HETATM    1  C1  UNL     1     -34.048  17.723  -1.088  1.00 20.00     0.000 A 
HETATM    2  C2  UNL     1     -35.123  16.842  -1.199  1.00 20.00     0.001 A 
HETATM    3  C3  UNL     1     -32.955  17.603  -1.946  1.00 20.00     0.001 A 
HETATM    4  C4  UNL     1     -35.106  15.839  -2.169  1.00 20.00     0.007 A 
HETATM    5  C5  UNL     1     -32.938  16.601  -2.916  1.00 20.00     0.007 A 
HETATM    6  C6  UNL     1     -34.013  15.719  -3.028  1.00 20.00    -0.058 A 
ENDROOT
BRANCH   6   7
HETATM    7  C8  UNL     1     -33.994  14.647  -4.065  1.00 20.00     0.038 C 
BRANCH   7   8
HETATM    8  C9  UNL     1     -35.354  13.946  -4.197  1.00 20.00     0.000 C 
HETATM    9  C7  UNL     1     -36.051  14.296  -5.502  1.00 20.00     0.005 C 
ENDBRANCH   7   8
ENDBRANCH   6   7
TORSDOF 2
ENDMDL
MODEL 7
REMARK VINA RESULT:      -4.2     15.345     16.079
REMARK  2 active torsions:
REMARK  status: ('A' for Active; 'I' for Inactive)
REMARK    1  A    between atoms: C6_6  and  C8_8 
REMARK    2  A    between atoms: C8_8  and  C9_9 
ROOT
HETATM    1  C1  UNL     1     -25.711  16.594  12.327  1.00 20.00     0.000 A 
HETATM    2  C2  UNL     1     -24.680  15.935  11.659  1.00 20.00     0.001 A 
HETATM    3  C3  UNL     1     -26.031  17.910  11.992  1.00 20.00     0.001 A 
HETATM    4  C4  UNL     1     -23.968  16.591  10.655  1.00 20.00     0.007 A 
HETATM    5  C5  UNL     1     -25.318  18.566  10.989  1.00 20.00     0.007 A 
HETATM    6  C6  UNL     1     -24.286  17.907  10.320  1.00 20.00    -0.058 A 
ENDROOT
BRANCH   6   7
HETATM    7  C8  UNL     1     -23.525  18.610   9.247  1.00 20.00     0.038 C 
BRANCH   7   8
HETATM    8  C9  UNL     1     -22.064  18.141   9.174  1.00 20.00     0.000 C 
HETATM    9  C7  UNL     1     -21.762  17.422   7.868  1.00 20.00     0.005 C 
ENDBRANCH   7   8
ENDBRANCH   6   7
TORSDOF 2
ENDMDL
MODEL 8
REMARK VINA RESULT:      -4.2     11.172     11.835
REMARK  2 active torsions:
REMARK  status: ('A' for Active; 'I' for Inactive)
REMARK    1  A    between atoms: C6_6  and  C8_8 
REMARK    2  A    between atoms: C8_8  and  C9_9 
ROOT
HETATM    1  C1  UNL     1     -33.638  14.594  -4.461  1.00 20.00     0.000 A 
HETATM    2  C2  UNL     1     -32.876  15.582  -3.838  1.00 20.00     0.001 A 
HETATM    3  C3  UNL     1     -34.936  14.333  -4.023  1.00 20.00     0.001 A 
HETATM    4  C4  UNL     1     -33.413  16.310  -2.776  1.00 20.00     0.007 A 
HETATM    5  C5  UNL     1     -35.473  15.061  -2.962  1.00 20.00     0.007 A 
HETATM    6  C6  UNL     1     -34.711  16.050  -2.338  1.00 20.00    -0.058 A 
ENDROOT
BRANCH   6   7
HETATM    7  C8  UNL     1     -35.286  16.828  -1.202  1.00 20.00     0.038 C 
BRANCH   7   8
HETATM    8  C9  UNL     1     -34.250  17.764  -0.561  1.00 20.00     0.000 C 
HETATM    9  C7  UNL     1     -34.477  17.924   0.934  1.00 20.00     0.005 C 
ENDBRANCH   7   8
ENDBRANCH   6   7
TORSDOF 2
ENDMDL
MODEL 9
REMARK VINA RESULT:      -4.1     11.269     12.174
REMARK  2 active torsions:
REMARK  status: ('A' for Active; 'I' for Inactive)
REMARK    1  A    between atoms: C6_6  and  C8_8 
REMARK    2  A    between atoms: C8_8  and  C9_9 
ROOT
HETATM    1  C1  UNL     1     -34.011  15.741  -3.133  1.00 20.00     0.000 A 
HETATM    2  C2  UNL     1     -35.112  15.804  -2.279  1.00 20.00     0.001 A 
HETATM    3  C3  UNL     1     -32.932  16.605  -2.947  1.00 20.00     0.001 A 
HETATM    4  C4  UNL     1     -35.134  16.733  -1.239  1.00 20.00     0.007 A 
HETATM    5  C5  UNL     1     -32.955  17.533  -1.907  1.00 20.00     0.007 A 
HETATM    6  C6  UNL     1     -34.056  17.598  -1.052  1.00 20.00    -0.058 A 
ENDROOT
BRANCH   6   7
HETATM    7  C8  UNL     1     -34.079  18.591   0.060  1.00 20.00     0.038 C 
BRANCH   7   8
HETATM    8  C9  UNL     1     -34.447  17.945   1.404  1.00 20.00     0.000 C 
HETATM    9  C7  UNL     1     -33.287  17.976   2.387  1.00 20.00     0.005 C 
ENDBRANCH   7   8
ENDBRANCH   6   7
TORSDOF 2
ENDMDL
