MODEL 1
REMARK VINA RESULT:      -5.0      0.000      0.000
REMARK  1 active torsions:
REMARK  status: ('A' for Active; 'I' for Inactive)
REMARK    1  A    between atoms: C4_4  and  C6_6 
ROOT
HETATM    1  C1  UNL     1     -34.926   5.383   5.886  1.00 20.00     0.027 A 
HETATM    2  C2  UNL     1     -34.734   4.892   4.573  1.00 20.00     0.034 A 
HETATM    3  C3  UNL     1     -34.179   6.535   5.977  1.00 20.00     0.142 A 
HETATM    4  C4  UNL     1     -33.885   5.780   3.953  1.00 20.00     0.052 A 
HETATM    5  O7  UNL     1     -33.542   6.783   4.803  1.00 20.00    -0.327 OA
ENDROOT
BRANCH   4   6
HETATM    6  C6  UNL     1     -33.304   5.841   2.605  1.00 20.00     0.060 C 
HETATM    7  C5  UNL     1     -32.516   7.132   2.347  1.00 20.00     0.012 C 
ENDBRANCH   4   6
TORSDOF 1
ENDMDL
MODEL 2
REMARK VINA RESULT:      -4.7      0.974      1.411
REMARK  1 active torsions:
REMARK  status: ('A' for Active; 'I' for Inactive)
REMARK    1  A    between atoms: C4_4  and  C6_6 
ROOT
HETATM    1  C1  UNL     1     -34.430   6.254   6.046  1.00 20.00     0.027 A 
HETATM    2  C2  UNL     1     -33.684   6.831   4.991  1.00 20.00     0.034 A 
HETATM    3  C3  UNL     1     -34.914   5.060   5.562  1.00 20.00     0.142 A 
HETATM    4  C4  UNL     1     -33.763   5.949   3.939  1.00 20.00     0.052 A 
HETATM    5  O7  UNL     1     -34.512   4.867   4.278  1.00 20.00    -0.327 OA
ENDROOT
BRANCH   4   6
HETATM    6  C6  UNL     1     -33.214   5.959   2.575  1.00 20.00     0.060 C 
HETATM    7  C5  UNL     1     -32.455   7.250   2.241  1.00 20.00     0.012 C 
ENDBRANCH   4   6
TORSDOF 1
ENDMDL
MODEL 3
REMARK VINA RESULT:      -4.6      0.996      1.610
REMARK  1 active torsions:
REMARK  status: ('A' for Active; 'I' for Inactive)
REMARK    1  A    between atoms: C4_4  and  C6_6 
ROOT
HETATM    1  C1  UNL     1     -34.897   5.435   5.712  1.00 20.00     0.027 A 
HETATM    2  C2  UNL     1     -33.985   6.513   5.635  1.00 20.00     0.034 A 
HETATM    3  C3  UNL     1     -34.926   4.868   4.459  1.00 20.00     0.142 A 
HETATM    4  C4  UNL     1     -33.519   6.529   4.341  1.00 20.00     0.052 A 
HETATM    5  O7  UNL     1     -34.088   5.529   3.617  1.00 20.00    -0.327 OA
ENDROOT
BRANCH   4   6
HETATM    6  C6  UNL     1     -32.564   7.387   3.626  1.00 20.00     0.060 C 
HETATM    7  C5  UNL     1     -32.565   7.156   2.109  1.00 20.00     0.012 C 
ENDBRANCH   4   6
TORSDOF 1
ENDMDL
MODEL 4
REMARK VINA RESULT:      -4.5      0.748      3.104
REMARK  1 active torsions:
REMARK  status: ('A' for Active; 'I' for Inactive)
REMARK    1  A    between atoms: C4_4  and  C6_6 
ROOT
HETATM    1  C1  UNL     1     -32.576   6.206   2.191  1.00 20.00     0.027 A 
HETATM    2  C2  UNL     1     -33.476   5.176   2.551  1.00 20.00     0.034 A 
HETATM    3  C3  UNL     1     -32.648   7.145   3.194  1.00 20.00     0.142 A 
HETATM    4  C4  UNL     1     -34.035   5.557   3.748  1.00 20.00     0.052 A 
HETATM    5  O7  UNL     1     -33.536   6.756   4.147  1.00 20.00    -0.327 OA
ENDROOT
BRANCH   4   6
HETATM    6  C6  UNL     1     -35.028   4.937   4.637  1.00 20.00     0.060 C 
HETATM    7  C5  UNL     1     -34.808   5.279   6.116  1.00 20.00     0.012 C 
ENDBRANCH   4   6
TORSDOF 1
ENDMDL
MODEL 5
REMARK VINA RESULT:      -4.2      1.066      3.441
REMARK  1 active torsions:
REMARK  status: ('A' for Active; 'I' for Inactive)
REMARK    1  A    between atoms: C4_4  and  C6_6 
ROOT
HETATM    1  C1  UNL     1     -32.615   6.517   2.290  1.00 20.00     0.027 A 
HETATM    2  C2  UNL     1     -32.798   7.206   3.513  1.00 20.00     0.034 A 
HETATM    3  C3  UNL     1     -33.350   5.358   2.391  1.00 20.00     0.142 A 
HETATM    4  C4  UNL     1     -33.632   6.420   4.274  1.00 20.00     0.052 A 
HETATM    5  O7  UNL     1     -33.972   5.291   3.598  1.00 20.00    -0.327 OA
ENDROOT
BRANCH   4   6
HETATM    6  C6  UNL     1     -34.197   6.566   5.623  1.00 20.00     0.060 C 
HETATM    7  C5  UNL     1     -34.848   5.278   6.145  1.00 20.00     0.012 C 
ENDBRANCH   4   6
TORSDOF 1
ENDMDL
MODEL 6
REMARK VINA RESULT:      -3.5     11.770     12.261
REMARK  1 active torsions:
REMARK  status: ('A' for Active; 'I' for Inactive)
REMARK    1  A    between atoms: C4_4  and  C6_6 
ROOT
HETATM    1  C1  UNL     1     -34.162  16.937  -1.906  1.00 20.00     0.027 A 
HETATM    2  C2  UNL     1     -35.049  15.890  -2.252  1.00 20.00     0.034 A 
HETATM    3  C3  UNL     1     -33.055  16.782  -2.709  1.00 20.00     0.142 A 
HETATM    4  C4  UNL     1     -34.422  15.170  -3.243  1.00 20.00     0.052 A 
HETATM    5  O7  UNL     1     -33.207  15.707  -3.527  1.00 20.00    -0.327 OA
ENDROOT
BRANCH   4   6
HETATM    6  C6  UNL     1     -34.806  13.980  -4.016  1.00 20.00     0.060 C 
HETATM    7  C5  UNL     1     -36.290  13.966  -4.402  1.00 20.00     0.012 C 
ENDBRANCH   4   6
TORSDOF 1
ENDMDL
MODEL 7
REMARK VINA RESULT:      -3.5     11.960     12.347
REMARK  1 active torsions:
REMARK  status: ('A' for Active; 'I' for Inactive)
REMARK    1  A    between atoms: C4_4  and  C6_6 
ROOT
HETATM    1  C1  UNL     1     -33.346  15.695  -3.315  1.00 20.00     0.027 A 
HETATM    2  C2  UNL     1     -34.720  15.384  -3.188  1.00 20.00     0.034 A 
HETATM    3  C3  UNL     1     -32.855  14.863  -4.295  1.00 20.00     0.142 A 
HETATM    4  C4  UNL     1     -34.973  14.385  -4.100  1.00 20.00     0.052 A 
HETATM    5  O7  UNL     1     -33.840  14.062  -4.778  1.00 20.00    -0.327 OA
ENDROOT
BRANCH   4   6
HETATM    6  C6  UNL     1     -36.184  13.636  -4.461  1.00 20.00     0.060 C 
HETATM    7  C5  UNL     1     -37.468  14.466  -4.326  1.00 20.00     0.012 C 
ENDBRANCH   4   6
TORSDOF 1
ENDMDL
MODEL 8
REMARK VINA RESULT:      -3.4     11.703     12.236
REMARK  1 active torsions:
REMARK  status: ('A' for Active; 'I' for Inactive)
REMARK    1  A    between atoms: C4_4  and  C6_6 
ROOT
HETATM    1  C1  UNL     1     -33.362  16.946  -2.328  1.00 20.00     0.027 A 
HETATM    2  C2  UNL     1     -33.250  15.962  -3.339  1.00 20.00     0.034 A 
HETATM    3  C3  UNL     1     -34.566  16.717  -1.703  1.00 20.00     0.142 A 
HETATM    4  C4  UNL     1     -34.393  15.201  -3.259  1.00 20.00     0.052 A 
HETATM    5  O7  UNL     1     -35.201  15.655  -2.265  1.00 20.00    -0.327 OA
ENDROOT
BRANCH   4   6
HETATM    6  C6  UNL     1     -34.883  14.040  -4.017  1.00 20.00     0.060 C 
HETATM    7  C5  UNL     1     -36.384  14.113  -4.325  1.00 20.00     0.012 C 
ENDBRANCH   4   6
TORSDOF 1
ENDMDL
MODEL 9
REMARK VINA RESULT:      -3.4     11.947     12.548
REMARK  1 active torsions:
REMARK  status: ('A' for Active; 'I' for Inactive)
REMARK    1  A    between atoms: C4_4  and  C6_6 
ROOT
HETATM    1  C1  UNL     1     -34.779  14.552  -3.706  1.00 20.00     0.027 A 
HETATM    2  C2  UNL     1     -34.823  15.580  -2.735  1.00 20.00     0.034 A 
HETATM    3  C3  UNL     1     -33.534  14.628  -4.288  1.00 20.00     0.142 A 
HETATM    4  C4  UNL     1     -33.602  16.212  -2.791  1.00 20.00     0.052 A 
HETATM    5  O7  UNL     1     -32.811  15.638  -3.735  1.00 20.00    -0.327 OA
ENDROOT
BRANCH   4   6
HETATM    6  C6  UNL     1     -33.020  17.342  -2.053  1.00 20.00     0.060 C 
HETATM    7  C5  UNL     1     -33.906  17.828  -0.899  1.00 20.00     0.012 C 
ENDBRANCH   4   6
TORSDOF 1
ENDMDL
