MODEL 1
REMARK VINA RESULT:      -6.5      0.000      0.000
REMARK  3 active torsions:
REMARK  status: ('A' for Active; 'I' for Inactive)
REMARK    1  A    between atoms: C6_6  and  C8_8 
REMARK    2  A    between atoms: C8_8  and  C10_10 
REMARK    3  A    between atoms: C9_9  and  C10_10 
ROOT
HETATM    1  C1  UNL     1     -34.986   5.131   5.449  1.00 20.00     0.000 A 
HETATM    2  C2  UNL     1     -34.368   6.246   6.014  1.00 20.00     0.001 A 
HETATM    3  C3  UNL     1     -34.692   4.760   4.137  1.00 20.00     0.001 A 
HETATM    4  C4  UNL     1     -33.456   6.991   5.267  1.00 20.00     0.007 A 
HETATM    5  C5  UNL     1     -33.780   5.505   3.390  1.00 20.00     0.007 A 
HETATM    6  C6  UNL     1     -33.163   6.621   3.955  1.00 20.00    -0.058 A 
ENDROOT
BRANCH   6   7
HETATM    7  C8  UNL     1     -32.177   7.427   3.146  1.00 20.00     0.038 C 
BRANCH   7   8
HETATM    8  C10 UNL     1     -32.503   7.376   1.651  1.00 20.00     0.004 C 
BRANCH   8   9
HETATM    9  C9  UNL     1     -32.923   8.750   1.129  1.00 20.00    -0.004 C 
HETATM   10  C7  UNL     1     -33.363   8.683  -0.326  1.00 20.00     0.005 C 
ENDBRANCH   8   9
ENDBRANCH   7   8
ENDBRANCH   6   7
TORSDOF 3
ENDMDL
MODEL 2
REMARK VINA RESULT:      -4.7     10.592     11.608
REMARK  3 active torsions:
REMARK  status: ('A' for Active; 'I' for Inactive)
REMARK    1  A    between atoms: C6_6  and  C8_8 
REMARK    2  A    between atoms: C8_8  and  C10_10 
REMARK    3  A    between atoms: C9_9  and  C10_10 
ROOT
HETATM    1  C1  UNL     1     -34.029  17.699  -1.083  1.00 20.00     0.000 A 
HETATM    2  C2  UNL     1     -35.118  16.838  -1.212  1.00 20.00     0.001 A 
HETATM    3  C3  UNL     1     -32.940  17.581  -1.948  1.00 20.00     0.001 A 
HETATM    4  C4  UNL     1     -35.119  15.858  -2.204  1.00 20.00     0.007 A 
HETATM    5  C5  UNL     1     -32.941  16.600  -2.940  1.00 20.00     0.007 A 
HETATM    6  C6  UNL     1     -34.030  15.739  -3.067  1.00 20.00    -0.058 A 
ENDROOT
BRANCH   6   7
HETATM    7  C8  UNL     1     -34.031  14.678  -4.140  1.00 20.00     0.038 C 
BRANCH   7   8
HETATM    8  C10 UNL     1     -35.225  13.731  -3.993  1.00 20.00     0.004 C 
BRANCH   8   9
HETATM    9  C9  UNL     1     -36.231  13.928  -5.126  1.00 20.00    -0.004 C 
HETATM   10  C7  UNL     1     -35.604  14.651  -6.309  1.00 20.00     0.005 C 
ENDBRANCH   8   9
ENDBRANCH   7   8
ENDBRANCH   6   7
TORSDOF 3
ENDMDL
MODEL 3
REMARK VINA RESULT:      -4.7     10.622     11.616
REMARK  3 active torsions:
REMARK  status: ('A' for Active; 'I' for Inactive)
REMARK    1  A    between atoms: C6_6  and  C8_8 
REMARK    2  A    between atoms: C8_8  and  C10_10 
REMARK    3  A    between atoms: C9_9  and  C10_10 
ROOT
HETATM    1  C1  UNL     1     -33.988  17.699  -1.139  1.00 20.00     0.000 A 
HETATM    2  C2  UNL     1     -32.913  17.586  -2.019  1.00 20.00     0.001 A 
HETATM    3  C3  UNL     1     -35.066  16.818  -1.238  1.00 20.00     0.001 A 
HETATM    4  C4  UNL     1     -32.914  16.593  -2.999  1.00 20.00     0.007 A 
HETATM    5  C5  UNL     1     -35.068  15.826  -2.218  1.00 20.00     0.007 A 
HETATM    6  C6  UNL     1     -33.992  15.714  -3.098  1.00 20.00    -0.058 A 
ENDROOT
BRANCH   6   7
HETATM    7  C8  UNL     1     -33.994  14.640  -4.158  1.00 20.00     0.038 C 
BRANCH   7   8
HETATM    8  C10 UNL     1     -35.222  13.733  -4.035  1.00 20.00     0.004 C 
BRANCH   8   9
HETATM    9  C9  UNL     1     -36.224  14.002  -5.158  1.00 20.00    -0.004 C 
HETATM   10  C7  UNL     1     -35.558  14.671  -6.351  1.00 20.00     0.005 C 
ENDBRANCH   8   9
ENDBRANCH   7   8
ENDBRANCH   6   7
TORSDOF 3
ENDMDL
MODEL 4
REMARK VINA RESULT:      -4.7     10.886     11.887
REMARK  3 active torsions:
REMARK  status: ('A' for Active; 'I' for Inactive)
REMARK    1  A    between atoms: C6_6  and  C8_8 
REMARK    2  A    between atoms: C8_8  and  C10_10 
REMARK    3  A    between atoms: C9_9  and  C10_10 
ROOT
HETATM    1  C1  UNL     1     -34.438  14.521  -4.044  1.00 20.00     0.000 A 
HETATM    2  C2  UNL     1     -33.189  15.138  -4.108  1.00 20.00     0.001 A 
HETATM    3  C3  UNL     1     -35.377  14.943  -3.103  1.00 20.00     0.001 A 
HETATM    4  C4  UNL     1     -32.878  16.177  -3.231  1.00 20.00     0.007 A 
HETATM    5  C5  UNL     1     -35.066  15.982  -2.225  1.00 20.00     0.007 A 
HETATM    6  C6  UNL     1     -33.817  16.598  -2.289  1.00 20.00    -0.058 A 
ENDROOT
BRANCH   6   7
HETATM    7  C8  UNL     1     -33.481  17.721  -1.340  1.00 20.00     0.038 C 
BRANCH   7   8
HETATM    8  C10 UNL     1     -32.104  18.318  -1.641  1.00 20.00     0.004 C 
BRANCH   8   9
HETATM    9  C9  UNL     1     -31.259  18.429  -0.373  1.00 20.00    -0.004 C 
HETATM   10  C7  UNL     1     -32.128  18.471   0.875  1.00 20.00     0.005 C 
ENDBRANCH   8   9
ENDBRANCH   7   8
ENDBRANCH   6   7
TORSDOF 3
ENDMDL
MODEL 5
REMARK VINA RESULT:      -4.6     10.869     11.860
REMARK  3 active torsions:
REMARK  status: ('A' for Active; 'I' for Inactive)
REMARK    1  A    between atoms: C6_6  and  C8_8 
REMARK    2  A    between atoms: C8_8  and  C10_10 
REMARK    3  A    between atoms: C9_9  and  C10_10 
ROOT
HETATM    1  C1  UNL     1     -34.485  14.491  -4.013  1.00 20.00     0.000 A 
HETATM    2  C2  UNL     1     -35.423  14.935  -3.082  1.00 20.00     0.001 A 
HETATM    3  C3  UNL     1     -33.229  15.096  -4.083  1.00 20.00     0.001 A 
HETATM    4  C4  UNL     1     -35.107  15.987  -2.221  1.00 20.00     0.007 A 
HETATM    5  C5  UNL     1     -32.914  16.147  -3.222  1.00 20.00     0.007 A 
HETATM    6  C6  UNL     1     -33.853  16.592  -2.292  1.00 20.00    -0.058 A 
ENDROOT
BRANCH   6   7
HETATM    7  C8  UNL     1     -33.511  17.729  -1.361  1.00 20.00     0.038 C 
BRANCH   7   8
HETATM    8  C10 UNL     1     -32.122  18.300  -1.659  1.00 20.00     0.004 C 
BRANCH   8   9
HETATM    9  C9  UNL     1     -31.311  18.482  -0.376  1.00 20.00    -0.004 C 
HETATM   10  C7  UNL     1     -32.204  18.474   0.855  1.00 20.00     0.005 C 
ENDBRANCH   8   9
ENDBRANCH   7   8
ENDBRANCH   6   7
TORSDOF 3
ENDMDL
MODEL 6
REMARK VINA RESULT:      -4.5     10.968     11.704
REMARK  3 active torsions:
REMARK  status: ('A' for Active; 'I' for Inactive)
REMARK    1  A    between atoms: C6_6  and  C8_8 
REMARK    2  A    between atoms: C8_8  and  C10_10 
REMARK    3  A    between atoms: C9_9  and  C10_10 
ROOT
HETATM    1  C1  UNL     1     -34.016  17.788  -0.937  1.00 20.00     0.000 A 
HETATM    2  C2  UNL     1     -35.105  16.927  -1.066  1.00 20.00     0.001 A 
HETATM    3  C3  UNL     1     -32.923  17.664  -1.794  1.00 20.00     0.001 A 
HETATM    4  C4  UNL     1     -35.102  15.941  -2.052  1.00 20.00     0.007 A 
HETATM    5  C5  UNL     1     -32.919  16.677  -2.781  1.00 20.00     0.007 A 
HETATM    6  C6  UNL     1     -34.009  15.816  -2.908  1.00 20.00    -0.058 A 
ENDROOT
BRANCH   6   7
HETATM    7  C8  UNL     1     -34.004  14.749  -3.975  1.00 20.00     0.038 C 
BRANCH   7   8
HETATM    8  C10 UNL     1     -34.495  15.296  -5.318  1.00 20.00     0.004 C 
BRANCH   8   9
HETATM    9  C9  UNL     1     -35.858  14.713  -5.689  1.00 20.00    -0.004 C 
HETATM   10  C7  UNL     1     -36.299  13.649  -4.695  1.00 20.00     0.005 C 
ENDBRANCH   8   9
ENDBRANCH   7   8
ENDBRANCH   6   7
TORSDOF 3
ENDMDL
MODEL 7
REMARK VINA RESULT:      -4.3     10.848     11.743
REMARK  3 active torsions:
REMARK  status: ('A' for Active; 'I' for Inactive)
REMARK    1  A    between atoms: C6_6  and  C8_8 
REMARK    2  A    between atoms: C8_8  and  C10_10 
REMARK    3  A    between atoms: C9_9  and  C10_10 
ROOT
HETATM    1  C1  UNL     1     -34.730  14.324  -4.127  1.00 20.00     0.000 A 
HETATM    2  C2  UNL     1     -33.418  14.764  -4.294  1.00 20.00     0.001 A 
HETATM    3  C3  UNL     1     -35.552  14.927  -3.174  1.00 20.00     0.001 A 
HETATM    4  C4  UNL     1     -32.926  15.806  -3.507  1.00 20.00     0.007 A 
HETATM    5  C5  UNL     1     -35.060  15.968  -2.387  1.00 20.00     0.007 A 
HETATM    6  C6  UNL     1     -33.747  16.407  -2.554  1.00 20.00    -0.058 A 
ENDROOT
BRANCH   6   7
HETATM    7  C8  UNL     1     -33.215  17.534  -1.703  1.00 20.00     0.038 C 
BRANCH   7   8
HETATM    8  C10 UNL     1     -34.346  18.286  -0.997  1.00 20.00     0.004 C 
BRANCH   8   9
HETATM    9  C9  UNL     1     -34.354  17.995   0.503  1.00 20.00    -0.004 C 
HETATM   10  C7  UNL     1     -35.687  17.415   0.951  1.00 20.00     0.005 C 
ENDBRANCH   8   9
ENDBRANCH   7   8
ENDBRANCH   6   7
TORSDOF 3
ENDMDL
MODEL 8
REMARK VINA RESULT:      -4.3     10.835     11.703
REMARK  3 active torsions:
REMARK  status: ('A' for Active; 'I' for Inactive)
REMARK    1  A    between atoms: C6_6  and  C8_8 
REMARK    2  A    between atoms: C8_8  and  C10_10 
REMARK    3  A    between atoms: C9_9  and  C10_10 
ROOT
HETATM    1  C1  UNL     1     -34.697  14.302  -4.111  1.00 20.00     0.000 A 
HETATM    2  C2  UNL     1     -35.541  14.892  -3.171  1.00 20.00     0.001 A 
HETATM    3  C3  UNL     1     -33.388  14.764  -4.260  1.00 20.00     0.001 A 
HETATM    4  C4  UNL     1     -35.079  15.945  -2.381  1.00 20.00     0.007 A 
HETATM    5  C5  UNL     1     -32.926  15.816  -3.470  1.00 20.00     0.007 A 
HETATM    6  C6  UNL     1     -33.771  16.407  -2.531  1.00 20.00    -0.058 A 
ENDROOT
BRANCH   6   7
HETATM    7  C8  UNL     1     -33.271  17.545  -1.677  1.00 20.00     0.038 C 
BRANCH   7   8
HETATM    8  C10 UNL     1     -34.421  18.256  -0.960  1.00 20.00     0.004 C 
BRANCH   8   9
HETATM    9  C9  UNL     1     -34.428  17.932   0.534  1.00 20.00    -0.004 C 
HETATM   10  C7  UNL     1     -35.801  17.472   0.998  1.00 20.00     0.005 C 
ENDBRANCH   8   9
ENDBRANCH   7   8
ENDBRANCH   6   7
TORSDOF 3
ENDMDL
MODEL 9
REMARK VINA RESULT:      -4.3     11.017     11.999
REMARK  3 active torsions:
REMARK  status: ('A' for Active; 'I' for Inactive)
REMARK    1  A    between atoms: C6_6  and  C8_8 
REMARK    2  A    between atoms: C8_8  and  C10_10 
REMARK    3  A    between atoms: C9_9  and  C10_10 
ROOT
HETATM    1  C1  UNL     1     -31.680  18.398   1.817  1.00 20.00     0.000 A 
HETATM    2  C2  UNL     1     -33.053  18.375   1.574  1.00 20.00     0.001 A 
HETATM    3  C3  UNL     1     -30.782  18.327   0.752  1.00 20.00     0.001 A 
HETATM    4  C4  UNL     1     -33.529  18.280   0.266  1.00 20.00     0.007 A 
HETATM    5  C5  UNL     1     -31.258  18.231  -0.556  1.00 20.00     0.007 A 
HETATM    6  C6  UNL     1     -32.631  18.207  -0.798  1.00 20.00    -0.058 A 
ENDROOT
BRANCH   6   7
HETATM    7  C8  UNL     1     -33.145  18.104  -2.213  1.00 20.00     0.038 C 
BRANCH   7   8
HETATM    8  C10 UNL     1     -33.109  16.659  -2.718  1.00 20.00     0.004 C 
BRANCH   8   9
HETATM    9  C9  UNL     1     -34.440  15.951  -2.469  1.00 20.00    -0.004 C 
HETATM   10  C7  UNL     1     -34.710  14.884  -3.519  1.00 20.00     0.005 C 
ENDBRANCH   8   9
ENDBRANCH   7   8
ENDBRANCH   6   7
TORSDOF 3
ENDMDL
