MODEL 1
REMARK VINA RESULT:      -4.9      0.000      0.000
REMARK  5 active torsions:
REMARK  status: ('A' for Active; 'I' for Inactive)
REMARK    1  A    between atoms: C1_1  and  C5_5 
REMARK    2  A    between atoms: C2_2  and  C6_6 
REMARK    3  A    between atoms: C3_3  and  O9_9 
REMARK    4  A    between atoms: C6_6  and  C7_7 
REMARK    5  A    between atoms: C7_7  and  O9_9 
ROOT
HETATM    1  C6  UNL     1     -33.064   6.778   2.962  1.00 20.00     0.053 C 
ENDROOT
BRANCH   1   2
HETATM    2  C2  UNL     1     -33.296   5.298   2.859  1.00 20.00    -0.029 C 
HETATM    3  C1  UNL     1     -34.251   4.643   3.533  1.00 20.00    -0.031 C 
BRANCH   3   4
HETATM    4  C5  UNL     1     -35.210   5.306   4.477  1.00 20.00     0.022 C 
HETATM    5  C4  UNL     1     -34.705   5.248   5.911  1.00 20.00     0.009 C 
ENDBRANCH   3   4
ENDBRANCH   1   2
BRANCH   1   6
HETATM    6  C7  UNL     1     -32.353   7.325   1.730  1.00 20.00     0.181 C 
BRANCH   6   7
HETATM    7  O9  UNL     1     -32.719   8.684   1.530  1.00 20.00    -0.328 OA
BRANCH   7   8
HETATM    8  C3  UNL     1     -33.039   9.027   0.251  1.00 20.00     0.398 C 
HETATM    9  O8  UNL     1     -33.659   8.359  -0.561  1.00 20.00    -0.276 OA
ENDBRANCH   7   8
ENDBRANCH   6   7
ENDBRANCH   1   6
TORSDOF 5
ENDMDL
MODEL 2
REMARK VINA RESULT:      -4.7      2.729      5.045
REMARK  5 active torsions:
REMARK  status: ('A' for Active; 'I' for Inactive)
REMARK    1  A    between atoms: C1_1  and  C5_5 
REMARK    2  A    between atoms: C2_2  and  C6_6 
REMARK    3  A    between atoms: C3_3  and  O9_9 
REMARK    4  A    between atoms: C6_6  and  C7_7 
REMARK    5  A    between atoms: C7_7  and  O9_9 
ROOT
HETATM    1  C6  UNL     1     -33.576   5.381   2.572  1.00 20.00     0.053 C 
ENDROOT
BRANCH   1   2
HETATM    2  C2  UNL     1     -32.785   6.510   3.167  1.00 20.00    -0.029 C 
HETATM    3  C1  UNL     1     -32.314   7.546   2.458  1.00 20.00    -0.031 C 
BRANCH   3   4
HETATM    4  C5  UNL     1     -32.518   7.707   0.980  1.00 20.00     0.022 C 
HETATM    5  C4  UNL     1     -32.960   9.120   0.632  1.00 20.00     0.009 C 
ENDBRANCH   3   4
ENDBRANCH   1   2
BRANCH   1   6
HETATM    6  C7  UNL     1     -34.115   4.443   3.647  1.00 20.00     0.181 C 
BRANCH   6   7
HETATM    7  O9  UNL     1     -35.130   5.103   4.392  1.00 20.00    -0.328 OA
BRANCH   7   8
HETATM    8  C3  UNL     1     -34.864   5.286   5.716  1.00 20.00     0.398 C 
HETATM    9  O8  UNL     1     -34.451   6.301   6.254  1.00 20.00    -0.276 OA
ENDBRANCH   7   8
ENDBRANCH   6   7
ENDBRANCH   1   6
TORSDOF 5
ENDMDL
MODEL 3
REMARK VINA RESULT:      -4.5      1.002      1.051
REMARK  5 active torsions:
REMARK  status: ('A' for Active; 'I' for Inactive)
REMARK    1  A    between atoms: C1_1  and  C5_5 
REMARK    2  A    between atoms: C2_2  and  C6_6 
REMARK    3  A    between atoms: C3_3  and  O9_9 
REMARK    4  A    between atoms: C6_6  and  C7_7 
REMARK    5  A    between atoms: C7_7  and  O9_9 
ROOT
HETATM    1  C6  UNL     1     -33.604   6.011   2.359  1.00 20.00     0.053 C 
ENDROOT
BRANCH   1   2
HETATM    2  C2  UNL     1     -33.543   4.643   2.976  1.00 20.00    -0.029 C 
HETATM    3  C1  UNL     1     -34.256   4.276   4.050  1.00 20.00    -0.031 C 
BRANCH   3   4
HETATM    4  C5  UNL     1     -35.204   5.186   4.772  1.00 20.00     0.022 C 
HETATM    5  C4  UNL     1     -34.552   5.808   5.997  1.00 20.00     0.009 C 
ENDBRANCH   3   4
ENDBRANCH   1   2
BRANCH   1   6
HETATM    6  C7  UNL     1     -32.472   6.903   2.855  1.00 20.00     0.181 C 
BRANCH   6   7
HETATM    7  O9  UNL     1     -31.961   7.672   1.773  1.00 20.00    -0.328 OA
BRANCH   7   8
HETATM    8  C3  UNL     1     -32.889   8.345   1.038  1.00 20.00     0.398 C 
HETATM    9  O8  UNL     1     -32.767   9.441   0.516  1.00 20.00    -0.276 OA
ENDBRANCH   7   8
ENDBRANCH   6   7
ENDBRANCH   1   6
TORSDOF 5
ENDMDL
MODEL 4
REMARK VINA RESULT:      -4.4     10.620     11.047
REMARK  5 active torsions:
REMARK  status: ('A' for Active; 'I' for Inactive)
REMARK    1  A    between atoms: C1_1  and  C5_5 
REMARK    2  A    between atoms: C2_2  and  C6_6 
REMARK    3  A    between atoms: C3_3  and  O9_9 
REMARK    4  A    between atoms: C6_6  and  C7_7 
REMARK    5  A    between atoms: C7_7  and  O9_9 
ROOT
HETATM    1  C6  UNL     1     -33.889  14.559  -4.116  1.00 20.00     0.053 C 
ENDROOT
BRANCH   1   2
HETATM    2  C2  UNL     1     -33.212  15.759  -3.519  1.00 20.00    -0.029 C 
HETATM    3  C1  UNL     1     -33.733  16.494  -2.526  1.00 20.00    -0.031 C 
BRANCH   3   4
HETATM    4  C5  UNL     1     -35.059  16.209  -1.886  1.00 20.00     0.022 C 
HETATM    5  C4  UNL     1     -35.257  17.042  -0.628  1.00 20.00     0.009 C 
ENDBRANCH   3   4
ENDBRANCH   1   2
BRANCH   1   6
HETATM    6  C7  UNL     1     -34.409  14.845  -5.520  1.00 20.00     0.181 C 
BRANCH   6   7
HETATM    7  O9  UNL     1     -35.603  14.108  -5.747  1.00 20.00    -0.328 OA
BRANCH   7   8
HETATM    8  C3  UNL     1     -36.274  13.713  -4.628  1.00 20.00     0.398 C 
HETATM    9  O8  UNL     1     -37.482  13.623  -4.483  1.00 20.00    -0.276 OA
ENDBRANCH   7   8
ENDBRANCH   6   7
ENDBRANCH   1   6
TORSDOF 5
ENDMDL
MODEL 5
REMARK VINA RESULT:      -4.3      2.875      4.724
REMARK  5 active torsions:
REMARK  status: ('A' for Active; 'I' for Inactive)
REMARK    1  A    between atoms: C1_1  and  C5_5 
REMARK    2  A    between atoms: C2_2  and  C6_6 
REMARK    3  A    between atoms: C3_3  and  O9_9 
REMARK    4  A    between atoms: C6_6  and  C7_7 
REMARK    5  A    between atoms: C7_7  and  O9_9 
ROOT
HETATM    1  C6  UNL     1     -34.837   5.295   3.876  1.00 20.00     0.053 C 
ENDROOT
BRANCH   1   2
HETATM    2  C2  UNL     1     -33.837   4.795   2.873  1.00 20.00    -0.029 C 
HETATM    3  C1  UNL     1     -32.867   5.553   2.344  1.00 20.00    -0.031 C 
BRANCH   3   4
HETATM    4  C5  UNL     1     -32.658   6.998   2.685  1.00 20.00     0.022 C 
HETATM    5  C4  UNL     1     -32.525   7.851   1.433  1.00 20.00     0.009 C 
ENDBRANCH   3   4
ENDBRANCH   1   2
BRANCH   1   6
HETATM    6  C7  UNL     1     -34.659   4.623   5.233  1.00 20.00     0.181 C 
BRANCH   6   7
HETATM    7  O9  UNL     1     -34.787   5.592   6.266  1.00 20.00    -0.328 OA
BRANCH   7   8
HETATM    8  C3  UNL     1     -34.269   6.821   5.989  1.00 20.00     0.398 C 
HETATM    9  O8  UNL     1     -33.098   7.159   6.042  1.00 20.00    -0.276 OA
ENDBRANCH   7   8
ENDBRANCH   6   7
ENDBRANCH   1   6
TORSDOF 5
ENDMDL
MODEL 6
REMARK VINA RESULT:      -4.2      1.323      2.289
REMARK  5 active torsions:
REMARK  status: ('A' for Active; 'I' for Inactive)
REMARK    1  A    between atoms: C1_1  and  C5_5 
REMARK    2  A    between atoms: C2_2  and  C6_6 
REMARK    3  A    between atoms: C3_3  and  O9_9 
REMARK    4  A    between atoms: C6_6  and  C7_7 
REMARK    5  A    between atoms: C7_7  and  O9_9 
ROOT
HETATM    1  C6  UNL     1     -33.742   4.394   3.417  1.00 20.00     0.053 C 
ENDROOT
BRANCH   1   2
HETATM    2  C2  UNL     1     -35.077   4.794   3.977  1.00 20.00    -0.029 C 
HETATM    3  C1  UNL     1     -35.242   5.360   5.181  1.00 20.00    -0.031 C 
BRANCH   3   4
HETATM    4  C5  UNL     1     -34.114   5.664   6.121  1.00 20.00     0.022 C 
HETATM    5  C4  UNL     1     -33.731   7.135   6.070  1.00 20.00     0.009 C 
ENDBRANCH   3   4
ENDBRANCH   1   2
BRANCH   1   6
HETATM    6  C7  UNL     1     -33.259   5.375   2.354  1.00 20.00     0.181 C 
BRANCH   6   7
HETATM    7  O9  UNL     1     -32.509   6.414   2.969  1.00 20.00    -0.328 OA
BRANCH   7   8
HETATM    8  C3  UNL     1     -32.466   7.592   2.286  1.00 20.00     0.398 C 
HETATM    9  O8  UNL     1     -32.442   7.745   1.075  1.00 20.00    -0.276 OA
ENDBRANCH   7   8
ENDBRANCH   6   7
ENDBRANCH   1   6
TORSDOF 5
ENDMDL
MODEL 7
REMARK VINA RESULT:      -4.2      1.124      1.738
REMARK  5 active torsions:
REMARK  status: ('A' for Active; 'I' for Inactive)
REMARK    1  A    between atoms: C1_1  and  C5_5 
REMARK    2  A    between atoms: C2_2  and  C6_6 
REMARK    3  A    between atoms: C3_3  and  O9_9 
REMARK    4  A    between atoms: C6_6  and  C7_7 
REMARK    5  A    between atoms: C7_7  and  O9_9 
ROOT
HETATM    1  C6  UNL     1     -33.179   6.646   3.633  1.00 20.00     0.053 C 
ENDROOT
BRANCH   1   2
HETATM    2  C2  UNL     1     -33.407   7.187   5.016  1.00 20.00    -0.029 C 
HETATM    3  C1  UNL     1     -34.092   6.539   5.968  1.00 20.00    -0.031 C 
BRANCH   3   4
HETATM    4  C5  UNL     1     -34.718   5.189   5.773  1.00 20.00     0.022 C 
HETATM    5  C4  UNL     1     -35.462   5.110   4.448  1.00 20.00     0.009 C 
ENDBRANCH   3   4
ENDBRANCH   1   2
BRANCH   1   6
HETATM    6  C7  UNL     1     -32.137   7.459   2.874  1.00 20.00     0.181 C 
BRANCH   6   7
HETATM    7  O9  UNL     1     -32.406   7.398   1.479  1.00 20.00    -0.328 OA
BRANCH   7   8
HETATM    8  C3  UNL     1     -32.713   8.585   0.886  1.00 20.00     0.398 C 
HETATM    9  O8  UNL     1     -33.366   8.757  -0.131  1.00 20.00    -0.276 OA
ENDBRANCH   7   8
ENDBRANCH   6   7
ENDBRANCH   1   6
TORSDOF 5
ENDMDL
MODEL 8
REMARK VINA RESULT:      -4.1      2.959      4.965
REMARK  5 active torsions:
REMARK  status: ('A' for Active; 'I' for Inactive)
REMARK    1  A    between atoms: C1_1  and  C5_5 
REMARK    2  A    between atoms: C2_2  and  C6_6 
REMARK    3  A    between atoms: C3_3  and  O9_9 
REMARK    4  A    between atoms: C6_6  and  C7_7 
REMARK    5  A    between atoms: C7_7  and  O9_9 
ROOT
HETATM    1  C6  UNL     1     -33.834   7.020   3.645  1.00 20.00     0.053 C 
ENDROOT
BRANCH   1   2
HETATM    2  C2  UNL     1     -32.583   6.803   2.843  1.00 20.00    -0.029 C 
HETATM    3  C1  UNL     1     -32.217   7.574   1.809  1.00 20.00    -0.031 C 
BRANCH   3   4
HETATM    4  C5  UNL     1     -33.011   8.750   1.323  1.00 20.00     0.022 C 
HETATM    5  C4  UNL     1     -33.276   8.661  -0.172  1.00 20.00     0.009 C 
ENDBRANCH   3   4
ENDBRANCH   1   2
BRANCH   1   6
HETATM    6  C7  UNL     1     -33.590   6.817   5.136  1.00 20.00     0.181 C 
BRANCH   6   7
HETATM    7  O9  UNL     1     -34.520   5.871   5.648  1.00 20.00    -0.328 OA
BRANCH   7   8
HETATM    8  C3  UNL     1     -35.070   5.029   4.730  1.00 20.00     0.398 C 
HETATM    9  O8  UNL     1     -34.583   4.005   4.279  1.00 20.00    -0.276 OA
ENDBRANCH   7   8
ENDBRANCH   6   7
ENDBRANCH   1   6
TORSDOF 5
ENDMDL
MODEL 9
REMARK VINA RESULT:      -4.1     10.445     11.360
REMARK  5 active torsions:
REMARK  status: ('A' for Active; 'I' for Inactive)
REMARK    1  A    between atoms: C1_1  and  C5_5 
REMARK    2  A    between atoms: C2_2  and  C6_6 
REMARK    3  A    between atoms: C3_3  and  O9_9 
REMARK    4  A    between atoms: C6_6  and  C7_7 
REMARK    5  A    between atoms: C7_7  and  O9_9 
ROOT
HETATM    1  C6  UNL     1     -35.034  15.526  -2.647  1.00 20.00     0.053 C 
ENDROOT
BRANCH   1   2
HETATM    2  C2  UNL     1     -33.719  15.862  -3.292  1.00 20.00    -0.029 C 
HETATM    3  C1  UNL     1     -32.883  16.805  -2.835  1.00 20.00    -0.031 C 
BRANCH   3   4
HETATM    4  C5  UNL     1     -33.155  17.644  -1.622  1.00 20.00     0.022 C 
HETATM    5  C4  UNL     1     -31.891  18.330  -1.128  1.00 20.00     0.009 C 
ENDBRANCH   3   4
ENDBRANCH   1   2
BRANCH   1   6
HETATM    6  C7  UNL     1     -36.200  15.722  -3.610  1.00 20.00     0.181 C 
BRANCH   6   7
HETATM    7  O9  UNL     1     -36.869  14.484  -3.807  1.00 20.00    -0.328 OA
BRANCH   7   8
HETATM    8  C3  UNL     1     -36.297  13.643  -4.714  1.00 20.00     0.398 C 
HETATM    9  O8  UNL     1     -35.797  12.551  -4.498  1.00 20.00    -0.276 OA
ENDBRANCH   7   8
ENDBRANCH   6   7
ENDBRANCH   1   6
TORSDOF 5
ENDMDL
