MODEL 1
REMARK VINA RESULT:      -6.0      0.000      0.000
REMARK  0 active torsions:
REMARK  status: ('A' for Active; 'I' for Inactive)
ROOT
HETATM    1  C1  UNL     1     -34.939   4.833   5.648  1.00 20.00     0.001 A 
HETATM    2  C2  UNL     1     -34.512   6.001   6.286  1.00 20.00     0.003 A 
HETATM    3  C3  UNL     1     -34.643   4.598   4.299  1.00 20.00     0.014 A 
HETATM    4  C4  UNL     1     -33.775   6.973   5.603  1.00 20.00     0.038 A 
HETATM    5  C5  UNL     1     -33.416   5.698   2.265  1.00 20.00     0.046 A 
HETATM    6  C6  UNL     1     -33.903   5.563   3.591  1.00 20.00     0.000 A 
HETATM    7  C7  UNL     1     -33.496   6.711   4.263  1.00 20.00     0.086 A 
HETATM    8  C8  UNL     1     -32.752   6.903   2.217  1.00 20.00     0.050 A 
HETATM    9  C9  UNL     1     -32.038   7.611   1.146  1.00 20.00     0.077 C 
HETATM   10  O10 UNL     1     -32.797   7.525   3.423  1.00 20.00    -0.315 OA
ENDROOT
TORSDOF 0
ENDMDL
MODEL 2
REMARK VINA RESULT:      -4.9     15.441     16.130
REMARK  0 active torsions:
REMARK  status: ('A' for Active; 'I' for Inactive)
ROOT
HETATM    1  C1  UNL     1     -25.980  17.814  12.229  1.00 20.00     0.001 A 
HETATM    2  C2  UNL     1     -25.587  16.477  12.332  1.00 20.00     0.003 A 
HETATM    3  C3  UNL     1     -25.412  18.663  11.270  1.00 20.00     0.014 A 
HETATM    4  C4  UNL     1     -24.616  15.939  11.481  1.00 20.00     0.038 A 
HETATM    5  C5  UNL     1     -23.646  18.653   9.339  1.00 20.00     0.046 A 
HETATM    6  C6  UNL     1     -24.433  18.143  10.404  1.00 20.00     0.000 A 
HETATM    7  C7  UNL     1     -24.070  16.807  10.538  1.00 20.00     0.086 A 
HETATM    8  C8  UNL     1     -22.866  17.608   8.899  1.00 20.00     0.050 A 
HETATM    9  C9  UNL     1     -21.855  17.488   7.839  1.00 20.00     0.077 C 
HETATM   10  O10 UNL     1     -23.115  16.484   9.620  1.00 20.00    -0.315 OA
ENDROOT
TORSDOF 0
ENDMDL
MODEL 3
REMARK VINA RESULT:      -4.8     14.745     15.830
REMARK  0 active torsions:
REMARK  status: ('A' for Active; 'I' for Inactive)
ROOT
HETATM    1  C1  UNL     1     -27.174  19.231   3.792  1.00 20.00     0.001 A 
HETATM    2  C2  UNL     1     -25.902  19.257   3.213  1.00 20.00     0.003 A 
HETATM    3  C3  UNL     1     -27.333  19.194   5.184  1.00 20.00     0.014 A 
HETATM    4  C4  UNL     1     -24.746  19.248   4.000  1.00 20.00     0.038 A 
HETATM    5  C5  UNL     1     -25.926  19.150   7.390  1.00 20.00     0.046 A 
HETATM    6  C6  UNL     1     -26.184  19.183   5.995  1.00 20.00     0.000 A 
HETATM    7  C7  UNL     1     -24.937  19.211   5.380  1.00 20.00     0.086 A 
HETATM    8  C8  UNL     1     -24.558  19.160   7.532  1.00 20.00     0.050 A 
HETATM    9  C9  UNL     1     -23.671  19.137   8.703  1.00 20.00     0.077 C 
HETATM   10  O10 UNL     1     -23.949  19.196   6.319  1.00 20.00    -0.315 OA
ENDROOT
TORSDOF 0
ENDMDL
MODEL 4
REMARK VINA RESULT:      -4.7     11.540     12.229
REMARK  0 active torsions:
REMARK  status: ('A' for Active; 'I' for Inactive)
ROOT
HETATM    1  C1  UNL     1     -34.880  14.274  -4.133  1.00 20.00     0.001 A 
HETATM    2  C2  UNL     1     -33.558  14.606  -4.441  1.00 20.00     0.003 A 
HETATM    3  C3  UNL     1     -35.567  14.925  -3.100  1.00 20.00     0.014 A 
HETATM    4  C4  UNL     1     -32.875  15.599  -3.731  1.00 20.00     0.038 A 
HETATM    5  C5  UNL     1     -35.228  16.790  -1.294  1.00 20.00     0.046 A 
HETATM    6  C6  UNL     1     -34.899  15.927  -2.372  1.00 20.00     0.000 A 
HETATM    7  C7  UNL     1     -33.584  16.229  -2.710  1.00 20.00     0.086 A 
HETATM    8  C8  UNL     1     -34.108  17.550  -1.049  1.00 20.00     0.050 A 
HETATM    9  C9  UNL     1     -33.808  18.610  -0.077  1.00 20.00     0.077 C 
HETATM   10  O10 UNL     1     -33.105  17.217  -1.903  1.00 20.00    -0.315 OA
ENDROOT
TORSDOF 0
ENDMDL
MODEL 5
REMARK VINA RESULT:      -4.7     11.748     12.247
REMARK  0 active torsions:
REMARK  status: ('A' for Active; 'I' for Inactive)
ROOT
HETATM    1  C1  UNL     1     -34.470  17.968  -0.027  1.00 20.00     0.001 A 
HETATM    2  C2  UNL     1     -33.205  18.411  -0.422  1.00 20.00     0.003 A 
HETATM    3  C3  UNL     1     -35.155  16.990  -0.759  1.00 20.00     0.014 A 
HETATM    4  C4  UNL     1     -32.578  17.893  -1.560  1.00 20.00     0.038 A 
HETATM    5  C5  UNL     1     -34.890  15.486  -2.885  1.00 20.00     0.046 A 
HETATM    6  C6  UNL     1     -34.544  16.455  -1.908  1.00 20.00     0.000 A 
HETATM    7  C7  UNL     1     -33.283  16.922  -2.267  1.00 20.00     0.086 A 
HETATM    8  C8  UNL     1     -33.833  15.425  -3.764  1.00 20.00     0.050 A 
HETATM    9  C9  UNL     1     -33.579  14.632  -4.973  1.00 20.00     0.077 C 
HETATM   10  O10 UNL     1     -32.854  16.293  -3.398  1.00 20.00    -0.315 OA
ENDROOT
TORSDOF 0
ENDMDL
MODEL 6
REMARK VINA RESULT:      -4.6     11.518     12.272
REMARK  0 active torsions:
REMARK  status: ('A' for Active; 'I' for Inactive)
ROOT
HETATM    1  C1  UNL     1     -32.942  18.534  -0.711  1.00 20.00     0.001 A 
HETATM    2  C2  UNL     1     -34.167  18.274  -0.091  1.00 20.00     0.003 A 
HETATM    3  C3  UNL     1     -32.536  17.812  -1.841  1.00 20.00     0.014 A 
HETATM    4  C4  UNL     1     -35.030  17.287  -0.575  1.00 20.00     0.038 A 
HETATM    5  C5  UNL     1     -33.348  15.895  -3.427  1.00 20.00     0.046 A 
HETATM    6  C6  UNL     1     -33.388  16.813  -2.345  1.00 20.00     0.000 A 
HETATM    7  C7  UNL     1     -34.599  16.586  -1.700  1.00 20.00     0.086 A 
HETATM    8  C8  UNL     1     -34.521  15.178  -3.370  1.00 20.00     0.050 A 
HETATM    9  C9  UNL     1     -35.075  14.095  -4.194  1.00 20.00     0.077 C 
HETATM   10  O10 UNL     1     -35.286  15.589  -2.326  1.00 20.00    -0.315 OA
ENDROOT
TORSDOF 0
ENDMDL
MODEL 7
REMARK VINA RESULT:      -4.5     11.500     12.301
REMARK  0 active torsions:
REMARK  status: ('A' for Active; 'I' for Inactive)
ROOT
HETATM    1  C1  UNL     1     -33.690  14.561  -4.426  1.00 20.00     0.001 A 
HETATM    2  C2  UNL     1     -35.005  14.278  -4.047  1.00 20.00     0.003 A 
HETATM    3  C3  UNL     1     -32.953  15.565  -3.784  1.00 20.00     0.014 A 
HETATM    4  C4  UNL     1     -35.630  14.985  -3.015  1.00 20.00     0.038 A 
HETATM    5  C5  UNL     1     -33.173  17.342  -1.876  1.00 20.00     0.046 A 
HETATM    6  C6  UNL     1     -33.562  16.289  -2.743  1.00 20.00     0.000 A 
HETATM    7  C7  UNL     1     -34.872  15.976  -2.396  1.00 20.00     0.086 A 
HETATM    8  C8  UNL     1     -34.255  17.599  -1.066  1.00 20.00     0.050 A 
HETATM    9  C9  UNL     1     -34.489  18.558   0.022  1.00 20.00     0.077 C 
HETATM   10  O10 UNL     1     -35.291  16.776  -1.375  1.00 20.00    -0.315 OA
ENDROOT
TORSDOF 0
ENDMDL
MODEL 8
REMARK VINA RESULT:      -4.5     15.804     16.338
REMARK  0 active torsions:
REMARK  status: ('A' for Active; 'I' for Inactive)
ROOT
HETATM    1  C1  UNL     1     -26.868  17.485  12.331  1.00 20.00     0.001 A 
HETATM    2  C2  UNL     1     -27.109  18.698  11.681  1.00 20.00     0.003 A 
HETATM    3  C3  UNL     1     -25.679  16.774  12.120  1.00 20.00     0.014 A 
HETATM    4  C4  UNL     1     -26.172  19.246  10.798  1.00 20.00     0.038 A 
HETATM    5  C5  UNL     1     -23.442  16.913  10.767  1.00 20.00     0.046 A 
HETATM    6  C6  UNL     1     -24.723  17.307  11.235  1.00 20.00     0.000 A 
HETATM    7  C7  UNL     1     -25.000  18.517  10.609  1.00 20.00     0.086 A 
HETATM    8  C8  UNL     1     -23.028  17.896   9.898  1.00 20.00     0.050 A 
HETATM    9  C9  UNL     1     -21.811  18.076   9.095  1.00 20.00     0.077 C 
HETATM   10  O10 UNL     1     -23.966  18.873   9.795  1.00 20.00    -0.315 OA
ENDROOT
TORSDOF 0
ENDMDL
MODEL 9
REMARK VINA RESULT:      -4.3     11.758     12.675
REMARK  0 active torsions:
REMARK  status: ('A' for Active; 'I' for Inactive)
ROOT
HETATM    1  C1  UNL     1     -36.190  14.083  -5.208  1.00 20.00     0.001 A 
HETATM    2  C2  UNL     1     -35.325  14.628  -6.161  1.00 20.00     0.003 A 
HETATM    3  C3  UNL     1     -36.086  14.430  -3.855  1.00 20.00     0.014 A 
HETATM    4  C4  UNL     1     -34.328  15.540  -5.798  1.00 20.00     0.038 A 
HETATM    5  C5  UNL     1     -34.672  15.934  -2.246  1.00 20.00     0.046 A 
HETATM    6  C6  UNL     1     -35.091  15.345  -3.467  1.00 20.00     0.000 A 
HETATM    7  C7  UNL     1     -34.250  15.866  -4.446  1.00 20.00     0.086 A 
HETATM    8  C8  UNL     1     -33.619  16.764  -2.555  1.00 20.00     0.050 A 
HETATM    9  C9  UNL     1     -32.763  17.642  -1.746  1.00 20.00     0.077 C 
HETATM   10  O10 UNL     1     -33.355  16.729  -3.887  1.00 20.00    -0.315 OA
ENDROOT
TORSDOF 0
ENDMDL
