MODEL 1
REMARK VINA RESULT:      -5.4      0.000      0.000
REMARK  1 active torsions:
REMARK  status: ('A' for Active; 'I' for Inactive)
REMARK    1  A    between atoms: C6_6  and  O8_8 
ROOT
HETATM    1  C1  UNL     1     -34.941   5.150   5.429  1.00 20.00     0.000 A 
HETATM    2  C2  UNL     1     -34.667   4.772   4.115  1.00 20.00     0.003 A 
HETATM    3  C3  UNL     1     -34.324   6.276   5.973  1.00 20.00     0.003 A 
HETATM    4  C4  UNL     1     -33.778   5.521   3.344  1.00 20.00     0.037 A 
HETATM    5  C5  UNL     1     -33.436   7.026   5.203  1.00 20.00     0.037 A 
HETATM    6  C6  UNL     1     -33.162   6.649   3.888  1.00 20.00     0.068 A 
ENDROOT
BRANCH   6   7
HETATM    7  O8  UNL     1     -32.294   7.379   3.138  1.00 20.00    -0.356 OA
HETATM    8  C7  UNL     1     -32.570   7.484   1.742  1.00 20.00     0.210 C 
ENDBRANCH   6   7
TORSDOF 1
ENDMDL
MODEL 2
REMARK VINA RESULT:      -5.4      0.017      1.709
REMARK  1 active torsions:
REMARK  status: ('A' for Active; 'I' for Inactive)
REMARK    1  A    between atoms: C6_6  and  O8_8 
ROOT
HETATM    1  C1  UNL     1     -34.952   5.134   5.429  1.00 20.00     0.000 A 
HETATM    2  C2  UNL     1     -34.339   6.260   5.978  1.00 20.00     0.003 A 
HETATM    3  C3  UNL     1     -34.675   4.761   4.113  1.00 20.00     0.003 A 
HETATM    4  C4  UNL     1     -33.446   7.011   5.213  1.00 20.00     0.037 A 
HETATM    5  C5  UNL     1     -33.783   5.512   3.348  1.00 20.00     0.037 A 
HETATM    6  C6  UNL     1     -33.168   6.637   3.898  1.00 20.00     0.068 A 
ENDROOT
BRANCH   6   7
HETATM    7  O8  UNL     1     -32.300   7.370   3.150  1.00 20.00    -0.356 OA
HETATM    8  C7  UNL     1     -32.579   7.484   1.756  1.00 20.00     0.210 C 
ENDBRANCH   6   7
TORSDOF 1
ENDMDL
MODEL 3
REMARK VINA RESULT:      -4.4      1.348      1.691
REMARK  1 active torsions:
REMARK  status: ('A' for Active; 'I' for Inactive)
REMARK    1  A    between atoms: C6_6  and  O8_8 
ROOT
HETATM    1  C1  UNL     1     -34.672   5.997   6.356  1.00 20.00     0.000 A 
HETATM    2  C2  UNL     1     -35.080   4.917   5.572  1.00 20.00     0.003 A 
HETATM    3  C3  UNL     1     -33.837   6.974   5.815  1.00 20.00     0.003 A 
HETATM    4  C4  UNL     1     -34.654   4.815   4.248  1.00 20.00     0.037 A 
HETATM    5  C5  UNL     1     -33.411   6.873   4.491  1.00 20.00     0.037 A 
HETATM    6  C6  UNL     1     -33.819   5.793   3.707  1.00 20.00     0.068 A 
ENDROOT
BRANCH   6   7
HETATM    7  O8  UNL     1     -33.401   5.694   2.416  1.00 20.00    -0.356 OA
HETATM    8  C7  UNL     1     -33.024   4.398   1.953  1.00 20.00     0.210 C 
ENDBRANCH   6   7
TORSDOF 1
ENDMDL
MODEL 4
REMARK VINA RESULT:      -4.1     11.586     12.102
REMARK  1 active torsions:
REMARK  status: ('A' for Active; 'I' for Inactive)
REMARK    1  A    between atoms: C6_6  and  O8_8 
ROOT
HETATM    1  C1  UNL     1     -33.761  17.063  -2.009  1.00 20.00     0.000 A 
HETATM    2  C2  UNL     1     -35.006  16.454  -1.847  1.00 20.00     0.003 A 
HETATM    3  C3  UNL     1     -32.875  16.590  -2.977  1.00 20.00     0.003 A 
HETATM    4  C4  UNL     1     -35.365  15.374  -2.653  1.00 20.00     0.037 A 
HETATM    5  C5  UNL     1     -33.234  15.511  -3.784  1.00 20.00     0.037 A 
HETATM    6  C6  UNL     1     -34.479  14.902  -3.622  1.00 20.00     0.068 A 
ENDROOT
BRANCH   6   7
HETATM    7  O8  UNL     1     -34.827  13.847  -4.408  1.00 20.00    -0.356 OA
HETATM    8  C7  UNL     1     -36.218  13.660  -4.664  1.00 20.00     0.210 C 
ENDBRANCH   6   7
TORSDOF 1
ENDMDL
MODEL 5
REMARK VINA RESULT:      -4.0     11.606     12.104
REMARK  1 active torsions:
REMARK  status: ('A' for Active; 'I' for Inactive)
REMARK    1  A    between atoms: C6_6  and  O8_8 
ROOT
HETATM    1  C1  UNL     1     -33.802  17.100  -2.049  1.00 20.00     0.000 A 
HETATM    2  C2  UNL     1     -32.917  16.603  -3.006  1.00 20.00     0.003 A 
HETATM    3  C3  UNL     1     -35.053  16.507  -1.882  1.00 20.00     0.003 A 
HETATM    4  C4  UNL     1     -33.283  15.512  -3.795  1.00 20.00     0.037 A 
HETATM    5  C5  UNL     1     -35.419  15.416  -2.670  1.00 20.00     0.037 A 
HETATM    6  C6  UNL     1     -34.534  14.918  -3.626  1.00 20.00     0.068 A 
ENDROOT
BRANCH   6   7
HETATM    7  O8  UNL     1     -34.893  13.855  -4.397  1.00 20.00    -0.356 OA
HETATM    8  C7  UNL     1     -36.289  13.639  -4.595  1.00 20.00     0.210 C 
ENDBRANCH   6   7
TORSDOF 1
ENDMDL
MODEL 6
REMARK VINA RESULT:      -4.0     11.838     12.398
REMARK  1 active torsions:
REMARK  status: ('A' for Active; 'I' for Inactive)
REMARK    1  A    between atoms: C6_6  and  O8_8 
ROOT
HETATM    1  C1  UNL     1     -34.197  16.760  -1.896  1.00 20.00     0.000 A 
HETATM    2  C2  UNL     1     -33.057  16.730  -2.698  1.00 20.00     0.003 A 
HETATM    3  C3  UNL     1     -35.298  15.967  -2.220  1.00 20.00     0.003 A 
HETATM    4  C4  UNL     1     -33.016  15.907  -3.823  1.00 20.00     0.037 A 
HETATM    5  C5  UNL     1     -35.258  15.143  -3.344  1.00 20.00     0.037 A 
HETATM    6  C6  UNL     1     -34.117  15.113  -4.147  1.00 20.00     0.068 A 
ENDROOT
BRANCH   6   7
HETATM    7  O8  UNL     1     -34.079  14.311  -5.245  1.00 20.00    -0.356 OA
HETATM    8  C7  UNL     1     -34.011  14.954  -6.517  1.00 20.00     0.210 C 
ENDBRANCH   6   7
TORSDOF 1
ENDMDL
MODEL 7
REMARK VINA RESULT:      -3.9     11.942     12.536
REMARK  1 active torsions:
REMARK  status: ('A' for Active; 'I' for Inactive)
REMARK    1  A    between atoms: C6_6  and  O8_8 
ROOT
HETATM    1  C1  UNL     1     -35.057  15.884  -2.244  1.00 20.00     0.000 A 
HETATM    2  C2  UNL     1     -33.966  15.810  -3.111  1.00 20.00     0.003 A 
HETATM    3  C3  UNL     1     -35.061  16.817  -1.207  1.00 20.00     0.003 A 
HETATM    4  C4  UNL     1     -32.881  16.670  -2.943  1.00 20.00     0.037 A 
HETATM    5  C5  UNL     1     -33.976  17.678  -1.039  1.00 20.00     0.037 A 
HETATM    6  C6  UNL     1     -32.886  17.605  -1.906  1.00 20.00     0.068 A 
ENDROOT
BRANCH   6   7
HETATM    7  O8  UNL     1     -31.827  18.443  -1.740  1.00 20.00    -0.356 OA
HETATM    8  C7  UNL     1     -31.244  18.502  -0.439  1.00 20.00     0.210 C 
ENDBRANCH   6   7
TORSDOF 1
ENDMDL
MODEL 8
REMARK VINA RESULT:      -3.9      1.786      3.368
REMARK  1 active torsions:
REMARK  status: ('A' for Active; 'I' for Inactive)
REMARK    1  A    between atoms: C6_6  and  O8_8 
ROOT
HETATM    1  C1  UNL     1     -32.543   6.548   2.269  1.00 20.00     0.000 A 
HETATM    2  C2  UNL     1     -33.009   5.256   2.024  1.00 20.00     0.003 A 
HETATM    3  C3  UNL     1     -32.961   7.235   3.409  1.00 20.00     0.003 A 
HETATM    4  C4  UNL     1     -33.891   4.651   2.920  1.00 20.00     0.037 A 
HETATM    5  C5  UNL     1     -33.842   6.631   4.304  1.00 20.00     0.037 A 
HETATM    6  C6  UNL     1     -34.308   5.338   4.061  1.00 20.00     0.068 A 
ENDROOT
BRANCH   6   7
HETATM    7  O8  UNL     1     -35.169   4.750   4.934  1.00 20.00    -0.356 OA
HETATM    8  C7  UNL     1     -34.975   5.022   6.321  1.00 20.00     0.210 C 
ENDBRANCH   6   7
TORSDOF 1
ENDMDL
MODEL 9
REMARK VINA RESULT:      -3.9      1.715      3.729
REMARK  1 active torsions:
REMARK  status: ('A' for Active; 'I' for Inactive)
REMARK    1  A    between atoms: C6_6  and  O8_8 
ROOT
HETATM    1  C1  UNL     1     -32.307   6.766   2.398  1.00 20.00     0.000 A 
HETATM    2  C2  UNL     1     -32.672   7.407   3.582  1.00 20.00     0.003 A 
HETATM    3  C3  UNL     1     -32.902   5.554   2.049  1.00 20.00     0.003 A 
HETATM    4  C4  UNL     1     -33.633   6.837   4.417  1.00 20.00     0.037 A 
HETATM    5  C5  UNL     1     -33.863   4.983   2.883  1.00 20.00     0.037 A 
HETATM    6  C6  UNL     1     -34.229   5.624   4.067  1.00 20.00     0.068 A 
ENDROOT
BRANCH   6   7
HETATM    7  O8  UNL     1     -35.166   5.066   4.880  1.00 20.00    -0.356 OA
HETATM    8  C7  UNL     1     -34.882   5.044   6.278  1.00 20.00     0.210 C 
ENDBRANCH   6   7
TORSDOF 1
ENDMDL
