MODEL 1
REMARK VINA RESULT:      -5.7      0.000      0.000
REMARK  1 active torsions:
REMARK  status: ('A' for Active; 'I' for Inactive)
REMARK    1  A    between atoms: C6_6  and  N8_8 
ROOT
HETATM    1  N7  UNL     1     -32.939   8.120   0.958  1.00 20.00     0.068 N 
HETATM    2  N8  UNL     1     -32.076   7.250   3.012  1.00 20.00    -0.073 NA
HETATM    3  N9  UNL     1     -32.531   7.703   1.940  1.00 20.00    -0.162 NA
ENDROOT
BRANCH   2   4
HETATM    4  C6  UNL     1     -33.049   6.609   3.787  1.00 20.00     0.093 A 
HETATM    5  C4  UNL     1     -33.743   5.515   3.268  1.00 20.00     0.034 A 
HETATM    6  C2  UNL     1     -34.713   4.875   4.040  1.00 20.00     0.002 A 
HETATM    7  C1  UNL     1     -34.989   5.329   5.330  1.00 20.00     0.000 A 
HETATM    8  C3  UNL     1     -34.295   6.424   5.847  1.00 20.00     0.002 A 
HETATM    9  C5  UNL     1     -33.325   7.063   5.076  1.00 20.00     0.034 A 
ENDBRANCH   2   4
TORSDOF 1
ENDMDL
MODEL 2
REMARK VINA RESULT:      -5.7      0.026      1.611
REMARK  1 active torsions:
REMARK  status: ('A' for Active; 'I' for Inactive)
REMARK    1  A    between atoms: C6_6  and  N8_8 
ROOT
HETATM    1  N7  UNL     1     -32.934   8.096   0.955  1.00 20.00     0.068 N 
HETATM    2  N8  UNL     1     -32.084   7.261   3.029  1.00 20.00    -0.073 NA
HETATM    3  N9  UNL     1     -32.532   7.696   1.946  1.00 20.00    -0.162 NA
ENDROOT
BRANCH   2   4
HETATM    4  C6  UNL     1     -33.055   6.604   3.793  1.00 20.00     0.093 A 
HETATM    5  C4  UNL     1     -33.349   7.052   5.082  1.00 20.00     0.034 A 
HETATM    6  C2  UNL     1     -34.317   6.397   5.844  1.00 20.00     0.002 A 
HETATM    7  C1  UNL     1     -34.991   5.295   5.317  1.00 20.00     0.000 A 
HETATM    8  C3  UNL     1     -34.696   4.847   4.028  1.00 20.00     0.002 A 
HETATM    9  C5  UNL     1     -33.728   5.502   3.267  1.00 20.00     0.034 A 
ENDBRANCH   2   4
TORSDOF 1
ENDMDL
MODEL 3
REMARK VINA RESULT:      -4.8     11.189     11.691
REMARK  1 active torsions:
REMARK  status: ('A' for Active; 'I' for Inactive)
REMARK    1  A    between atoms: C6_6  and  N8_8 
ROOT
HETATM    1  N7  UNL     1     -38.380  14.323  -4.402  1.00 20.00     0.068 N 
HETATM    2  N8  UNL     1     -36.189  13.364  -4.426  1.00 20.00    -0.073 NA
HETATM    3  N9  UNL     1     -37.333  13.869  -4.412  1.00 20.00    -0.162 NA
ENDROOT
BRANCH   2   4
HETATM    4  C6  UNL     1     -35.199  14.252  -3.989  1.00 20.00     0.093 A 
HETATM    5  C4  UNL     1     -33.929  14.219  -4.567  1.00 20.00     0.034 A 
HETATM    6  C2  UNL     1     -32.942  15.103  -4.132  1.00 20.00     0.002 A 
HETATM    7  C1  UNL     1     -33.225  16.020  -3.119  1.00 20.00     0.000 A 
HETATM    8  C3  UNL     1     -34.495  16.052  -2.541  1.00 20.00     0.002 A 
HETATM    9  C5  UNL     1     -35.482  15.167  -2.977  1.00 20.00     0.034 A 
ENDBRANCH   2   4
TORSDOF 1
ENDMDL
MODEL 4
REMARK VINA RESULT:      -4.8     11.187     11.762
REMARK  1 active torsions:
REMARK  status: ('A' for Active; 'I' for Inactive)
REMARK    1  A    between atoms: C6_6  and  N8_8 
ROOT
HETATM    1  N7  UNL     1     -38.376  14.324  -4.409  1.00 20.00     0.068 N 
HETATM    2  N8  UNL     1     -36.185  13.365  -4.423  1.00 20.00    -0.073 NA
HETATM    3  N9  UNL     1     -37.328  13.870  -4.414  1.00 20.00    -0.162 NA
ENDROOT
BRANCH   2   4
HETATM    4  C6  UNL     1     -35.196  14.254  -3.987  1.00 20.00     0.093 A 
HETATM    5  C4  UNL     1     -35.479  15.169  -2.972  1.00 20.00     0.034 A 
HETATM    6  C2  UNL     1     -34.494  16.055  -2.538  1.00 20.00     0.002 A 
HETATM    7  C1  UNL     1     -33.224  16.026  -3.117  1.00 20.00     0.000 A 
HETATM    8  C3  UNL     1     -32.942  15.111  -4.131  1.00 20.00     0.002 A 
HETATM    9  C5  UNL     1     -33.928  14.224  -4.566  1.00 20.00     0.034 A 
ENDBRANCH   2   4
TORSDOF 1
ENDMDL
MODEL 5
REMARK VINA RESULT:      -4.7     11.249     11.979
REMARK  1 active torsions:
REMARK  status: ('A' for Active; 'I' for Inactive)
REMARK    1  A    between atoms: C6_6  and  N8_8 
ROOT
HETATM    1  N7  UNL     1     -34.000  15.081  -7.007  1.00 20.00     0.068 N 
HETATM    2  N8  UNL     1     -33.929  14.135  -4.811  1.00 20.00    -0.073 NA
HETATM    3  N9  UNL     1     -33.967  14.633  -5.957  1.00 20.00    -0.162 NA
ENDROOT
BRANCH   2   4
HETATM    4  C6  UNL     1     -34.010  15.097  -3.798  1.00 20.00     0.093 A 
HETATM    5  C4  UNL     1     -35.142  15.160  -2.986  1.00 20.00     0.034 A 
HETATM    6  C2  UNL     1     -35.223  16.119  -1.976  1.00 20.00     0.002 A 
HETATM    7  C1  UNL     1     -34.170  17.014  -1.778  1.00 20.00     0.000 A 
HETATM    8  C3  UNL     1     -33.039  16.950  -2.592  1.00 20.00     0.002 A 
HETATM    9  C5  UNL     1     -32.958  15.991  -3.602  1.00 20.00     0.034 A 
ENDBRANCH   2   4
TORSDOF 1
ENDMDL
MODEL 6
REMARK VINA RESULT:      -4.7     11.270     11.989
REMARK  1 active torsions:
REMARK  status: ('A' for Active; 'I' for Inactive)
REMARK    1  A    between atoms: C6_6  and  N8_8 
ROOT
HETATM    1  N7  UNL     1     -33.996  15.098  -7.021  1.00 20.00     0.068 N 
HETATM    2  N8  UNL     1     -34.002  14.122  -4.837  1.00 20.00    -0.073 NA
HETATM    3  N9  UNL     1     -33.999  14.636  -5.976  1.00 20.00    -0.162 NA
ENDROOT
BRANCH   2   4
HETATM    4  C6  UNL     1     -34.049  15.075  -3.812  1.00 20.00     0.093 A 
HETATM    5  C4  UNL     1     -32.965  15.928  -3.604  1.00 20.00     0.034 A 
HETATM    6  C2  UNL     1     -33.012  16.878  -2.583  1.00 20.00     0.002 A 
HETATM    7  C1  UNL     1     -34.143  16.974  -1.771  1.00 20.00     0.000 A 
HETATM    8  C3  UNL     1     -35.226  16.120  -1.981  1.00 20.00     0.002 A 
HETATM    9  C5  UNL     1     -35.179  15.170  -3.001  1.00 20.00     0.034 A 
ENDBRANCH   2   4
TORSDOF 1
ENDMDL
MODEL 7
REMARK VINA RESULT:      -4.5     11.761     12.296
REMARK  1 active torsions:
REMARK  status: ('A' for Active; 'I' for Inactive)
REMARK    1  A    between atoms: C6_6  and  N8_8 
ROOT
HETATM    1  N7  UNL     1     -30.678  18.384   0.190  1.00 20.00     0.068 N 
HETATM    2  N8  UNL     1     -31.891  18.612  -1.859  1.00 20.00    -0.073 NA
HETATM    3  N9  UNL     1     -31.259  18.490  -0.787  1.00 20.00    -0.162 NA
ENDROOT
BRANCH   2   4
HETATM    4  C6  UNL     1     -32.936  17.689  -1.982  1.00 20.00     0.093 A 
HETATM    5  C4  UNL     1     -32.891  16.714  -2.979  1.00 20.00     0.034 A 
HETATM    6  C2  UNL     1     -33.933  15.794  -3.101  1.00 20.00     0.002 A 
HETATM    7  C1  UNL     1     -35.018  15.849  -2.226  1.00 20.00     0.000 A 
HETATM    8  C3  UNL     1     -35.062  16.825  -1.229  1.00 20.00     0.002 A 
HETATM    9  C5  UNL     1     -34.020  17.745  -1.107  1.00 20.00     0.034 A 
ENDBRANCH   2   4
TORSDOF 1
ENDMDL
MODEL 8
REMARK VINA RESULT:      -4.5     11.746     12.347
REMARK  1 active torsions:
REMARK  status: ('A' for Active; 'I' for Inactive)
REMARK    1  A    between atoms: C6_6  and  N8_8 
ROOT
HETATM    1  N7  UNL     1     -30.629  18.269   0.320  1.00 20.00     0.068 N 
HETATM    2  N8  UNL     1     -31.843  18.596  -1.714  1.00 20.00    -0.073 NA
HETATM    3  N9  UNL     1     -31.211  18.422  -0.650  1.00 20.00    -0.162 NA
ENDROOT
BRANCH   2   4
HETATM    4  C6  UNL     1     -32.914  17.707  -1.861  1.00 20.00     0.093 A 
HETATM    5  C4  UNL     1     -33.983  17.749  -0.965  1.00 20.00     0.034 A 
HETATM    6  C2  UNL     1     -35.050  16.863  -1.111  1.00 20.00     0.002 A 
HETATM    7  C1  UNL     1     -35.049  15.936  -2.154  1.00 20.00     0.000 A 
HETATM    8  C3  UNL     1     -33.980  15.894  -3.049  1.00 20.00     0.002 A 
HETATM    9  C5  UNL     1     -32.912  16.780  -2.903  1.00 20.00     0.034 A 
ENDBRANCH   2   4
TORSDOF 1
ENDMDL
MODEL 9
REMARK VINA RESULT:      -4.4     15.433     16.356
REMARK  1 active torsions:
REMARK  status: ('A' for Active; 'I' for Inactive)
REMARK    1  A    between atoms: C6_6  and  N8_8 
ROOT
HETATM    1  N7  UNL     1     -24.467  19.219   6.860  1.00 20.00     0.068 N 
HETATM    2  N8  UNL     1     -22.710  17.863   7.751  1.00 20.00    -0.073 NA
HETATM    3  N9  UNL     1     -23.630  18.572   7.289  1.00 20.00    -0.162 NA
ENDROOT
BRANCH   2   4
HETATM    4  C6  UNL     1     -22.869  17.587   9.113  1.00 20.00     0.093 A 
HETATM    5  C4  UNL     1     -21.943  18.075  10.036  1.00 20.00     0.034 A 
HETATM    6  C2  UNL     1     -22.102  17.800  11.395  1.00 20.00     0.002 A 
HETATM    7  C1  UNL     1     -23.187  17.038  11.830  1.00 20.00     0.000 A 
HETATM    8  C3  UNL     1     -24.111  16.550  10.906  1.00 20.00     0.002 A 
HETATM    9  C5  UNL     1     -23.953  16.825   9.547  1.00 20.00     0.034 A 
ENDBRANCH   2   4
TORSDOF 1
ENDMDL
