MODEL 1
REMARK VINA RESULT:      -5.7      0.000      0.000
REMARK  0 active torsions:
REMARK  status: ('A' for Active; 'I' for Inactive)
ROOT
HETATM    1  C1  UNL     1     -34.855   5.304   5.812  1.00 20.00     0.000 A 
HETATM    2  C2  UNL     1     -34.165   6.497   6.032  1.00 20.00     0.003 A 
HETATM    3  C3  UNL     1     -34.839   4.712   4.551  1.00 20.00     0.003 A 
HETATM    4  C4  UNL     1     -33.459   7.096   4.988  1.00 20.00     0.042 A 
HETATM    5  C5  UNL     1     -34.134   5.310   3.507  1.00 20.00     0.042 A 
HETATM    6  C6  UNL     1     -33.444   6.502   3.726  1.00 20.00     0.116 A 
HETATM    7  F7  UNL     1     -32.766   7.078   2.724  1.00 20.00    -0.206 F 
ENDROOT
TORSDOF 0
ENDMDL
MODEL 2
REMARK VINA RESULT:      -5.7      0.006      1.827
REMARK  0 active torsions:
REMARK  status: ('A' for Active; 'I' for Inactive)
ROOT
HETATM    1  C1  UNL     1     -34.852   5.302   5.816  1.00 20.00     0.000 A 
HETATM    2  C2  UNL     1     -34.839   4.710   4.552  1.00 20.00     0.003 A 
HETATM    3  C3  UNL     1     -34.164   6.495   6.036  1.00 20.00     0.003 A 
HETATM    4  C4  UNL     1     -34.136   5.313   3.508  1.00 20.00     0.042 A 
HETATM    5  C5  UNL     1     -33.462   7.097   4.993  1.00 20.00     0.042 A 
HETATM    6  C6  UNL     1     -33.448   6.507   3.729  1.00 20.00     0.116 A 
HETATM    7  F7  UNL     1     -32.774   7.085   2.726  1.00 20.00    -0.206 F 
ENDROOT
TORSDOF 0
ENDMDL
MODEL 3
REMARK VINA RESULT:      -5.6      0.919      2.033
REMARK  0 active torsions:
REMARK  status: ('A' for Active; 'I' for Inactive)
ROOT
HETATM    1  C1  UNL     1     -34.308   6.328   6.054  1.00 20.00     0.000 A 
HETATM    2  C2  UNL     1     -34.874   5.120   5.643  1.00 20.00     0.003 A 
HETATM    3  C3  UNL     1     -33.553   7.085   5.159  1.00 20.00     0.003 A 
HETATM    4  C4  UNL     1     -34.684   4.670   4.336  1.00 20.00     0.042 A 
HETATM    5  C5  UNL     1     -33.362   6.635   3.853  1.00 20.00     0.042 A 
HETATM    6  C6  UNL     1     -33.928   5.428   3.441  1.00 20.00     0.116 A 
HETATM    7  F7  UNL     1     -33.745   4.996   2.186  1.00 20.00    -0.206 F 
ENDROOT
TORSDOF 0
ENDMDL
MODEL 4
REMARK VINA RESULT:      -5.6      0.919      1.426
REMARK  0 active torsions:
REMARK  status: ('A' for Active; 'I' for Inactive)
ROOT
HETATM    1  C1  UNL     1     -34.308   6.328   6.053  1.00 20.00     0.000 A 
HETATM    2  C2  UNL     1     -33.557   7.088   5.155  1.00 20.00     0.003 A 
HETATM    3  C3  UNL     1     -34.877   5.123   5.641  1.00 20.00     0.003 A 
HETATM    4  C4  UNL     1     -33.375   6.642   3.846  1.00 20.00     0.042 A 
HETATM    5  C5  UNL     1     -34.696   4.678   4.332  1.00 20.00     0.042 A 
HETATM    6  C6  UNL     1     -33.945   5.437   3.434  1.00 20.00     0.116 A 
HETATM    7  F7  UNL     1     -33.770   5.009   2.177  1.00 20.00    -0.206 F 
ENDROOT
TORSDOF 0
ENDMDL
MODEL 5
REMARK VINA RESULT:      -5.3      1.738      2.892
REMARK  0 active torsions:
REMARK  status: ('A' for Active; 'I' for Inactive)
ROOT
HETATM    1  C1  UNL     1     -33.655   5.202   2.955  1.00 20.00     0.000 A 
HETATM    2  C2  UNL     1     -34.445   4.488   3.857  1.00 20.00     0.003 A 
HETATM    3  C3  UNL     1     -33.167   6.461   3.301  1.00 20.00     0.003 A 
HETATM    4  C4  UNL     1     -34.744   5.034   5.105  1.00 20.00     0.042 A 
HETATM    5  C5  UNL     1     -33.467   7.008   4.548  1.00 20.00     0.042 A 
HETATM    6  C6  UNL     1     -34.255   6.294   5.450  1.00 20.00     0.116 A 
HETATM    7  F7  UNL     1     -34.543   6.818   6.649  1.00 20.00    -0.206 F 
ENDROOT
TORSDOF 0
ENDMDL
MODEL 6
REMARK VINA RESULT:      -5.3      1.728      2.510
REMARK  0 active torsions:
REMARK  status: ('A' for Active; 'I' for Inactive)
ROOT
HETATM    1  C1  UNL     1     -33.651   5.157   2.939  1.00 20.00     0.000 A 
HETATM    2  C2  UNL     1     -33.182   6.435   3.246  1.00 20.00     0.003 A 
HETATM    3  C3  UNL     1     -34.420   4.455   3.866  1.00 20.00     0.003 A 
HETATM    4  C4  UNL     1     -33.484   7.010   4.481  1.00 20.00     0.042 A 
HETATM    5  C5  UNL     1     -34.721   5.029   5.101  1.00 20.00     0.042 A 
HETATM    6  C6  UNL     1     -34.253   6.306   5.408  1.00 20.00     0.116 A 
HETATM    7  F7  UNL     1     -34.542   6.858   6.595  1.00 20.00    -0.206 F 
ENDROOT
TORSDOF 0
ENDMDL
MODEL 7
REMARK VINA RESULT:      -5.2      1.903      2.683
REMARK  0 active torsions:
REMARK  status: ('A' for Active; 'I' for Inactive)
ROOT
HETATM    1  C1  UNL     1     -33.134   5.867   2.705  1.00 20.00     0.000 A 
HETATM    2  C2  UNL     1     -33.189   6.895   3.647  1.00 20.00     0.003 A 
HETATM    3  C3  UNL     1     -33.796   4.664   2.946  1.00 20.00     0.003 A 
HETATM    4  C4  UNL     1     -33.906   6.718   4.831  1.00 20.00     0.042 A 
HETATM    5  C5  UNL     1     -34.512   4.486   4.130  1.00 20.00     0.042 A 
HETATM    6  C6  UNL     1     -34.567   5.513   5.071  1.00 20.00     0.116 A 
HETATM    7  F7  UNL     1     -35.256   5.343   6.208  1.00 20.00    -0.206 F 
ENDROOT
TORSDOF 0
ENDMDL
MODEL 8
REMARK VINA RESULT:      -5.2      1.905      3.213
REMARK  0 active torsions:
REMARK  status: ('A' for Active; 'I' for Inactive)
ROOT
HETATM    1  C1  UNL     1     -33.132   5.877   2.717  1.00 20.00     0.000 A 
HETATM    2  C2  UNL     1     -33.804   4.674   2.939  1.00 20.00     0.003 A 
HETATM    3  C3  UNL     1     -33.178   6.889   3.675  1.00 20.00     0.003 A 
HETATM    4  C4  UNL     1     -34.521   4.485   4.121  1.00 20.00     0.042 A 
HETATM    5  C5  UNL     1     -33.896   6.700   4.856  1.00 20.00     0.042 A 
HETATM    6  C6  UNL     1     -34.567   5.498   5.079  1.00 20.00     0.116 A 
HETATM    7  F7  UNL     1     -35.256   5.315   6.213  1.00 20.00    -0.206 F 
ENDROOT
TORSDOF 0
ENDMDL
MODEL 9
REMARK VINA RESULT:      -4.1      8.958      9.280
REMARK  0 active torsions:
REMARK  status: ('A' for Active; 'I' for Inactive)
ROOT
HETATM    1  C1  UNL     1     -42.580   7.990   0.549  1.00 20.00     0.000 A 
HETATM    2  C2  UNL     1     -41.756   8.247  -0.547  1.00 20.00     0.003 A 
HETATM    3  C3  UNL     1     -42.700   6.691   1.042  1.00 20.00     0.003 A 
HETATM    4  C4  UNL     1     -41.053   7.204  -1.150  1.00 20.00     0.042 A 
HETATM    5  C5  UNL     1     -41.998   5.648   0.439  1.00 20.00     0.042 A 
HETATM    6  C6  UNL     1     -41.174   5.904  -0.657  1.00 20.00     0.116 A 
HETATM    7  F7  UNL     1     -40.499   4.903  -1.237  1.00 20.00    -0.206 F 
ENDROOT
TORSDOF 0
ENDMDL
