MODEL 1
REMARK VINA RESULT:      -5.6      0.000      0.000
REMARK  0 active torsions:
REMARK  status: ('A' for Active; 'I' for Inactive)
ROOT
HETATM    1  C1  UNL     1     -34.089   4.217   3.250  1.00 20.00     0.001 A 
HETATM    2  C2  UNL     1     -34.500   4.602   4.526  1.00 20.00     0.007 A 
HETATM    3  C3  UNL     1     -33.400   5.119   2.438  1.00 20.00     0.007 A 
HETATM    4  C4  UNL     1     -33.535   6.790   4.177  1.00 20.00     0.013 A 
HETATM    5  C5  UNL     1     -34.224   5.888   4.990  1.00 20.00    -0.061 A 
HETATM    6  C6  UNL     1     -33.123   6.404   2.902  1.00 20.00    -0.061 A 
HETATM    7  C7  UNL     1     -34.663   6.298   6.355  1.00 20.00     0.048 C 
HETATM    8  C8  UNL     1     -32.387   7.368   2.034  1.00 20.00     0.048 C 
ENDROOT
TORSDOF 0
ENDMDL
MODEL 2
REMARK VINA RESULT:      -5.6      0.021      3.028
REMARK  0 active torsions:
REMARK  status: ('A' for Active; 'I' for Inactive)
ROOT
HETATM    1  C1  UNL     1     -34.064   4.224   3.243  1.00 20.00     0.001 A 
HETATM    2  C2  UNL     1     -33.384   5.137   2.437  1.00 20.00     0.007 A 
HETATM    3  C3  UNL     1     -34.485   4.599   4.519  1.00 20.00     0.007 A 
HETATM    4  C4  UNL     1     -33.544   6.799   4.183  1.00 20.00     0.013 A 
HETATM    5  C5  UNL     1     -33.124   6.424   2.906  1.00 20.00    -0.061 A 
HETATM    6  C6  UNL     1     -34.225   5.886   4.989  1.00 20.00    -0.061 A 
HETATM    7  C7  UNL     1     -32.398   7.399   2.043  1.00 20.00     0.048 C 
HETATM    8  C8  UNL     1     -34.673   6.288   6.354  1.00 20.00     0.048 C 
ENDROOT
TORSDOF 0
ENDMDL
MODEL 3
REMARK VINA RESULT:      -4.6      0.806      2.192
REMARK  0 active torsions:
REMARK  status: ('A' for Active; 'I' for Inactive)
ROOT
HETATM    1  C1  UNL     1     -32.911   7.220   3.608  1.00 20.00     0.001 A 
HETATM    2  C2  UNL     1     -33.658   6.924   4.748  1.00 20.00     0.007 A 
HETATM    3  C3  UNL     1     -32.793   6.276   2.588  1.00 20.00     0.007 A 
HETATM    4  C4  UNL     1     -34.167   4.740   3.849  1.00 20.00     0.013 A 
HETATM    5  C5  UNL     1     -34.286   5.685   4.870  1.00 20.00    -0.061 A 
HETATM    6  C6  UNL     1     -33.421   5.037   2.708  1.00 20.00    -0.061 A 
HETATM    7  C7  UNL     1     -35.085   5.371   6.088  1.00 20.00     0.048 C 
HETATM    8  C8  UNL     1     -33.295   4.027   1.618  1.00 20.00     0.048 C 
ENDROOT
TORSDOF 0
ENDMDL
MODEL 4
REMARK VINA RESULT:      -4.6      0.806      3.586
REMARK  0 active torsions:
REMARK  status: ('A' for Active; 'I' for Inactive)
ROOT
HETATM    1  C1  UNL     1     -32.908   7.218   3.606  1.00 20.00     0.001 A 
HETATM    2  C2  UNL     1     -32.792   6.273   2.586  1.00 20.00     0.007 A 
HETATM    3  C3  UNL     1     -33.655   6.924   4.747  1.00 20.00     0.007 A 
HETATM    4  C4  UNL     1     -34.169   4.741   3.848  1.00 20.00     0.013 A 
HETATM    5  C5  UNL     1     -33.422   5.035   2.706  1.00 20.00    -0.061 A 
HETATM    6  C6  UNL     1     -34.285   5.686   4.868  1.00 20.00    -0.061 A 
HETATM    7  C7  UNL     1     -33.296   4.026   1.617  1.00 20.00     0.048 C 
HETATM    8  C8  UNL     1     -35.084   5.371   6.088  1.00 20.00     0.048 C 
ENDROOT
TORSDOF 0
ENDMDL
MODEL 5
REMARK VINA RESULT:      -4.5     11.747     12.130
REMARK  0 active torsions:
REMARK  status: ('A' for Active; 'I' for Inactive)
ROOT
HETATM    1  C1  UNL     1     -32.925  15.532  -3.813  1.00 20.00     0.001 A 
HETATM    2  C2  UNL     1     -33.315  16.310  -2.723  1.00 20.00     0.007 A 
HETATM    3  C3  UNL     1     -33.835  14.658  -4.407  1.00 20.00     0.007 A 
HETATM    4  C4  UNL     1     -35.525  15.338  -2.821  1.00 20.00     0.013 A 
HETATM    5  C5  UNL     1     -34.615  16.213  -2.226  1.00 20.00    -0.061 A 
HETATM    6  C6  UNL     1     -35.135  14.561  -3.911  1.00 20.00    -0.061 A 
HETATM    7  C7  UNL     1     -35.031  17.047  -1.062  1.00 20.00     0.048 C 
HETATM    8  C8  UNL     1     -36.108  13.626  -4.546  1.00 20.00     0.048 C 
ENDROOT
TORSDOF 0
ENDMDL
MODEL 6
REMARK VINA RESULT:      -4.5     11.743     12.261
REMARK  0 active torsions:
REMARK  status: ('A' for Active; 'I' for Inactive)
ROOT
HETATM    1  C1  UNL     1     -32.922  15.529  -3.808  1.00 20.00     0.001 A 
HETATM    2  C2  UNL     1     -33.833  14.655  -4.401  1.00 20.00     0.007 A 
HETATM    3  C3  UNL     1     -33.312  16.308  -2.719  1.00 20.00     0.007 A 
HETATM    4  C4  UNL     1     -35.524  15.340  -2.817  1.00 20.00     0.013 A 
HETATM    5  C5  UNL     1     -35.134  14.560  -3.906  1.00 20.00    -0.061 A 
HETATM    6  C6  UNL     1     -34.612  16.214  -2.223  1.00 20.00    -0.061 A 
HETATM    7  C7  UNL     1     -36.105  13.623  -4.540  1.00 20.00     0.048 C 
HETATM    8  C8  UNL     1     -35.030  17.048  -1.059  1.00 20.00     0.048 C 
ENDROOT
TORSDOF 0
ENDMDL
MODEL 7
REMARK VINA RESULT:      -4.5     11.649     12.628
REMARK  0 active torsions:
REMARK  status: ('A' for Active; 'I' for Inactive)
ROOT
HETATM    1  C1  UNL     1     -32.779  17.286  -2.480  1.00 20.00     0.001 A 
HETATM    2  C2  UNL     1     -33.122  16.199  -3.284  1.00 20.00     0.007 A 
HETATM    3  C3  UNL     1     -33.627  17.680  -1.444  1.00 20.00     0.007 A 
HETATM    4  C4  UNL     1     -35.159  15.903  -2.020  1.00 20.00     0.013 A 
HETATM    5  C5  UNL     1     -34.311  15.508  -3.055  1.00 20.00    -0.061 A 
HETATM    6  C6  UNL     1     -34.816  16.989  -1.214  1.00 20.00    -0.061 A 
HETATM    7  C7  UNL     1     -34.675  14.346  -3.915  1.00 20.00     0.048 C 
HETATM    8  C8  UNL     1     -35.722  17.412  -0.108  1.00 20.00     0.048 C 
ENDROOT
TORSDOF 0
ENDMDL
MODEL 8
REMARK VINA RESULT:      -4.4     11.889     12.642
REMARK  0 active torsions:
REMARK  status: ('A' for Active; 'I' for Inactive)
ROOT
HETATM    1  C1  UNL     1     -35.253  16.419  -1.609  1.00 20.00     0.001 A 
HETATM    2  C2  UNL     1     -34.314  17.382  -1.241  1.00 20.00     0.007 A 
HETATM    3  C3  UNL     1     -34.979  15.546  -2.662  1.00 20.00     0.007 A 
HETATM    4  C4  UNL     1     -32.829  16.600  -2.979  1.00 20.00     0.013 A 
HETATM    5  C5  UNL     1     -33.102  17.474  -1.925  1.00 20.00    -0.061 A 
HETATM    6  C6  UNL     1     -33.768  15.636  -3.347  1.00 20.00    -0.061 A 
HETATM    7  C7  UNL     1     -32.098  18.503  -1.530  1.00 20.00     0.048 C 
HETATM    8  C8  UNL     1     -33.475  14.703  -4.473  1.00 20.00     0.048 C 
ENDROOT
TORSDOF 0
ENDMDL
MODEL 9
REMARK VINA RESULT:      -4.4     11.882     12.725
REMARK  0 active torsions:
REMARK  status: ('A' for Active; 'I' for Inactive)
ROOT
HETATM    1  C1  UNL     1     -35.245  16.411  -1.609  1.00 20.00     0.001 A 
HETATM    2  C2  UNL     1     -34.963  15.540  -2.662  1.00 20.00     0.007 A 
HETATM    3  C3  UNL     1     -34.314  17.382  -1.240  1.00 20.00     0.007 A 
HETATM    4  C4  UNL     1     -32.821  16.612  -2.976  1.00 20.00     0.013 A 
HETATM    5  C5  UNL     1     -33.752  15.640  -3.345  1.00 20.00    -0.061 A 
HETATM    6  C6  UNL     1     -33.103  17.483  -1.924  1.00 20.00    -0.061 A 
HETATM    7  C7  UNL     1     -33.453  14.710  -4.472  1.00 20.00     0.048 C 
HETATM    8  C8  UNL     1     -32.107  18.521  -1.529  1.00 20.00     0.048 C 
ENDROOT
TORSDOF 0
ENDMDL
