MODEL 1
REMARK VINA RESULT:      -5.3      0.000      0.000
REMARK  0 active torsions:
REMARK  status: ('A' for Active; 'I' for Inactive)
ROOT
HETATM    1  C1  UNL     1     -34.834   5.198   5.823  1.00 20.00     0.001 A 
HETATM    2  C2  UNL     1     -34.298   6.464   6.053  1.00 20.00     0.001 A 
HETATM    3  C3  UNL     1     -34.660   4.582   4.583  1.00 20.00     0.008 A 
HETATM    4  C4  UNL     1     -33.587   7.115   5.044  1.00 20.00     0.019 A 
HETATM    5  C5  UNL     1     -33.949   5.232   3.574  1.00 20.00    -0.045 A 
HETATM    6  C6  UNL     1     -33.413   6.498   3.805  1.00 20.00     0.012 A 
HETATM    7  C7  UNL     1     -33.795   4.522   2.268  1.00 20.00     0.049 C 
HETATM    8  I8  UNL     1     -32.336   7.528   2.337  1.00 20.00    -0.044 I 
ENDROOT
TORSDOF 0
ENDMDL
MODEL 2
REMARK VINA RESULT:      -4.2      1.334      2.381
REMARK  0 active torsions:
REMARK  status: ('A' for Active; 'I' for Inactive)
ROOT
HETATM    1  C1  UNL     1     -34.337   6.576   6.154  1.00 20.00     0.001 A 
HETATM    2  C2  UNL     1     -34.932   5.355   5.837  1.00 20.00     0.001 A 
HETATM    3  C3  UNL     1     -33.486   7.196   5.239  1.00 20.00     0.008 A 
HETATM    4  C4  UNL     1     -34.677   4.754   4.604  1.00 20.00     0.019 A 
HETATM    5  C5  UNL     1     -33.231   6.595   4.006  1.00 20.00    -0.045 A 
HETATM    6  C6  UNL     1     -33.827   5.374   3.689  1.00 20.00     0.012 A 
HETATM    7  C7  UNL     1     -32.313   7.307   3.065  1.00 20.00     0.049 C 
HETATM    8  I8  UNL     1     -33.488   4.420   1.859  1.00 20.00    -0.044 I 
ENDROOT
TORSDOF 0
ENDMDL
MODEL 3
REMARK VINA RESULT:      -4.2     12.094     12.680
REMARK  0 active torsions:
REMARK  status: ('A' for Active; 'I' for Inactive)
ROOT
HETATM    1  C1  UNL     1     -34.705  14.780  -3.639  1.00 20.00     0.001 A 
HETATM    2  C2  UNL     1     -33.429  15.184  -4.030  1.00 20.00     0.001 A 
HETATM    3  C3  UNL     1     -35.342  15.416  -2.573  1.00 20.00     0.008 A 
HETATM    4  C4  UNL     1     -32.790  16.226  -3.356  1.00 20.00     0.019 A 
HETATM    5  C5  UNL     1     -34.704  16.458  -1.899  1.00 20.00    -0.045 A 
HETATM    6  C6  UNL     1     -33.428  16.862  -2.291  1.00 20.00     0.012 A 
HETATM    7  C7  UNL     1     -35.436  17.101  -0.766  1.00 20.00     0.049 C 
HETATM    8  I8  UNL     1     -32.414  18.416  -1.325  1.00 20.00    -0.044 I 
ENDROOT
TORSDOF 0
ENDMDL
MODEL 4
REMARK VINA RESULT:      -4.1     16.612     17.435
REMARK  0 active torsions:
REMARK  status: ('A' for Active; 'I' for Inactive)
ROOT
HETATM    1  C1  UNL     1     -22.354  18.063   8.590  1.00 20.00     0.001 A 
HETATM    2  C2  UNL     1     -23.654  18.403   8.220  1.00 20.00     0.001 A 
HETATM    3  C3  UNL     1     -22.049  17.833   9.932  1.00 20.00     0.008 A 
HETATM    4  C4  UNL     1     -24.651  18.512   9.190  1.00 20.00     0.019 A 
HETATM    5  C5  UNL     1     -23.045  17.942  10.903  1.00 20.00    -0.045 A 
HETATM    6  C6  UNL     1     -24.345  18.281  10.531  1.00 20.00     0.012 A 
HETATM    7  C7  UNL     1     -22.658  17.683  12.324  1.00 20.00     0.049 C 
HETATM    8  I8  UNL     1     -25.886  18.461  11.935  1.00 20.00    -0.044 I 
ENDROOT
TORSDOF 0
ENDMDL
MODEL 5
REMARK VINA RESULT:      -4.0     12.097     12.777
REMARK  0 active torsions:
REMARK  status: ('A' for Active; 'I' for Inactive)
ROOT
HETATM    1  C1  UNL     1     -33.682  14.973  -4.119  1.00 20.00     0.001 A 
HETATM    2  C2  UNL     1     -34.982  14.748  -3.668  1.00 20.00     0.001 A 
HETATM    3  C3  UNL     1     -32.894  15.954  -3.516  1.00 20.00     0.008 A 
HETATM    4  C4  UNL     1     -35.495  15.503  -2.613  1.00 20.00     0.019 A 
HETATM    5  C5  UNL     1     -33.407  16.709  -2.461  1.00 20.00    -0.045 A 
HETATM    6  C6  UNL     1     -34.708  16.483  -2.010  1.00 20.00     0.012 A 
HETATM    7  C7  UNL     1     -32.516  17.745  -1.854  1.00 20.00     0.049 C 
HETATM    8  I8  UNL     1     -35.537  17.579  -0.433  1.00 20.00    -0.044 I 
ENDROOT
TORSDOF 0
ENDMDL
MODEL 6
REMARK VINA RESULT:      -4.0      0.602      2.418
REMARK  0 active torsions:
REMARK  status: ('A' for Active; 'I' for Inactive)
ROOT
HETATM    1  C1  UNL     1     -34.934   5.165   5.807  1.00 20.00     0.001 A 
HETATM    2  C2  UNL     1     -35.024   4.644   4.516  1.00 20.00     0.001 A 
HETATM    3  C3  UNL     1     -34.134   6.281   6.054  1.00 20.00     0.008 A 
HETATM    4  C4  UNL     1     -34.315   5.239   3.473  1.00 20.00     0.019 A 
HETATM    5  C5  UNL     1     -33.425   6.876   5.011  1.00 20.00    -0.045 A 
HETATM    6  C6  UNL     1     -33.516   6.355   3.720  1.00 20.00     0.012 A 
HETATM    7  C7  UNL     1     -32.586   8.069   5.336  1.00 20.00     0.049 C 
HETATM    8  I8  UNL     1     -32.480   7.199   2.111  1.00 20.00    -0.044 I 
ENDROOT
TORSDOF 0
ENDMDL
MODEL 7
REMARK VINA RESULT:      -4.0     16.792     17.291
REMARK  0 active torsions:
REMARK  status: ('A' for Active; 'I' for Inactive)
ROOT
HETATM    1  C1  UNL     1     -23.255  17.756  12.332  1.00 20.00     0.001 A 
HETATM    2  C2  UNL     1     -24.588  18.137  12.178  1.00 20.00     0.001 A 
HETATM    3  C3  UNL     1     -22.399  17.755  11.230  1.00 20.00     0.008 A 
HETATM    4  C4  UNL     1     -25.064  18.518  10.923  1.00 20.00     0.019 A 
HETATM    5  C5  UNL     1     -22.875  18.136   9.976  1.00 20.00    -0.045 A 
HETATM    6  C6  UNL     1     -24.208  18.517   9.823  1.00 20.00     0.012 A 
HETATM    7  C7  UNL     1     -21.911  18.116   8.834  1.00 20.00     0.049 C 
HETATM    8  I8  UNL     1     -24.986  19.100   7.971  1.00 20.00    -0.044 I 
ENDROOT
TORSDOF 0
ENDMDL
MODEL 8
REMARK VINA RESULT:      -4.0     16.542     16.959
REMARK  0 active torsions:
REMARK  status: ('A' for Active; 'I' for Inactive)
ROOT
HETATM    1  C1  UNL     1     -25.503  18.682  11.933  1.00 20.00     0.001 A 
HETATM    2  C2  UNL     1     -24.323  18.053  12.331  1.00 20.00     0.001 A 
HETATM    3  C3  UNL     1     -25.709  18.991  10.589  1.00 20.00     0.008 A 
HETATM    4  C4  UNL     1     -23.351  17.731  11.384  1.00 20.00     0.019 A 
HETATM    5  C5  UNL     1     -24.736  18.669   9.642  1.00 20.00    -0.045 A 
HETATM    6  C6  UNL     1     -23.557  18.039  10.040  1.00 20.00     0.012 A 
HETATM    7  C7  UNL     1     -25.014  19.024   8.216  1.00 20.00     0.049 C 
HETATM    8  I8  UNL     1     -22.059  17.530   8.672  1.00 20.00    -0.044 I 
ENDROOT
TORSDOF 0
ENDMDL
MODEL 9
REMARK VINA RESULT:      -4.0     12.229     13.029
REMARK  0 active torsions:
REMARK  status: ('A' for Active; 'I' for Inactive)
ROOT
HETATM    1  C1  UNL     1     -33.793  15.719  -3.404  1.00 20.00     0.001 A 
HETATM    2  C2  UNL     1     -34.990  15.579  -2.703  1.00 20.00     0.001 A 
HETATM    3  C3  UNL     1     -32.847  16.657  -2.988  1.00 20.00     0.008 A 
HETATM    4  C4  UNL     1     -35.242  16.377  -1.586  1.00 20.00     0.019 A 
HETATM    5  C5  UNL     1     -33.099  17.454  -1.872  1.00 20.00    -0.045 A 
HETATM    6  C6  UNL     1     -34.297  17.314  -1.171  1.00 20.00     0.012 A 
HETATM    7  C7  UNL     1     -32.048  18.441  -1.474  1.00 20.00     0.049 C 
HETATM    8  I8  UNL     1     -34.737  18.477   0.511  1.00 20.00    -0.044 I 
ENDROOT
TORSDOF 0
ENDMDL
