MODEL 1
REMARK VINA RESULT:      -5.2      0.000      0.000
REMARK  2 active torsions:
REMARK  status: ('A' for Active; 'I' for Inactive)
REMARK    1  A    between atoms: C5_5  and  N8_8 
REMARK    2  A    between atoms: C6_6  and  S11_11 
ROOT
HETATM    1  C1  UNL     1     -34.055  14.661  -4.098  1.00 20.00     0.037 A 
HETATM    2  C2  UNL     1     -35.908  15.624  -2.884  1.00 20.00     0.037 A 
HETATM    3  C3  UNL     1     -33.206  15.637  -3.578  1.00 20.00     0.021 A 
HETATM    4  C4  UNL     1     -35.058  16.601  -2.364  1.00 20.00     0.021 A 
HETATM    5  C5  UNL     1     -35.406  14.654  -3.752  1.00 20.00     0.102 A 
HETATM    6  C6  UNL     1     -33.708  16.608  -2.711  1.00 20.00    -0.000 A 
ENDROOT
BRANCH   5   7
HETATM    7  N8  UNL     1     -36.271  13.659  -4.280  1.00 20.00    -0.116 N 
HETATM    8  O9  UNL     1     -37.473  13.947  -4.489  1.00 20.00    -0.532 OA
HETATM    9  O10 UNL     1     -35.807  12.519  -4.523  1.00 20.00    -0.532 OA
ENDBRANCH   5   7
BRANCH   6  10
HETATM   10  S11 UNL     1     -32.622  17.855  -2.047  1.00 20.00    -0.134 SA
HETATM   11  C7  UNL     1     -33.492  18.222  -0.506  1.00 20.00     0.095 C 
ENDBRANCH   6  10
TORSDOF 2
ENDMDL
MODEL 2
REMARK VINA RESULT:      -5.2      0.014      1.457
REMARK  2 active torsions:
REMARK  status: ('A' for Active; 'I' for Inactive)
REMARK    1  A    between atoms: C5_5  and  N8_8 
REMARK    2  A    between atoms: C6_6  and  S11_11 
ROOT
HETATM    1  C1  UNL     1     -35.914  15.626  -2.898  1.00 20.00     0.037 A 
HETATM    2  C2  UNL     1     -34.057  14.649  -4.094  1.00 20.00     0.037 A 
HETATM    3  C3  UNL     1     -35.067  16.607  -2.382  1.00 20.00     0.021 A 
HETATM    4  C4  UNL     1     -33.209  15.630  -3.578  1.00 20.00     0.021 A 
HETATM    5  C5  UNL     1     -35.409  14.647  -3.753  1.00 20.00     0.102 A 
HETATM    6  C6  UNL     1     -33.714  16.608  -2.721  1.00 20.00    -0.000 A 
ENDROOT
BRANCH   5   7
HETATM    7  N8  UNL     1     -36.273  13.650  -4.280  1.00 20.00    -0.116 N 
HETATM    8  O9  UNL     1     -37.476  13.936  -4.488  1.00 20.00    -0.532 OA
HETATM    9  O10 UNL     1     -35.808  12.510  -4.520  1.00 20.00    -0.532 OA
ENDBRANCH   5   7
BRANCH   6  10
HETATM   10  S11 UNL     1     -32.632  17.861  -2.062  1.00 20.00    -0.134 SA
HETATM   11  C7  UNL     1     -33.482  18.204  -0.504  1.00 20.00     0.095 C 
ENDBRANCH   6  10
TORSDOF 2
ENDMDL
MODEL 3
REMARK VINA RESULT:      -4.9      1.306      1.622
REMARK  2 active torsions:
REMARK  status: ('A' for Active; 'I' for Inactive)
REMARK    1  A    between atoms: C5_5  and  N8_8 
REMARK    2  A    between atoms: C6_6  and  S11_11 
ROOT
HETATM    1  C1  UNL     1     -34.441  14.778  -3.465  1.00 20.00     0.037 A 
HETATM    2  C2  UNL     1     -35.970  16.039  -4.846  1.00 20.00     0.037 A 
HETATM    3  C3  UNL     1     -33.660  15.920  -3.286  1.00 20.00     0.021 A 
HETATM    4  C4  UNL     1     -35.189  17.181  -4.668  1.00 20.00     0.021 A 
HETATM    5  C5  UNL     1     -35.595  14.837  -4.245  1.00 20.00     0.102 A 
HETATM    6  C6  UNL     1     -34.034  17.122  -3.888  1.00 20.00    -0.000 A 
ENDROOT
BRANCH   5   7
HETATM    7  N8  UNL     1     -36.391  13.674  -4.426  1.00 20.00    -0.116 N 
HETATM    8  O9  UNL     1     -35.824  12.561  -4.537  1.00 20.00    -0.532 OA
HETATM    9  O10 UNL     1     -37.639  13.793  -4.471  1.00 20.00    -0.532 OA
ENDBRANCH   5   7
BRANCH   6  10
HETATM   10  S11 UNL     1     -33.036  18.580  -3.659  1.00 20.00    -0.134 SA
HETATM   11  C7  UNL     1     -32.439  18.277  -1.980  1.00 20.00     0.095 C 
ENDBRANCH   6  10
TORSDOF 2
ENDMDL
MODEL 4
REMARK VINA RESULT:      -4.8     16.631     17.285
REMARK  2 active torsions:
REMARK  status: ('A' for Active; 'I' for Inactive)
REMARK    1  A    between atoms: C5_5  and  N8_8 
REMARK    2  A    between atoms: C6_6  and  S11_11 
ROOT
HETATM    1  C1  UNL     1     -23.336  17.231  10.138  1.00 20.00     0.037 A 
HETATM    2  C2  UNL     1     -24.013  18.806   8.436  1.00 20.00     0.037 A 
HETATM    3  C3  UNL     1     -24.370  17.676  10.962  1.00 20.00     0.021 A 
HETATM    4  C4  UNL     1     -25.048  19.250   9.260  1.00 20.00     0.021 A 
HETATM    5  C5  UNL     1     -23.157  17.796   8.876  1.00 20.00     0.102 A 
HETATM    6  C6  UNL     1     -25.225  18.685  10.523  1.00 20.00    -0.000 A 
ENDROOT
BRANCH   5   7
HETATM    7  N8  UNL     1     -22.104  17.342   8.036  1.00 20.00    -0.116 N 
HETATM    8  O9  UNL     1     -22.016  17.799   6.872  1.00 20.00    -0.532 OA
HETATM    9  O10 UNL     1     -21.293  16.497   8.484  1.00 20.00    -0.532 OA
ENDBRANCH   5   7
BRANCH   6  10
HETATM   10  S11 UNL     1     -26.546  19.253  11.576  1.00 20.00    -0.134 SA
HETATM   11  C7  UNL     1     -27.025  17.682  12.331  1.00 20.00     0.095 C 
ENDBRANCH   6  10
TORSDOF 2
ENDMDL
MODEL 5
REMARK VINA RESULT:      -4.8      1.603      2.324
REMARK  2 active torsions:
REMARK  status: ('A' for Active; 'I' for Inactive)
REMARK    1  A    between atoms: C5_5  and  N8_8 
REMARK    2  A    between atoms: C6_6  and  S11_11 
ROOT
HETATM    1  C1  UNL     1     -35.209  15.481  -2.569  1.00 20.00     0.037 A 
HETATM    2  C2  UNL     1     -33.014  16.055  -3.398  1.00 20.00     0.037 A 
HETATM    3  C3  UNL     1     -35.131  16.518  -1.640  1.00 20.00     0.021 A 
HETATM    4  C4  UNL     1     -32.936  17.093  -2.469  1.00 20.00     0.021 A 
HETATM    5  C5  UNL     1     -34.151  15.249  -3.447  1.00 20.00     0.102 A 
HETATM    6  C6  UNL     1     -33.994  17.324  -1.590  1.00 20.00    -0.000 A 
ENDROOT
BRANCH   5   7
HETATM    7  N8  UNL     1     -34.232  14.193  -4.394  1.00 20.00    -0.116 N 
HETATM    8  O9  UNL     1     -34.570  13.050  -4.002  1.00 20.00    -0.532 OA
HETATM    9  O10 UNL     1     -33.961  14.432  -5.595  1.00 20.00    -0.532 OA
ENDBRANCH   5   7
BRANCH   6  10
HETATM   10  S11 UNL     1     -33.894  18.650  -0.403  1.00 20.00    -0.134 SA
HETATM   11  C7  UNL     1     -32.108  18.677  -0.131  1.00 20.00     0.095 C 
ENDBRANCH   6  10
TORSDOF 2
ENDMDL
MODEL 6
REMARK VINA RESULT:      -4.8      1.578      1.922
REMARK  2 active torsions:
REMARK  status: ('A' for Active; 'I' for Inactive)
REMARK    1  A    between atoms: C5_5  and  N8_8 
REMARK    2  A    between atoms: C6_6  and  S11_11 
ROOT
HETATM    1  C1  UNL     1     -33.014  16.096  -3.383  1.00 20.00     0.037 A 
HETATM    2  C2  UNL     1     -35.206  15.548  -2.529  1.00 20.00     0.037 A 
HETATM    3  C3  UNL     1     -32.908  17.128  -2.451  1.00 20.00     0.021 A 
HETATM    4  C4  UNL     1     -35.100  16.581  -1.596  1.00 20.00     0.021 A 
HETATM    5  C5  UNL     1     -34.163  15.307  -3.422  1.00 20.00     0.102 A 
HETATM    6  C6  UNL     1     -33.951  17.371  -1.558  1.00 20.00    -0.000 A 
ENDROOT
BRANCH   5   7
HETATM    7  N8  UNL     1     -34.270  14.255  -4.371  1.00 20.00    -0.116 N 
HETATM    8  O9  UNL     1     -33.814  14.430  -5.526  1.00 20.00    -0.532 OA
HETATM    9  O10 UNL     1     -34.818  13.180  -4.027  1.00 20.00    -0.532 OA
ENDBRANCH   5   7
BRANCH   6  10
HETATM   10  S11 UNL     1     -33.815  18.690  -0.367  1.00 20.00    -0.134 SA
HETATM   11  C7  UNL     1     -32.061  18.547   0.042  1.00 20.00     0.095 C 
ENDBRANCH   6  10
TORSDOF 2
ENDMDL
MODEL 7
REMARK VINA RESULT:      -4.5      1.624      1.840
REMARK  2 active torsions:
REMARK  status: ('A' for Active; 'I' for Inactive)
REMARK    1  A    between atoms: C5_5  and  N8_8 
REMARK    2  A    between atoms: C6_6  and  S11_11 
ROOT
HETATM    1  C1  UNL     1     -34.754  14.962  -3.230  1.00 20.00     0.037 A 
HETATM    2  C2  UNL     1     -36.879  15.761  -4.057  1.00 20.00     0.037 A 
HETATM    3  C3  UNL     1     -34.693  16.039  -2.346  1.00 20.00     0.021 A 
HETATM    4  C4  UNL     1     -36.817  16.839  -3.173  1.00 20.00     0.021 A 
HETATM    5  C5  UNL     1     -35.847  14.823  -4.086  1.00 20.00     0.102 A 
HETATM    6  C6  UNL     1     -35.724  16.978  -2.317  1.00 20.00    -0.000 A 
ENDROOT
BRANCH   5   7
HETATM    7  N8  UNL     1     -35.910  13.725  -4.985  1.00 20.00    -0.116 N 
HETATM    8  O9  UNL     1     -36.016  13.952  -6.214  1.00 20.00    -0.532 OA
HETATM    9  O10 UNL     1     -35.857  12.560  -4.525  1.00 20.00    -0.532 OA
ENDBRANCH   5   7
BRANCH   6  10
HETATM   10  S11 UNL     1     -35.645  18.353  -1.188  1.00 20.00    -0.134 SA
HETATM   11  C7  UNL     1     -35.481  17.454   0.371  1.00 20.00     0.095 C 
ENDBRANCH   6  10
TORSDOF 2
ENDMDL
MODEL 8
REMARK VINA RESULT:      -4.3      4.277      5.091
REMARK  2 active torsions:
REMARK  status: ('A' for Active; 'I' for Inactive)
REMARK    1  A    between atoms: C5_5  and  N8_8 
REMARK    2  A    between atoms: C6_6  and  S11_11 
ROOT
HETATM    1  C1  UNL     1     -34.658  16.780  -1.649  1.00 20.00     0.037 A 
HETATM    2  C2  UNL     1     -32.794  16.482  -3.156  1.00 20.00     0.037 A 
HETATM    3  C3  UNL     1     -35.376  15.808  -2.345  1.00 20.00     0.021 A 
HETATM    4  C4  UNL     1     -33.513  15.509  -3.852  1.00 20.00     0.021 A 
HETATM    5  C5  UNL     1     -33.367  17.118  -2.055  1.00 20.00     0.102 A 
HETATM    6  C6  UNL     1     -34.804  15.173  -3.446  1.00 20.00    -0.000 A 
ENDROOT
BRANCH   5   7
HETATM    7  N8  UNL     1     -32.634  18.107  -1.346  1.00 20.00    -0.116 N 
HETATM    8  O9  UNL     1     -32.861  18.271  -0.123  1.00 20.00    -0.532 OA
HETATM    9  O10 UNL     1     -31.781  18.789  -1.962  1.00 20.00    -0.532 OA
ENDBRANCH   5   7
BRANCH   6  10
HETATM   10  S11 UNL     1     -35.723  13.931  -4.334  1.00 20.00    -0.134 SA
HETATM   11  C7  UNL     1     -37.370  14.673  -4.273  1.00 20.00     0.095 C 
ENDBRANCH   6  10
TORSDOF 2
ENDMDL
MODEL 9
REMARK VINA RESULT:      -4.3      4.305      4.976
REMARK  2 active torsions:
REMARK  status: ('A' for Active; 'I' for Inactive)
REMARK    1  A    between atoms: C5_5  and  N8_8 
REMARK    2  A    between atoms: C6_6  and  S11_11 
ROOT
HETATM    1  C1  UNL     1     -32.794  16.513  -3.155  1.00 20.00     0.037 A 
HETATM    2  C2  UNL     1     -34.631  16.826  -1.618  1.00 20.00     0.037 A 
HETATM    3  C3  UNL     1     -33.537  15.560  -3.850  1.00 20.00     0.021 A 
HETATM    4  C4  UNL     1     -35.375  15.872  -2.314  1.00 20.00     0.021 A 
HETATM    5  C5  UNL     1     -33.340  17.146  -2.039  1.00 20.00     0.102 A 
HETATM    6  C6  UNL     1     -34.827  15.239  -3.430  1.00 20.00    -0.000 A 
ENDROOT
BRANCH   5   7
HETATM    7  N8  UNL     1     -32.583  18.117  -1.331  1.00 20.00    -0.116 N 
HETATM    8  O9  UNL     1     -31.732  18.796  -1.954  1.00 20.00    -0.532 OA
HETATM    9  O10 UNL     1     -32.787  18.269  -0.102  1.00 20.00    -0.532 OA
ENDBRANCH   5   7
BRANCH   6  10
HETATM   10  S11 UNL     1     -35.777  14.021  -4.319  1.00 20.00    -0.134 SA
HETATM   11  C7  UNL     1     -35.559  14.640  -6.003  1.00 20.00     0.095 C 
ENDBRANCH   6  10
TORSDOF 2
ENDMDL
