MODEL 1
REMARK VINA RESULT:      -5.5      0.000      0.000
REMARK  1 active torsions:
REMARK  status: ('A' for Active; 'I' for Inactive)
REMARK    1  A    between atoms: C2_2  and  C8_8 
ROOT
HETATM    1  C1  UNL     1     -33.945   6.230   4.757  1.00 20.00    -0.081 C 
HETATM    2  C2  UNL     1     -33.253   6.281   3.609  1.00 20.00    -0.078 C 
HETATM    3  C3  UNL     1     -34.841   5.029   4.803  1.00 20.00     0.034 C 
HETATM    4  C4  UNL     1     -33.584   5.120   2.718  1.00 20.00     0.034 C 
HETATM    5  C5  UNL     1     -34.328   4.170   3.651  1.00 20.00     0.009 C 
HETATM    6  C6  UNL     1     -33.947   7.186   5.898  1.00 20.00     0.043 C 
ENDROOT
BRANCH   2   7
HETATM    7  C8  UNL     1     -32.282   7.308   3.139  1.00 20.00     0.030 C 
HETATM    8  C7  UNL     1     -32.526   7.647   1.681  1.00 20.00     0.010 C 
ENDBRANCH   2   7
TORSDOF 1
ENDMDL
MODEL 2
REMARK VINA RESULT:      -5.1      0.615      2.244
REMARK  1 active torsions:
REMARK  status: ('A' for Active; 'I' for Inactive)
REMARK    1  A    between atoms: C2_2  and  C8_8 
ROOT
HETATM    1  C1  UNL     1     -33.621   5.184   3.235  1.00 20.00    -0.081 C 
HETATM    2  C2  UNL     1     -33.196   6.388   3.648  1.00 20.00    -0.078 C 
HETATM    3  C3  UNL     1     -34.603   4.590   4.199  1.00 20.00     0.034 C 
HETATM    4  C4  UNL     1     -33.832   6.776   4.950  1.00 20.00     0.034 C 
HETATM    5  C5  UNL     1     -34.973   5.773   5.088  1.00 20.00     0.009 C 
HETATM    6  C6  UNL     1     -33.228   4.411   2.024  1.00 20.00     0.043 C 
ENDROOT
BRANCH   2   7
HETATM    7  C8  UNL     1     -32.207   7.305   3.017  1.00 20.00     0.030 C 
HETATM    8  C7  UNL     1     -32.704   7.780   1.665  1.00 20.00     0.010 C 
ENDBRANCH   2   7
TORSDOF 1
ENDMDL
MODEL 3
REMARK VINA RESULT:      -4.8      1.230      2.348
REMARK  1 active torsions:
REMARK  status: ('A' for Active; 'I' for Inactive)
REMARK    1  A    between atoms: C2_2  and  C8_8 
ROOT
HETATM    1  C1  UNL     1     -33.429   6.732   4.589  1.00 20.00    -0.081 C 
HETATM    2  C2  UNL     1     -34.035   5.805   3.832  1.00 20.00    -0.078 C 
HETATM    3  C3  UNL     1     -33.989   6.754   5.980  1.00 20.00     0.034 C 
HETATM    4  C4  UNL     1     -35.092   5.072   4.605  1.00 20.00     0.034 C 
HETATM    5  C5  UNL     1     -34.793   5.459   6.049  1.00 20.00     0.009 C 
HETATM    6  C6  UNL     1     -32.356   7.695   4.219  1.00 20.00     0.043 C 
ENDROOT
BRANCH   2   7
HETATM    7  C8  UNL     1     -33.814   5.469   2.398  1.00 20.00     0.030 C 
HETATM    8  C7  UNL     1     -32.956   4.225   2.266  1.00 20.00     0.010 C 
ENDBRANCH   2   7
TORSDOF 1
ENDMDL
MODEL 4
REMARK VINA RESULT:      -4.8      0.981      3.764
REMARK  1 active torsions:
REMARK  status: ('A' for Active; 'I' for Inactive)
REMARK    1  A    between atoms: C2_2  and  C8_8 
ROOT
HETATM    1  C1  UNL     1     -33.249   5.589   2.763  1.00 20.00    -0.081 C 
HETATM    2  C2  UNL     1     -33.898   5.811   3.916  1.00 20.00    -0.078 C 
HETATM    3  C3  UNL     1     -32.374   6.750   2.396  1.00 20.00     0.034 C 
HETATM    4  C4  UNL     1     -33.552   7.153   4.490  1.00 20.00     0.034 C 
HETATM    5  C5  UNL     1     -32.326   7.568   3.683  1.00 20.00     0.009 C 
HETATM    6  C6  UNL     1     -33.321   4.413   1.853  1.00 20.00     0.043 C 
ENDROOT
BRANCH   2   7
HETATM    7  C8  UNL     1     -34.881   4.946   4.625  1.00 20.00     0.030 C 
HETATM    8  C7  UNL     1     -34.813   5.174   6.122  1.00 20.00     0.010 C 
ENDBRANCH   2   7
TORSDOF 1
ENDMDL
MODEL 5
REMARK VINA RESULT:      -4.5      0.820      3.045
REMARK  1 active torsions:
REMARK  status: ('A' for Active; 'I' for Inactive)
REMARK    1  A    between atoms: C2_2  and  C8_8 
ROOT
HETATM    1  C1  UNL     1     -33.315   6.822   4.374  1.00 20.00    -0.081 C 
HETATM    2  C2  UNL     1     -33.962   5.773   3.842  1.00 20.00    -0.078 C 
HETATM    3  C3  UNL     1     -32.258   7.341   3.446  1.00 20.00     0.034 C 
HETATM    4  C4  UNL     1     -33.432   5.437   2.479  1.00 20.00     0.034 C 
HETATM    5  C5  UNL     1     -32.597   6.663   2.122  1.00 20.00     0.009 C 
HETATM    6  C6  UNL     1     -33.497   7.463   5.706  1.00 20.00     0.043 C 
ENDROOT
BRANCH   2   7
HETATM    7  C8  UNL     1     -35.051   4.943   4.427  1.00 20.00     0.030 C 
HETATM    8  C7  UNL     1     -34.853   4.777   5.921  1.00 20.00     0.010 C 
ENDBRANCH   2   7
TORSDOF 1
ENDMDL
MODEL 6
REMARK VINA RESULT:      -4.3      0.798      2.915
REMARK  1 active torsions:
REMARK  status: ('A' for Active; 'I' for Inactive)
REMARK    1  A    between atoms: C2_2  and  C8_8 
ROOT
HETATM    1  C1  UNL     1     -33.102   6.131   2.888  1.00 20.00    -0.081 C 
HETATM    2  C2  UNL     1     -33.758   6.041   4.055  1.00 20.00    -0.078 C 
HETATM    3  C3  UNL     1     -33.085   4.816   2.168  1.00 20.00     0.034 C 
HETATM    4  C4  UNL     1     -34.274   4.652   4.288  1.00 20.00     0.034 C 
HETATM    5  C5  UNL     1     -34.131   3.997   2.919  1.00 20.00     0.009 C 
HETATM    6  C6  UNL     1     -32.411   7.303   2.284  1.00 20.00     0.043 C 
ENDROOT
BRANCH   2   7
HETATM    7  C8  UNL     1     -33.985   7.088   5.090  1.00 20.00     0.030 C 
HETATM    8  C7  UNL     1     -34.349   6.455   6.420  1.00 20.00     0.010 C 
ENDBRANCH   2   7
TORSDOF 1
ENDMDL
MODEL 7
REMARK VINA RESULT:      -4.1     11.499     12.184
REMARK  1 active torsions:
REMARK  status: ('A' for Active; 'I' for Inactive)
REMARK    1  A    between atoms: C2_2  and  C8_8 
ROOT
HETATM    1  C1  UNL     1     -33.615  15.239  -3.658  1.00 20.00    -0.081 C 
HETATM    2  C2  UNL     1     -34.927  14.993  -3.516  1.00 20.00    -0.078 C 
HETATM    3  C3  UNL     1     -33.193  16.434  -2.857  1.00 20.00     0.034 C 
HETATM    4  C4  UNL     1     -35.574  15.988  -2.599  1.00 20.00     0.034 C 
HETATM    5  C5  UNL     1     -34.384  16.669  -1.932  1.00 20.00     0.009 C 
HETATM    6  C6  UNL     1     -32.608  14.526  -4.490  1.00 20.00     0.043 C 
ENDROOT
BRANCH   2   7
HETATM    7  C8  UNL     1     -35.760  13.933  -4.149  1.00 20.00     0.030 C 
HETATM    8  C7  UNL     1     -37.178  14.426  -4.365  1.00 20.00     0.010 C 
ENDBRANCH   2   7
TORSDOF 1
ENDMDL
MODEL 8
REMARK VINA RESULT:      -4.0     11.662     12.378
REMARK  1 active torsions:
REMARK  status: ('A' for Active; 'I' for Inactive)
REMARK    1  A    between atoms: C2_2  and  C8_8 
ROOT
HETATM    1  C1  UNL     1     -33.317  17.638  -1.480  1.00 20.00    -0.081 C 
HETATM    2  C2  UNL     1     -33.783  16.653  -2.263  1.00 20.00    -0.078 C 
HETATM    3  C3  UNL     1     -34.334  18.054  -0.460  1.00 20.00     0.034 C 
HETATM    4  C4  UNL     1     -35.181  16.265  -1.881  1.00 20.00     0.034 C 
HETATM    5  C5  UNL     1     -35.364  16.929  -0.521  1.00 20.00     0.009 C 
HETATM    6  C6  UNL     1     -32.004  18.338  -1.529  1.00 20.00     0.043 C 
ENDROOT
BRANCH   2   7
HETATM    7  C8  UNL     1     -33.124  15.970  -3.411  1.00 20.00     0.030 C 
HETATM    8  C7  UNL     1     -33.988  14.836  -3.927  1.00 20.00     0.010 C 
ENDBRANCH   2   7
TORSDOF 1
ENDMDL
MODEL 9
REMARK VINA RESULT:      -4.0     11.688     12.634
REMARK  1 active torsions:
REMARK  status: ('A' for Active; 'I' for Inactive)
REMARK    1  A    between atoms: C2_2  and  C8_8 
ROOT
HETATM    1  C1  UNL     1     -33.733  16.637  -2.323  1.00 20.00    -0.081 C 
HETATM    2  C2  UNL     1     -33.287  17.625  -1.532  1.00 20.00    -0.078 C 
HETATM    3  C3  UNL     1     -35.041  16.091  -1.833  1.00 20.00     0.034 C 
HETATM    4  C4  UNL     1     -34.231  17.884  -0.395  1.00 20.00     0.034 C 
HETATM    5  C5  UNL     1     -35.491  17.135  -0.815  1.00 20.00     0.009 C 
HETATM    6  C6  UNL     1     -33.102  16.043  -3.534  1.00 20.00     0.043 C 
ENDROOT
BRANCH   2   7
HETATM    7  C8  UNL     1     -32.030  18.416  -1.631  1.00 20.00     0.030 C 
HETATM    8  C7  UNL     1     -31.252  18.351  -0.331  1.00 20.00     0.010 C 
ENDBRANCH   2   7
TORSDOF 1
ENDMDL
