MODEL 1
REMARK VINA RESULT:      -4.2      0.000      0.000
REMARK  0 active torsions:
REMARK  status: ('A' for Active; 'I' for Inactive)
ROOT
HETATM    1  C1  UNL     1     -34.494   6.056   6.002  1.00 20.00     0.019 A 
HETATM    2  C2  UNL     1     -35.015   5.042   5.161  1.00 20.00     0.019 A 
HETATM    3  C3  UNL     1     -33.638   6.822   5.241  1.00 20.00     0.090 A 
HETATM    4  C4  UNL     1     -34.460   5.218   3.912  1.00 20.00     0.090 A 
HETATM    5  C5  UNL     1     -32.848   6.820   2.870  1.00 20.00     0.154 C 
HETATM    6  N6  UNL     1     -33.625   6.303   3.973  1.00 20.00    -0.371 N 
ENDROOT
TORSDOF 0
ENDMDL
MODEL 2
REMARK VINA RESULT:      -3.6      1.091      2.573
REMARK  0 active torsions:
REMARK  status: ('A' for Active; 'I' for Inactive)
ROOT
HETATM    1  C1  UNL     1     -33.062   6.380   2.841  1.00 20.00     0.019 A 
HETATM    2  C2  UNL     1     -33.403   5.039   2.536  1.00 20.00     0.019 A 
HETATM    3  C3  UNL     1     -33.587   6.665   4.083  1.00 20.00     0.090 A 
HETATM    4  C4  UNL     1     -34.126   4.547   3.600  1.00 20.00     0.090 A 
HETATM    5  C5  UNL     1     -34.920   5.431   5.799  1.00 20.00     0.154 C 
HETATM    6  N6  UNL     1     -34.232   5.544   4.533  1.00 20.00    -0.371 N 
ENDROOT
TORSDOF 0
ENDMDL
MODEL 3
REMARK VINA RESULT:      -3.6      1.082      2.957
REMARK  0 active torsions:
REMARK  status: ('A' for Active; 'I' for Inactive)
ROOT
HETATM    1  C1  UNL     1     -33.375   5.111   2.513  1.00 20.00     0.019 A 
HETATM    2  C2  UNL     1     -33.044   6.445   2.858  1.00 20.00     0.019 A 
HETATM    3  C3  UNL     1     -34.108   4.587   3.555  1.00 20.00     0.090 A 
HETATM    4  C4  UNL     1     -33.583   6.694   4.101  1.00 20.00     0.090 A 
HETATM    5  C5  UNL     1     -34.924   5.406   5.771  1.00 20.00     0.154 C 
HETATM    6  N6  UNL     1     -34.227   5.558   4.515  1.00 20.00    -0.371 N 
ENDROOT
TORSDOF 0
ENDMDL
MODEL 4
REMARK VINA RESULT:      -3.0     16.103     16.989
REMARK  0 active torsions:
REMARK  status: ('A' for Active; 'I' for Inactive)
ROOT
HETATM    1  C1  UNL     1     -24.216  16.432  10.820  1.00 20.00     0.019 A 
HETATM    2  C2  UNL     1     -23.627  16.998  11.978  1.00 20.00     0.019 A 
HETATM    3  C3  UNL     1     -23.448  16.813   9.741  1.00 20.00     0.090 A 
HETATM    4  C4  UNL     1     -22.520  17.708  11.572  1.00 20.00     0.090 A 
HETATM    5  C5  UNL     1     -21.391  18.190   9.394  1.00 20.00     0.154 C 
HETATM    6  N6  UNL     1     -22.420  17.589  10.211  1.00 20.00    -0.371 N 
ENDROOT
TORSDOF 0
ENDMDL
MODEL 5
REMARK VINA RESULT:      -3.0     12.010     12.340
REMARK  0 active torsions:
REMARK  status: ('A' for Active; 'I' for Inactive)
ROOT
HETATM    1  C1  UNL     1     -34.043  16.175  -2.520  1.00 20.00     0.019 A 
HETATM    2  C2  UNL     1     -33.094  15.751  -3.482  1.00 20.00     0.019 A 
HETATM    3  C3  UNL     1     -35.211  15.486  -2.762  1.00 20.00     0.090 A 
HETATM    4  C4  UNL     1     -33.711  14.816  -4.284  1.00 20.00     0.090 A 
HETATM    5  C5  UNL     1     -35.980  13.773  -4.413  1.00 20.00     0.154 C 
HETATM    6  N6  UNL     1     -34.998  14.664  -3.837  1.00 20.00    -0.371 N 
ENDROOT
TORSDOF 0
ENDMDL
MODEL 6
REMARK VINA RESULT:      -3.0     12.012     12.378
REMARK  0 active torsions:
REMARK  status: ('A' for Active; 'I' for Inactive)
ROOT
HETATM    1  C1  UNL     1     -33.108  15.772  -3.470  1.00 20.00     0.019 A 
HETATM    2  C2  UNL     1     -34.058  16.173  -2.498  1.00 20.00     0.019 A 
HETATM    3  C3  UNL     1     -33.720  14.846  -4.285  1.00 20.00     0.090 A 
HETATM    4  C4  UNL     1     -35.220  15.478  -2.749  1.00 20.00     0.090 A 
HETATM    5  C5  UNL     1     -35.977  13.781  -4.422  1.00 20.00     0.154 C 
HETATM    6  N6  UNL     1     -35.003  14.674  -3.837  1.00 20.00    -0.371 N 
ENDROOT
TORSDOF 0
ENDMDL
MODEL 7
REMARK VINA RESULT:      -3.0     15.525     16.120
REMARK  0 active torsions:
REMARK  status: ('A' for Active; 'I' for Inactive)
ROOT
HETATM    1  C1  UNL     1     -24.624  15.861  11.550  1.00 20.00     0.019 A 
HETATM    2  C2  UNL     1     -24.033  16.566  10.472  1.00 20.00     0.019 A 
HETATM    3  C3  UNL     1     -25.471  16.733  12.198  1.00 20.00     0.090 A 
HETATM    4  C4  UNL     1     -24.536  17.848  10.496  1.00 20.00     0.090 A 
HETATM    5  C5  UNL     1     -26.148  19.124  11.919  1.00 20.00     0.154 C 
HETATM    6  N6  UNL     1     -25.408  17.939  11.549  1.00 20.00    -0.371 N 
ENDROOT
TORSDOF 0
ENDMDL
MODEL 8
REMARK VINA RESULT:      -2.9      8.942      9.111
REMARK  0 active torsions:
REMARK  status: ('A' for Active; 'I' for Inactive)
ROOT
HETATM    1  C1  UNL     1     -41.900   5.681   0.324  1.00 20.00     0.019 A 
HETATM    2  C2  UNL     1     -41.266   5.851  -0.932  1.00 20.00     0.019 A 
HETATM    3  C3  UNL     1     -42.077   6.934   0.868  1.00 20.00     0.090 A 
HETATM    4  C4  UNL     1     -41.075   7.202  -1.116  1.00 20.00     0.090 A 
HETATM    5  C5  UNL     1     -41.561   9.282   0.183  1.00 20.00     0.154 C 
HETATM    6  N6  UNL     1     -41.571   7.851  -0.016  1.00 20.00    -0.371 N 
ENDROOT
TORSDOF 0
ENDMDL
MODEL 9
REMARK VINA RESULT:      -2.9      8.994      9.177
REMARK  0 active torsions:
REMARK  status: ('A' for Active; 'I' for Inactive)
ROOT
HETATM    1  C1  UNL     1     -41.313   5.822  -0.914  1.00 20.00     0.019 A 
HETATM    2  C2  UNL     1     -41.984   5.659   0.323  1.00 20.00     0.019 A 
HETATM    3  C3  UNL     1     -41.095   7.172  -1.089  1.00 20.00     0.090 A 
HETATM    4  C4  UNL     1     -42.157   6.913   0.866  1.00 20.00     0.090 A 
HETATM    5  C5  UNL     1     -41.590   9.256   0.200  1.00 20.00     0.154 C 
HETATM    6  N6  UNL     1     -41.613   7.825  -0.001  1.00 20.00    -0.371 N 
ENDROOT
TORSDOF 0
ENDMDL
