MODEL 1
REMARK VINA RESULT:      -3.8      0.000      0.000
REMARK  1 active torsions:
REMARK  status: ('A' for Active; 'I' for Inactive)
REMARK    1  A    between atoms: C4_4  and  S6_6 
ROOT
HETATM    1  C1  UNL     1     -34.363   6.254   6.153  1.00 20.00     0.009 A 
HETATM    2  C2  UNL     1     -33.572   6.988   5.224  1.00 20.00     0.026 A 
HETATM    3  C3  UNL     1     -34.917   5.127   5.585  1.00 20.00     0.051 A 
HETATM    4  C4  UNL     1     -33.551   6.396   3.981  1.00 20.00     0.038 A 
HETATM    5  S5  UNL     1     -34.482   4.960   3.937  1.00 20.00    -0.095 SA
ENDROOT
BRANCH   4   6
HETATM    6  S6  UNL     1     -32.692   6.989   2.570  1.00 20.00    -0.136 SA
HETATM    7  H10 UNL     1     -33.500   6.487   1.619  1.00 20.00     0.107 HD
ENDBRANCH   4   6
TORSDOF 1
ENDMDL
MODEL 2
REMARK VINA RESULT:      -3.7      1.302      1.712
REMARK  1 active torsions:
REMARK  status: ('A' for Active; 'I' for Inactive)
REMARK    1  A    between atoms: C4_4  and  S6_6 
ROOT
HETATM    1  C1  UNL     1     -35.040   4.844   4.862  1.00 20.00     0.009 A 
HETATM    2  C2  UNL     1     -34.364   5.235   3.671  1.00 20.00     0.026 A 
HETATM    3  C3  UNL     1     -34.719   5.656   5.929  1.00 20.00     0.051 A 
HETATM    4  C4  UNL     1     -33.553   6.330   3.871  1.00 20.00     0.038 A 
HETATM    5  S5  UNL     1     -33.608   6.882   5.491  1.00 20.00    -0.095 SA
ENDROOT
BRANCH   4   6
HETATM    6  S6  UNL     1     -32.560   7.114   2.656  1.00 20.00    -0.136 SA
HETATM    7  H10 UNL     1     -32.934   8.386   2.883  1.00 20.00     0.107 HD
ENDBRANCH   4   6
TORSDOF 1
ENDMDL
MODEL 3
REMARK VINA RESULT:      -2.9     12.193     12.481
REMARK  1 active torsions:
REMARK  status: ('A' for Active; 'I' for Inactive)
REMARK    1  A    between atoms: C4_4  and  S6_6 
ROOT
HETATM    1  C1  UNL     1     -34.003  16.280  -2.442  1.00 20.00     0.009 A 
HETATM    2  C2  UNL     1     -35.243  15.647  -2.745  1.00 20.00     0.026 A 
HETATM    3  C3  UNL     1     -33.015  15.937  -3.338  1.00 20.00     0.051 A 
HETATM    4  C4  UNL     1     -35.156  14.845  -3.861  1.00 20.00     0.038 A 
HETATM    5  S5  UNL     1     -33.583  14.856  -4.538  1.00 20.00    -0.095 SA
ENDROOT
BRANCH   4   6
HETATM    6  S6  UNL     1     -36.460  13.900  -4.557  1.00 20.00    -0.136 SA
HETATM    7  H10 UNL     1     -37.440  14.817  -4.468  1.00 20.00     0.107 HD
ENDBRANCH   4   6
TORSDOF 1
ENDMDL
MODEL 4
REMARK VINA RESULT:      -2.9     15.709     15.957
REMARK  1 active torsions:
REMARK  status: ('A' for Active; 'I' for Inactive)
REMARK    1  A    between atoms: C4_4  and  S6_6 
ROOT
HETATM    1  C1  UNL     1     -24.637  15.910  11.579  1.00 20.00     0.009 A 
HETATM    2  C2  UNL     1     -24.058  16.507  10.423  1.00 20.00     0.026 A 
HETATM    3  C3  UNL     1     -25.430  16.796  12.276  1.00 20.00     0.051 A 
HETATM    4  C4  UNL     1     -24.428  17.826  10.280  1.00 20.00     0.038 A 
HETATM    5  S5  UNL     1     -25.471  18.339  11.538  1.00 20.00    -0.095 SA
ENDROOT
BRANCH   4   6
HETATM    6  S6  UNL     1     -23.928  18.903   8.990  1.00 20.00    -0.136 SA
HETATM    7  H10 UNL     1     -22.862  19.458   9.594  1.00 20.00     0.107 HD
ENDBRANCH   4   6
TORSDOF 1
ENDMDL
MODEL 5
REMARK VINA RESULT:      -2.9     16.447     17.142
REMARK  1 active torsions:
REMARK  status: ('A' for Active; 'I' for Inactive)
REMARK    1  A    between atoms: C4_4  and  S6_6 
ROOT
HETATM    1  C1  UNL     1     -24.059  17.914  12.332  1.00 20.00     0.009 A 
HETATM    2  C2  UNL     1     -22.741  17.814  11.799  1.00 20.00     0.026 A 
HETATM    3  C3  UNL     1     -24.997  18.149  11.350  1.00 20.00     0.051 A 
HETATM    4  C4  UNL     1     -22.722  17.976  10.432  1.00 20.00     0.038 A 
HETATM    5  S5  UNL     1     -24.288  18.248   9.795  1.00 20.00    -0.095 SA
ENDROOT
BRANCH   4   6
HETATM    6  S6  UNL     1     -21.300  17.921   9.406  1.00 20.00    -0.136 SA
HETATM    7  H10 UNL     1     -21.109  19.245   9.259  1.00 20.00     0.107 HD
ENDBRANCH   4   6
TORSDOF 1
ENDMDL
MODEL 6
REMARK VINA RESULT:      -2.8     16.576     17.103
REMARK  1 active torsions:
REMARK  status: ('A' for Active; 'I' for Inactive)
REMARK    1  A    between atoms: C4_4  and  S6_6 
ROOT
HETATM    1  C1  UNL     1     -22.408  17.763  11.626  1.00 20.00     0.009 A 
HETATM    2  C2  UNL     1     -23.623  17.995  12.332  1.00 20.00     0.026 A 
HETATM    3  C3  UNL     1     -22.593  17.772  10.261  1.00 20.00     0.051 A 
HETATM    4  C4  UNL     1     -24.691  18.173  11.481  1.00 20.00     0.038 A 
HETATM    5  S5  UNL     1     -24.226  18.059   9.836  1.00 20.00    -0.095 SA
ENDROOT
BRANCH   4   6
HETATM    6  S6  UNL     1     -26.350  18.483  11.957  1.00 20.00    -0.136 SA
HETATM    7  H10 UNL     1     -26.852  18.786  10.746  1.00 20.00     0.107 HD
ENDBRANCH   4   6
TORSDOF 1
ENDMDL
MODEL 7
REMARK VINA RESULT:      -2.8      1.798      3.363
REMARK  1 active torsions:
REMARK  status: ('A' for Active; 'I' for Inactive)
REMARK    1  A    between atoms: C4_4  and  S6_6 
ROOT
HETATM    1  C1  UNL     1     -33.287   5.020   2.312  1.00 20.00     0.009 A 
HETATM    2  C2  UNL     1     -34.029   4.587   3.448  1.00 20.00     0.026 A 
HETATM    3  C3  UNL     1     -32.811   6.304   2.465  1.00 20.00     0.051 A 
HETATM    4  C4  UNL     1     -34.092   5.555   4.426  1.00 20.00     0.038 A 
HETATM    5  S5  UNL     1     -33.259   6.981   3.972  1.00 20.00    -0.095 SA
ENDROOT
BRANCH   4   6
HETATM    6  S6  UNL     1     -34.910   5.409   5.971  1.00 20.00    -0.136 SA
HETATM    7  H10 UNL     1     -33.960   4.725   6.635  1.00 20.00     0.107 HD
ENDBRANCH   4   6
TORSDOF 1
ENDMDL
MODEL 8
REMARK VINA RESULT:      -2.7     16.366     16.805
REMARK  1 active torsions:
REMARK  status: ('A' for Active; 'I' for Inactive)
REMARK    1  A    between atoms: C4_4  and  S6_6 
ROOT
HETATM    1  C1  UNL     1     -24.796  18.162  12.332  1.00 20.00     0.009 A 
HETATM    2  C2  UNL     1     -25.319  18.541  11.062  1.00 20.00     0.026 A 
HETATM    3  C3  UNL     1     -23.474  17.783  12.254  1.00 20.00     0.051 A 
HETATM    4  C4  UNL     1     -24.377  18.437  10.062  1.00 20.00     0.038 A 
HETATM    5  S5  UNL     1     -22.869  17.885  10.656  1.00 20.00    -0.095 SA
ENDROOT
BRANCH   4   6
HETATM    6  S6  UNL     1     -24.626  18.812   8.367  1.00 20.00    -0.136 SA
HETATM    7  H10 UNL     1     -25.972  18.790   8.353  1.00 20.00     0.107 HD
ENDBRANCH   4   6
TORSDOF 1
ENDMDL
MODEL 9
REMARK VINA RESULT:      -2.7     12.228     12.716
REMARK  1 active torsions:
REMARK  status: ('A' for Active; 'I' for Inactive)
REMARK    1  A    between atoms: C4_4  and  S6_6 
ROOT
HETATM    1  C1  UNL     1     -34.117  15.190  -3.633  1.00 20.00     0.009 A 
HETATM    2  C2  UNL     1     -33.071  16.095  -3.293  1.00 20.00     0.026 A 
HETATM    3  C3  UNL     1     -35.240  15.383  -2.857  1.00 20.00     0.051 A 
HETATM    4  C4  UNL     1     -33.432  16.945  -2.271  1.00 20.00     0.038 A 
HETATM    5  S5  UNL     1     -35.029  16.650  -1.726  1.00 20.00    -0.095 SA
ENDROOT
BRANCH   4   6
HETATM    6  S6  UNL     1     -32.428  18.199  -1.568  1.00 20.00    -0.136 SA
HETATM    7  H10 UNL     1     -31.349  18.057  -2.360  1.00 20.00     0.107 HD
ENDBRANCH   4   6
TORSDOF 1
ENDMDL
