MODEL 1
REMARK VINA RESULT:      -5.0      0.000      0.000
REMARK  0 active torsions:
REMARK  status: ('A' for Active; 'I' for Inactive)
ROOT
HETATM    1  C1  UNL     1     -34.562   5.667   5.445  1.00 20.00     0.199 A 
HETATM    2  C2  UNL     1     -34.590   5.040   4.199  1.00 20.00     0.198 A 
HETATM    3  C3  UNL     1     -33.747   6.782   5.645  1.00 20.00     0.198 A 
HETATM    4  C4  UNL     1     -33.803   5.527   3.154  1.00 20.00     0.182 A 
HETATM    5  C5  UNL     1     -32.960   7.268   4.602  1.00 20.00     0.182 A 
HETATM    6  C6  UNL     1     -32.988   6.641   3.356  1.00 20.00     0.117 A 
HETATM    7  F7  UNL     1     -35.316   5.199   6.446  1.00 20.00    -0.199 F 
HETATM    8  F8  UNL     1     -35.372   3.970   4.006  1.00 20.00    -0.199 F 
HETATM    9  F9  UNL     1     -33.719   7.383   6.842  1.00 20.00    -0.199 F 
HETATM   10  F10 UNL     1     -33.843   4.913   1.963  1.00 20.00    -0.201 F 
HETATM   11  F11 UNL     1     -32.182   8.339   4.810  1.00 20.00    -0.201 F 
HETATM   12 CL12 UNL     1     -32.018   7.242   2.066  1.00 20.00    -0.077 Cl
ENDROOT
TORSDOF 0
ENDMDL
MODEL 2
REMARK VINA RESULT:      -5.0      0.009      3.074
REMARK  0 active torsions:
REMARK  status: ('A' for Active; 'I' for Inactive)
ROOT
HETATM    1  C1  UNL     1     -34.560   5.674   5.444  1.00 20.00     0.199 A 
HETATM    2  C2  UNL     1     -33.740   6.785   5.644  1.00 20.00     0.198 A 
HETATM    3  C3  UNL     1     -34.592   5.048   4.197  1.00 20.00     0.198 A 
HETATM    4  C4  UNL     1     -32.954   7.270   4.598  1.00 20.00     0.182 A 
HETATM    5  C5  UNL     1     -33.806   5.532   3.152  1.00 20.00     0.182 A 
HETATM    6  C6  UNL     1     -32.987   6.643   3.353  1.00 20.00     0.117 A 
HETATM    7  F7  UNL     1     -35.315   5.211   6.446  1.00 20.00    -0.199 F 
HETATM    8  F8  UNL     1     -33.709   7.387   6.840  1.00 20.00    -0.199 F 
HETATM    9  F9  UNL     1     -35.380   3.982   4.005  1.00 20.00    -0.199 F 
HETATM   10  F10 UNL     1     -32.171   8.338   4.807  1.00 20.00    -0.201 F 
HETATM   11  F11 UNL     1     -33.848   4.920   1.961  1.00 20.00    -0.201 F 
HETATM   12 CL12 UNL     1     -32.015   7.241   2.063  1.00 20.00    -0.077 Cl
ENDROOT
TORSDOF 0
ENDMDL
MODEL 3
REMARK VINA RESULT:      -4.8      1.991      3.272
REMARK  0 active torsions:
REMARK  status: ('A' for Active; 'I' for Inactive)
ROOT
HETATM    1  C1  UNL     1     -32.656   6.418   2.635  1.00 20.00     0.199 A 
HETATM    2  C2  UNL     1     -33.345   5.205   2.643  1.00 20.00     0.198 A 
HETATM    3  C3  UNL     1     -32.702   7.253   3.752  1.00 20.00     0.198 A 
HETATM    4  C4  UNL     1     -34.080   4.828   3.768  1.00 20.00     0.182 A 
HETATM    5  C5  UNL     1     -33.437   6.876   4.875  1.00 20.00     0.182 A 
HETATM    6  C6  UNL     1     -34.126   5.663   4.883  1.00 20.00     0.117 A 
HETATM    7  F7  UNL     1     -31.953   6.781   1.555  1.00 20.00    -0.199 F 
HETATM    8  F8  UNL     1     -33.302   4.404   1.571  1.00 20.00    -0.199 F 
HETATM    9  F9  UNL     1     -32.041   8.419   3.743  1.00 20.00    -0.199 F 
HETATM   10  F10 UNL     1     -34.736   3.658   3.760  1.00 20.00    -0.201 F 
HETATM   11  F11 UNL     1     -33.471   7.689   5.940  1.00 20.00    -0.201 F 
HETATM   12 CL12 UNL     1     -35.032   5.196   6.272  1.00 20.00    -0.077 Cl
ENDROOT
TORSDOF 0
ENDMDL
MODEL 4
REMARK VINA RESULT:      -4.7      1.990      4.467
REMARK  0 active torsions:
REMARK  status: ('A' for Active; 'I' for Inactive)
ROOT
HETATM    1  C1  UNL     1     -32.656   6.422   2.637  1.00 20.00     0.199 A 
HETATM    2  C2  UNL     1     -32.700   7.255   3.755  1.00 20.00     0.198 A 
HETATM    3  C3  UNL     1     -33.347   5.210   2.644  1.00 20.00     0.198 A 
HETATM    4  C4  UNL     1     -33.434   6.876   4.879  1.00 20.00     0.182 A 
HETATM    5  C5  UNL     1     -34.080   4.831   3.767  1.00 20.00     0.182 A 
HETATM    6  C6  UNL     1     -34.124   5.664   4.885  1.00 20.00     0.117 A 
HETATM    7  F7  UNL     1     -31.951   6.786   1.559  1.00 20.00    -0.199 F 
HETATM    8  F8  UNL     1     -32.037   8.419   3.749  1.00 20.00    -0.199 F 
HETATM    9  F9  UNL     1     -33.304   4.410   1.570  1.00 20.00    -0.199 F 
HETATM   10  F10 UNL     1     -33.467   7.689   5.945  1.00 20.00    -0.201 F 
HETATM   11  F11 UNL     1     -34.739   3.664   3.758  1.00 20.00    -0.201 F 
HETATM   12 CL12 UNL     1     -35.032   5.197   6.273  1.00 20.00    -0.077 Cl
ENDROOT
TORSDOF 0
ENDMDL
MODEL 5
REMARK VINA RESULT:      -4.7      1.136      2.078
REMARK  0 active torsions:
REMARK  status: ('A' for Active; 'I' for Inactive)
ROOT
HETATM    1  C1  UNL     1     -33.851   6.792   5.654  1.00 20.00     0.199 A 
HETATM    2  C2  UNL     1     -34.570   5.628   5.383  1.00 20.00     0.198 A 
HETATM    3  C3  UNL     1     -32.955   7.293   4.709  1.00 20.00     0.198 A 
HETATM    4  C4  UNL     1     -34.392   4.964   4.169  1.00 20.00     0.182 A 
HETATM    5  C5  UNL     1     -32.776   6.629   3.496  1.00 20.00     0.182 A 
HETATM    6  C6  UNL     1     -33.495   5.464   3.225  1.00 20.00     0.117 A 
HETATM    7  F7  UNL     1     -34.021   7.428   6.819  1.00 20.00    -0.199 F 
HETATM    8  F8  UNL     1     -35.430   5.146   6.289  1.00 20.00    -0.199 F 
HETATM    9  F9  UNL     1     -32.263   8.410   4.970  1.00 20.00    -0.199 F 
HETATM   10  F10 UNL     1     -35.091   3.846   3.924  1.00 20.00    -0.201 F 
HETATM   11  F11 UNL     1     -31.911   7.123   2.599  1.00 20.00    -0.201 F 
HETATM   12 CL12 UNL     1     -33.276   4.645   1.726  1.00 20.00    -0.077 Cl
ENDROOT
TORSDOF 0
ENDMDL
MODEL 6
REMARK VINA RESULT:      -4.7      1.137      3.105
REMARK  0 active torsions:
REMARK  status: ('A' for Active; 'I' for Inactive)
ROOT
HETATM    1  C1  UNL     1     -33.837   6.798   5.648  1.00 20.00     0.199 A 
HETATM    2  C2  UNL     1     -32.944   7.294   4.698  1.00 20.00     0.198 A 
HETATM    3  C3  UNL     1     -34.561   5.635   5.382  1.00 20.00     0.198 A 
HETATM    4  C4  UNL     1     -32.776   6.628   3.483  1.00 20.00     0.182 A 
HETATM    5  C5  UNL     1     -34.393   4.970   4.168  1.00 20.00     0.182 A 
HETATM    6  C6  UNL     1     -33.500   5.466   3.218  1.00 20.00     0.117 A 
HETATM    7  F7  UNL     1     -33.999   7.437   6.812  1.00 20.00    -0.199 F 
HETATM    8  F8  UNL     1     -32.249   8.410   4.951  1.00 20.00    -0.199 F 
HETATM    9  F9  UNL     1     -35.419   5.159   6.294  1.00 20.00    -0.199 F 
HETATM   10  F10 UNL     1     -31.913   7.118   2.581  1.00 20.00    -0.201 F 
HETATM   11  F11 UNL     1     -35.096   3.854   3.929  1.00 20.00    -0.201 F 
HETATM   12 CL12 UNL     1     -33.291   4.644   1.720  1.00 20.00    -0.077 Cl
ENDROOT
TORSDOF 0
ENDMDL
MODEL 7
REMARK VINA RESULT:      -4.6     14.328     15.483
REMARK  0 active torsions:
REMARK  status: ('A' for Active; 'I' for Inactive)
ROOT
HETATM    1  C1  UNL     1     -25.906  19.255   3.654  1.00 20.00     0.199 A 
HETATM    2  C2  UNL     1     -25.227  19.253   4.873  1.00 20.00     0.198 A 
HETATM    3  C3  UNL     1     -27.302  19.259   3.635  1.00 20.00     0.198 A 
HETATM    4  C4  UNL     1     -25.942  19.253   6.071  1.00 20.00     0.182 A 
HETATM    5  C5  UNL     1     -28.016  19.259   4.832  1.00 20.00     0.182 A 
HETATM    6  C6  UNL     1     -27.337  19.257   6.050  1.00 20.00     0.117 A 
HETATM    7  F7  UNL     1     -25.220  19.253   2.506  1.00 20.00    -0.199 F 
HETATM    8  F8  UNL     1     -23.888  19.248   4.893  1.00 20.00    -0.199 F 
HETATM    9  F9  UNL     1     -27.954  19.260   2.465  1.00 20.00    -0.199 F 
HETATM   10  F10 UNL     1     -25.274  19.252   7.234  1.00 20.00    -0.201 F 
HETATM   11  F11 UNL     1     -29.356  19.263   4.796  1.00 20.00    -0.201 F 
HETATM   12 CL12 UNL     1     -28.220  19.259   7.529  1.00 20.00    -0.077 Cl
ENDROOT
TORSDOF 0
ENDMDL
MODEL 8
REMARK VINA RESULT:      -4.6     16.179     16.883
REMARK  0 active torsions:
REMARK  status: ('A' for Active; 'I' for Inactive)
ROOT
HETATM    1  C1  UNL     1     -22.532  17.562   9.667  1.00 20.00     0.199 A 
HETATM    2  C2  UNL     1     -23.115  17.581  10.934  1.00 20.00     0.198 A 
HETATM    3  C3  UNL     1     -23.232  18.070   8.572  1.00 20.00     0.198 A 
HETATM    4  C4  UNL     1     -24.395  18.106  11.107  1.00 20.00     0.182 A 
HETATM    5  C5  UNL     1     -24.512  18.594   8.744  1.00 20.00     0.182 A 
HETATM    6  C6  UNL     1     -25.094  18.613  10.011  1.00 20.00     0.117 A 
HETATM    7  F7  UNL     1     -21.304  17.056   9.502  1.00 20.00    -0.199 F 
HETATM    8  F8  UNL     1     -22.444  17.093  11.986  1.00 20.00    -0.199 F 
HETATM    9  F9  UNL     1     -22.674  18.050   7.354  1.00 20.00    -0.199 F 
HETATM   10  F10 UNL     1     -24.940  18.117  12.332  1.00 20.00    -0.201 F 
HETATM   11  F11 UNL     1     -25.171  19.079   7.682  1.00 20.00    -0.201 F 
HETATM   12 CL12 UNL     1     -26.675  19.263  10.225  1.00 20.00    -0.077 Cl
ENDROOT
TORSDOF 0
ENDMDL
MODEL 9
REMARK VINA RESULT:      -4.4     16.002     16.865
REMARK  0 active torsions:
REMARK  status: ('A' for Active; 'I' for Inactive)
ROOT
HETATM    1  C1  UNL     1     -23.713  18.517   8.439  1.00 20.00     0.199 A 
HETATM    2  C2  UNL     1     -23.072  18.178   9.630  1.00 20.00     0.198 A 
HETATM    3  C3  UNL     1     -25.059  18.883   8.452  1.00 20.00     0.198 A 
HETATM    4  C4  UNL     1     -23.778  18.203  10.834  1.00 20.00     0.182 A 
HETATM    5  C5  UNL     1     -25.764  18.909   9.654  1.00 20.00     0.182 A 
HETATM    6  C6  UNL     1     -25.123  18.569  10.846  1.00 20.00     0.117 A 
HETATM    7  F7  UNL     1     -23.036  18.491   7.284  1.00 20.00    -0.199 F 
HETATM    8  F8  UNL     1     -21.780  17.826   9.619  1.00 20.00    -0.199 F 
HETATM    9  F9  UNL     1     -25.674  19.208   7.307  1.00 20.00    -0.199 F 
HETATM   10  F10 UNL     1     -23.147  17.875  11.971  1.00 20.00    -0.201 F 
HETATM   11  F11 UNL     1     -27.057  19.263   9.649  1.00 20.00    -0.201 F 
HETATM   12 CL12 UNL     1     -25.993  18.602  12.332  1.00 20.00    -0.077 Cl
ENDROOT
TORSDOF 0
ENDMDL
