MODEL 1
REMARK VINA RESULT:      -2.5      0.000      0.000
REMARK  0 active torsions:
REMARK  status: ('A' for Active; 'I' for Inactive)
ROOT
HETATM    1  C1  UNL     1     -32.766   6.565   2.664  1.00 20.00     0.016 C 
HETATM    2  C2  UNL     1     -33.512   5.246   2.776  1.00 20.00     0.075 C 
HETATM    3  I3  UNL     1     -34.765   5.226   4.499  1.00 20.00    -0.090 I 
ENDROOT
TORSDOF 0
ENDMDL
MODEL 2
REMARK VINA RESULT:      -2.4      1.052      1.346
REMARK  0 active torsions:
REMARK  status: ('A' for Active; 'I' for Inactive)
ROOT
HETATM    1  C1  UNL     1     -33.446   5.278   2.758  1.00 20.00     0.016 C 
HETATM    2  C2  UNL     1     -34.239   4.421   3.731  1.00 20.00     0.075 C 
HETATM    3  I3  UNL     1     -34.603   5.473   5.548  1.00 20.00    -0.090 I 
ENDROOT
TORSDOF 0
ENDMDL
MODEL 3
REMARK VINA RESULT:      -2.3      0.924      1.197
REMARK  0 active torsions:
REMARK  status: ('A' for Active; 'I' for Inactive)
ROOT
HETATM    1  C1  UNL     1     -33.262   5.398   2.586  1.00 20.00     0.016 C 
HETATM    2  C2  UNL     1     -33.628   6.359   3.705  1.00 20.00     0.075 C 
HETATM    3  I3  UNL     1     -34.716   5.359   5.240  1.00 20.00    -0.090 I 
ENDROOT
TORSDOF 0
ENDMDL
MODEL 4
REMARK VINA RESULT:      -2.3      2.897      2.897
REMARK  0 active torsions:
REMARK  status: ('A' for Active; 'I' for Inactive)
ROOT
HETATM    1  C1  UNL     1     -33.853   6.958   6.079  1.00 20.00     0.016 C 
HETATM    2  C2  UNL     1     -34.623   5.650   5.991  1.00 20.00     0.075 C 
HETATM    3  I3  UNL     1     -34.509   4.833   4.026  1.00 20.00    -0.090 I 
ENDROOT
TORSDOF 0
ENDMDL
MODEL 5
REMARK VINA RESULT:      -2.3      2.527      2.783
REMARK  0 active torsions:
REMARK  status: ('A' for Active; 'I' for Inactive)
ROOT
HETATM    1  C1  UNL     1     -34.721   5.418   5.733  1.00 20.00     0.016 C 
HETATM    2  C2  UNL     1     -34.835   4.755   4.371  1.00 20.00     0.075 C 
HETATM    3  I3  UNL     1     -33.444   5.599   2.996  1.00 20.00    -0.090 I 
ENDROOT
TORSDOF 0
ENDMDL
MODEL 6
REMARK VINA RESULT:      -2.1      2.501      2.797
REMARK  0 active torsions:
REMARK  status: ('A' for Active; 'I' for Inactive)
ROOT
HETATM    1  C1  UNL     1     -34.847   5.330   5.537  1.00 20.00     0.016 C 
HETATM    2  C2  UNL     1     -34.187   6.313   4.585  1.00 20.00     0.075 C 
HETATM    3  I3  UNL     1     -33.406   5.307   2.876  1.00 20.00    -0.090 I 
ENDROOT
TORSDOF 0
ENDMDL
MODEL 7
REMARK VINA RESULT:      -2.1      8.717      8.745
REMARK  0 active torsions:
REMARK  status: ('A' for Active; 'I' for Inactive)
ROOT
HETATM    1  C1  UNL     1     -40.975   5.607  -0.970  1.00 20.00     0.016 C 
HETATM    2  C2  UNL     1     -41.396   6.296   0.318  1.00 20.00     0.075 C 
HETATM    3  I3  UNL     1     -41.720   8.377  -0.006  1.00 20.00    -0.090 I 
ENDROOT
TORSDOF 0
ENDMDL
MODEL 8
REMARK VINA RESULT:      -2.0      8.757      8.829
REMARK  0 active torsions:
REMARK  status: ('A' for Active; 'I' for Inactive)
ROOT
HETATM    1  C1  UNL     1     -41.490   8.948   0.014  1.00 20.00     0.016 C 
HETATM    2  C2  UNL     1     -41.494   7.601   0.716  1.00 20.00     0.075 C 
HETATM    3  I3  UNL     1     -41.395   6.008  -0.696  1.00 20.00    -0.090 I 
ENDROOT
TORSDOF 0
ENDMDL
MODEL 9
REMARK VINA RESULT:      -1.8     17.361     17.772
REMARK  0 active torsions:
REMARK  status: ('A' for Active; 'I' for Inactive)
ROOT
HETATM    1  C1  UNL     1     -22.070  17.830  12.332  1.00 20.00     0.016 C 
HETATM    2  C2  UNL     1     -23.059  17.732  11.183  1.00 20.00     0.075 C 
HETATM    3  I3  UNL     1     -24.578  16.300  11.608  1.00 20.00    -0.090 I 
ENDROOT
TORSDOF 0
ENDMDL
