MODEL 1
REMARK VINA RESULT:      -4.6      0.000      0.000
REMARK  4 active torsions:
REMARK  status: ('A' for Active; 'I' for Inactive)
REMARK    1  A    between atoms: C2_2  and  C4_4 
REMARK    2  A    between atoms: C4_4  and  O7_7 
REMARK    3  A    between atoms: C5_5  and  C6_6 
REMARK    4  A    between atoms: C6_6  and  O7_7 
ROOT
HETATM    1  O7  UNL     1     -34.017   4.402   3.602  1.00 20.00    -0.388 OA
ENDROOT
BRANCH   1   2
HETATM    2  C4  UNL     1     -33.408   5.027   2.480  1.00 20.00     0.194 C 
BRANCH   2   3
HETATM    3  C2  UNL     1     -32.898   6.366   2.895  1.00 20.00    -0.011 C 
HETATM    4  C1  UNL     1     -32.520   7.321   2.036  1.00 20.00     0.009 C 
ENDBRANCH   2   3
ENDBRANCH   1   2
BRANCH   1   5
HETATM    5  C6  UNL     1     -35.010   5.233   4.187  1.00 20.00     0.167 C 
BRANCH   5   6
HETATM    6  C5  UNL     1     -34.803   5.261   5.694  1.00 20.00     0.022 C 
HETATM    7  C3  UNL     1     -34.177   6.564   6.154  1.00 20.00     0.007 C 
ENDBRANCH   5   6
ENDBRANCH   1   5
TORSDOF 4
ENDMDL
MODEL 2
REMARK VINA RESULT:      -4.4      0.153      3.373
REMARK  4 active torsions:
REMARK  status: ('A' for Active; 'I' for Inactive)
REMARK    1  A    between atoms: C2_2  and  C4_4 
REMARK    2  A    between atoms: C4_4  and  O7_7 
REMARK    3  A    between atoms: C5_5  and  C6_6 
REMARK    4  A    between atoms: C6_6  and  O7_7 
ROOT
HETATM    1  O7  UNL     1     -33.978   4.475   3.569  1.00 20.00    -0.388 OA
ENDROOT
BRANCH   1   2
HETATM    2  C4  UNL     1     -35.021   5.250   4.144  1.00 20.00     0.194 C 
BRANCH   2   3
HETATM    3  C2  UNL     1     -34.795   5.342   5.616  1.00 20.00    -0.011 C 
HETATM    4  C1  UNL     1     -34.268   6.410   6.227  1.00 20.00     0.009 C 
ENDBRANCH   2   3
ENDBRANCH   1   2
BRANCH   1   5
HETATM    5  C6  UNL     1     -33.364   5.153   2.482  1.00 20.00     0.167 C 
BRANCH   5   6
HETATM    6  C5  UNL     1     -32.850   6.499   2.969  1.00 20.00     0.022 C 
HETATM    7  C3  UNL     1     -32.514   7.426   1.816  1.00 20.00     0.007 C 
ENDBRANCH   5   6
ENDBRANCH   1   5
TORSDOF 4
ENDMDL
MODEL 3
REMARK VINA RESULT:      -4.1      1.424      1.956
REMARK  4 active torsions:
REMARK  status: ('A' for Active; 'I' for Inactive)
REMARK    1  A    between atoms: C2_2  and  C4_4 
REMARK    2  A    between atoms: C4_4  and  O7_7 
REMARK    3  A    between atoms: C5_5  and  C6_6 
REMARK    4  A    between atoms: C6_6  and  O7_7 
ROOT
HETATM    1  O7  UNL     1     -33.165   6.252   2.954  1.00 20.00    -0.388 OA
ENDROOT
BRANCH   1   2
HETATM    2  C4  UNL     1     -32.268   7.298   2.606  1.00 20.00     0.194 C 
BRANCH   2   3
HETATM    3  C2  UNL     1     -32.538   7.713   1.198  1.00 20.00    -0.011 C 
HETATM    4  C1  UNL     1     -32.893   8.953   0.839  1.00 20.00     0.009 C 
ENDBRANCH   2   3
ENDBRANCH   1   2
BRANCH   1   5
HETATM    5  C6  UNL     1     -33.945   6.592   4.092  1.00 20.00     0.167 C 
BRANCH   5   6
HETATM    6  C5  UNL     1     -34.764   5.379   4.507  1.00 20.00     0.022 C 
HETATM    7  C3  UNL     1     -34.765   5.185   6.012  1.00 20.00     0.007 C 
ENDBRANCH   5   6
ENDBRANCH   1   5
TORSDOF 4
ENDMDL
MODEL 4
REMARK VINA RESULT:      -4.1      1.042      3.800
REMARK  4 active torsions:
REMARK  status: ('A' for Active; 'I' for Inactive)
REMARK    1  A    between atoms: C2_2  and  C4_4 
REMARK    2  A    between atoms: C4_4  and  O7_7 
REMARK    3  A    between atoms: C5_5  and  C6_6 
REMARK    4  A    between atoms: C6_6  and  O7_7 
ROOT
HETATM    1  O7  UNL     1     -34.018   5.798   3.597  1.00 20.00    -0.388 OA
ENDROOT
BRANCH   1   2
HETATM    2  C4  UNL     1     -33.823   6.829   4.555  1.00 20.00     0.194 C 
BRANCH   2   3
HETATM    3  C2  UNL     1     -34.194   6.309   5.903  1.00 20.00    -0.011 C 
HETATM    4  C1  UNL     1     -34.799   5.132   6.111  1.00 20.00     0.009 C 
ENDBRANCH   2   3
ENDBRANCH   1   2
BRANCH   1   5
HETATM    5  C6  UNL     1     -33.017   5.826   2.589  1.00 20.00     0.167 C 
BRANCH   5   6
HETATM    6  C5  UNL     1     -32.342   7.189   2.605  1.00 20.00     0.022 C 
HETATM    7  C3  UNL     1     -32.581   7.952   1.315  1.00 20.00     0.007 C 
ENDBRANCH   5   6
ENDBRANCH   1   5
TORSDOF 4
ENDMDL
MODEL 5
REMARK VINA RESULT:      -4.0      1.015      3.743
REMARK  4 active torsions:
REMARK  status: ('A' for Active; 'I' for Inactive)
REMARK    1  A    between atoms: C2_2  and  C4_4 
REMARK    2  A    between atoms: C4_4  and  O7_7 
REMARK    3  A    between atoms: C5_5  and  C6_6 
REMARK    4  A    between atoms: C6_6  and  O7_7 
ROOT
HETATM    1  O7  UNL     1     -33.306   5.401   2.744  1.00 20.00    -0.388 OA
ENDROOT
BRANCH   1   2
HETATM    2  C4  UNL     1     -34.298   4.845   3.595  1.00 20.00     0.194 C 
BRANCH   2   3
HETATM    3  C2  UNL     1     -34.566   5.801   4.709  1.00 20.00    -0.011 C 
HETATM    4  C1  UNL     1     -34.749   5.432   5.983  1.00 20.00     0.009 C 
ENDBRANCH   2   3
ENDBRANCH   1   2
BRANCH   1   5
HETATM    5  C6  UNL     1     -33.086   6.776   3.027  1.00 20.00     0.167 C 
BRANCH   5   6
HETATM    6  C5  UNL     1     -32.168   7.357   1.963  1.00 20.00     0.022 C 
HETATM    7  C3  UNL     1     -32.887   8.368   1.088  1.00 20.00     0.007 C 
ENDBRANCH   5   6
ENDBRANCH   1   5
TORSDOF 4
ENDMDL
MODEL 6
REMARK VINA RESULT:      -3.9      1.405      2.006
REMARK  4 active torsions:
REMARK  status: ('A' for Active; 'I' for Inactive)
REMARK    1  A    between atoms: C2_2  and  C4_4 
REMARK    2  A    between atoms: C4_4  and  O7_7 
REMARK    3  A    between atoms: C5_5  and  C6_6 
REMARK    4  A    between atoms: C6_6  and  O7_7 
ROOT
HETATM    1  O7  UNL     1     -33.915   6.969   4.198  1.00 20.00    -0.388 OA
ENDROOT
BRANCH   1   2
HETATM    2  C4  UNL     1     -32.616   7.271   3.706  1.00 20.00     0.194 C 
BRANCH   2   3
HETATM    3  C2  UNL     1     -32.592   7.032   2.233  1.00 20.00    -0.011 C 
HETATM    4  C1  UNL     1     -32.488   8.004   1.319  1.00 20.00     0.009 C 
ENDBRANCH   2   3
ENDBRANCH   1   2
BRANCH   1   5
HETATM    5  C6  UNL     1     -33.899   6.732   5.598  1.00 20.00     0.167 C 
BRANCH   5   6
HETATM    6  C5  UNL     1     -34.701   5.473   5.893  1.00 20.00     0.022 C 
HETATM    7  C3  UNL     1     -35.004   4.688   4.631  1.00 20.00     0.007 C 
ENDBRANCH   5   6
ENDBRANCH   1   5
TORSDOF 4
ENDMDL
MODEL 7
REMARK VINA RESULT:      -3.1     12.106     12.566
REMARK  4 active torsions:
REMARK  status: ('A' for Active; 'I' for Inactive)
REMARK    1  A    between atoms: C2_2  and  C4_4 
REMARK    2  A    between atoms: C4_4  and  O7_7 
REMARK    3  A    between atoms: C5_5  and  C6_6 
REMARK    4  A    between atoms: C6_6  and  O7_7 
ROOT
HETATM    1  O7  UNL     1     -34.016  14.453  -5.593  1.00 20.00    -0.388 OA
ENDROOT
BRANCH   1   2
HETATM    2  C4  UNL     1     -33.667  14.322  -4.221  1.00 20.00     0.194 C 
BRANCH   2   3
HETATM    3  C2  UNL     1     -33.366  15.676  -3.671  1.00 20.00    -0.011 C 
HETATM    4  C1  UNL     1     -33.918  16.170  -2.557  1.00 20.00     0.009 C 
ENDBRANCH   2   3
ENDBRANCH   1   2
BRANCH   1   5
HETATM    5  C6  UNL     1     -35.401  14.725  -5.755  1.00 20.00     0.167 C 
BRANCH   5   6
HETATM    6  C5  UNL     1     -36.195  13.782  -4.864  1.00 20.00     0.022 C 
HETATM    7  C3  UNL     1     -37.430  14.453  -4.291  1.00 20.00     0.007 C 
ENDBRANCH   5   6
ENDBRANCH   1   5
TORSDOF 4
ENDMDL
MODEL 8
REMARK VINA RESULT:      -3.1     12.084     12.618
REMARK  4 active torsions:
REMARK  status: ('A' for Active; 'I' for Inactive)
REMARK    1  A    between atoms: C2_2  and  C4_4 
REMARK    2  A    between atoms: C4_4  and  O7_7 
REMARK    3  A    between atoms: C5_5  and  C6_6 
REMARK    4  A    between atoms: C6_6  and  O7_7 
ROOT
HETATM    1  O7  UNL     1     -33.988  14.446  -5.600  1.00 20.00    -0.388 OA
ENDROOT
BRANCH   1   2
HETATM    2  C4  UNL     1     -35.352  14.777  -5.822  1.00 20.00     0.194 C 
BRANCH   2   3
HETATM    3  C2  UNL     1     -36.202  13.932  -4.933  1.00 20.00    -0.011 C 
HETATM    4  C1  UNL     1     -37.324  14.361  -4.343  1.00 20.00     0.009 C 
ENDBRANCH   2   3
ENDBRANCH   1   2
BRANCH   1   5
HETATM    5  C6  UNL     1     -33.700  14.322  -4.215  1.00 20.00     0.167 C 
BRANCH   5   6
HETATM    6  C5  UNL     1     -33.311  15.687  -3.668  1.00 20.00     0.022 C 
HETATM    7  C3  UNL     1     -34.156  16.078  -2.469  1.00 20.00     0.007 C 
ENDBRANCH   5   6
ENDBRANCH   1   5
TORSDOF 4
ENDMDL
MODEL 9
REMARK VINA RESULT:      -3.1      8.907      9.716
REMARK  4 active torsions:
REMARK  status: ('A' for Active; 'I' for Inactive)
REMARK    1  A    between atoms: C2_2  and  C4_4 
REMARK    2  A    between atoms: C4_4  and  O7_7 
REMARK    3  A    between atoms: C5_5  and  C6_6 
REMARK    4  A    between atoms: C6_6  and  O7_7 
ROOT
HETATM    1  O7  UNL     1     -42.429   6.793   1.114  1.00 20.00    -0.388 OA
ENDROOT
BRANCH   1   2
HETATM    2  C4  UNL     1     -43.404   7.740   0.698  1.00 20.00     0.194 C 
BRANCH   2   3
HETATM    3  C2  UNL     1     -42.718   8.852  -0.023  1.00 20.00    -0.011 C 
HETATM    4  C1  UNL     1     -41.448   9.214   0.196  1.00 20.00     0.009 C 
ENDBRANCH   2   3
ENDBRANCH   1   2
BRANCH   1   5
HETATM    5  C6  UNL     1     -42.779   5.475   0.715  1.00 20.00     0.167 C 
BRANCH   5   6
HETATM    6  C5  UNL     1     -42.415   5.291  -0.750  1.00 20.00     0.022 C 
HETATM    7  C3  UNL     1     -40.936   5.519  -0.998  1.00 20.00     0.007 C 
ENDBRANCH   5   6
ENDBRANCH   1   5
TORSDOF 4
ENDMDL
