MODEL 1
REMARK VINA RESULT:      -2.7      0.000      0.000
REMARK  0 active torsions:
REMARK  status: ('A' for Active; 'I' for Inactive)
ROOT
HETATM    1  C1  UNL     1     -33.831   6.889   5.953  1.00 20.00     0.016 C 
HETATM    2  C2  UNL     1     -34.657   5.625   6.007  1.00 20.00     0.081 C 
HETATM    3 BR3  UNL     1     -34.792   4.847   4.229  1.00 20.00    -0.097 Br
ENDROOT
TORSDOF 0
ENDMDL
MODEL 2
REMARK VINA RESULT:      -2.7      1.999      2.335
REMARK  0 active torsions:
REMARK  status: ('A' for Active; 'I' for Inactive)
ROOT
HETATM    1  C1  UNL     1     -35.049   4.917   4.313  1.00 20.00     0.016 C 
HETATM    2  C2  UNL     1     -34.771   5.223   5.767  1.00 20.00     0.081 C 
HETATM    3 BR3  UNL     1     -33.830   6.918   5.918  1.00 20.00    -0.097 Br
ENDROOT
TORSDOF 0
ENDMDL
MODEL 3
REMARK VINA RESULT:      -2.6      1.410      1.711
REMARK  0 active torsions:
REMARK  status: ('A' for Active; 'I' for Inactive)
ROOT
HETATM    1  C1  UNL     1     -34.678   5.414   5.790  1.00 20.00     0.016 C 
HETATM    2  C2  UNL     1     -35.125   5.059   4.391  1.00 20.00     0.081 C 
HETATM    3 BR3  UNL     1     -33.670   5.362   3.135  1.00 20.00    -0.097 Br
ENDROOT
TORSDOF 0
ENDMDL
MODEL 4
REMARK VINA RESULT:      -2.5      2.710      2.710
REMARK  0 active torsions:
REMARK  status: ('A' for Active; 'I' for Inactive)
ROOT
HETATM    1  C1  UNL     1     -32.858   6.520   2.841  1.00 20.00     0.016 C 
HETATM    2  C2  UNL     1     -33.579   5.193   2.878  1.00 20.00     0.081 C 
HETATM    3 BR3  UNL     1     -34.842   5.167   4.357  1.00 20.00    -0.097 Br
ENDROOT
TORSDOF 0
ENDMDL
MODEL 5
REMARK VINA RESULT:      -2.3      2.041      2.383
REMARK  0 active torsions:
REMARK  status: ('A' for Active; 'I' for Inactive)
ROOT
HETATM    1  C1  UNL     1     -34.871   5.145   4.575  1.00 20.00     0.016 C 
HETATM    2  C2  UNL     1     -34.065   6.407   4.373  1.00 20.00     0.081 C 
HETATM    3 BR3  UNL     1     -32.996   6.257   2.756  1.00 20.00    -0.097 Br
ENDROOT
TORSDOF 0
ENDMDL
MODEL 6
REMARK VINA RESULT:      -2.2      3.473      3.691
REMARK  0 active torsions:
REMARK  status: ('A' for Active; 'I' for Inactive)
ROOT
HETATM    1  C1  UNL     1     -32.482   7.656   1.647  1.00 20.00     0.016 C 
HETATM    2  C2  UNL     1     -32.591   6.903   2.952  1.00 20.00     0.081 C 
HETATM    3 BR3  UNL     1     -33.351   5.140   2.637  1.00 20.00    -0.097 Br
ENDROOT
TORSDOF 0
ENDMDL
MODEL 7
REMARK VINA RESULT:      -2.1      4.122      4.298
REMARK  0 active torsions:
REMARK  status: ('A' for Active; 'I' for Inactive)
ROOT
HETATM    1  C1  UNL     1     -33.121   5.678   2.554  1.00 20.00     0.016 C 
HETATM    2  C2  UNL     1     -32.480   7.026   2.785  1.00 20.00     0.081 C 
HETATM    3 BR3  UNL     1     -32.589   8.097   1.165  1.00 20.00    -0.097 Br
ENDROOT
TORSDOF 0
ENDMDL
MODEL 8
REMARK VINA RESULT:      -2.0      8.946      9.033
REMARK  0 active torsions:
REMARK  status: ('A' for Active; 'I' for Inactive)
ROOT
HETATM    1  C1  UNL     1     -41.478   8.881   0.006  1.00 20.00     0.016 C 
HETATM    2  C2  UNL     1     -41.447   7.499   0.615  1.00 20.00     0.081 C 
HETATM    3 BR3  UNL     1     -41.226   6.165  -0.783  1.00 20.00    -0.097 Br
ENDROOT
TORSDOF 0
ENDMDL
MODEL 9
REMARK VINA RESULT:      -2.0      9.018      9.221
REMARK  0 active torsions:
REMARK  status: ('A' for Active; 'I' for Inactive)
ROOT
HETATM    1  C1  UNL     1     -41.118   6.058  -0.867  1.00 20.00     0.016 C 
HETATM    2  C2  UNL     1     -41.243   6.851   0.413  1.00 20.00     0.081 C 
HETATM    3 BR3  UNL     1     -41.552   8.727   0.001  1.00 20.00    -0.097 Br
ENDROOT
TORSDOF 0
ENDMDL
