MODEL 1
REMARK VINA RESULT:      -3.6      0.000      0.000
REMARK  1 active torsions:
REMARK  status: ('A' for Active; 'I' for Inactive)
REMARK    1  A    between atoms: C4_4  and  S7_7 
ROOT
HETATM    1  C1  UNL     1     -34.114   6.679   6.053  1.00 20.00     0.009 A 
HETATM    2  C2  UNL     1     -33.439   6.892   4.816  1.00 20.00     0.026 A 
HETATM    3  C3  UNL     1     -34.894   5.544   6.027  1.00 20.00     0.051 A 
HETATM    4  C4  UNL     1     -33.728   5.912   3.893  1.00 20.00     0.040 A 
HETATM    5  S6  UNL     1     -34.810   4.740   4.518  1.00 20.00    -0.095 SA
ENDROOT
BRANCH   4   6
HETATM    6  S7  UNL     1     -33.097   5.814   2.259  1.00 20.00    -0.127 SA
HETATM    7  C5  UNL     1     -32.480   7.503   2.044  1.00 20.00     0.096 C 
ENDBRANCH   4   6
TORSDOF 1
ENDMDL
MODEL 2
REMARK VINA RESULT:      -3.4      1.208      1.581
REMARK  1 active torsions:
REMARK  status: ('A' for Active; 'I' for Inactive)
REMARK    1  A    between atoms: C4_4  and  S7_7 
ROOT
HETATM    1  C1  UNL     1     -35.011   5.091   5.796  1.00 20.00     0.009 A 
HETATM    2  C2  UNL     1     -34.671   4.752   4.454  1.00 20.00     0.026 A 
HETATM    3  C3  UNL     1     -34.430   6.276   6.193  1.00 20.00     0.051 A 
HETATM    4  C4  UNL     1     -33.843   5.690   3.878  1.00 20.00     0.040 A 
HETATM    5  S6  UNL     1     -33.478   6.973   4.952  1.00 20.00    -0.095 SA
ENDROOT
BRANCH   4   6
HETATM    6  S7  UNL     1     -33.204   5.637   2.245  1.00 20.00    -0.127 SA
HETATM    7  C5  UNL     1     -32.477   7.291   2.122  1.00 20.00     0.096 C 
ENDBRANCH   4   6
TORSDOF 1
ENDMDL
MODEL 3
REMARK VINA RESULT:      -3.4      1.488      1.840
REMARK  1 active torsions:
REMARK  status: ('A' for Active; 'I' for Inactive)
REMARK    1  A    between atoms: C4_4  and  S7_7 
ROOT
HETATM    1  C1  UNL     1     -34.880   4.765   4.306  1.00 20.00     0.009 A 
HETATM    2  C2  UNL     1     -33.942   5.409   3.450  1.00 20.00     0.026 A 
HETATM    3  C3  UNL     1     -34.939   5.358   5.549  1.00 20.00     0.051 A 
HETATM    4  C4  UNL     1     -33.320   6.470   4.070  1.00 20.00     0.040 A 
HETATM    5  S6  UNL     1     -33.867   6.686   5.678  1.00 20.00    -0.095 SA
ENDROOT
BRANCH   4   6
HETATM    6  S7  UNL     1     -32.107   7.516   3.354  1.00 20.00    -0.127 SA
HETATM    7  C5  UNL     1     -32.686   7.566   1.639  1.00 20.00     0.096 C 
ENDBRANCH   4   6
TORSDOF 1
ENDMDL
MODEL 4
REMARK VINA RESULT:      -3.2     11.903     12.338
REMARK  1 active torsions:
REMARK  status: ('A' for Active; 'I' for Inactive)
REMARK    1  A    between atoms: C4_4  and  S7_7 
ROOT
HETATM    1  C1  UNL     1     -34.055  16.269  -2.402  1.00 20.00     0.009 A 
HETATM    2  C2  UNL     1     -35.243  15.562  -2.746  1.00 20.00     0.026 A 
HETATM    3  C3  UNL     1     -33.020  15.994  -3.270  1.00 20.00     0.051 A 
HETATM    4  C4  UNL     1     -35.072  14.776  -3.864  1.00 20.00     0.040 A 
HETATM    5  S6  UNL     1     -33.484  14.890  -4.494  1.00 20.00    -0.095 SA
ENDROOT
BRANCH   4   6
HETATM    6  S7  UNL     1     -36.293  13.758  -4.605  1.00 20.00    -0.127 SA
HETATM    7  C5  UNL     1     -37.780  14.740  -4.284  1.00 20.00     0.096 C 
ENDBRANCH   4   6
TORSDOF 1
ENDMDL
MODEL 5
REMARK VINA RESULT:      -3.0     12.005     12.367
REMARK  1 active torsions:
REMARK  status: ('A' for Active; 'I' for Inactive)
REMARK    1  A    between atoms: C4_4  and  S7_7 
ROOT
HETATM    1  C1  UNL     1     -32.853  15.689  -3.583  1.00 20.00     0.009 A 
HETATM    2  C2  UNL     1     -33.631  14.748  -4.317  1.00 20.00     0.026 A 
HETATM    3  C3  UNL     1     -33.608  16.371  -2.653  1.00 20.00     0.051 A 
HETATM    4  C4  UNL     1     -34.950  14.747  -3.921  1.00 20.00     0.040 A 
HETATM    5  S6  UNL     1     -35.247  15.877  -2.669  1.00 20.00    -0.095 SA
ENDROOT
BRANCH   4   6
HETATM    6  S7  UNL     1     -36.223  13.734  -4.578  1.00 20.00    -0.127 SA
HETATM    7  C5  UNL     1     -37.668  14.784  -4.276  1.00 20.00     0.096 C 
ENDBRANCH   4   6
TORSDOF 1
ENDMDL
MODEL 6
REMARK VINA RESULT:      -3.0     11.912     12.487
REMARK  1 active torsions:
REMARK  status: ('A' for Active; 'I' for Inactive)
REMARK    1  A    between atoms: C4_4  and  S7_7 
ROOT
HETATM    1  C1  UNL     1     -35.193  16.636  -1.511  1.00 20.00     0.009 A 
HETATM    2  C2  UNL     1     -35.015  15.606  -2.479  1.00 20.00     0.026 A 
HETATM    3  C3  UNL     1     -34.145  17.530  -1.509  1.00 20.00     0.051 A 
HETATM    4  C4  UNL     1     -33.838  15.753  -3.180  1.00 20.00     0.040 A 
HETATM    5  S6  UNL     1     -32.954  17.128  -2.670  1.00 20.00    -0.095 SA
ENDROOT
BRANCH   4   6
HETATM    6  S7  UNL     1     -33.258  14.696  -4.454  1.00 20.00    -0.127 SA
HETATM    7  C5  UNL     1     -34.461  15.060  -5.757  1.00 20.00     0.096 C 
ENDBRANCH   4   6
TORSDOF 1
ENDMDL
MODEL 7
REMARK VINA RESULT:      -2.9     12.057     12.460
REMARK  1 active torsions:
REMARK  status: ('A' for Active; 'I' for Inactive)
REMARK    1  A    between atoms: C4_4  and  S7_7 
ROOT
HETATM    1  C1  UNL     1     -32.932  16.267  -3.075  1.00 20.00     0.009 A 
HETATM    2  C2  UNL     1     -33.533  15.283  -3.912  1.00 20.00     0.026 A 
HETATM    3  C3  UNL     1     -33.836  16.815  -2.190  1.00 20.00     0.051 A 
HETATM    4  C4  UNL     1     -34.872  15.115  -3.634  1.00 20.00     0.040 A 
HETATM    5  S6  UNL     1     -35.400  16.142  -2.369  1.00 20.00    -0.095 SA
ENDROOT
BRANCH   4   6
HETATM    6  S7  UNL     1     -35.960  14.000  -4.439  1.00 20.00    -0.127 SA
HETATM    7  C5  UNL     1     -35.757  14.526  -6.160  1.00 20.00     0.096 C 
ENDBRANCH   4   6
TORSDOF 1
ENDMDL
MODEL 8
REMARK VINA RESULT:      -2.9     12.168     12.781
REMARK  1 active torsions:
REMARK  status: ('A' for Active; 'I' for Inactive)
REMARK    1  A    between atoms: C4_4  and  S7_7 
ROOT
HETATM    1  C1  UNL     1     -34.406  15.400  -3.019  1.00 20.00     0.009 A 
HETATM    2  C2  UNL     1     -35.046  16.121  -1.971  1.00 20.00     0.026 A 
HETATM    3  C3  UNL     1     -33.238  16.007  -3.427  1.00 20.00     0.051 A 
HETATM    4  C4  UNL     1     -34.343  17.252  -1.617  1.00 20.00     0.040 A 
HETATM    5  S6  UNL     1     -32.918  17.440  -2.546  1.00 20.00    -0.095 SA
ENDROOT
BRANCH   4   6
HETATM    6  S7  UNL     1     -34.797  18.400  -0.371  1.00 20.00    -0.127 SA
HETATM    7  C5  UNL     1     -35.619  17.299   0.809  1.00 20.00     0.096 C 
ENDBRANCH   4   6
TORSDOF 1
ENDMDL
MODEL 9
REMARK VINA RESULT:      -2.9     12.033     12.685
REMARK  1 active torsions:
REMARK  status: ('A' for Active; 'I' for Inactive)
REMARK    1  A    between atoms: C4_4  and  S7_7 
ROOT
HETATM    1  C1  UNL     1     -33.787  16.515  -2.262  1.00 20.00     0.009 A 
HETATM    2  C2  UNL     1     -33.296  16.223  -3.567  1.00 20.00     0.026 A 
HETATM    3  C3  UNL     1     -35.084  16.082  -2.089  1.00 20.00     0.051 A 
HETATM    4  C4  UNL     1     -34.235  15.578  -4.341  1.00 20.00     0.040 A 
HETATM    5  S6  UNL     1     -35.703  15.327  -3.495  1.00 20.00    -0.095 SA
ENDROOT
BRANCH   4   6
HETATM    6  S7  UNL     1     -34.018  15.049  -5.999  1.00 20.00    -0.127 SA
HETATM    7  C5  UNL     1     -35.723  14.625  -6.436  1.00 20.00     0.096 C 
ENDBRANCH   4   6
TORSDOF 1
ENDMDL
