MODEL 1
REMARK VINA RESULT:      -6.3      0.000      0.000
REMARK  1 active torsions:
REMARK  status: ('A' for Active; 'I' for Inactive)
REMARK    1  A    between atoms: C1_1  and  C8_8 
ROOT
HETATM    1  C1  UNL     1     -33.028   7.067   2.604  1.00 20.00    -0.067 C 
HETATM    2  C2  UNL     1     -32.534   7.575   1.633  1.00 20.00    -0.105 C 
HETATM    3  C9  UNL     1     -31.934   8.193   0.453  1.00 20.00     0.112 C 
ENDROOT
BRANCH   1   4
HETATM    4  C8  UNL     1     -33.618   6.464   3.757  1.00 20.00     0.017 A 
HETATM    5  C6  UNL     1     -33.525   7.092   4.998  1.00 20.00     0.020 A 
HETATM    6  C4  UNL     1     -34.101   6.504   6.124  1.00 20.00     0.001 A 
HETATM    7  C3  UNL     1     -34.770   5.285   6.008  1.00 20.00     0.000 A 
HETATM    8  C5  UNL     1     -34.863   4.656   4.766  1.00 20.00     0.001 A 
HETATM    9  C7  UNL     1     -34.287   5.245   3.641  1.00 20.00     0.020 A 
ENDBRANCH   1   4
TORSDOF 1
ENDMDL
MODEL 2
REMARK VINA RESULT:      -4.5     11.310     12.200
REMARK  1 active torsions:
REMARK  status: ('A' for Active; 'I' for Inactive)
REMARK    1  A    between atoms: C1_1  and  C8_8 
ROOT
HETATM    1  C1  UNL     1     -32.928  17.358  -1.898  1.00 20.00    -0.067 C 
HETATM    2  C2  UNL     1     -32.362  18.218  -1.278  1.00 20.00    -0.105 C 
HETATM    3  C9  UNL     1     -31.673  19.263  -0.524  1.00 20.00     0.112 C 
ENDROOT
BRANCH   1   4
HETATM    4  C8  UNL     1     -33.600  16.334  -2.634  1.00 20.00     0.017 A 
HETATM    5  C6  UNL     1     -32.939  15.666  -3.663  1.00 20.00     0.020 A 
HETATM    6  C4  UNL     1     -33.596  14.665  -4.381  1.00 20.00     0.001 A 
HETATM    7  C3  UNL     1     -34.914  14.334  -4.068  1.00 20.00     0.000 A 
HETATM    8  C5  UNL     1     -35.576  15.003  -3.038  1.00 20.00     0.001 A 
HETATM    9  C7  UNL     1     -34.919  16.003  -2.321  1.00 20.00     0.020 A 
ENDBRANCH   1   4
TORSDOF 1
ENDMDL
MODEL 3
REMARK VINA RESULT:      -4.5     11.433     12.076
REMARK  1 active torsions:
REMARK  status: ('A' for Active; 'I' for Inactive)
REMARK    1  A    between atoms: C1_1  and  C8_8 
ROOT
HETATM    1  C1  UNL     1     -35.016  15.403  -3.054  1.00 20.00    -0.067 C 
HETATM    2  C2  UNL     1     -35.532  14.585  -3.768  1.00 20.00    -0.105 C 
HETATM    3  C9  UNL     1     -36.158  13.591  -4.636  1.00 20.00     0.112 C 
ENDROOT
BRANCH   1   4
HETATM    4  C8  UNL     1     -34.401  16.376  -2.207  1.00 20.00     0.017 A 
HETATM    5  C6  UNL     1     -33.133  16.865  -2.513  1.00 20.00     0.020 A 
HETATM    6  C4  UNL     1     -32.532  17.815  -1.686  1.00 20.00     0.001 A 
HETATM    7  C3  UNL     1     -33.202  18.274  -0.552  1.00 20.00     0.000 A 
HETATM    8  C5  UNL     1     -34.472  17.784  -0.245  1.00 20.00     0.001 A 
HETATM    9  C7  UNL     1     -35.071  16.835  -1.073  1.00 20.00     0.020 A 
ENDBRANCH   1   4
TORSDOF 1
ENDMDL
MODEL 4
REMARK VINA RESULT:      -4.5     11.428     12.062
REMARK  1 active torsions:
REMARK  status: ('A' for Active; 'I' for Inactive)
REMARK    1  A    between atoms: C1_1  and  C8_8 
ROOT
HETATM    1  C1  UNL     1     -35.023  15.392  -3.054  1.00 20.00    -0.067 C 
HETATM    2  C2  UNL     1     -35.539  14.575  -3.769  1.00 20.00    -0.105 C 
HETATM    3  C9  UNL     1     -36.165  13.582  -4.638  1.00 20.00     0.112 C 
ENDROOT
BRANCH   1   4
HETATM    4  C8  UNL     1     -34.412  16.366  -2.206  1.00 20.00     0.017 A 
HETATM    5  C6  UNL     1     -35.082  16.824  -1.072  1.00 20.00     0.020 A 
HETATM    6  C4  UNL     1     -34.484  17.774  -0.244  1.00 20.00     0.001 A 
HETATM    7  C3  UNL     1     -33.216  18.267  -0.550  1.00 20.00     0.000 A 
HETATM    8  C5  UNL     1     -32.545  17.809  -1.685  1.00 20.00     0.001 A 
HETATM    9  C7  UNL     1     -33.143  16.859  -2.512  1.00 20.00     0.020 A 
ENDBRANCH   1   4
TORSDOF 1
ENDMDL
MODEL 5
REMARK VINA RESULT:      -4.5     11.364     12.233
REMARK  1 active torsions:
REMARK  status: ('A' for Active; 'I' for Inactive)
REMARK    1  A    between atoms: C1_1  and  C8_8 
ROOT
HETATM    1  C1  UNL     1     -32.946  17.372  -1.899  1.00 20.00    -0.067 C 
HETATM    2  C2  UNL     1     -32.400  18.226  -1.252  1.00 20.00    -0.105 C 
HETATM    3  C9  UNL     1     -31.737  19.263  -0.465  1.00 20.00     0.112 C 
ENDROOT
BRANCH   1   4
HETATM    4  C8  UNL     1     -33.597  16.358  -2.666  1.00 20.00     0.017 A 
HETATM    5  C6  UNL     1     -34.909  15.993  -2.369  1.00 20.00     0.020 A 
HETATM    6  C4  UNL     1     -35.545  15.003  -3.118  1.00 20.00     0.001 A 
HETATM    7  C3  UNL     1     -34.867  14.377  -4.165  1.00 20.00     0.000 A 
HETATM    8  C5  UNL     1     -33.554  14.742  -4.462  1.00 20.00     0.001 A 
HETATM    9  C7  UNL     1     -32.919  15.733  -3.712  1.00 20.00     0.020 A 
ENDBRANCH   1   4
TORSDOF 1
ENDMDL
MODEL 6
REMARK VINA RESULT:      -4.4     11.328     12.044
REMARK  1 active torsions:
REMARK  status: ('A' for Active; 'I' for Inactive)
REMARK    1  A    between atoms: C1_1  and  C8_8 
ROOT
HETATM    1  C1  UNL     1     -35.172  16.677  -1.170  1.00 20.00    -0.067 C 
HETATM    2  C2  UNL     1     -35.591  17.248  -0.199  1.00 20.00    -0.105 C 
HETATM    3  C9  UNL     1     -36.100  17.942   0.982  1.00 20.00     0.112 C 
ENDROOT
BRANCH   1   4
HETATM    4  C8  UNL     1     -34.671  15.997  -2.322  1.00 20.00     0.017 A 
HETATM    5  C6  UNL     1     -33.383  16.263  -2.785  1.00 20.00     0.020 A 
HETATM    6  C4  UNL     1     -32.894  15.599  -3.910  1.00 20.00     0.001 A 
HETATM    7  C3  UNL     1     -33.695  14.669  -4.573  1.00 20.00     0.000 A 
HETATM    8  C5  UNL     1     -34.984  14.403  -4.111  1.00 20.00     0.001 A 
HETATM    9  C7  UNL     1     -35.472  15.067  -2.985  1.00 20.00     0.020 A 
ENDBRANCH   1   4
TORSDOF 1
ENDMDL
MODEL 7
REMARK VINA RESULT:      -4.3     11.283     12.114
REMARK  1 active torsions:
REMARK  status: ('A' for Active; 'I' for Inactive)
REMARK    1  A    between atoms: C1_1  and  C8_8 
ROOT
HETATM    1  C1  UNL     1     -35.172  16.693  -1.177  1.00 20.00    -0.067 C 
HETATM    2  C2  UNL     1     -35.605  17.276  -0.220  1.00 20.00    -0.105 C 
HETATM    3  C9  UNL     1     -36.132  17.986   0.944  1.00 20.00     0.112 C 
ENDROOT
BRANCH   1   4
HETATM    4  C8  UNL     1     -34.654  16.001  -2.314  1.00 20.00     0.017 A 
HETATM    5  C6  UNL     1     -35.430  15.039  -2.959  1.00 20.00     0.020 A 
HETATM    6  C4  UNL     1     -34.924  14.363  -4.070  1.00 20.00     0.001 A 
HETATM    7  C3  UNL     1     -33.640  14.650  -4.535  1.00 20.00     0.000 A 
HETATM    8  C5  UNL     1     -32.864  15.613  -3.890  1.00 20.00     0.001 A 
HETATM    9  C7  UNL     1     -33.370  16.289  -2.780  1.00 20.00     0.020 A 
ENDBRANCH   1   4
TORSDOF 1
ENDMDL
MODEL 8
REMARK VINA RESULT:      -4.3     15.475     16.468
REMARK  1 active torsions:
REMARK  status: ('A' for Active; 'I' for Inactive)
REMARK    1  A    between atoms: C1_1  and  C8_8 
ROOT
HETATM    1  C1  UNL     1     -24.754  18.693   8.483  1.00 20.00    -0.067 C 
HETATM    2  C2  UNL     1     -25.172  18.950   7.386  1.00 20.00    -0.105 C 
HETATM    3  C9  UNL     1     -25.680  19.262   6.052  1.00 20.00     0.112 C 
ENDROOT
BRANCH   1   4
HETATM    4  C8  UNL     1     -24.254  18.388   9.787  1.00 20.00     0.017 A 
HETATM    5  C6  UNL     1     -22.915  18.039   9.956  1.00 20.00     0.020 A 
HETATM    6  C4  UNL     1     -22.427  17.742  11.229  1.00 20.00     0.001 A 
HETATM    7  C3  UNL     1     -23.280  17.793  12.332  1.00 20.00     0.000 A 
HETATM    8  C5  UNL     1     -24.620  18.142  12.162  1.00 20.00     0.001 A 
HETATM    9  C7  UNL     1     -25.107  18.439  10.889  1.00 20.00     0.020 A 
ENDBRANCH   1   4
TORSDOF 1
ENDMDL
MODEL 9
REMARK VINA RESULT:      -4.3     15.625     16.617
REMARK  1 active torsions:
REMARK  status: ('A' for Active; 'I' for Inactive)
REMARK    1  A    between atoms: C1_1  and  C8_8 
ROOT
HETATM    1  C1  UNL     1     -24.670  18.642   8.666  1.00 20.00    -0.067 C 
HETATM    2  C2  UNL     1     -25.206  18.905   7.622  1.00 20.00    -0.105 C 
HETATM    3  C9  UNL     1     -25.856  19.226   6.354  1.00 20.00     0.112 C 
ENDROOT
BRANCH   1   4
HETATM    4  C8  UNL     1     -24.036  18.331   9.908  1.00 20.00     0.017 A 
HETATM    5  C6  UNL     1     -24.797  18.210  11.069  1.00 20.00     0.020 A 
HETATM    6  C4  UNL     1     -24.178  17.906  12.282  1.00 20.00     0.001 A 
HETATM    7  C3  UNL     1     -22.796  17.724  12.332  1.00 20.00     0.000 A 
HETATM    8  C5  UNL     1     -22.034  17.846  11.169  1.00 20.00     0.001 A 
HETATM    9  C7  UNL     1     -22.654  18.150   9.957  1.00 20.00     0.020 A 
ENDBRANCH   1   4
TORSDOF 1
ENDMDL
