MODEL 1
REMARK VINA RESULT:      -3.0      0.000      0.000
REMARK  3 active torsions:
REMARK  status: ('A' for Active; 'I' for Inactive)
REMARK    1  A    between atoms: C5_5  and  S7_7 
REMARK    2  A    between atoms: C6_6  and  S8_8 
REMARK    3  A    between atoms: S7_7  and  S8_8 
ROOT
HETATM    1  S7  UNL     1     -34.304  16.811  -4.578  1.00 20.00    -0.093 SA
ENDROOT
BRANCH   1   2
HETATM    2  C5  UNL     1     -33.803  16.260  -2.912  1.00 20.00     0.050 C 
HETATM    3  C1  UNL     1     -32.877  17.295  -2.285  1.00 20.00     0.022 C 
HETATM    4  C2  UNL     1     -35.042  16.030  -2.053  1.00 20.00     0.022 C 
ENDBRANCH   1   2
BRANCH   1   5
HETATM    5  S8  UNL     1     -34.146  15.062  -5.643  1.00 20.00    -0.093 SA
BRANCH   5   6
HETATM    6  C6  UNL     1     -35.873  14.533  -5.743  1.00 20.00     0.050 C 
HETATM    7  C3  UNL     1     -36.191  13.596  -4.585  1.00 20.00     0.022 C 
HETATM    8  C4  UNL     1     -36.786  15.753  -5.740  1.00 20.00     0.022 C 
ENDBRANCH   5   6
ENDBRANCH   1   5
TORSDOF 3
ENDMDL
MODEL 2
REMARK VINA RESULT:      -3.0      0.091      4.078
REMARK  3 active torsions:
REMARK  status: ('A' for Active; 'I' for Inactive)
REMARK    1  A    between atoms: C5_5  and  S7_7 
REMARK    2  A    between atoms: C6_6  and  S8_8 
REMARK    3  A    between atoms: S7_7  and  S8_8 
ROOT
HETATM    1  S7  UNL     1     -34.068  15.038  -5.544  1.00 20.00    -0.093 SA
ENDROOT
BRANCH   1   2
HETATM    2  C5  UNL     1     -35.821  14.558  -5.711  1.00 20.00     0.050 C 
HETATM    3  C1  UNL     1     -36.210  13.626  -4.569  1.00 20.00     0.022 C 
HETATM    4  C2  UNL     1     -36.695  15.806  -5.733  1.00 20.00     0.022 C 
ENDBRANCH   1   2
BRANCH   1   5
HETATM    5  S8  UNL     1     -34.232  16.803  -4.507  1.00 20.00    -0.093 SA
BRANCH   5   6
HETATM    6  C6  UNL     1     -33.785  16.291  -2.831  1.00 20.00     0.050 C 
HETATM    7  C3  UNL     1     -32.891  17.346  -2.192  1.00 20.00     0.022 C 
HETATM    8  C4  UNL     1     -35.047  16.059  -2.009  1.00 20.00     0.022 C 
ENDBRANCH   5   6
ENDBRANCH   1   5
TORSDOF 3
ENDMDL
MODEL 3
REMARK VINA RESULT:      -3.0      1.568      2.052
REMARK  3 active torsions:
REMARK  status: ('A' for Active; 'I' for Inactive)
REMARK    1  A    between atoms: C5_5  and  S7_7 
REMARK    2  A    between atoms: C6_6  and  S8_8 
REMARK    3  A    between atoms: S7_7  and  S8_8 
ROOT
HETATM    1  S7  UNL     1     -36.066  15.993  -3.830  1.00 20.00    -0.093 SA
ENDROOT
BRANCH   1   2
HETATM    2  C5  UNL     1     -34.786  15.747  -2.553  1.00 20.00     0.050 C 
HETATM    3  C1  UNL     1     -33.417  16.091  -3.124  1.00 20.00     0.022 C 
HETATM    4  C2  UNL     1     -35.110  16.599  -1.331  1.00 20.00     0.022 C 
ENDBRANCH   1   2
BRANCH   1   5
HETATM    5  S8  UNL     1     -36.010  14.187  -4.808  1.00 20.00    -0.093 SA
BRANCH   5   6
HETATM    6  C6  UNL     1     -35.597  14.693  -6.495  1.00 20.00     0.050 C 
HETATM    7  C3  UNL     1     -36.452  15.888  -6.897  1.00 20.00     0.022 C 
HETATM    8  C4  UNL     1     -34.110  15.017  -6.585  1.00 20.00     0.022 C 
ENDBRANCH   5   6
ENDBRANCH   1   5
TORSDOF 3
ENDMDL
MODEL 4
REMARK VINA RESULT:      -2.9     10.871     11.730
REMARK  3 active torsions:
REMARK  status: ('A' for Active; 'I' for Inactive)
REMARK    1  A    between atoms: C5_5  and  S7_7 
REMARK    2  A    between atoms: C6_6  and  S8_8 
REMARK    3  A    between atoms: S7_7  and  S8_8 
ROOT
HETATM    1  S7  UNL     1     -32.223   7.467   2.723  1.00 20.00    -0.093 SA
ENDROOT
BRANCH   1   2
HETATM    2  C5  UNL     1     -32.831   8.071   1.112  1.00 20.00     0.050 C 
HETATM    3  C1  UNL     1     -33.088   9.571   1.188  1.00 20.00     0.022 C 
HETATM    4  C2  UNL     1     -31.819   7.736   0.022  1.00 20.00     0.022 C 
ENDBRANCH   1   2
BRANCH   1   5
HETATM    5  S8  UNL     1     -33.298   5.731   2.933  1.00 20.00    -0.093 SA
BRANCH   5   6
HETATM    6  C6  UNL     1     -34.368   6.126   4.337  1.00 20.00     0.050 C 
HETATM    7  C3  UNL     1     -34.926   4.841   4.936  1.00 20.00     0.022 C 
HETATM    8  C4  UNL     1     -33.585   6.928   5.370  1.00 20.00     0.022 C 
ENDBRANCH   5   6
ENDBRANCH   1   5
TORSDOF 3
ENDMDL
MODEL 5
REMARK VINA RESULT:      -2.9     10.873     11.722
REMARK  3 active torsions:
REMARK  status: ('A' for Active; 'I' for Inactive)
REMARK    1  A    between atoms: C5_5  and  S7_7 
REMARK    2  A    between atoms: C6_6  and  S8_8 
REMARK    3  A    between atoms: S7_7  and  S8_8 
ROOT
HETATM    1  S7  UNL     1     -33.280   5.696   2.902  1.00 20.00    -0.093 SA
ENDROOT
BRANCH   1   2
HETATM    2  C5  UNL     1     -34.386   6.079   4.302  1.00 20.00     0.050 C 
HETATM    3  C1  UNL     1     -34.920   4.785   4.905  1.00 20.00     0.022 C 
HETATM    4  C2  UNL     1     -33.636   6.907   5.338  1.00 20.00     0.022 C 
ENDBRANCH   1   2
BRANCH   1   5
HETATM    5  S8  UNL     1     -32.250   7.462   2.709  1.00 20.00    -0.093 SA
BRANCH   5   6
HETATM    6  C6  UNL     1     -32.836   8.059   1.106  1.00 20.00     0.050 C 
HETATM    7  C3  UNL     1     -33.118   9.554   1.186  1.00 20.00     0.022 C 
HETATM    8  C4  UNL     1     -31.803   7.744   0.030  1.00 20.00     0.022 C 
ENDBRANCH   5   6
ENDBRANCH   1   5
TORSDOF 3
ENDMDL
MODEL 6
REMARK VINA RESULT:      -2.9      1.218      3.797
REMARK  3 active torsions:
REMARK  status: ('A' for Active; 'I' for Inactive)
REMARK    1  A    between atoms: C5_5  and  S7_7 
REMARK    2  A    between atoms: C6_6  and  S8_8 
REMARK    3  A    between atoms: S7_7  and  S8_8 
ROOT
HETATM    1  S7  UNL     1     -36.339  16.399  -4.432  1.00 20.00    -0.093 SA
ENDROOT
BRANCH   1   2
HETATM    2  C5  UNL     1     -36.561  14.881  -5.420  1.00 20.00     0.050 C 
HETATM    3  C1  UNL     1     -35.632  14.913  -6.627  1.00 20.00     0.022 C 
HETATM    4  C2  UNL     1     -36.299  13.659  -4.549  1.00 20.00     0.022 C 
ENDBRANCH   1   2
BRANCH   1   5
HETATM    5  S8  UNL     1     -34.439  16.958  -4.974  1.00 20.00    -0.093 SA
BRANCH   5   6
HETATM    6  C6  UNL     1     -33.443  16.194  -3.671  1.00 20.00     0.050 C 
HETATM    7  C3  UNL     1     -34.295  15.992  -2.425  1.00 20.00     0.022 C 
HETATM    8  C4  UNL     1     -32.866  14.875  -4.171  1.00 20.00     0.022 C 
ENDBRANCH   5   6
ENDBRANCH   1   5
TORSDOF 3
ENDMDL
MODEL 7
REMARK VINA RESULT:      -2.9      1.223      2.127
REMARK  3 active torsions:
REMARK  status: ('A' for Active; 'I' for Inactive)
REMARK    1  A    between atoms: C5_5  and  S7_7 
REMARK    2  A    between atoms: C6_6  and  S8_8 
REMARK    3  A    between atoms: S7_7  and  S8_8 
ROOT
HETATM    1  S7  UNL     1     -34.436  16.977  -4.982  1.00 20.00    -0.093 SA
ENDROOT
BRANCH   1   2
HETATM    2  C5  UNL     1     -33.442  16.188  -3.670  1.00 20.00     0.050 C 
HETATM    3  C1  UNL     1     -34.298  15.989  -2.425  1.00 20.00     0.022 C 
HETATM    4  C2  UNL     1     -32.881  14.864  -4.176  1.00 20.00     0.022 C 
ENDBRANCH   1   2
BRANCH   1   5
HETATM    5  S8  UNL     1     -36.336  16.422  -4.435  1.00 20.00    -0.093 SA
BRANCH   5   6
HETATM    6  C6  UNL     1     -36.580  14.923  -5.418  1.00 20.00     0.050 C 
HETATM    7  C3  UNL     1     -35.651  14.943  -6.626  1.00 20.00     0.022 C 
HETATM    8  C4  UNL     1     -36.338  13.693  -4.551  1.00 20.00     0.022 C 
ENDBRANCH   5   6
ENDBRANCH   1   5
TORSDOF 3
ENDMDL
MODEL 8
REMARK VINA RESULT:      -2.9      1.394      3.942
REMARK  3 active torsions:
REMARK  status: ('A' for Active; 'I' for Inactive)
REMARK    1  A    between atoms: C5_5  and  S7_7 
REMARK    2  A    between atoms: C6_6  and  S8_8 
REMARK    3  A    between atoms: S7_7  and  S8_8 
ROOT
HETATM    1  S7  UNL     1     -35.099  16.830  -5.299  1.00 20.00    -0.093 SA
ENDROOT
BRANCH   1   2
HETATM    2  C5  UNL     1     -35.252  15.479  -6.515  1.00 20.00     0.050 C 
HETATM    3  C1  UNL     1     -33.881  15.144  -7.088  1.00 20.00     0.022 C 
HETATM    4  C2  UNL     1     -35.891  14.263  -5.854  1.00 20.00     0.022 C 
ENDBRANCH   1   2
BRANCH   1   5
HETATM    5  S8  UNL     1     -36.162  16.069  -3.715  1.00 20.00    -0.093 SA
BRANCH   5   6
HETATM    6  C6  UNL     1     -34.855  15.774  -2.500  1.00 20.00     0.050 C 
HETATM    7  C3  UNL     1     -33.493  15.976  -3.151  1.00 20.00     0.022 C 
HETATM    8  C4  UNL     1     -35.044  16.703  -1.306  1.00 20.00     0.022 C 
ENDBRANCH   5   6
ENDBRANCH   1   5
TORSDOF 3
ENDMDL
MODEL 9
REMARK VINA RESULT:      -2.9      0.953      3.957
REMARK  3 active torsions:
REMARK  status: ('A' for Active; 'I' for Inactive)
REMARK    1  A    between atoms: C5_5  and  S7_7 
REMARK    2  A    between atoms: C6_6  and  S8_8 
REMARK    3  A    between atoms: S7_7  and  S8_8 
ROOT
HETATM    1  S7  UNL     1     -36.270  16.419  -4.604  1.00 20.00    -0.093 SA
ENDROOT
BRANCH   1   2
HETATM    2  C5  UNL     1     -36.038  14.888  -5.569  1.00 20.00     0.050 C 
HETATM    3  C1  UNL     1     -34.664  14.898  -6.228  1.00 20.00     0.022 C 
HETATM    4  C2  UNL     1     -36.208  13.677  -4.658  1.00 20.00     0.022 C 
ENDBRANCH   1   2
BRANCH   1   5
HETATM    5  S8  UNL     1     -34.339  17.106  -4.469  1.00 20.00    -0.093 SA
BRANCH   5   6
HETATM    6  C6  UNL     1     -33.798  16.381  -2.902  1.00 20.00     0.050 C 
HETATM    7  C3  UNL     1     -32.873  17.351  -2.179  1.00 20.00     0.022 C 
HETATM    8  C4  UNL     1     -35.013  16.030  -2.051  1.00 20.00     0.022 C 
ENDBRANCH   5   6
ENDBRANCH   1   5
TORSDOF 3
ENDMDL
