MODEL 1
REMARK VINA RESULT:      -5.2      0.000      0.000
REMARK  0 active torsions:
REMARK  status: ('A' for Active; 'I' for Inactive)
ROOT
HETATM    1  C1  UNL     1     -33.467   6.514   3.724  1.00 20.00     0.000 A 
HETATM    2  C2  UNL     1     -33.501   7.086   4.995  1.00 20.00     0.000 A 
HETATM    3  C3  UNL     1     -34.124   5.307   3.483  1.00 20.00     0.000 A 
HETATM    4  C4  UNL     1     -34.191   6.450   6.027  1.00 20.00     0.000 A 
HETATM    5  C5  UNL     1     -34.814   4.672   4.515  1.00 20.00     0.000 A 
HETATM    6  C6  UNL     1     -34.848   5.243   5.787  1.00 20.00     0.000 A 
ENDROOT
TORSDOF 0
ENDMDL
MODEL 2
REMARK VINA RESULT:      -5.2      0.041      1.361
REMARK  0 active torsions:
REMARK  status: ('A' for Active; 'I' for Inactive)
ROOT
HETATM    1  C1  UNL     1     -34.101   5.347   3.467  1.00 20.00     0.000 A 
HETATM    2  C2  UNL     1     -33.461   6.556   3.742  1.00 20.00     0.000 A 
HETATM    3  C3  UNL     1     -34.794   4.678   4.477  1.00 20.00     0.000 A 
HETATM    4  C4  UNL     1     -33.512   7.094   5.028  1.00 20.00     0.000 A 
HETATM    5  C5  UNL     1     -34.843   5.216   5.762  1.00 20.00     0.000 A 
HETATM    6  C6  UNL     1     -34.203   6.424   6.038  1.00 20.00     0.000 A 
ENDROOT
TORSDOF 0
ENDMDL
MODEL 3
REMARK VINA RESULT:      -5.2      0.004      1.973
REMARK  0 active torsions:
REMARK  status: ('A' for Active; 'I' for Inactive)
ROOT
HETATM    1  C1  UNL     1     -33.470   6.516   3.725  1.00 20.00     0.000 A 
HETATM    2  C2  UNL     1     -34.126   5.308   3.486  1.00 20.00     0.000 A 
HETATM    3  C3  UNL     1     -33.501   7.088   4.997  1.00 20.00     0.000 A 
HETATM    4  C4  UNL     1     -34.814   4.673   4.520  1.00 20.00     0.000 A 
HETATM    5  C5  UNL     1     -34.190   6.453   6.029  1.00 20.00     0.000 A 
HETATM    6  C6  UNL     1     -34.846   5.245   5.791  1.00 20.00     0.000 A 
ENDROOT
TORSDOF 0
ENDMDL
MODEL 4
REMARK VINA RESULT:      -5.2      0.092      2.373
REMARK  0 active torsions:
REMARK  status: ('A' for Active; 'I' for Inactive)
ROOT
HETATM    1  C1  UNL     1     -34.100   6.519   5.999  1.00 20.00     0.000 A 
HETATM    2  C2  UNL     1     -34.803   5.326   5.835  1.00 20.00     0.000 A 
HETATM    3  C3  UNL     1     -33.437   7.095   4.914  1.00 20.00     0.000 A 
HETATM    4  C4  UNL     1     -34.841   4.706   4.585  1.00 20.00     0.000 A 
HETATM    5  C5  UNL     1     -33.475   6.474   3.666  1.00 20.00     0.000 A 
HETATM    6  C6  UNL     1     -34.177   5.280   3.501  1.00 20.00     0.000 A 
ENDROOT
TORSDOF 0
ENDMDL
MODEL 5
REMARK VINA RESULT:      -5.2      0.045      1.973
REMARK  0 active torsions:
REMARK  status: ('A' for Active; 'I' for Inactive)
ROOT
HETATM    1  C1  UNL     1     -34.843   5.295   5.814  1.00 20.00     0.000 A 
HETATM    2  C2  UNL     1     -34.161   6.491   6.041  1.00 20.00     0.000 A 
HETATM    3  C3  UNL     1     -34.833   4.715   4.545  1.00 20.00     0.000 A 
HETATM    4  C4  UNL     1     -33.470   7.107   4.997  1.00 20.00     0.000 A 
HETATM    5  C5  UNL     1     -34.143   5.333   3.503  1.00 20.00     0.000 A 
HETATM    6  C6  UNL     1     -33.461   6.528   3.728  1.00 20.00     0.000 A 
ENDROOT
TORSDOF 0
ENDMDL
MODEL 6
REMARK VINA RESULT:      -5.2      0.049      1.973
REMARK  0 active torsions:
REMARK  status: ('A' for Active; 'I' for Inactive)
ROOT
HETATM    1  C1  UNL     1     -34.839   4.702   4.492  1.00 20.00     0.000 A 
HETATM    2  C2  UNL     1     -34.858   5.228   5.784  1.00 20.00     0.000 A 
HETATM    3  C3  UNL     1     -34.151   5.367   3.477  1.00 20.00     0.000 A 
HETATM    4  C4  UNL     1     -34.188   6.420   6.060  1.00 20.00     0.000 A 
HETATM    5  C5  UNL     1     -33.483   6.559   3.754  1.00 20.00     0.000 A 
HETATM    6  C6  UNL     1     -33.501   7.086   5.045  1.00 20.00     0.000 A 
ENDROOT
TORSDOF 0
ENDMDL
MODEL 7
REMARK VINA RESULT:      -5.2      0.050      2.404
REMARK  0 active torsions:
REMARK  status: ('A' for Active; 'I' for Inactive)
ROOT
HETATM    1  C1  UNL     1     -34.835   4.723   4.483  1.00 20.00     0.000 A 
HETATM    2  C2  UNL     1     -34.140   5.376   3.465  1.00 20.00     0.000 A 
HETATM    3  C3  UNL     1     -34.850   5.256   5.772  1.00 20.00     0.000 A 
HETATM    4  C4  UNL     1     -33.459   6.563   3.737  1.00 20.00     0.000 A 
HETATM    5  C5  UNL     1     -34.167   6.442   6.043  1.00 20.00     0.000 A 
HETATM    6  C6  UNL     1     -33.472   7.096   5.026  1.00 20.00     0.000 A 
ENDROOT
TORSDOF 0
ENDMDL
MODEL 8
REMARK VINA RESULT:      -3.6     12.166     12.726
REMARK  0 active torsions:
REMARK  status: ('A' for Active; 'I' for Inactive)
ROOT
HETATM    1  C1  UNL     1     -35.279  15.053  -3.033  1.00 20.00     0.000 A 
HETATM    2  C2  UNL     1     -35.206  16.079  -2.091  1.00 20.00     0.000 A 
HETATM    3  C3  UNL     1     -34.200  14.806  -3.882  1.00 20.00     0.000 A 
HETATM    4  C4  UNL     1     -34.054  16.860  -1.999  1.00 20.00     0.000 A 
HETATM    5  C5  UNL     1     -33.048  15.587  -3.790  1.00 20.00     0.000 A 
HETATM    6  C6  UNL     1     -32.975  16.614  -2.848  1.00 20.00     0.000 A 
ENDROOT
TORSDOF 0
ENDMDL
MODEL 9
REMARK VINA RESULT:      -3.6     12.202     12.856
REMARK  0 active torsions:
REMARK  status: ('A' for Active; 'I' for Inactive)
ROOT
HETATM    1  C1  UNL     1     -35.294  15.123  -3.003  1.00 20.00     0.000 A 
HETATM    2  C2  UNL     1     -34.210  14.879  -3.846  1.00 20.00     0.000 A 
HETATM    3  C3  UNL     1     -35.223  16.139  -2.049  1.00 20.00     0.000 A 
HETATM    4  C4  UNL     1     -33.053  15.650  -3.734  1.00 20.00     0.000 A 
HETATM    5  C5  UNL     1     -34.065  16.908  -1.937  1.00 20.00     0.000 A 
HETATM    6  C6  UNL     1     -32.980  16.665  -2.779  1.00 20.00     0.000 A 
ENDROOT
TORSDOF 0
ENDMDL
