MODEL 1
REMARK VINA RESULT:      -4.7      0.000      0.000
REMARK  1 active torsions:
REMARK  status: ('A' for Active; 'I' for Inactive)
REMARK    1  A    between atoms: C6_6  and  S8_8 
ROOT
HETATM    1  C1  UNL     1     -35.062   5.109   5.394  1.00 20.00     0.000 A 
HETATM    2  C2  UNL     1     -34.445   6.203   6.001  1.00 20.00     0.001 A 
HETATM    3  C3  UNL     1     -34.729   4.758   4.087  1.00 20.00     0.001 A 
HETATM    4  C4  UNL     1     -33.495   6.945   5.301  1.00 20.00     0.018 A 
HETATM    5  C5  UNL     1     -33.779   5.499   3.385  1.00 20.00     0.018 A 
HETATM    6  C6  UNL     1     -33.161   6.593   3.993  1.00 20.00    -0.000 A 
ENDROOT
BRANCH   6   7
HETATM    7  S8  UNL     1     -31.947   7.541   3.097  1.00 20.00    -0.134 SA
HETATM    8  C7  UNL     1     -32.827   7.756   1.534  1.00 20.00     0.095 C 
ENDBRANCH   6   7
TORSDOF 1
ENDMDL
MODEL 2
REMARK VINA RESULT:      -4.7      0.002      1.708
REMARK  1 active torsions:
REMARK  status: ('A' for Active; 'I' for Inactive)
REMARK    1  A    between atoms: C6_6  and  S8_8 
ROOT
HETATM    1  C1  UNL     1     -35.062   5.109   5.394  1.00 20.00     0.000 A 
HETATM    2  C2  UNL     1     -34.728   4.756   4.086  1.00 20.00     0.001 A 
HETATM    3  C3  UNL     1     -34.445   6.203   5.999  1.00 20.00     0.001 A 
HETATM    4  C4  UNL     1     -33.778   5.498   3.384  1.00 20.00     0.018 A 
HETATM    5  C5  UNL     1     -33.494   6.945   5.299  1.00 20.00     0.018 A 
HETATM    6  C6  UNL     1     -33.162   6.593   3.990  1.00 20.00    -0.000 A 
ENDROOT
BRANCH   6   7
HETATM    7  S8  UNL     1     -31.947   7.540   3.094  1.00 20.00    -0.134 SA
HETATM    8  C7  UNL     1     -32.827   7.758   1.532  1.00 20.00     0.095 C 
ENDBRANCH   6   7
TORSDOF 1
ENDMDL
MODEL 3
REMARK VINA RESULT:      -3.8     11.882     12.316
REMARK  1 active torsions:
REMARK  status: ('A' for Active; 'I' for Inactive)
REMARK    1  A    between atoms: C6_6  and  S8_8 
ROOT
HETATM    1  C1  UNL     1     -33.392  16.662  -2.416  1.00 20.00     0.000 A 
HETATM    2  C2  UNL     1     -32.916  15.876  -3.466  1.00 20.00     0.001 A 
HETATM    3  C3  UNL     1     -34.729  16.573  -2.031  1.00 20.00     0.001 A 
HETATM    4  C4  UNL     1     -33.776  15.002  -4.130  1.00 20.00     0.018 A 
HETATM    5  C5  UNL     1     -35.590  15.699  -2.694  1.00 20.00     0.018 A 
HETATM    6  C6  UNL     1     -35.113  14.913  -3.743  1.00 20.00    -0.000 A 
ENDROOT
BRANCH   6   7
HETATM    7  S8  UNL     1     -36.214  13.797  -4.592  1.00 20.00    -0.134 SA
HETATM    8  C7  UNL     1     -37.784  14.644  -4.302  1.00 20.00     0.095 C 
ENDBRANCH   6   7
TORSDOF 1
ENDMDL
MODEL 4
REMARK VINA RESULT:      -3.8     11.612     12.230
REMARK  1 active torsions:
REMARK  status: ('A' for Active; 'I' for Inactive)
REMARK    1  A    between atoms: C6_6  and  S8_8 
ROOT
HETATM    1  C1  UNL     1     -34.064  17.675  -1.008  1.00 20.00     0.000 A 
HETATM    2  C2  UNL     1     -35.129  16.790  -1.181  1.00 20.00     0.001 A 
HETATM    3  C3  UNL     1     -32.965  17.618  -1.865  1.00 20.00     0.001 A 
HETATM    4  C4  UNL     1     -35.095  15.851  -2.211  1.00 20.00     0.018 A 
HETATM    5  C5  UNL     1     -32.931  16.679  -2.896  1.00 20.00     0.018 A 
HETATM    6  C6  UNL     1     -33.997  15.795  -3.069  1.00 20.00    -0.000 A 
ENDROOT
BRANCH   6   7
HETATM    7  S8  UNL     1     -33.953  14.594  -4.385  1.00 20.00    -0.134 SA
HETATM    8  C7  UNL     1     -35.643  13.965  -4.275  1.00 20.00     0.095 C 
ENDBRANCH   6   7
TORSDOF 1
ENDMDL
MODEL 5
REMARK VINA RESULT:      -3.8     11.619     12.225
REMARK  1 active torsions:
REMARK  status: ('A' for Active; 'I' for Inactive)
REMARK    1  A    between atoms: C6_6  and  S8_8 
ROOT
HETATM    1  C1  UNL     1     -34.052  17.666  -1.036  1.00 20.00     0.000 A 
HETATM    2  C2  UNL     1     -32.954  17.598  -1.895  1.00 20.00     0.001 A 
HETATM    3  C3  UNL     1     -35.124  16.791  -1.206  1.00 20.00     0.001 A 
HETATM    4  C4  UNL     1     -32.930  16.656  -2.923  1.00 20.00     0.018 A 
HETATM    5  C5  UNL     1     -35.101  15.848  -2.234  1.00 20.00     0.018 A 
HETATM    6  C6  UNL     1     -34.002  15.780  -3.092  1.00 20.00    -0.000 A 
ENDROOT
BRANCH   6   7
HETATM    7  S8  UNL     1     -33.972  14.576  -4.406  1.00 20.00    -0.134 SA
HETATM    8  C7  UNL     1     -35.665  13.956  -4.284  1.00 20.00     0.095 C 
ENDBRANCH   6   7
TORSDOF 1
ENDMDL
MODEL 6
REMARK VINA RESULT:      -3.8     11.872     12.248
REMARK  1 active torsions:
REMARK  status: ('A' for Active; 'I' for Inactive)
REMARK    1  A    between atoms: C6_6  and  S8_8 
ROOT
HETATM    1  C1  UNL     1     -33.390  16.669  -2.402  1.00 20.00     0.000 A 
HETATM    2  C2  UNL     1     -34.725  16.571  -2.007  1.00 20.00     0.001 A 
HETATM    3  C3  UNL     1     -32.918  15.893  -3.459  1.00 20.00     0.001 A 
HETATM    4  C4  UNL     1     -35.586  15.697  -2.670  1.00 20.00     0.018 A 
HETATM    5  C5  UNL     1     -33.778  15.019  -4.123  1.00 20.00     0.018 A 
HETATM    6  C6  UNL     1     -35.113  14.922  -3.728  1.00 20.00    -0.000 A 
ENDROOT
BRANCH   6   7
HETATM    7  S8  UNL     1     -36.213  13.804  -4.575  1.00 20.00    -0.134 SA
HETATM    8  C7  UNL     1     -37.780  14.664  -4.309  1.00 20.00     0.095 C 
ENDBRANCH   6   7
TORSDOF 1
ENDMDL
MODEL 7
REMARK VINA RESULT:      -3.8     15.482     16.156
REMARK  1 active torsions:
REMARK  status: ('A' for Active; 'I' for Inactive)
REMARK    1  A    between atoms: C6_6  and  S8_8 
ROOT
HETATM    1  C1  UNL     1     -25.624  16.614  12.332  1.00 20.00     0.000 A 
HETATM    2  C2  UNL     1     -24.641  15.968  11.582  1.00 20.00     0.001 A 
HETATM    3  C3  UNL     1     -25.956  17.939  12.050  1.00 20.00     0.001 A 
HETATM    4  C4  UNL     1     -23.992  16.646  10.551  1.00 20.00     0.018 A 
HETATM    5  C5  UNL     1     -25.308  18.618  11.019  1.00 20.00     0.018 A 
HETATM    6  C6  UNL     1     -24.325  17.971  10.269  1.00 20.00    -0.000 A 
ENDROOT
BRANCH   6   7
HETATM    7  S8  UNL     1     -23.495  18.838   8.952  1.00 20.00    -0.134 SA
HETATM    8  C7  UNL     1     -21.829  18.169   9.154  1.00 20.00     0.095 C 
ENDBRANCH   6   7
TORSDOF 1
ENDMDL
MODEL 8
REMARK VINA RESULT:      -3.8     11.713     12.353
REMARK  1 active torsions:
REMARK  status: ('A' for Active; 'I' for Inactive)
REMARK    1  A    between atoms: C6_6  and  S8_8 
ROOT
HETATM    1  C1  UNL     1     -34.345  14.749  -3.858  1.00 20.00     0.000 A 
HETATM    2  C2  UNL     1     -33.137  15.447  -3.883  1.00 20.00     0.001 A 
HETATM    3  C3  UNL     1     -35.336  15.105  -2.944  1.00 20.00     0.001 A 
HETATM    4  C4  UNL     1     -32.922  16.501  -2.996  1.00 20.00     0.018 A 
HETATM    5  C5  UNL     1     -35.122  16.159  -2.055  1.00 20.00     0.018 A 
HETATM    6  C6  UNL     1     -33.914  16.857  -2.082  1.00 20.00    -0.000 A 
ENDROOT
BRANCH   6   7
HETATM    7  S8  UNL     1     -33.639  18.203  -0.947  1.00 20.00    -0.134 SA
HETATM    8  C7  UNL     1     -31.837  18.305  -1.032  1.00 20.00     0.095 C 
ENDBRANCH   6   7
TORSDOF 1
ENDMDL
MODEL 9
REMARK VINA RESULT:      -3.7     11.673     12.297
REMARK  1 active torsions:
REMARK  status: ('A' for Active; 'I' for Inactive)
REMARK    1  A    between atoms: C6_6  and  S8_8 
ROOT
HETATM    1  C1  UNL     1     -34.321  14.550  -4.018  1.00 20.00     0.000 A 
HETATM    2  C2  UNL     1     -35.352  14.897  -3.144  1.00 20.00     0.001 A 
HETATM    3  C3  UNL     1     -33.122  15.261  -3.997  1.00 20.00     0.001 A 
HETATM    4  C4  UNL     1     -35.183  15.953  -2.250  1.00 20.00     0.018 A 
HETATM    5  C5  UNL     1     -32.952  16.318  -3.103  1.00 20.00     0.018 A 
HETATM    6  C6  UNL     1     -33.983  16.664  -2.228  1.00 20.00    -0.000 A 
ENDROOT
BRANCH   6   7
HETATM    7  S8  UNL     1     -33.766  18.014  -1.086  1.00 20.00    -0.134 SA
HETATM    8  C7  UNL     1     -32.008  18.346  -1.341  1.00 20.00     0.095 C 
ENDBRANCH   6   7
TORSDOF 1
ENDMDL
