MODEL 1
REMARK VINA RESULT:      -6.0      0.000      0.000
REMARK  1 active torsions:
REMARK  status: ('A' for Active; 'I' for Inactive)
REMARK    1  A    between atoms: C6_6  and  C8_8 
ROOT
HETATM    1  C1  UNL     1     -34.975   5.169   5.415  1.00 20.00     0.000 A 
HETATM    2  C2  UNL     1     -34.696   4.766   4.110  1.00 20.00     0.001 A 
HETATM    3  C3  UNL     1     -34.340   6.289   5.951  1.00 20.00     0.001 A 
HETATM    4  C4  UNL     1     -33.783   5.485   3.339  1.00 20.00     0.007 A 
HETATM    5  C5  UNL     1     -33.426   7.008   5.181  1.00 20.00     0.007 A 
HETATM    6  C6  UNL     1     -33.147   6.605   3.874  1.00 20.00    -0.059 A 
ENDROOT
BRANCH   6   7
HETATM    7  C8  UNL     1     -32.169   7.374   3.051  1.00 20.00     0.034 C 
HETATM    8  C7  UNL     1     -32.679   7.636   1.637  1.00 20.00     0.010 C 
ENDBRANCH   6   7
TORSDOF 1
ENDMDL
MODEL 2
REMARK VINA RESULT:      -6.0      0.008      1.708
REMARK  1 active torsions:
REMARK  status: ('A' for Active; 'I' for Inactive)
REMARK    1  A    between atoms: C6_6  and  C8_8 
ROOT
HETATM    1  C1  UNL     1     -34.976   5.163   5.414  1.00 20.00     0.000 A 
HETATM    2  C2  UNL     1     -34.341   6.282   5.950  1.00 20.00     0.001 A 
HETATM    3  C3  UNL     1     -34.698   4.762   4.107  1.00 20.00     0.001 A 
HETATM    4  C4  UNL     1     -33.427   7.001   5.180  1.00 20.00     0.007 A 
HETATM    5  C5  UNL     1     -33.785   5.481   3.336  1.00 20.00     0.007 A 
HETATM    6  C6  UNL     1     -33.149   6.601   3.873  1.00 20.00    -0.059 A 
ENDROOT
BRANCH   6   7
HETATM    7  C8  UNL     1     -32.173   7.369   3.049  1.00 20.00     0.034 C 
HETATM    8  C7  UNL     1     -32.681   7.623   1.632  1.00 20.00     0.010 C 
ENDBRANCH   6   7
TORSDOF 1
ENDMDL
MODEL 3
REMARK VINA RESULT:      -5.1      1.108      1.661
REMARK  1 active torsions:
REMARK  status: ('A' for Active; 'I' for Inactive)
REMARK    1  A    between atoms: C6_6  and  C8_8 
ROOT
HETATM    1  C1  UNL     1     -34.705   5.986   6.367  1.00 20.00     0.000 A 
HETATM    2  C2  UNL     1     -35.083   4.946   5.519  1.00 20.00     0.001 A 
HETATM    3  C3  UNL     1     -33.832   6.975   5.912  1.00 20.00     0.001 A 
HETATM    4  C4  UNL     1     -34.590   4.895   4.216  1.00 20.00     0.007 A 
HETATM    5  C5  UNL     1     -33.337   6.923   4.610  1.00 20.00     0.007 A 
HETATM    6  C6  UNL     1     -33.717   5.882   3.760  1.00 20.00    -0.059 A 
ENDROOT
BRANCH   6   7
HETATM    7  C8  UNL     1     -33.187   5.828   2.368  1.00 20.00     0.034 C 
HETATM    8  C7  UNL     1     -33.041   4.397   1.857  1.00 20.00     0.010 C 
ENDBRANCH   6   7
TORSDOF 1
ENDMDL
MODEL 4
REMARK VINA RESULT:      -4.7      0.895      3.797
REMARK  1 active torsions:
REMARK  status: ('A' for Active; 'I' for Inactive)
REMARK    1  A    between atoms: C6_6  and  C8_8 
ROOT
HETATM    1  C1  UNL     1     -32.135   7.170   2.557  1.00 20.00     0.000 A 
HETATM    2  C2  UNL     1     -32.519   7.601   3.826  1.00 20.00     0.001 A 
HETATM    3  C3  UNL     1     -32.717   6.029   2.002  1.00 20.00     0.001 A 
HETATM    4  C4  UNL     1     -33.485   6.894   4.540  1.00 20.00     0.007 A 
HETATM    5  C5  UNL     1     -33.683   5.321   2.717  1.00 20.00     0.007 A 
HETATM    6  C6  UNL     1     -34.067   5.754   3.987  1.00 20.00    -0.059 A 
ENDROOT
BRANCH   6   7
HETATM    7  C8  UNL     1     -35.099   4.995   4.751  1.00 20.00     0.034 C 
HETATM    8  C7  UNL     1     -34.898   5.099   6.260  1.00 20.00     0.010 C 
ENDBRANCH   6   7
TORSDOF 1
ENDMDL
MODEL 5
REMARK VINA RESULT:      -4.7      0.892      3.391
REMARK  1 active torsions:
REMARK  status: ('A' for Active; 'I' for Inactive)
REMARK    1  A    between atoms: C6_6  and  C8_8 
ROOT
HETATM    1  C1  UNL     1     -32.124   7.180   2.575  1.00 20.00     0.000 A 
HETATM    2  C2  UNL     1     -32.701   6.043   2.012  1.00 20.00     0.001 A 
HETATM    3  C3  UNL     1     -32.516   7.606   3.844  1.00 20.00     0.001 A 
HETATM    4  C4  UNL     1     -33.670   5.330   2.718  1.00 20.00     0.007 A 
HETATM    5  C5  UNL     1     -33.485   6.894   4.550  1.00 20.00     0.007 A 
HETATM    6  C6  UNL     1     -34.063   5.756   3.986  1.00 20.00    -0.059 A 
ENDROOT
BRANCH   6   7
HETATM    7  C8  UNL     1     -35.100   4.996   4.742  1.00 20.00     0.034 C 
HETATM    8  C7  UNL     1     -34.904   5.090   6.252  1.00 20.00     0.010 C 
ENDBRANCH   6   7
TORSDOF 1
ENDMDL
MODEL 6
REMARK VINA RESULT:      -4.6      0.831      3.319
REMARK  1 active torsions:
REMARK  status: ('A' for Active; 'I' for Inactive)
REMARK    1  A    between atoms: C6_6  and  C8_8 
ROOT
HETATM    1  C1  UNL     1     -32.595   6.314   1.963  1.00 20.00     0.000 A 
HETATM    2  C2  UNL     1     -33.494   5.324   2.358  1.00 20.00     0.001 A 
HETATM    3  C3  UNL     1     -32.259   7.343   2.843  1.00 20.00     0.001 A 
HETATM    4  C4  UNL     1     -34.056   5.362   3.633  1.00 20.00     0.007 A 
HETATM    5  C5  UNL     1     -32.822   7.382   4.119  1.00 20.00     0.007 A 
HETATM    6  C6  UNL     1     -33.721   6.390   4.514  1.00 20.00    -0.059 A 
ENDROOT
BRANCH   6   7
HETATM    7  C8  UNL     1     -34.323   6.432   5.878  1.00 20.00     0.034 C 
HETATM    8  C7  UNL     1     -34.910   5.087   6.295  1.00 20.00     0.010 C 
ENDBRANCH   6   7
TORSDOF 1
ENDMDL
MODEL 7
REMARK VINA RESULT:      -4.3     11.462     12.154
REMARK  1 active torsions:
REMARK  status: ('A' for Active; 'I' for Inactive)
REMARK    1  A    between atoms: C6_6  and  C8_8 
ROOT
HETATM    1  C1  UNL     1     -33.985  17.655  -1.139  1.00 20.00     0.000 A 
HETATM    2  C2  UNL     1     -35.099  16.822  -1.236  1.00 20.00     0.001 A 
HETATM    3  C3  UNL     1     -32.916  17.496  -2.020  1.00 20.00     0.001 A 
HETATM    4  C4  UNL     1     -35.144  15.830  -2.215  1.00 20.00     0.007 A 
HETATM    5  C5  UNL     1     -32.959  16.503  -2.999  1.00 20.00     0.007 A 
HETATM    6  C6  UNL     1     -34.074  15.669  -3.096  1.00 20.00    -0.059 A 
ENDROOT
BRANCH   6   7
HETATM    7  C8  UNL     1     -34.121  14.608  -4.143  1.00 20.00     0.034 C 
HETATM    8  C7  UNL     1     -35.457  13.871  -4.164  1.00 20.00     0.010 C 
ENDBRANCH   6   7
TORSDOF 1
ENDMDL
MODEL 8
REMARK VINA RESULT:      -4.3     11.422     12.164
REMARK  1 active torsions:
REMARK  status: ('A' for Active; 'I' for Inactive)
REMARK    1  A    between atoms: C6_6  and  C8_8 
ROOT
HETATM    1  C1  UNL     1     -34.040  17.679  -1.050  1.00 20.00     0.000 A 
HETATM    2  C2  UNL     1     -32.955  17.565  -1.918  1.00 20.00     0.001 A 
HETATM    3  C3  UNL     1     -35.133  16.823  -1.184  1.00 20.00     0.001 A 
HETATM    4  C4  UNL     1     -32.962  16.595  -2.920  1.00 20.00     0.007 A 
HETATM    5  C5  UNL     1     -35.142  15.854  -2.186  1.00 20.00     0.007 A 
HETATM    6  C6  UNL     1     -34.055  15.739  -3.055  1.00 20.00    -0.059 A 
ENDROOT
BRANCH   6   7
HETATM    7  C8  UNL     1     -34.065  14.702  -4.126  1.00 20.00     0.034 C 
HETATM    8  C7  UNL     1     -35.342  13.868  -4.116  1.00 20.00     0.010 C 
ENDBRANCH   6   7
TORSDOF 1
ENDMDL
MODEL 9
REMARK VINA RESULT:      -4.2     11.509     12.214
REMARK  1 active torsions:
REMARK  status: ('A' for Active; 'I' for Inactive)
REMARK    1  A    between atoms: C6_6  and  C8_8 
ROOT
HETATM    1  C1  UNL     1     -34.398  14.461  -4.068  1.00 20.00     0.000 A 
HETATM    2  C2  UNL     1     -33.163  15.107  -4.092  1.00 20.00     0.001 A 
HETATM    3  C3  UNL     1     -35.382  14.869  -3.167  1.00 20.00     0.001 A 
HETATM    4  C4  UNL     1     -32.912  16.163  -3.217  1.00 20.00     0.007 A 
HETATM    5  C5  UNL     1     -35.130  15.924  -2.290  1.00 20.00     0.007 A 
HETATM    6  C6  UNL     1     -33.894  16.572  -2.316  1.00 20.00    -0.059 A 
ENDROOT
BRANCH   6   7
HETATM    7  C8  UNL     1     -33.626  17.700  -1.378  1.00 20.00     0.034 C 
HETATM    8  C7  UNL     1     -32.165  18.140  -1.401  1.00 20.00     0.010 C 
ENDBRANCH   6   7
TORSDOF 1
ENDMDL
