MODEL 1
REMARK VINA RESULT:      -6.0      0.000      0.000
REMARK  4 active torsions:
REMARK  status: ('A' for Active; 'I' for Inactive)
REMARK    1  A    between atoms: C6_6  and  C8_8 
REMARK    2  A    between atoms: C8_8  and  C10_10 
REMARK    3  A    between atoms: C9_9  and  C11_11 
REMARK    4  A    between atoms: C10_10  and  C11_11 
ROOT
HETATM    1  C1  UNL     1     -34.773   5.718   6.196  1.00 20.00     0.000 A 
HETATM    2  C2  UNL     1     -35.039   4.736   5.241  1.00 20.00     0.001 A 
HETATM    3  C3  UNL     1     -33.948   6.796   5.876  1.00 20.00     0.001 A 
HETATM    4  C4  UNL     1     -34.481   4.833   3.967  1.00 20.00     0.007 A 
HETATM    5  C5  UNL     1     -33.389   6.893   4.602  1.00 20.00     0.007 A 
HETATM    6  C6  UNL     1     -33.656   5.911   3.647  1.00 20.00    -0.058 A 
ENDROOT
BRANCH   6   7
HETATM    7  C8  UNL     1     -33.055   6.016   2.279  1.00 20.00     0.038 C 
BRANCH   7   8
HETATM    8  C10 UNL     1     -32.373   7.362   2.013  1.00 20.00     0.005 C 
BRANCH   8   9
HETATM    9  C11 UNL     1     -32.141   7.638   0.524  1.00 20.00    -0.000 C 
BRANCH   9  10
HETATM   10  C9  UNL     1     -32.988   8.817   0.043  1.00 20.00    -0.005 C 
HETATM   11  C7  UNL     1     -33.204   9.836   1.149  1.00 20.00     0.005 C 
ENDBRANCH   9  10
ENDBRANCH   8   9
ENDBRANCH   7   8
ENDBRANCH   6   7
TORSDOF 4
ENDMDL
MODEL 2
REMARK VINA RESULT:      -4.7     10.916     11.622
REMARK  4 active torsions:
REMARK  status: ('A' for Active; 'I' for Inactive)
REMARK    1  A    between atoms: C6_6  and  C8_8 
REMARK    2  A    between atoms: C8_8  and  C10_10 
REMARK    3  A    between atoms: C9_9  and  C11_11 
REMARK    4  A    between atoms: C10_10  and  C11_11 
ROOT
HETATM    1  C1  UNL     1     -34.056  17.824  -0.875  1.00 20.00     0.000 A 
HETATM    2  C2  UNL     1     -35.124  16.937  -1.014  1.00 20.00     0.001 A 
HETATM    3  C3  UNL     1     -32.958  17.734  -1.730  1.00 20.00     0.001 A 
HETATM    4  C4  UNL     1     -35.092  15.959  -2.008  1.00 20.00     0.007 A 
HETATM    5  C5  UNL     1     -32.926  16.756  -2.724  1.00 20.00     0.007 A 
HETATM    6  C6  UNL     1     -33.994  15.869  -2.863  1.00 20.00    -0.058 A 
ENDROOT
BRANCH   6   7
HETATM    7  C8  UNL     1     -33.959  14.818  -3.931  1.00 20.00     0.038 C 
BRANCH   7   8
HETATM    8  C10 UNL     1     -34.413  15.327  -5.303  1.00 20.00     0.005 C 
BRANCH   8   9
HETATM    9  C11 UNL     1     -35.624  14.570  -5.857  1.00 20.00    -0.000 C 
BRANCH   9  10
HETATM   10  C9  UNL     1     -36.351  13.803  -4.752  1.00 20.00    -0.005 C 
HETATM   11  C7  UNL     1     -37.634  14.504  -4.338  1.00 20.00     0.005 C 
ENDBRANCH   9  10
ENDBRANCH   8   9
ENDBRANCH   7   8
ENDBRANCH   6   7
TORSDOF 4
ENDMDL
MODEL 3
REMARK VINA RESULT:      -4.7     10.511     11.604
REMARK  4 active torsions:
REMARK  status: ('A' for Active; 'I' for Inactive)
REMARK    1  A    between atoms: C6_6  and  C8_8 
REMARK    2  A    between atoms: C8_8  and  C10_10 
REMARK    3  A    between atoms: C9_9  and  C11_11 
REMARK    4  A    between atoms: C10_10  and  C11_11 
ROOT
HETATM    1  C1  UNL     1     -34.090  17.802  -0.685  1.00 20.00     0.000 A 
HETATM    2  C2  UNL     1     -32.986  17.797  -1.539  1.00 20.00     0.001 A 
HETATM    3  C3  UNL     1     -35.148  16.922  -0.907  1.00 20.00     0.001 A 
HETATM    4  C4  UNL     1     -32.942  16.910  -2.614  1.00 20.00     0.007 A 
HETATM    5  C5  UNL     1     -35.104  16.035  -1.982  1.00 20.00     0.007 A 
HETATM    6  C6  UNL     1     -34.000  16.029  -2.836  1.00 20.00    -0.058 A 
ENDROOT
BRANCH   6   7
HETATM    7  C8  UNL     1     -33.953  15.077  -3.992  1.00 20.00     0.038 C 
BRANCH   7   8
HETATM    8  C10 UNL     1     -34.940  13.913  -3.863  1.00 20.00     0.005 C 
BRANCH   8   9
HETATM    9  C11 UNL     1     -36.037  13.928  -4.933  1.00 20.00    -0.000 C 
BRANCH   9  10
HETATM   10  C9  UNL     1     -37.368  14.409  -4.354  1.00 20.00    -0.005 C 
HETATM   11  C7  UNL     1     -37.630  15.866  -4.695  1.00 20.00     0.005 C 
ENDBRANCH   9  10
ENDBRANCH   8   9
ENDBRANCH   7   8
ENDBRANCH   6   7
TORSDOF 4
ENDMDL
MODEL 4
REMARK VINA RESULT:      -4.7     10.943     12.129
REMARK  4 active torsions:
REMARK  status: ('A' for Active; 'I' for Inactive)
REMARK    1  A    between atoms: C6_6  and  C8_8 
REMARK    2  A    between atoms: C8_8  and  C10_10 
REMARK    3  A    between atoms: C9_9  and  C11_11 
REMARK    4  A    between atoms: C10_10  and  C11_11 
ROOT
HETATM    1  C1  UNL     1     -34.910  15.542  -2.674  1.00 20.00     0.000 A 
HETATM    2  C2  UNL     1     -33.717  15.681  -3.385  1.00 20.00     0.001 A 
HETATM    3  C3  UNL     1     -35.190  16.398  -1.609  1.00 20.00     0.001 A 
HETATM    4  C4  UNL     1     -32.806  16.675  -3.030  1.00 20.00     0.007 A 
HETATM    5  C5  UNL     1     -34.279  17.392  -1.254  1.00 20.00     0.007 A 
HETATM    6  C6  UNL     1     -33.087  17.531  -1.966  1.00 20.00    -0.058 A 
ENDROOT
BRANCH   6   7
HETATM    7  C8  UNL     1     -32.108  18.599  -1.584  1.00 20.00     0.038 C 
BRANCH   7   8
HETATM    8  C10 UNL     1     -31.205  18.208  -0.409  1.00 20.00     0.005 C 
BRANCH   8   9
HETATM    9  C11 UNL     1     -31.436  19.062   0.841  1.00 20.00    -0.000 C 
BRANCH   9  10
HETATM   10  C9  UNL     1     -31.826  18.196   2.039  1.00 20.00    -0.005 C 
HETATM   11  C7  UNL     1     -33.335  18.117   2.201  1.00 20.00     0.005 C 
ENDBRANCH   9  10
ENDBRANCH   8   9
ENDBRANCH   7   8
ENDBRANCH   6   7
TORSDOF 4
ENDMDL
MODEL 5
REMARK VINA RESULT:      -4.7     10.639     11.851
REMARK  4 active torsions:
REMARK  status: ('A' for Active; 'I' for Inactive)
REMARK    1  A    between atoms: C6_6  and  C8_8 
REMARK    2  A    between atoms: C8_8  and  C10_10 
REMARK    3  A    between atoms: C9_9  and  C11_11 
REMARK    4  A    between atoms: C10_10  and  C11_11 
ROOT
HETATM    1  C1  UNL     1     -33.654  17.616  -1.684  1.00 20.00     0.000 A 
HETATM    2  C2  UNL     1     -32.806  17.136  -2.683  1.00 20.00     0.001 A 
HETATM    3  C3  UNL     1     -34.851  16.957  -1.409  1.00 20.00     0.001 A 
HETATM    4  C4  UNL     1     -33.158  15.998  -3.407  1.00 20.00     0.007 A 
HETATM    5  C5  UNL     1     -35.203  15.818  -2.133  1.00 20.00     0.007 A 
HETATM    6  C6  UNL     1     -34.356  15.338  -3.132  1.00 20.00    -0.058 A 
ENDROOT
BRANCH   6   7
HETATM    7  C8  UNL     1     -34.735  14.115  -3.910  1.00 20.00     0.038 C 
BRANCH   7   8
HETATM    8  C10 UNL     1     -36.162  14.163  -4.465  1.00 20.00     0.005 C 
BRANCH   8   9
HETATM    9  C11 UNL     1     -36.335  15.176  -5.601  1.00 20.00    -0.000 C 
BRANCH   9  10
HETATM   10  C9  UNL     1     -35.448  14.823  -6.796  1.00 20.00    -0.005 C 
HETATM   11  C7  UNL     1     -34.455  15.933  -7.099  1.00 20.00     0.005 C 
ENDBRANCH   9  10
ENDBRANCH   8   9
ENDBRANCH   7   8
ENDBRANCH   6   7
TORSDOF 4
ENDMDL
MODEL 6
REMARK VINA RESULT:      -4.7     10.647     11.824
REMARK  4 active torsions:
REMARK  status: ('A' for Active; 'I' for Inactive)
REMARK    1  A    between atoms: C6_6  and  C8_8 
REMARK    2  A    between atoms: C8_8  and  C10_10 
REMARK    3  A    between atoms: C9_9  and  C11_11 
REMARK    4  A    between atoms: C10_10  and  C11_11 
ROOT
HETATM    1  C1  UNL     1     -33.643  17.632  -1.644  1.00 20.00     0.000 A 
HETATM    2  C2  UNL     1     -34.841  16.971  -1.367  1.00 20.00     0.001 A 
HETATM    3  C3  UNL     1     -32.802  17.160  -2.652  1.00 20.00     0.001 A 
HETATM    4  C4  UNL     1     -35.196  15.838  -2.098  1.00 20.00     0.007 A 
HETATM    5  C5  UNL     1     -33.157  16.027  -3.383  1.00 20.00     0.007 A 
HETATM    6  C6  UNL     1     -34.355  15.366  -3.106  1.00 20.00    -0.058 A 
ENDROOT
BRANCH   6   7
HETATM    7  C8  UNL     1     -34.736  14.148  -3.891  1.00 20.00     0.038 C 
BRANCH   7   8
HETATM    8  C10 UNL     1     -36.159  14.207  -4.456  1.00 20.00     0.005 C 
BRANCH   8   9
HETATM    9  C11 UNL     1     -36.318  15.226  -5.589  1.00 20.00    -0.000 C 
BRANCH   9  10
HETATM   10  C9  UNL     1     -35.568  14.779  -6.845  1.00 20.00    -0.005 C 
HETATM   11  C7  UNL     1     -34.411  15.711  -7.164  1.00 20.00     0.005 C 
ENDBRANCH   9  10
ENDBRANCH   8   9
ENDBRANCH   7   8
ENDBRANCH   6   7
TORSDOF 4
ENDMDL
MODEL 7
REMARK VINA RESULT:      -4.7     10.785     11.869
REMARK  4 active torsions:
REMARK  status: ('A' for Active; 'I' for Inactive)
REMARK    1  A    between atoms: C6_6  and  C8_8 
REMARK    2  A    between atoms: C8_8  and  C10_10 
REMARK    3  A    between atoms: C9_9  and  C11_11 
REMARK    4  A    between atoms: C10_10  and  C11_11 
ROOT
HETATM    1  C1  UNL     1     -34.889  14.170  -4.096  1.00 20.00     0.000 A 
HETATM    2  C2  UNL     1     -33.556  14.468  -4.384  1.00 20.00     0.001 A 
HETATM    3  C3  UNL     1     -35.583  14.923  -3.150  1.00 20.00     0.001 A 
HETATM    4  C4  UNL     1     -32.919  15.518  -3.724  1.00 20.00     0.007 A 
HETATM    5  C5  UNL     1     -34.947  15.974  -2.490  1.00 20.00     0.007 A 
HETATM    6  C6  UNL     1     -33.614  16.271  -2.778  1.00 20.00    -0.058 A 
ENDROOT
BRANCH   6   7
HETATM    7  C8  UNL     1     -32.930  17.400  -2.068  1.00 20.00     0.038 C 
BRANCH   7   8
HETATM    8  C10 UNL     1     -33.702  17.910  -0.847  1.00 20.00     0.005 C 
BRANCH   8   9
HETATM    9  C11 UNL     1     -32.863  18.810   0.065  1.00 20.00    -0.000 C 
BRANCH   9  10
HETATM   10  C9  UNL     1     -31.367  18.619  -0.193  1.00 20.00    -0.005 C 
HETATM   11  C7  UNL     1     -30.613  18.328   1.093  1.00 20.00     0.005 C 
ENDBRANCH   9  10
ENDBRANCH   8   9
ENDBRANCH   7   8
ENDBRANCH   6   7
TORSDOF 4
ENDMDL
MODEL 8
REMARK VINA RESULT:      -4.7     10.805     11.885
REMARK  4 active torsions:
REMARK  status: ('A' for Active; 'I' for Inactive)
REMARK    1  A    between atoms: C6_6  and  C8_8 
REMARK    2  A    between atoms: C8_8  and  C10_10 
REMARK    3  A    between atoms: C9_9  and  C11_11 
REMARK    4  A    between atoms: C10_10  and  C11_11 
ROOT
HETATM    1  C1  UNL     1     -34.937  14.225  -4.072  1.00 20.00     0.000 A 
HETATM    2  C2  UNL     1     -35.595  14.976  -3.098  1.00 20.00     0.001 A 
HETATM    3  C3  UNL     1     -33.610  14.510  -4.394  1.00 20.00     0.001 A 
HETATM    4  C4  UNL     1     -34.926  16.012  -2.447  1.00 20.00     0.007 A 
HETATM    5  C5  UNL     1     -32.941  15.546  -3.744  1.00 20.00     0.007 A 
HETATM    6  C6  UNL     1     -33.600  16.297  -2.770  1.00 20.00    -0.058 A 
ENDROOT
BRANCH   6   7
HETATM    7  C8  UNL     1     -32.881  17.411  -2.072  1.00 20.00     0.038 C 
BRANCH   7   8
HETATM    8  C10 UNL     1     -33.616  17.929  -0.832  1.00 20.00     0.005 C 
BRANCH   8   9
HETATM    9  C11 UNL     1     -32.776  18.896   0.009  1.00 20.00    -0.000 C 
BRANCH   9  10
HETATM   10  C9  UNL     1     -31.281  18.636  -0.178  1.00 20.00    -0.005 C 
HETATM   11  C7  UNL     1     -30.597  18.346   1.148  1.00 20.00     0.005 C 
ENDBRANCH   9  10
ENDBRANCH   8   9
ENDBRANCH   7   8
ENDBRANCH   6   7
TORSDOF 4
ENDMDL
MODEL 9
REMARK VINA RESULT:      -4.5     10.864     11.915
REMARK  4 active torsions:
REMARK  status: ('A' for Active; 'I' for Inactive)
REMARK    1  A    between atoms: C6_6  and  C8_8 
REMARK    2  A    between atoms: C8_8  and  C10_10 
REMARK    3  A    between atoms: C9_9  and  C11_11 
REMARK    4  A    between atoms: C10_10  and  C11_11 
ROOT
HETATM    1  C1  UNL     1     -31.574  18.569   1.609  1.00 20.00     0.000 A 
HETATM    2  C2  UNL     1     -30.882  18.460   0.402  1.00 20.00     0.001 A 
HETATM    3  C3  UNL     1     -32.965  18.473   1.626  1.00 20.00     0.001 A 
HETATM    4  C4  UNL     1     -31.583  18.257  -0.787  1.00 20.00     0.007 A 
HETATM    5  C5  UNL     1     -33.666  18.270   0.438  1.00 20.00     0.007 A 
HETATM    6  C6  UNL     1     -32.974  18.162  -0.769  1.00 20.00    -0.058 A 
ENDROOT
BRANCH   6   7
HETATM    7  C8  UNL     1     -33.727  17.944  -2.046  1.00 20.00     0.038 C 
BRANCH   7   8
HETATM    8  C10 UNL     1     -33.442  16.588  -2.699  1.00 20.00     0.005 C 
BRANCH   8   9
HETATM    9  C11 UNL     1     -34.633  15.628  -2.643  1.00 20.00    -0.000 C 
BRANCH   9  10
HETATM   10  C9  UNL     1     -34.571  14.603  -3.777  1.00 20.00    -0.005 C 
HETATM   11  C7  UNL     1     -33.170  14.499  -4.357  1.00 20.00     0.005 C 
ENDBRANCH   9  10
ENDBRANCH   8   9
ENDBRANCH   7   8
ENDBRANCH   6   7
TORSDOF 4
ENDMDL
