MODEL 1
REMARK VINA RESULT:      -5.1      0.000      0.000
REMARK  0 active torsions:
REMARK  status: ('A' for Active; 'I' for Inactive)
ROOT
HETATM    1  C1  UNL     1     -33.681   6.796   5.239  1.00 20.00     0.007 A 
HETATM    2  C2  UNL     1     -33.009   7.367   4.158  1.00 20.00     0.007 A 
HETATM    3  C3  UNL     1     -34.331   4.930   3.848  1.00 20.00     0.007 A 
HETATM    4  C4  UNL     1     -33.658   5.502   2.768  1.00 20.00     0.007 A 
HETATM    5  C5  UNL     1     -34.342   5.578   5.083  1.00 20.00    -0.062 A 
HETATM    6  C6  UNL     1     -32.997   6.720   2.923  1.00 20.00    -0.062 A 
HETATM    7  C7  UNL     1     -35.063   4.966   6.237  1.00 20.00     0.048 C 
HETATM    8  C8  UNL     1     -32.278   7.332   1.768  1.00 20.00     0.048 C 
ENDROOT
TORSDOF 0
ENDMDL
MODEL 2
REMARK VINA RESULT:      -5.1      0.009      3.764
REMARK  0 active torsions:
REMARK  status: ('A' for Active; 'I' for Inactive)
ROOT
HETATM    1  C1  UNL     1     -33.648   5.497   2.763  1.00 20.00     0.007 A 
HETATM    2  C2  UNL     1     -34.320   4.925   3.843  1.00 20.00     0.007 A 
HETATM    3  C3  UNL     1     -33.010   7.369   4.151  1.00 20.00     0.007 A 
HETATM    4  C4  UNL     1     -33.682   6.796   5.232  1.00 20.00     0.007 A 
HETATM    5  C5  UNL     1     -32.992   6.718   2.917  1.00 20.00    -0.062 A 
HETATM    6  C6  UNL     1     -34.338   5.575   5.077  1.00 20.00    -0.062 A 
HETATM    7  C7  UNL     1     -32.273   7.332   1.764  1.00 20.00     0.048 C 
HETATM    8  C8  UNL     1     -35.058   4.963   6.231  1.00 20.00     0.048 C 
ENDROOT
TORSDOF 0
ENDMDL
MODEL 3
REMARK VINA RESULT:      -4.4     11.634     12.152
REMARK  0 active torsions:
REMARK  status: ('A' for Active; 'I' for Inactive)
ROOT
HETATM    1  C1  UNL     1     -35.553  15.527  -2.678  1.00 20.00     0.007 A 
HETATM    2  C2  UNL     1     -34.772  16.497  -2.048  1.00 20.00     0.007 A 
HETATM    3  C3  UNL     1     -33.690  14.957  -4.108  1.00 20.00     0.007 A 
HETATM    4  C4  UNL     1     -32.910  15.927  -3.477  1.00 20.00     0.007 A 
HETATM    5  C5  UNL     1     -35.012  14.757  -3.707  1.00 20.00    -0.062 A 
HETATM    6  C6  UNL     1     -33.451  16.697  -2.448  1.00 20.00    -0.062 A 
HETATM    7  C7  UNL     1     -35.844  13.720  -4.381  1.00 20.00     0.048 C 
HETATM    8  C8  UNL     1     -32.618  17.735  -1.775  1.00 20.00     0.048 C 
ENDROOT
TORSDOF 0
ENDMDL
MODEL 4
REMARK VINA RESULT:      -4.4     11.633     12.248
REMARK  0 active torsions:
REMARK  status: ('A' for Active; 'I' for Inactive)
ROOT
HETATM    1  C1  UNL     1     -34.762  16.503  -2.032  1.00 20.00     0.007 A 
HETATM    2  C2  UNL     1     -35.540  15.533  -2.664  1.00 20.00     0.007 A 
HETATM    3  C3  UNL     1     -32.900  15.945  -3.468  1.00 20.00     0.007 A 
HETATM    4  C4  UNL     1     -33.680  14.975  -4.100  1.00 20.00     0.007 A 
HETATM    5  C5  UNL     1     -33.442  16.709  -2.434  1.00 20.00    -0.062 A 
HETATM    6  C6  UNL     1     -34.999  14.769  -3.698  1.00 20.00    -0.062 A 
HETATM    7  C7  UNL     1     -32.609  17.745  -1.759  1.00 20.00     0.048 C 
HETATM    8  C8  UNL     1     -35.832  13.732  -4.373  1.00 20.00     0.048 C 
ENDROOT
TORSDOF 0
ENDMDL
MODEL 5
REMARK VINA RESULT:      -4.4     11.627     12.208
REMARK  0 active torsions:
REMARK  status: ('A' for Active; 'I' for Inactive)
ROOT
HETATM    1  C1  UNL     1     -33.651  15.036  -4.070  1.00 20.00     0.007 A 
HETATM    2  C2  UNL     1     -32.873  16.008  -3.440  1.00 20.00     0.007 A 
HETATM    3  C3  UNL     1     -35.501  15.574  -2.613  1.00 20.00     0.007 A 
HETATM    4  C4  UNL     1     -34.723  16.546  -1.983  1.00 20.00     0.007 A 
HETATM    5  C5  UNL     1     -34.965  14.820  -3.656  1.00 20.00    -0.062 A 
HETATM    6  C6  UNL     1     -33.408  16.763  -2.397  1.00 20.00    -0.062 A 
HETATM    7  C7  UNL     1     -35.798  13.781  -4.328  1.00 20.00     0.048 C 
HETATM    8  C8  UNL     1     -32.575  17.801  -1.724  1.00 20.00     0.048 C 
ENDROOT
TORSDOF 0
ENDMDL
MODEL 6
REMARK VINA RESULT:      -4.4     11.647     12.296
REMARK  0 active torsions:
REMARK  status: ('A' for Active; 'I' for Inactive)
ROOT
HETATM    1  C1  UNL     1     -32.896  15.979  -3.433  1.00 20.00     0.007 A 
HETATM    2  C2  UNL     1     -33.678  15.014  -4.067  1.00 20.00     0.007 A 
HETATM    3  C3  UNL     1     -34.756  16.543  -1.998  1.00 20.00     0.007 A 
HETATM    4  C4  UNL     1     -35.538  15.577  -2.633  1.00 20.00     0.007 A 
HETATM    5  C5  UNL     1     -33.435  16.743  -2.398  1.00 20.00    -0.062 A 
HETATM    6  C6  UNL     1     -34.999  14.813  -3.667  1.00 20.00    -0.062 A 
HETATM    7  C7  UNL     1     -32.601  17.776  -1.720  1.00 20.00     0.048 C 
HETATM    8  C8  UNL     1     -35.834  13.781  -4.347  1.00 20.00     0.048 C 
ENDROOT
TORSDOF 0
ENDMDL
MODEL 7
REMARK VINA RESULT:      -4.4     11.667     12.393
REMARK  0 active torsions:
REMARK  status: ('A' for Active; 'I' for Inactive)
ROOT
HETATM    1  C1  UNL     1     -35.087  16.753  -1.327  1.00 20.00     0.007 A 
HETATM    2  C2  UNL     1     -35.163  15.742  -2.284  1.00 20.00     0.007 A 
HETATM    3  C3  UNL     1     -32.909  17.380  -2.165  1.00 20.00     0.007 A 
HETATM    4  C4  UNL     1     -32.986  16.368  -3.123  1.00 20.00     0.007 A 
HETATM    5  C5  UNL     1     -33.960  17.573  -1.268  1.00 20.00    -0.062 A 
HETATM    6  C6  UNL     1     -34.113  15.549  -3.182  1.00 20.00    -0.062 A 
HETATM    7  C7  UNL     1     -33.876  18.655  -0.246  1.00 20.00     0.048 C 
HETATM    8  C8  UNL     1     -34.196  14.466  -4.204  1.00 20.00     0.048 C 
ENDROOT
TORSDOF 0
ENDMDL
MODEL 8
REMARK VINA RESULT:      -4.4     11.674     12.502
REMARK  0 active torsions:
REMARK  status: ('A' for Active; 'I' for Inactive)
ROOT
HETATM    1  C1  UNL     1     -35.143  15.775  -2.258  1.00 20.00     0.007 A 
HETATM    2  C2  UNL     1     -35.046  16.792  -1.309  1.00 20.00     0.007 A 
HETATM    3  C3  UNL     1     -32.973  16.382  -3.131  1.00 20.00     0.007 A 
HETATM    4  C4  UNL     1     -32.877  17.400  -2.181  1.00 20.00     0.007 A 
HETATM    5  C5  UNL     1     -34.107  15.570  -3.168  1.00 20.00    -0.062 A 
HETATM    6  C6  UNL     1     -33.914  17.605  -1.270  1.00 20.00    -0.062 A 
HETATM    7  C7  UNL     1     -34.208  14.482  -4.184  1.00 20.00     0.048 C 
HETATM    8  C8  UNL     1     -33.812  18.694  -0.256  1.00 20.00     0.048 C 
ENDROOT
TORSDOF 0
ENDMDL
MODEL 9
REMARK VINA RESULT:      -4.4     11.674     12.485
REMARK  0 active torsions:
REMARK  status: ('A' for Active; 'I' for Inactive)
ROOT
HETATM    1  C1  UNL     1     -32.974  16.420  -3.088  1.00 20.00     0.007 A 
HETATM    2  C2  UNL     1     -32.878  17.438  -2.140  1.00 20.00     0.007 A 
HETATM    3  C3  UNL     1     -35.142  15.810  -2.214  1.00 20.00     0.007 A 
HETATM    4  C4  UNL     1     -35.045  16.829  -1.265  1.00 20.00     0.007 A 
HETATM    5  C5  UNL     1     -34.106  15.607  -3.125  1.00 20.00    -0.062 A 
HETATM    6  C6  UNL     1     -33.913  17.643  -1.228  1.00 20.00    -0.062 A 
HETATM    7  C7  UNL     1     -34.210  14.517  -4.138  1.00 20.00     0.048 C 
HETATM    8  C8  UNL     1     -33.809  18.732  -0.214  1.00 20.00     0.048 C 
ENDROOT
TORSDOF 0
ENDMDL
