MODEL 1
REMARK VINA RESULT:      -5.9      0.000      0.000
REMARK  2 active torsions:
REMARK  status: ('A' for Active; 'I' for Inactive)
REMARK    1  A    between atoms: C6_6  and  C10_10 
REMARK    2  A    between atoms: C9_9  and  C10_10 
ROOT
HETATM    1  C1  UNL     1     -34.747   5.864   6.468  1.00 20.00     0.000 A 
HETATM    2  C2  UNL     1     -35.130   4.877   5.559  1.00 20.00     0.001 A 
HETATM    3  C3  UNL     1     -33.933   6.917   6.051  1.00 20.00     0.001 A 
HETATM    4  C4  UNL     1     -34.699   4.944   4.234  1.00 20.00     0.007 A 
HETATM    5  C5  UNL     1     -33.501   6.984   4.727  1.00 20.00     0.007 A 
HETATM    6  C6  UNL     1     -33.884   5.997   3.818  1.00 20.00    -0.054 A 
ENDROOT
BRANCH   6   7
HETATM    7  C10 UNL     1     -33.414   6.070   2.376  1.00 20.00     0.014 C 
HETATM    8  C8  UNL     1     -32.950   4.691   1.891  1.00 20.00     0.015 C 
BRANCH   7   9
HETATM    9  C9  UNL     1     -32.299   7.110   2.149  1.00 20.00     0.004 C 
HETATM   10  C7  UNL     1     -32.679   8.186   1.139  1.00 20.00     0.006 C 
ENDBRANCH   7   9
ENDBRANCH   6   7
TORSDOF 2
ENDMDL
MODEL 2
REMARK VINA RESULT:      -5.9      0.007      1.528
REMARK  2 active torsions:
REMARK  status: ('A' for Active; 'I' for Inactive)
REMARK    1  A    between atoms: C6_6  and  C10_10 
REMARK    2  A    between atoms: C9_9  and  C10_10 
ROOT
HETATM    1  C1  UNL     1     -34.743   5.871   6.466  1.00 20.00     0.000 A 
HETATM    2  C2  UNL     1     -33.929   6.923   6.047  1.00 20.00     0.001 A 
HETATM    3  C3  UNL     1     -35.126   4.883   5.561  1.00 20.00     0.001 A 
HETATM    4  C4  UNL     1     -33.497   6.986   4.722  1.00 20.00     0.007 A 
HETATM    5  C5  UNL     1     -34.696   4.946   4.235  1.00 20.00     0.007 A 
HETATM    6  C6  UNL     1     -33.881   5.997   3.816  1.00 20.00    -0.054 A 
ENDROOT
BRANCH   6   7
HETATM    7  C10 UNL     1     -33.412   6.066   2.373  1.00 20.00     0.014 C 
HETATM    8  C8  UNL     1     -32.952   4.685   1.890  1.00 20.00     0.015 C 
BRANCH   7   9
HETATM    9  C9  UNL     1     -32.294   7.102   2.144  1.00 20.00     0.004 C 
HETATM   10  C7  UNL     1     -32.676   8.183   1.139  1.00 20.00     0.006 C 
ENDBRANCH   7   9
ENDBRANCH   6   7
TORSDOF 2
ENDMDL
MODEL 3
REMARK VINA RESULT:      -5.7      0.921      1.437
REMARK  2 active torsions:
REMARK  status: ('A' for Active; 'I' for Inactive)
REMARK    1  A    between atoms: C6_6  and  C10_10 
REMARK    2  A    between atoms: C9_9  and  C10_10 
ROOT
HETATM    1  C1  UNL     1     -34.939   5.294   5.797  1.00 20.00     0.000 A 
HETATM    2  C2  UNL     1     -34.917   4.648   4.561  1.00 20.00     0.001 A 
HETATM    3  C3  UNL     1     -34.202   6.463   5.986  1.00 20.00     0.001 A 
HETATM    4  C4  UNL     1     -34.158   5.171   3.514  1.00 20.00     0.007 A 
HETATM    5  C5  UNL     1     -33.442   6.986   4.940  1.00 20.00     0.007 A 
HETATM    6  C6  UNL     1     -33.420   6.340   3.703  1.00 20.00    -0.054 A 
ENDROOT
BRANCH   6   7
HETATM    7  C10 UNL     1     -32.593   6.909   2.564  1.00 20.00     0.014 C 
HETATM    8  C8  UNL     1     -31.471   7.802   3.107  1.00 20.00     0.015 C 
BRANCH   7   9
HETATM    9  C9  UNL     1     -33.431   7.688   1.531  1.00 20.00     0.004 C 
HETATM   10  C7  UNL     1     -32.625   8.737   0.774  1.00 20.00     0.006 C 
ENDBRANCH   7   9
ENDBRANCH   6   7
TORSDOF 2
ENDMDL
MODEL 4
REMARK VINA RESULT:      -5.7      0.916      2.031
REMARK  2 active torsions:
REMARK  status: ('A' for Active; 'I' for Inactive)
REMARK    1  A    between atoms: C6_6  and  C10_10 
REMARK    2  A    between atoms: C9_9  and  C10_10 
ROOT
HETATM    1  C1  UNL     1     -34.944   5.326   5.812  1.00 20.00     0.000 A 
HETATM    2  C2  UNL     1     -34.209   6.500   5.978  1.00 20.00     0.001 A 
HETATM    3  C3  UNL     1     -34.919   4.654   4.590  1.00 20.00     0.001 A 
HETATM    4  C4  UNL     1     -33.449   7.002   4.921  1.00 20.00     0.007 A 
HETATM    5  C5  UNL     1     -34.161   5.156   3.533  1.00 20.00     0.007 A 
HETATM    6  C6  UNL     1     -33.425   6.330   3.699  1.00 20.00    -0.054 A 
ENDROOT
BRANCH   6   7
HETATM    7  C10 UNL     1     -32.599   6.877   2.547  1.00 20.00     0.014 C 
HETATM    8  C8  UNL     1     -31.461   7.760   3.073  1.00 20.00     0.015 C 
BRANCH   7   9
HETATM    9  C9  UNL     1     -33.435   7.658   1.513  1.00 20.00     0.004 C 
HETATM   10  C7  UNL     1     -32.625   8.702   0.753  1.00 20.00     0.006 C 
ENDBRANCH   7   9
ENDBRANCH   6   7
TORSDOF 2
ENDMDL
MODEL 5
REMARK VINA RESULT:      -4.8     11.549     12.201
REMARK  2 active torsions:
REMARK  status: ('A' for Active; 'I' for Inactive)
REMARK    1  A    between atoms: C6_6  and  C10_10 
REMARK    2  A    between atoms: C9_9  and  C10_10 
ROOT
HETATM    1  C1  UNL     1     -33.829  17.952  -0.947  1.00 20.00     0.000 A 
HETATM    2  C2  UNL     1     -32.852  17.693  -1.908  1.00 20.00     0.001 A 
HETATM    3  C3  UNL     1     -34.977  17.161  -0.888  1.00 20.00     0.001 A 
HETATM    4  C4  UNL     1     -33.022  16.642  -2.809  1.00 20.00     0.007 A 
HETATM    5  C5  UNL     1     -35.147  16.111  -1.790  1.00 20.00     0.007 A 
HETATM    6  C6  UNL     1     -34.170  15.851  -2.751  1.00 20.00    -0.054 A 
ENDROOT
BRANCH   6   7
HETATM    7  C10 UNL     1     -34.355  14.707  -3.732  1.00 20.00     0.014 C 
HETATM    8  C8  UNL     1     -33.051  14.433  -4.492  1.00 20.00     0.015 C 
BRANCH   7   9
HETATM    9  C9  UNL     1     -35.506  14.942  -4.732  1.00 20.00     0.004 C 
HETATM   10  C7  UNL     1     -36.681  13.992  -4.525  1.00 20.00     0.006 C 
ENDBRANCH   7   9
ENDBRANCH   6   7
TORSDOF 2
ENDMDL
MODEL 6
REMARK VINA RESULT:      -4.8     11.555     12.152
REMARK  2 active torsions:
REMARK  status: ('A' for Active; 'I' for Inactive)
REMARK    1  A    between atoms: C6_6  and  C10_10 
REMARK    2  A    between atoms: C9_9  and  C10_10 
ROOT
HETATM    1  C1  UNL     1     -33.805  17.957  -0.917  1.00 20.00     0.000 A 
HETATM    2  C2  UNL     1     -34.960  17.177  -0.857  1.00 20.00     0.001 A 
HETATM    3  C3  UNL     1     -32.834  17.692  -1.882  1.00 20.00     0.001 A 
HETATM    4  C4  UNL     1     -35.143  16.133  -1.763  1.00 20.00     0.007 A 
HETATM    5  C5  UNL     1     -33.017  16.647  -2.788  1.00 20.00     0.007 A 
HETATM    6  C6  UNL     1     -34.172  15.868  -2.729  1.00 20.00    -0.054 A 
ENDROOT
BRANCH   6   7
HETATM    7  C10 UNL     1     -34.372  14.730  -3.715  1.00 20.00     0.014 C 
HETATM    8  C8  UNL     1     -33.073  14.446  -4.479  1.00 20.00     0.015 C 
BRANCH   7   9
HETATM    9  C9  UNL     1     -35.523  14.980  -4.709  1.00 20.00     0.004 C 
HETATM   10  C7  UNL     1     -36.698  14.028  -4.516  1.00 20.00     0.006 C 
ENDBRANCH   7   9
ENDBRANCH   6   7
TORSDOF 2
ENDMDL
MODEL 7
REMARK VINA RESULT:      -4.7     11.549     12.689
REMARK  2 active torsions:
REMARK  status: ('A' for Active; 'I' for Inactive)
REMARK    1  A    between atoms: C6_6  and  C10_10 
REMARK    2  A    between atoms: C9_9  and  C10_10 
ROOT
HETATM    1  C1  UNL     1     -34.442  14.514  -4.112  1.00 20.00     0.000 A 
HETATM    2  C2  UNL     1     -33.190  15.128  -4.153  1.00 20.00     0.001 A 
HETATM    3  C3  UNL     1     -35.384  14.915  -3.164  1.00 20.00     0.001 A 
HETATM    4  C4  UNL     1     -32.881  16.143  -3.248  1.00 20.00     0.007 A 
HETATM    5  C5  UNL     1     -35.074  15.929  -2.258  1.00 20.00     0.007 A 
HETATM    6  C6  UNL     1     -33.823  16.544  -2.300  1.00 20.00    -0.054 A 
ENDROOT
BRANCH   6   7
HETATM    7  C10 UNL     1     -33.486  17.648  -1.314  1.00 20.00     0.014 C 
HETATM    8  C8  UNL     1     -34.564  18.738  -1.336  1.00 20.00     0.015 C 
BRANCH   7   9
HETATM    9  C9  UNL     1     -32.098  18.277  -1.552  1.00 20.00     0.004 C 
HETATM   10  C7  UNL     1     -31.260  18.378  -0.283  1.00 20.00     0.006 C 
ENDBRANCH   7   9
ENDBRANCH   6   7
TORSDOF 2
ENDMDL
MODEL 8
REMARK VINA RESULT:      -4.6     11.562     12.648
REMARK  2 active torsions:
REMARK  status: ('A' for Active; 'I' for Inactive)
REMARK    1  A    between atoms: C6_6  and  C10_10 
REMARK    2  A    between atoms: C9_9  and  C10_10 
ROOT
HETATM    1  C1  UNL     1     -34.437  14.479  -4.149  1.00 20.00     0.000 A 
HETATM    2  C2  UNL     1     -35.393  14.891  -3.221  1.00 20.00     0.001 A 
HETATM    3  C3  UNL     1     -33.181  15.085  -4.172  1.00 20.00     0.001 A 
HETATM    4  C4  UNL     1     -35.093  15.908  -2.315  1.00 20.00     0.007 A 
HETATM    5  C5  UNL     1     -32.881  16.103  -3.267  1.00 20.00     0.007 A 
HETATM    6  C6  UNL     1     -33.837  16.514  -2.338  1.00 20.00    -0.054 A 
ENDROOT
BRANCH   6   7
HETATM    7  C10 UNL     1     -33.511  17.622  -1.352  1.00 20.00     0.014 C 
HETATM    8  C8  UNL     1     -34.638  18.661  -1.317  1.00 20.00     0.015 C 
BRANCH   7   9
HETATM    9  C9  UNL     1     -32.164  18.317  -1.638  1.00 20.00     0.004 C 
HETATM   10  C7  UNL     1     -31.256  18.390  -0.416  1.00 20.00     0.006 C 
ENDBRANCH   7   9
ENDBRANCH   6   7
TORSDOF 2
ENDMDL
MODEL 9
REMARK VINA RESULT:      -4.5     11.513     12.526
REMARK  2 active torsions:
REMARK  status: ('A' for Active; 'I' for Inactive)
REMARK    1  A    between atoms: C6_6  and  C10_10 
REMARK    2  A    between atoms: C9_9  and  C10_10 
ROOT
HETATM    1  C1  UNL     1     -34.067  14.641  -4.082  1.00 20.00     0.000 A 
HETATM    2  C2  UNL     1     -32.960  15.463  -3.872  1.00 20.00     0.001 A 
HETATM    3  C3  UNL     1     -35.227  14.829  -3.330  1.00 20.00     0.001 A 
HETATM    4  C4  UNL     1     -33.013  16.473  -2.912  1.00 20.00     0.007 A 
HETATM    5  C5  UNL     1     -35.280  15.838  -2.370  1.00 20.00     0.007 A 
HETATM    6  C6  UNL     1     -34.173  16.661  -2.161  1.00 20.00    -0.054 A 
ENDROOT
BRANCH   6   7
HETATM    7  C10 UNL     1     -34.231  17.761  -1.115  1.00 20.00     0.014 C 
HETATM    8  C8  UNL     1     -32.817  18.159  -0.673  1.00 20.00     0.015 C 
BRANCH   7   9
HETATM    9  C9  UNL     1     -35.080  17.387   0.117  1.00 20.00     0.004 C 
HETATM   10  C7  UNL     1     -34.530  17.956   1.419  1.00 20.00     0.006 C 
ENDBRANCH   7   9
ENDBRANCH   6   7
TORSDOF 2
ENDMDL
