MODEL 1
REMARK VINA RESULT:      -5.3      0.000      0.000
REMARK  0 active torsions:
REMARK  status: ('A' for Active; 'I' for Inactive)
ROOT
HETATM    1  C1  UNL     1     -34.836   5.310   5.910  1.00 20.00     0.000 A 
HETATM    2  C2  UNL     1     -34.127   6.497   6.093  1.00 20.00     0.001 A 
HETATM    3  C3  UNL     1     -34.877   4.708   4.652  1.00 20.00     0.001 A 
HETATM    4  C4  UNL     1     -33.457   7.082   5.019  1.00 20.00     0.018 A 
HETATM    5  C5  UNL     1     -34.207   5.294   3.577  1.00 20.00     0.018 A 
HETATM    6  C6  UNL     1     -33.497   6.481   3.761  1.00 20.00     0.006 A 
HETATM    7  I7  UNL     1     -32.499   7.352   2.160  1.00 20.00    -0.045 I 
ENDROOT
TORSDOF 0
ENDMDL
MODEL 2
REMARK VINA RESULT:      -5.3      0.013      1.827
REMARK  0 active torsions:
REMARK  status: ('A' for Active; 'I' for Inactive)
ROOT
HETATM    1  C1  UNL     1     -34.848   5.309   5.898  1.00 20.00     0.000 A 
HETATM    2  C2  UNL     1     -34.880   4.707   4.639  1.00 20.00     0.001 A 
HETATM    3  C3  UNL     1     -34.143   6.498   6.086  1.00 20.00     0.001 A 
HETATM    4  C4  UNL     1     -34.207   5.296   3.569  1.00 20.00     0.018 A 
HETATM    5  C5  UNL     1     -33.470   7.086   5.015  1.00 20.00     0.018 A 
HETATM    6  C6  UNL     1     -33.502   6.485   3.756  1.00 20.00     0.006 A 
HETATM    7  I7  UNL     1     -32.499   7.361   2.161  1.00 20.00    -0.045 I 
ENDROOT
TORSDOF 0
ENDMDL
MODEL 3
REMARK VINA RESULT:      -3.8     12.078     12.500
REMARK  0 active torsions:
REMARK  status: ('A' for Active; 'I' for Inactive)
ROOT
HETATM    1  C1  UNL     1     -34.743  14.411  -3.930  1.00 20.00     0.000 A 
HETATM    2  C2  UNL     1     -35.471  15.078  -2.944  1.00 20.00     0.001 A 
HETATM    3  C3  UNL     1     -33.443  14.816  -4.231  1.00 20.00     0.001 A 
HETATM    4  C4  UNL     1     -34.898  16.149  -2.260  1.00 20.00     0.018 A 
HETATM    5  C5  UNL     1     -32.870  15.888  -3.547  1.00 20.00     0.018 A 
HETATM    6  C6  UNL     1     -33.598  16.555  -2.561  1.00 20.00     0.006 A 
HETATM    7  I7  UNL     1     -32.745  18.151  -1.541  1.00 20.00    -0.045 I 
ENDROOT
TORSDOF 0
ENDMDL
MODEL 4
REMARK VINA RESULT:      -3.8     12.070     12.519
REMARK  0 active torsions:
REMARK  status: ('A' for Active; 'I' for Inactive)
ROOT
HETATM    1  C1  UNL     1     -34.737  14.410  -3.918  1.00 20.00     0.000 A 
HETATM    2  C2  UNL     1     -33.441  14.820  -4.230  1.00 20.00     0.001 A 
HETATM    3  C3  UNL     1     -35.462  15.076  -2.929  1.00 20.00     0.001 A 
HETATM    4  C4  UNL     1     -32.868  15.896  -3.551  1.00 20.00     0.018 A 
HETATM    5  C5  UNL     1     -34.888  16.152  -2.250  1.00 20.00     0.018 A 
HETATM    6  C6  UNL     1     -33.591  16.562  -2.561  1.00 20.00     0.006 A 
HETATM    7  I7  UNL     1     -32.739  18.164  -1.551  1.00 20.00    -0.045 I 
ENDROOT
TORSDOF 0
ENDMDL
MODEL 5
REMARK VINA RESULT:      -3.7     12.050     12.585
REMARK  0 active torsions:
REMARK  status: ('A' for Active; 'I' for Inactive)
ROOT
HETATM    1  C1  UNL     1     -34.120  17.806  -0.686  1.00 20.00     0.000 A 
HETATM    2  C2  UNL     1     -33.001  17.844  -1.519  1.00 20.00     0.001 A 
HETATM    3  C3  UNL     1     -35.149  16.900  -0.941  1.00 20.00     0.001 A 
HETATM    4  C4  UNL     1     -32.911  16.975  -2.606  1.00 20.00     0.018 A 
HETATM    5  C5  UNL     1     -35.059  16.031  -2.029  1.00 20.00     0.018 A 
HETATM    6  C6  UNL     1     -33.940  16.069  -2.862  1.00 20.00     0.006 A 
HETATM    7  I7  UNL     1     -33.806  14.774  -4.481  1.00 20.00    -0.045 I 
ENDROOT
TORSDOF 0
ENDMDL
MODEL 6
REMARK VINA RESULT:      -3.7     12.070     12.645
REMARK  0 active torsions:
REMARK  status: ('A' for Active; 'I' for Inactive)
ROOT
HETATM    1  C1  UNL     1     -34.051  17.826  -0.683  1.00 20.00     0.000 A 
HETATM    2  C2  UNL     1     -35.114  16.954  -0.918  1.00 20.00     0.001 A 
HETATM    3  C3  UNL     1     -32.943  17.821  -1.532  1.00 20.00     0.001 A 
HETATM    4  C4  UNL     1     -35.071  16.077  -2.001  1.00 20.00     0.018 A 
HETATM    5  C5  UNL     1     -32.900  16.942  -2.615  1.00 20.00     0.018 A 
HETATM    6  C6  UNL     1     -33.963  16.071  -2.850  1.00 20.00     0.006 A 
HETATM    7  I7  UNL     1     -33.898  14.764  -4.464  1.00 20.00    -0.045 I 
ENDROOT
TORSDOF 0
ENDMDL
MODEL 7
REMARK VINA RESULT:      -3.7     12.177     12.695
REMARK  0 active torsions:
REMARK  status: ('A' for Active; 'I' for Inactive)
ROOT
HETATM    1  C1  UNL     1     -34.071  15.303  -3.612  1.00 20.00     0.000 A 
HETATM    2  C2  UNL     1     -32.980  16.154  -3.434  1.00 20.00     0.001 A 
HETATM    3  C3  UNL     1     -35.171  15.390  -2.758  1.00 20.00     0.001 A 
HETATM    4  C4  UNL     1     -32.989  17.092  -2.402  1.00 20.00     0.018 A 
HETATM    5  C5  UNL     1     -35.179  16.329  -1.726  1.00 20.00     0.018 A 
HETATM    6  C6  UNL     1     -34.088  17.180  -1.547  1.00 20.00     0.006 A 
HETATM    7  I7  UNL     1     -34.101  18.577  -0.010  1.00 20.00    -0.045 I 
ENDROOT
TORSDOF 0
ENDMDL
MODEL 8
REMARK VINA RESULT:      -3.7     12.225     12.810
REMARK  0 active torsions:
REMARK  status: ('A' for Active; 'I' for Inactive)
ROOT
HETATM    1  C1  UNL     1     -34.088  15.495  -3.380  1.00 20.00     0.000 A 
HETATM    2  C2  UNL     1     -35.161  15.623  -2.498  1.00 20.00     0.001 A 
HETATM    3  C3  UNL     1     -32.975  16.327  -3.252  1.00 20.00     0.001 A 
HETATM    4  C4  UNL     1     -35.121  16.583  -1.487  1.00 20.00     0.018 A 
HETATM    5  C5  UNL     1     -32.936  17.287  -2.240  1.00 20.00     0.018 A 
HETATM    6  C6  UNL     1     -34.009  17.415  -1.358  1.00 20.00     0.006 A 
HETATM    7  I7  UNL     1     -33.950  18.845   0.148  1.00 20.00    -0.045 I 
ENDROOT
TORSDOF 0
ENDMDL
MODEL 9
REMARK VINA RESULT:      -3.6      1.096      1.479
REMARK  0 active torsions:
REMARK  status: ('A' for Active; 'I' for Inactive)
ROOT
HETATM    1  C1  UNL     1     -34.443   6.394   6.318  1.00 20.00     0.000 A 
HETATM    2  C2  UNL     1     -33.637   7.158   5.474  1.00 20.00     0.001 A 
HETATM    3  C3  UNL     1     -34.952   5.171   5.880  1.00 20.00     0.001 A 
HETATM    4  C4  UNL     1     -33.341   6.699   4.191  1.00 20.00     0.018 A 
HETATM    5  C5  UNL     1     -34.656   4.713   4.596  1.00 20.00     0.018 A 
HETATM    6  C6  UNL     1     -33.851   5.477   3.751  1.00 20.00     0.006 A 
HETATM    7  I7  UNL     1     -33.409   4.794   1.839  1.00 20.00    -0.045 I 
ENDROOT
TORSDOF 0
ENDMDL
