MODEL 1
REMARK VINA RESULT:      -6.1      0.000      0.000
REMARK  0 active torsions:
REMARK  status: ('A' for Active; 'I' for Inactive)
ROOT
HETATM    1  C1  UNL     1     -32.786   5.987   1.651  1.00 20.00     0.001 A 
HETATM    2  C2  UNL     1     -32.266   7.154   2.206  1.00 20.00     0.001 A 
HETATM    3  C3  UNL     1     -35.048   5.002   5.844  1.00 20.00     0.001 A 
HETATM    4  C4  UNL     1     -34.528   6.169   6.399  1.00 20.00     0.001 A 
HETATM    5  C5  UNL     1     -33.608   5.158   2.414  1.00 20.00     0.012 A 
HETATM    6  C6  UNL     1     -32.567   7.494   3.524  1.00 20.00     0.012 A 
HETATM    7  C7  UNL     1     -34.747   4.662   4.525  1.00 20.00     0.012 A 
HETATM    8  C8  UNL     1     -33.706   6.998   5.637  1.00 20.00     0.012 A 
HETATM    9  C9  UNL     1     -33.922   5.486   3.743  1.00 20.00    -0.026 A 
HETATM   10  C10 UNL     1     -33.393   6.671   4.307  1.00 20.00    -0.026 A 
ENDROOT
TORSDOF 0
ENDMDL
MODEL 2
REMARK VINA RESULT:      -6.1      0.035      4.019
REMARK  0 active torsions:
REMARK  status: ('A' for Active; 'I' for Inactive)
ROOT
HETATM    1  C1  UNL     1     -34.538   6.139   6.386  1.00 20.00     0.001 A 
HETATM    2  C2  UNL     1     -35.052   4.980   5.812  1.00 20.00     0.001 A 
HETATM    3  C3  UNL     1     -32.254   7.194   2.222  1.00 20.00     0.001 A 
HETATM    4  C4  UNL     1     -32.767   6.034   1.647  1.00 20.00     0.001 A 
HETATM    5  C5  UNL     1     -33.714   6.982   5.641  1.00 20.00     0.012 A 
HETATM    6  C6  UNL     1     -34.742   4.660   4.490  1.00 20.00     0.012 A 
HETATM    7  C7  UNL     1     -32.564   7.513   3.545  1.00 20.00     0.012 A 
HETATM    8  C8  UNL     1     -33.591   5.191   2.392  1.00 20.00     0.012 A 
HETATM    9  C9  UNL     1     -33.392   6.676   4.309  1.00 20.00    -0.026 A 
HETATM   10  C10 UNL     1     -33.914   5.497   3.725  1.00 20.00    -0.026 A 
ENDROOT
TORSDOF 0
ENDMDL
MODEL 3
REMARK VINA RESULT:      -6.1      0.062      3.445
REMARK  0 active torsions:
REMARK  status: ('A' for Active; 'I' for Inactive)
ROOT
HETATM    1  C1  UNL     1     -35.057   4.962   5.797  1.00 20.00     0.001 A 
HETATM    2  C2  UNL     1     -34.552   6.116   6.389  1.00 20.00     0.001 A 
HETATM    3  C3  UNL     1     -32.751   6.072   1.659  1.00 20.00     0.001 A 
HETATM    4  C4  UNL     1     -32.246   7.227   2.251  1.00 20.00     0.001 A 
HETATM    5  C5  UNL     1     -34.738   4.658   4.473  1.00 20.00     0.012 A 
HETATM    6  C6  UNL     1     -33.726   6.970   5.659  1.00 20.00     0.012 A 
HETATM    7  C7  UNL     1     -33.577   5.217   2.390  1.00 20.00     0.012 A 
HETATM    8  C8  UNL     1     -32.565   7.530   3.574  1.00 20.00     0.012 A 
HETATM    9  C9  UNL     1     -33.908   5.508   3.723  1.00 20.00    -0.026 A 
HETATM   10  C10 UNL     1     -33.395   6.681   4.325  1.00 20.00    -0.026 A 
ENDROOT
TORSDOF 0
ENDMDL
MODEL 4
REMARK VINA RESULT:      -6.1      0.037      2.071
REMARK  0 active torsions:
REMARK  status: ('A' for Active; 'I' for Inactive)
ROOT
HETATM    1  C1  UNL     1     -32.273   7.130   2.159  1.00 20.00     0.001 A 
HETATM    2  C2  UNL     1     -32.795   5.957   1.621  1.00 20.00     0.001 A 
HETATM    3  C3  UNL     1     -34.509   6.192   6.377  1.00 20.00     0.001 A 
HETATM    4  C4  UNL     1     -35.032   5.020   5.839  1.00 20.00     0.001 A 
HETATM    5  C5  UNL     1     -32.566   7.485   3.476  1.00 20.00     0.012 A 
HETATM    6  C6  UNL     1     -33.612   5.136   2.398  1.00 20.00     0.012 A 
HETATM    7  C7  UNL     1     -33.692   7.014   5.599  1.00 20.00     0.012 A 
HETATM    8  C8  UNL     1     -34.739   4.664   4.522  1.00 20.00     0.012 A 
HETATM    9  C9  UNL     1     -33.387   6.671   4.272  1.00 20.00    -0.026 A 
HETATM   10  C10 UNL     1     -33.918   5.479   3.725  1.00 20.00    -0.026 A 
ENDROOT
TORSDOF 0
ENDMDL
MODEL 5
REMARK VINA RESULT:      -5.2     11.622     12.462
REMARK  0 active torsions:
REMARK  status: ('A' for Active; 'I' for Inactive)
ROOT
HETATM    1  C1  UNL     1     -34.619  17.769  -0.531  1.00 20.00     0.001 A 
HETATM    2  C2  UNL     1     -33.333  18.103  -0.947  1.00 20.00     0.001 A 
HETATM    3  C3  UNL     1     -34.854  14.359  -3.993  1.00 20.00     0.001 A 
HETATM    4  C4  UNL     1     -33.569  14.694  -4.410  1.00 20.00     0.001 A 
HETATM    5  C5  UNL     1     -35.322  16.756  -1.181  1.00 20.00     0.012 A 
HETATM    6  C6  UNL     1     -32.747  17.425  -2.014  1.00 20.00     0.012 A 
HETATM    7  C7  UNL     1     -35.441  15.039  -2.924  1.00 20.00     0.012 A 
HETATM    8  C8  UNL     1     -32.866  15.707  -3.759  1.00 20.00     0.012 A 
HETATM    9  C9  UNL     1     -34.747  16.061  -2.258  1.00 20.00    -0.026 A 
HETATM   10  C10 UNL     1     -33.440  16.401  -2.681  1.00 20.00    -0.026 A 
ENDROOT
TORSDOF 0
ENDMDL
MODEL 6
REMARK VINA RESULT:      -5.2     11.642     12.535
REMARK  0 active torsions:
REMARK  status: ('A' for Active; 'I' for Inactive)
ROOT
HETATM    1  C1  UNL     1     -33.304  18.079  -0.934  1.00 20.00     0.001 A 
HETATM    2  C2  UNL     1     -34.591  17.752  -0.514  1.00 20.00     0.001 A 
HETATM    3  C3  UNL     1     -33.587  14.708  -4.431  1.00 20.00     0.001 A 
HETATM    4  C4  UNL     1     -34.873  14.380  -4.011  1.00 20.00     0.001 A 
HETATM    5  C5  UNL     1     -32.729  17.407  -2.012  1.00 20.00     0.012 A 
HETATM    6  C6  UNL     1     -35.306  16.751  -1.172  1.00 20.00     0.012 A 
HETATM    7  C7  UNL     1     -32.871  15.709  -3.773  1.00 20.00     0.012 A 
HETATM    8  C8  UNL     1     -35.448  15.052  -2.932  1.00 20.00     0.012 A 
HETATM    9  C9  UNL     1     -33.435  16.396  -2.686  1.00 20.00    -0.026 A 
HETATM   10  C10 UNL     1     -34.742  16.063  -2.259  1.00 20.00    -0.026 A 
ENDROOT
TORSDOF 0
ENDMDL
MODEL 7
REMARK VINA RESULT:      -5.2     11.634     12.246
REMARK  0 active torsions:
REMARK  status: ('A' for Active; 'I' for Inactive)
ROOT
HETATM    1  C1  UNL     1     -34.893  14.382  -3.976  1.00 20.00     0.001 A 
HETATM    2  C2  UNL     1     -33.605  14.701  -4.396  1.00 20.00     0.001 A 
HETATM    3  C3  UNL     1     -34.604  17.781  -0.507  1.00 20.00     0.001 A 
HETATM    4  C4  UNL     1     -33.315  18.100  -0.926  1.00 20.00     0.001 A 
HETATM    5  C5  UNL     1     -35.468  15.066  -2.904  1.00 20.00     0.012 A 
HETATM    6  C6  UNL     1     -32.887  15.704  -3.745  1.00 20.00     0.012 A 
HETATM    7  C7  UNL     1     -35.323  16.777  -1.157  1.00 20.00     0.012 A 
HETATM    8  C8  UNL     1     -32.741  17.416  -1.997  1.00 20.00     0.012 A 
HETATM    9  C9  UNL     1     -34.759  16.079  -2.238  1.00 20.00    -0.026 A 
HETATM   10  C10 UNL     1     -33.450  16.403  -2.665  1.00 20.00    -0.026 A 
ENDROOT
TORSDOF 0
ENDMDL
MODEL 8
REMARK VINA RESULT:      -5.2     11.624     12.321
REMARK  0 active torsions:
REMARK  status: ('A' for Active; 'I' for Inactive)
ROOT
HETATM    1  C1  UNL     1     -33.608  14.701  -4.419  1.00 20.00     0.001 A 
HETATM    2  C2  UNL     1     -34.889  14.375  -3.983  1.00 20.00     0.001 A 
HETATM    3  C3  UNL     1     -33.286  18.094  -0.947  1.00 20.00     0.001 A 
HETATM    4  C4  UNL     1     -34.567  17.769  -0.510  1.00 20.00     0.001 A 
HETATM    5  C5  UNL     1     -32.885  15.706  -3.776  1.00 20.00     0.012 A 
HETATM    6  C6  UNL     1     -35.451  15.054  -2.902  1.00 20.00     0.012 A 
HETATM    7  C7  UNL     1     -32.723  17.415  -2.028  1.00 20.00     0.012 A 
HETATM    8  C8  UNL     1     -35.290  16.764  -1.153  1.00 20.00     0.012 A 
HETATM    9  C9  UNL     1     -33.436  16.400  -2.686  1.00 20.00    -0.026 A 
HETATM   10  C10 UNL     1     -34.739  16.069  -2.243  1.00 20.00    -0.026 A 
ENDROOT
TORSDOF 0
ENDMDL
MODEL 9
REMARK VINA RESULT:      -4.8     16.456     17.065
REMARK  0 active torsions:
REMARK  status: ('A' for Active; 'I' for Inactive)
ROOT
HETATM    1  C1  UNL     1     -25.637  18.664  12.303  1.00 20.00     0.001 A 
HETATM    2  C2  UNL     1     -26.331  19.263  11.255  1.00 20.00     0.001 A 
HETATM    3  C3  UNL     1     -22.089  17.393   9.226  1.00 20.00     0.001 A 
HETATM    4  C4  UNL     1     -22.783  17.991   8.178  1.00 20.00     0.001 A 
HETATM    5  C5  UNL     1     -24.408  18.049  12.064  1.00 20.00     0.012 A 
HETATM    6  C6  UNL     1     -25.799  19.247   9.966  1.00 20.00     0.012 A 
HETATM    7  C7  UNL     1     -22.621  17.408  10.516  1.00 20.00     0.012 A 
HETATM    8  C8  UNL     1     -24.012  18.606   8.416  1.00 20.00     0.012 A 
HETATM    9  C9  UNL     1     -23.857  18.024  10.773  1.00 20.00    -0.026 A 
HETATM   10  C10 UNL     1     -24.563  18.632   9.708  1.00 20.00    -0.026 A 
ENDROOT
TORSDOF 0
ENDMDL
