MODEL 1
REMARK VINA RESULT:      -6.1      0.000      0.000
REMARK  0 active torsions:
REMARK  status: ('A' for Active; 'I' for Inactive)
ROOT
HETATM    1  C1  UNL     1     -34.856   5.322   5.770  1.00 20.00     0.000 A 
HETATM    2  C2  UNL     1     -34.827   4.703   4.520  1.00 20.00     0.001 A 
HETATM    3  C3  UNL     1     -34.151   6.509   5.977  1.00 20.00     0.001 A 
HETATM    4  C4  UNL     1     -34.093   5.270   3.478  1.00 20.00     0.007 A 
HETATM    5  C5  UNL     1     -33.418   7.075   4.935  1.00 20.00     0.007 A 
HETATM    6  C6  UNL     1     -33.389   6.456   3.685  1.00 20.00    -0.062 A 
HETATM    7  C7  UNL     1     -32.604   7.062   2.571  1.00 20.00     0.048 C 
ENDROOT
TORSDOF 0
ENDMDL
MODEL 2
REMARK VINA RESULT:      -6.1      0.012      1.826
REMARK  0 active torsions:
REMARK  status: ('A' for Active; 'I' for Inactive)
ROOT
HETATM    1  C1  UNL     1     -34.858   5.318   5.777  1.00 20.00     0.000 A 
HETATM    2  C2  UNL     1     -34.154   6.504   5.987  1.00 20.00     0.001 A 
HETATM    3  C3  UNL     1     -34.831   4.704   4.524  1.00 20.00     0.001 A 
HETATM    4  C4  UNL     1     -33.424   7.076   4.945  1.00 20.00     0.007 A 
HETATM    5  C5  UNL     1     -34.100   5.276   3.483  1.00 20.00     0.007 A 
HETATM    6  C6  UNL     1     -33.397   6.462   3.694  1.00 20.00    -0.062 A 
HETATM    7  C7  UNL     1     -32.616   7.073   2.578  1.00 20.00     0.048 C 
ENDROOT
TORSDOF 0
ENDMDL
MODEL 3
REMARK VINA RESULT:      -5.5      0.715      2.027
REMARK  0 active torsions:
REMARK  status: ('A' for Active; 'I' for Inactive)
ROOT
HETATM    1  C1  UNL     1     -34.436   6.271   6.133  1.00 20.00     0.000 A 
HETATM    2  C2  UNL     1     -33.653   7.073   5.303  1.00 20.00     0.001 A 
HETATM    3  C3  UNL     1     -34.905   5.040   5.673  1.00 20.00     0.001 A 
HETATM    4  C4  UNL     1     -33.340   6.645   4.013  1.00 20.00     0.007 A 
HETATM    5  C5  UNL     1     -34.591   4.612   4.384  1.00 20.00     0.007 A 
HETATM    6  C6  UNL     1     -33.808   5.415   3.554  1.00 20.00    -0.062 A 
HETATM    7  C7  UNL     1     -33.473   4.955   2.174  1.00 20.00     0.048 C 
ENDROOT
TORSDOF 0
ENDMDL
MODEL 4
REMARK VINA RESULT:      -5.5      0.706      1.355
REMARK  0 active torsions:
REMARK  status: ('A' for Active; 'I' for Inactive)
ROOT
HETATM    1  C1  UNL     1     -34.436   6.275   6.111  1.00 20.00     0.000 A 
HETATM    2  C2  UNL     1     -34.914   5.048   5.648  1.00 20.00     0.001 A 
HETATM    3  C3  UNL     1     -33.639   7.068   5.285  1.00 20.00     0.001 A 
HETATM    4  C4  UNL     1     -34.593   4.615   4.362  1.00 20.00     0.007 A 
HETATM    5  C5  UNL     1     -33.320   6.635   3.999  1.00 20.00     0.007 A 
HETATM    6  C6  UNL     1     -33.797   5.409   3.537  1.00 20.00    -0.062 A 
HETATM    7  C7  UNL     1     -33.454   4.946   2.160  1.00 20.00     0.048 C 
ENDROOT
TORSDOF 0
ENDMDL
MODEL 5
REMARK VINA RESULT:      -5.2      0.888      2.777
REMARK  0 active torsions:
REMARK  status: ('A' for Active; 'I' for Inactive)
ROOT
HETATM    1  C1  UNL     1     -32.947   5.914   2.379  1.00 20.00     0.000 A 
HETATM    2  C2  UNL     1     -33.610   4.717   2.648  1.00 20.00     0.001 A 
HETATM    3  C3  UNL     1     -32.964   6.947   3.316  1.00 20.00     0.001 A 
HETATM    4  C4  UNL     1     -34.291   4.553   3.855  1.00 20.00     0.007 A 
HETATM    5  C5  UNL     1     -33.644   6.783   4.523  1.00 20.00     0.007 A 
HETATM    6  C6  UNL     1     -34.308   5.585   4.792  1.00 20.00    -0.062 A 
HETATM    7  C7  UNL     1     -35.036   5.411   6.083  1.00 20.00     0.048 C 
ENDROOT
TORSDOF 0
ENDMDL
MODEL 6
REMARK VINA RESULT:      -5.2      0.888      3.288
REMARK  0 active torsions:
REMARK  status: ('A' for Active; 'I' for Inactive)
ROOT
HETATM    1  C1  UNL     1     -32.936   5.919   2.377  1.00 20.00     0.000 A 
HETATM    2  C2  UNL     1     -32.953   6.954   3.313  1.00 20.00     0.001 A 
HETATM    3  C3  UNL     1     -33.606   4.725   2.646  1.00 20.00     0.001 A 
HETATM    4  C4  UNL     1     -33.637   6.794   4.517  1.00 20.00     0.007 A 
HETATM    5  C5  UNL     1     -34.291   4.566   3.851  1.00 20.00     0.007 A 
HETATM    6  C6  UNL     1     -34.307   5.601   4.786  1.00 20.00    -0.062 A 
HETATM    7  C7  UNL     1     -35.040   5.429   6.074  1.00 20.00     0.048 C 
ENDROOT
TORSDOF 0
ENDMDL
MODEL 7
REMARK VINA RESULT:      -4.1     11.839     12.546
REMARK  0 active torsions:
REMARK  status: ('A' for Active; 'I' for Inactive)
ROOT
HETATM    1  C1  UNL     1     -33.666  17.681  -1.427  1.00 20.00     0.000 A 
HETATM    2  C2  UNL     1     -34.872  17.006  -1.240  1.00 20.00     0.001 A 
HETATM    3  C3  UNL     1     -32.785  17.270  -2.428  1.00 20.00     0.001 A 
HETATM    4  C4  UNL     1     -35.197  15.920  -2.053  1.00 20.00     0.007 A 
HETATM    5  C5  UNL     1     -33.111  16.185  -3.241  1.00 20.00     0.007 A 
HETATM    6  C6  UNL     1     -34.317  15.510  -3.054  1.00 20.00    -0.062 A 
HETATM    7  C7  UNL     1     -34.664  14.348  -3.924  1.00 20.00     0.048 C 
ENDROOT
TORSDOF 0
ENDMDL
MODEL 8
REMARK VINA RESULT:      -4.1     11.853     12.561
REMARK  0 active torsions:
REMARK  status: ('A' for Active; 'I' for Inactive)
ROOT
HETATM    1  C1  UNL     1     -33.663  17.688  -1.445  1.00 20.00     0.000 A 
HETATM    2  C2  UNL     1     -32.779  17.270  -2.440  1.00 20.00     0.001 A 
HETATM    3  C3  UNL     1     -34.873  17.018  -1.260  1.00 20.00     0.001 A 
HETATM    4  C4  UNL     1     -33.106  16.183  -3.251  1.00 20.00     0.007 A 
HETATM    5  C5  UNL     1     -35.199  15.931  -2.071  1.00 20.00     0.007 A 
HETATM    6  C6  UNL     1     -34.315  15.514  -3.066  1.00 20.00    -0.062 A 
HETATM    7  C7  UNL     1     -34.665  14.351  -3.933  1.00 20.00     0.048 C 
ENDROOT
TORSDOF 0
ENDMDL
MODEL 9
REMARK VINA RESULT:      -4.0     11.978     12.413
REMARK  0 active torsions:
REMARK  status: ('A' for Active; 'I' for Inactive)
ROOT
HETATM    1  C1  UNL     1     -33.310  16.372  -2.749  1.00 20.00     0.000 A 
HETATM    2  C2  UNL     1     -34.629  16.348  -2.295  1.00 20.00     0.001 A 
HETATM    3  C3  UNL     1     -32.909  15.511  -3.772  1.00 20.00     0.001 A 
HETATM    4  C4  UNL     1     -35.545  15.462  -2.862  1.00 20.00     0.007 A 
HETATM    5  C5  UNL     1     -33.826  14.627  -4.339  1.00 20.00     0.007 A 
HETATM    6  C6  UNL     1     -35.144  14.602  -3.884  1.00 20.00    -0.062 A 
HETATM    7  C7  UNL     1     -36.124  13.655  -4.491  1.00 20.00     0.048 C 
ENDROOT
TORSDOF 0
ENDMDL
