MODEL 1
REMARK VINA RESULT:      -4.9      0.000      0.000
REMARK  5 active torsions:
REMARK  status: ('A' for Active; 'I' for Inactive)
REMARK    1  A    between atoms: C6_6  and  C8_8 
REMARK    2  A    between atoms: C8_8  and  C10_10 
REMARK    3  A    between atoms: C9_9  and  C11_11 
REMARK    4  A    between atoms: C10_10  and  C12_12 
REMARK    5  A    between atoms: C11_11  and  C12_12 
ROOT
HETATM    1  C1  UNL     1     -34.953   5.520   6.192  1.00 20.00     0.000 A 
HETATM    2  C2  UNL     1     -35.143   4.663   5.108  1.00 20.00     0.001 A 
HETATM    3  C3  UNL     1     -34.138   6.644   6.059  1.00 20.00     0.001 A 
HETATM    4  C4  UNL     1     -34.516   4.930   3.891  1.00 20.00     0.007 A 
HETATM    5  C5  UNL     1     -33.512   6.911   4.842  1.00 20.00     0.007 A 
HETATM    6  C6  UNL     1     -33.700   6.054   3.758  1.00 20.00    -0.058 A 
ENDROOT
BRANCH   6   7
HETATM    7  C8  UNL     1     -33.027   6.341   2.452  1.00 20.00     0.038 C 
BRANCH   7   8
HETATM    8  C10 UNL     1     -31.939   7.407   2.596  1.00 20.00     0.005 C 
BRANCH   8   9
HETATM    9  C12 UNL     1     -31.793   8.227   1.312  1.00 20.00     0.000 C 
BRANCH   9  10
HETATM   10  C11 UNL     1     -32.942   9.223   1.155  1.00 20.00    -0.000 C 
BRANCH  10  11
HETATM   11  C9  UNL     1     -33.629   9.070  -0.201  1.00 20.00    -0.005 C 
HETATM   12  C7  UNL     1     -33.108   7.857  -0.956  1.00 20.00     0.005 C 
ENDBRANCH  10  11
ENDBRANCH   9  10
ENDBRANCH   8   9
ENDBRANCH   7   8
ENDBRANCH   6   7
TORSDOF 5
ENDMDL
MODEL 2
REMARK VINA RESULT:      -4.8      0.040      1.395
REMARK  5 active torsions:
REMARK  status: ('A' for Active; 'I' for Inactive)
REMARK    1  A    between atoms: C6_6  and  C8_8 
REMARK    2  A    between atoms: C8_8  and  C10_10 
REMARK    3  A    between atoms: C9_9  and  C11_11 
REMARK    4  A    between atoms: C10_10  and  C12_12 
REMARK    5  A    between atoms: C11_11  and  C12_12 
ROOT
HETATM    1  C1  UNL     1     -34.952   5.493   6.168  1.00 20.00     0.000 A 
HETATM    2  C2  UNL     1     -34.127   6.611   6.052  1.00 20.00     0.001 A 
HETATM    3  C3  UNL     1     -35.144   4.651   5.072  1.00 20.00     0.001 A 
HETATM    4  C4  UNL     1     -33.494   6.888   4.841  1.00 20.00     0.007 A 
HETATM    5  C5  UNL     1     -34.511   4.927   3.862  1.00 20.00     0.007 A 
HETATM    6  C6  UNL     1     -33.686   6.046   3.745  1.00 20.00    -0.058 A 
ENDROOT
BRANCH   6   7
HETATM    7  C8  UNL     1     -33.006   6.343   2.444  1.00 20.00     0.038 C 
BRANCH   7   8
HETATM    8  C10 UNL     1     -31.952   7.443   2.592  1.00 20.00     0.005 C 
BRANCH   8   9
HETATM    9  C12 UNL     1     -31.786   8.229   1.290  1.00 20.00     0.000 C 
BRANCH   9  10
HETATM   10  C11 UNL     1     -32.885   9.280   1.131  1.00 20.00    -0.000 C 
BRANCH  10  11
HETATM   11  C9  UNL     1     -33.650   9.091  -0.179  1.00 20.00    -0.005 C 
HETATM   12  C7  UNL     1     -33.121   7.902  -0.966  1.00 20.00     0.005 C 
ENDBRANCH  10  11
ENDBRANCH   9  10
ENDBRANCH   8   9
ENDBRANCH   7   8
ENDBRANCH   6   7
TORSDOF 5
ENDMDL
MODEL 3
REMARK VINA RESULT:      -4.8     10.422     11.804
REMARK  5 active torsions:
REMARK  status: ('A' for Active; 'I' for Inactive)
REMARK    1  A    between atoms: C6_6  and  C8_8 
REMARK    2  A    between atoms: C8_8  and  C10_10 
REMARK    3  A    between atoms: C9_9  and  C11_11 
REMARK    4  A    between atoms: C10_10  and  C12_12 
REMARK    5  A    between atoms: C11_11  and  C12_12 
ROOT
HETATM    1  C1  UNL     1     -34.460  14.350  -4.081  1.00 20.00     0.000 A 
HETATM    2  C2  UNL     1     -35.437  14.811  -3.199  1.00 20.00     0.001 A 
HETATM    3  C3  UNL     1     -33.214  14.975  -4.131  1.00 20.00     0.001 A 
HETATM    4  C4  UNL     1     -35.170  15.900  -2.369  1.00 20.00     0.007 A 
HETATM    5  C5  UNL     1     -32.947  16.062  -3.300  1.00 20.00     0.007 A 
HETATM    6  C6  UNL     1     -33.924  16.525  -2.419  1.00 20.00    -0.058 A 
ENDROOT
BRANCH   6   7
HETATM    7  C8  UNL     1     -33.636  17.693  -1.528  1.00 20.00     0.038 C 
BRANCH   7   8
HETATM    8  C10 UNL     1     -32.255  18.291  -1.805  1.00 20.00     0.005 C 
BRANCH   8   9
HETATM    9  C12 UNL     1     -31.454  18.457  -0.512  1.00 20.00     0.000 C 
BRANCH   9  10
HETATM   10  C11 UNL     1     -32.375  18.575   0.702  1.00 20.00    -0.000 C 
BRANCH  10  11
HETATM   11  C9  UNL     1     -31.667  18.136   1.983  1.00 20.00    -0.005 C 
HETATM   12  C7  UNL     1     -32.661  17.735   3.061  1.00 20.00     0.005 C 
ENDBRANCH  10  11
ENDBRANCH   9  10
ENDBRANCH   8   9
ENDBRANCH   7   8
ENDBRANCH   6   7
TORSDOF 5
ENDMDL
MODEL 4
REMARK VINA RESULT:      -4.8     10.556     11.917
REMARK  5 active torsions:
REMARK  status: ('A' for Active; 'I' for Inactive)
REMARK    1  A    between atoms: C6_6  and  C8_8 
REMARK    2  A    between atoms: C8_8  and  C10_10 
REMARK    3  A    between atoms: C9_9  and  C11_11 
REMARK    4  A    between atoms: C10_10  and  C12_12 
REMARK    5  A    between atoms: C11_11  and  C12_12 
ROOT
HETATM    1  C1  UNL     1     -33.916  17.704  -1.436  1.00 20.00     0.000 A 
HETATM    2  C2  UNL     1     -32.898  17.405  -2.341  1.00 20.00     0.001 A 
HETATM    3  C3  UNL     1     -35.048  16.893  -1.366  1.00 20.00     0.001 A 
HETATM    4  C4  UNL     1     -33.013  16.295  -3.178  1.00 20.00     0.007 A 
HETATM    5  C5  UNL     1     -35.163  15.783  -2.202  1.00 20.00     0.007 A 
HETATM    6  C6  UNL     1     -34.146  15.484  -3.108  1.00 20.00    -0.058 A 
ENDROOT
BRANCH   6   7
HETATM    7  C8  UNL     1     -34.270  14.292  -4.006  1.00 20.00     0.038 C 
BRANCH   7   8
HETATM    8  C10 UNL     1     -35.721  14.045  -4.425  1.00 20.00     0.005 C 
BRANCH   8   9
HETATM    9  C12 UNL     1     -35.995  14.599  -5.825  1.00 20.00     0.000 C 
BRANCH   9  10
HETATM   10  C11 UNL     1     -36.707  15.951  -5.759  1.00 20.00    -0.000 C 
BRANCH  10  11
HETATM   11  C9  UNL     1     -35.739  17.103  -6.024  1.00 20.00    -0.005 C 
HETATM   12  C7  UNL     1     -35.860  18.187  -4.965  1.00 20.00     0.005 C 
ENDBRANCH  10  11
ENDBRANCH   9  10
ENDBRANCH   8   9
ENDBRANCH   7   8
ENDBRANCH   6   7
TORSDOF 5
ENDMDL
MODEL 5
REMARK VINA RESULT:      -4.7     10.766     11.482
REMARK  5 active torsions:
REMARK  status: ('A' for Active; 'I' for Inactive)
REMARK    1  A    between atoms: C6_6  and  C8_8 
REMARK    2  A    between atoms: C8_8  and  C10_10 
REMARK    3  A    between atoms: C9_9  and  C11_11 
REMARK    4  A    between atoms: C10_10  and  C12_12 
REMARK    5  A    between atoms: C11_11  and  C12_12 
ROOT
HETATM    1  C1  UNL     1     -34.647  17.803  -0.181  1.00 20.00     0.000 A 
HETATM    2  C2  UNL     1     -33.403  18.189  -0.680  1.00 20.00     0.001 A 
HETATM    3  C3  UNL     1     -35.370  16.793  -0.816  1.00 20.00     0.001 A 
HETATM    4  C4  UNL     1     -32.883  17.567  -1.814  1.00 20.00     0.007 A 
HETATM    5  C5  UNL     1     -34.849  16.170  -1.949  1.00 20.00     0.007 A 
HETATM    6  C6  UNL     1     -33.605  16.556  -2.449  1.00 20.00    -0.058 A 
ENDROOT
BRANCH   6   7
HETATM    7  C8  UNL     1     -33.047  15.887  -3.666  1.00 20.00     0.038 C 
BRANCH   7   8
HETATM    8  C10 UNL     1     -33.902  14.694  -4.100  1.00 20.00     0.005 C 
BRANCH   8   9
HETATM    9  C12 UNL     1     -34.230  14.762  -5.593  1.00 20.00     0.000 C 
BRANCH   9  10
HETATM   10  C11 UNL     1     -35.732  14.611  -5.840  1.00 20.00    -0.000 C 
BRANCH  10  11
HETATM   11  C9  UNL     1     -36.422  13.925  -4.662  1.00 20.00    -0.005 C 
HETATM   12  C7  UNL     1     -37.712  14.634  -4.282  1.00 20.00     0.005 C 
ENDBRANCH  10  11
ENDBRANCH   9  10
ENDBRANCH   8   9
ENDBRANCH   7   8
ENDBRANCH   6   7
TORSDOF 5
ENDMDL
MODEL 6
REMARK VINA RESULT:      -4.6     10.686     11.964
REMARK  5 active torsions:
REMARK  status: ('A' for Active; 'I' for Inactive)
REMARK    1  A    between atoms: C6_6  and  C8_8 
REMARK    2  A    between atoms: C8_8  and  C10_10 
REMARK    3  A    between atoms: C9_9  and  C11_11 
REMARK    4  A    between atoms: C10_10  and  C12_12 
REMARK    5  A    between atoms: C11_11  and  C12_12 
ROOT
HETATM    1  C1  UNL     1     -33.974  14.444  -4.338  1.00 20.00     0.000 A 
HETATM    2  C2  UNL     1     -32.897  15.275  -4.030  1.00 20.00     0.001 A 
HETATM    3  C3  UNL     1     -35.183  14.588  -3.657  1.00 20.00     0.001 A 
HETATM    4  C4  UNL     1     -33.029  16.249  -3.040  1.00 20.00     0.007 A 
HETATM    5  C5  UNL     1     -35.315  15.562  -2.669  1.00 20.00     0.007 A 
HETATM    6  C6  UNL     1     -34.237  16.393  -2.359  1.00 20.00    -0.058 A 
ENDROOT
BRANCH   6   7
HETATM    7  C8  UNL     1     -34.379  17.439  -1.297  1.00 20.00     0.038 C 
BRANCH   7   8
HETATM    8  C10 UNL     1     -33.494  18.655  -1.576  1.00 20.00     0.005 C 
BRANCH   8   9
HETATM    9  C12 UNL     1     -32.661  19.027  -0.348  1.00 20.00     0.000 C 
BRANCH   9  10
HETATM   10  C11 UNL     1     -31.274  18.386  -0.401  1.00 20.00    -0.000 C 
BRANCH  10  11
HETATM   11  C9  UNL     1     -30.683  18.222   0.998  1.00 20.00    -0.005 C 
HETATM   12  C7  UNL     1     -31.757  18.313   2.070  1.00 20.00     0.005 C 
ENDBRANCH  10  11
ENDBRANCH   9  10
ENDBRANCH   8   9
ENDBRANCH   7   8
ENDBRANCH   6   7
TORSDOF 5
ENDMDL
MODEL 7
REMARK VINA RESULT:      -4.6     10.740     11.914
REMARK  5 active torsions:
REMARK  status: ('A' for Active; 'I' for Inactive)
REMARK    1  A    between atoms: C6_6  and  C8_8 
REMARK    2  A    between atoms: C8_8  and  C10_10 
REMARK    3  A    between atoms: C9_9  and  C11_11 
REMARK    4  A    between atoms: C10_10  and  C12_12 
REMARK    5  A    between atoms: C11_11  and  C12_12 
ROOT
HETATM    1  C1  UNL     1     -33.292  15.903  -3.518  1.00 20.00     0.000 A 
HETATM    2  C2  UNL     1     -34.525  15.368  -3.144  1.00 20.00     0.001 A 
HETATM    3  C3  UNL     1     -32.746  16.966  -2.799  1.00 20.00     0.001 A 
HETATM    4  C4  UNL     1     -35.213  15.898  -2.053  1.00 20.00     0.007 A 
HETATM    5  C5  UNL     1     -33.433  17.495  -1.707  1.00 20.00     0.007 A 
HETATM    6  C6  UNL     1     -34.667  16.961  -1.334  1.00 20.00    -0.058 A 
ENDROOT
BRANCH   6   7
HETATM    7  C8  UNL     1     -35.404  17.530  -0.161  1.00 20.00     0.038 C 
BRANCH   7   8
HETATM    8  C10 UNL     1     -34.545  18.527   0.621  1.00 20.00     0.005 C 
BRANCH   8   9
HETATM    9  C12 UNL     1     -34.263  18.022   2.037  1.00 20.00     0.000 C 
BRANCH   9  10
HETATM   10  C11 UNL     1     -32.765  18.035   2.345  1.00 20.00    -0.000 C 
BRANCH  10  11
HETATM   11  C9  UNL     1     -32.002  18.917   1.357  1.00 20.00    -0.005 C 
HETATM   12  C7  UNL     1     -30.772  18.209   0.812  1.00 20.00     0.005 C 
ENDBRANCH  10  11
ENDBRANCH   9  10
ENDBRANCH   8   9
ENDBRANCH   7   8
ENDBRANCH   6   7
TORSDOF 5
ENDMDL
MODEL 8
REMARK VINA RESULT:      -4.4     10.537     11.716
REMARK  5 active torsions:
REMARK  status: ('A' for Active; 'I' for Inactive)
REMARK    1  A    between atoms: C6_6  and  C8_8 
REMARK    2  A    between atoms: C8_8  and  C10_10 
REMARK    3  A    between atoms: C9_9  and  C11_11 
REMARK    4  A    between atoms: C10_10  and  C12_12 
REMARK    5  A    between atoms: C11_11  and  C12_12 
ROOT
HETATM    1  C1  UNL     1     -31.486  18.612   1.953  1.00 20.00     0.000 A 
HETATM    2  C2  UNL     1     -32.868  18.515   1.792  1.00 20.00     0.001 A 
HETATM    3  C3  UNL     1     -30.647  18.523   0.842  1.00 20.00     0.001 A 
HETATM    4  C4  UNL     1     -33.411  18.329   0.521  1.00 20.00     0.007 A 
HETATM    5  C5  UNL     1     -31.190  18.338  -0.429  1.00 20.00     0.007 A 
HETATM    6  C6  UNL     1     -32.572  18.240  -0.590  1.00 20.00    -0.058 A 
ENDROOT
BRANCH   6   7
HETATM    7  C8  UNL     1     -33.154  18.041  -1.954  1.00 20.00     0.038 C 
BRANCH   7   8
HETATM    8  C10 UNL     1     -34.596  17.532  -1.888  1.00 20.00     0.005 C 
BRANCH   8   9
HETATM    9  C12 UNL     1     -34.686  16.065  -2.313  1.00 20.00     0.000 C 
BRANCH   9  10
HETATM   10  C11 UNL     1     -33.502  15.669  -3.197  1.00 20.00    -0.000 C 
BRANCH  10  11
HETATM   11  C9  UNL     1     -33.964  14.890  -4.428  1.00 20.00    -0.005 C 
HETATM   12  C7  UNL     1     -35.116  13.954  -4.095  1.00 20.00     0.005 C 
ENDBRANCH  10  11
ENDBRANCH   9  10
ENDBRANCH   8   9
ENDBRANCH   7   8
ENDBRANCH   6   7
TORSDOF 5
ENDMDL
MODEL 9
REMARK VINA RESULT:      -4.4     10.805     11.739
REMARK  5 active torsions:
REMARK  status: ('A' for Active; 'I' for Inactive)
REMARK    1  A    between atoms: C6_6  and  C8_8 
REMARK    2  A    between atoms: C8_8  and  C10_10 
REMARK    3  A    between atoms: C9_9  and  C11_11 
REMARK    4  A    between atoms: C10_10  and  C12_12 
REMARK    5  A    between atoms: C11_11  and  C12_12 
ROOT
HETATM    1  C1  UNL     1     -30.892  18.502   1.342  1.00 20.00     0.000 A 
HETATM    2  C2  UNL     1     -31.132  18.435  -0.030  1.00 20.00     0.001 A 
HETATM    3  C3  UNL     1     -31.961  18.508   2.238  1.00 20.00     0.001 A 
HETATM    4  C4  UNL     1     -32.441  18.377  -0.507  1.00 20.00     0.007 A 
HETATM    5  C5  UNL     1     -33.270  18.449   1.761  1.00 20.00     0.007 A 
HETATM    6  C6  UNL     1     -33.511  18.384   0.389  1.00 20.00    -0.058 A 
ENDROOT
BRANCH   6   7
HETATM    7  C8  UNL     1     -34.917  18.321  -0.123  1.00 20.00     0.038 C 
BRANCH   7   8
HETATM    8  C10 UNL     1     -35.299  16.905  -0.559  1.00 20.00     0.005 C 
BRANCH   8   9
HETATM    9  C12 UNL     1     -35.552  16.840  -2.067  1.00 20.00     0.000 C 
BRANCH   9  10
HETATM   10  C11 UNL     1     -34.861  15.629  -2.694  1.00 20.00    -0.000 C 
BRANCH  10  11
HETATM   11  C9  UNL     1     -33.454  15.980  -3.177  1.00 20.00    -0.005 C 
HETATM   12  C7  UNL     1     -32.951  14.976  -4.203  1.00 20.00     0.005 C 
ENDBRANCH  10  11
ENDBRANCH   9  10
ENDBRANCH   8   9
ENDBRANCH   7   8
ENDBRANCH   6   7
TORSDOF 5
ENDMDL
