MODEL 1
REMARK VINA RESULT:      -4.2      0.000      0.000
REMARK  0 active torsions:
REMARK  status: ('A' for Active; 'I' for Inactive)
ROOT
HETATM    1  C1  UNL     1     -33.580  15.217  -3.920  1.00 20.00     0.008 A 
HETATM    2  C2  UNL     1     -35.476  15.680  -2.495  1.00 20.00     0.008 A 
HETATM    3  C3  UNL     1     -32.854  16.221  -3.279  1.00 20.00     0.019 A 
HETATM    4  C4  UNL     1     -34.750  16.683  -1.854  1.00 20.00     0.019 A 
HETATM    5  C5  UNL     1     -34.891  14.947  -3.528  1.00 20.00    -0.062 A 
HETATM    6  C6  UNL     1     -33.438  16.954  -2.246  1.00 20.00     0.006 A 
HETATM    7  C7  UNL     1     -35.669  13.877  -4.216  1.00 20.00     0.048 C 
HETATM    8  I8  UNL     1     -32.356  18.448  -1.292  1.00 20.00    -0.045 I 
ENDROOT
TORSDOF 0
ENDMDL
MODEL 2
REMARK VINA RESULT:      -4.2      0.067      1.709
REMARK  0 active torsions:
REMARK  status: ('A' for Active; 'I' for Inactive)
ROOT
HETATM    1  C1  UNL     1     -35.462  15.686  -2.469  1.00 20.00     0.008 A 
HETATM    2  C2  UNL     1     -33.578  15.296  -3.931  1.00 20.00     0.008 A 
HETATM    3  C3  UNL     1     -34.737  16.671  -1.798  1.00 20.00     0.019 A 
HETATM    4  C4  UNL     1     -32.853  16.281  -3.260  1.00 20.00     0.019 A 
HETATM    5  C5  UNL     1     -34.882  14.999  -3.535  1.00 20.00    -0.062 A 
HETATM    6  C6  UNL     1     -33.433  16.969  -2.194  1.00 20.00     0.006 A 
HETATM    7  C7  UNL     1     -35.655  13.943  -4.251  1.00 20.00     0.048 C 
HETATM    8  I8  UNL     1     -32.354  18.435  -1.193  1.00 20.00    -0.045 I 
ENDROOT
TORSDOF 0
ENDMDL
MODEL 3
REMARK VINA RESULT:      -4.2      1.142      2.115
REMARK  0 active torsions:
REMARK  status: ('A' for Active; 'I' for Inactive)
ROOT
HETATM    1  C1  UNL     1     -35.143  15.769  -2.254  1.00 20.00     0.008 A 
HETATM    2  C2  UNL     1     -32.977  16.394  -3.124  1.00 20.00     0.008 A 
HETATM    3  C3  UNL     1     -35.059  16.794  -1.310  1.00 20.00     0.019 A 
HETATM    4  C4  UNL     1     -32.893  17.418  -2.181  1.00 20.00     0.019 A 
HETATM    5  C5  UNL     1     -34.102  15.570  -3.161  1.00 20.00    -0.062 A 
HETATM    6  C6  UNL     1     -33.935  17.618  -1.274  1.00 20.00     0.006 A 
HETATM    7  C7  UNL     1     -34.190  14.473  -4.167  1.00 20.00     0.048 C 
HETATM    8  I8  UNL     1     -33.811  19.142   0.133  1.00 20.00    -0.045 I 
ENDROOT
TORSDOF 0
ENDMDL
MODEL 4
REMARK VINA RESULT:      -4.2      1.287      1.588
REMARK  0 active torsions:
REMARK  status: ('A' for Active; 'I' for Inactive)
ROOT
HETATM    1  C1  UNL     1     -32.908  16.529  -3.002  1.00 20.00     0.008 A 
HETATM    2  C2  UNL     1     -35.092  15.725  -2.352  1.00 20.00     0.008 A 
HETATM    3  C3  UNL     1     -32.967  17.497  -1.999  1.00 20.00     0.019 A 
HETATM    4  C4  UNL     1     -35.151  16.692  -1.349  1.00 20.00     0.019 A 
HETATM    5  C5  UNL     1     -33.971  15.643  -3.178  1.00 20.00    -0.062 A 
HETATM    6  C6  UNL     1     -34.088  17.579  -1.172  1.00 20.00     0.006 A 
HETATM    7  C7  UNL     1     -33.910  14.611  -4.252  1.00 20.00     0.048 C 
HETATM    8  I8  UNL     1     -34.174  19.021   0.320  1.00 20.00    -0.045 I 
ENDROOT
TORSDOF 0
ENDMDL
MODEL 5
REMARK VINA RESULT:      -4.1      2.448      3.623
REMARK  0 active torsions:
REMARK  status: ('A' for Active; 'I' for Inactive)
ROOT
HETATM    1  C1  UNL     1     -32.818  16.561  -3.094  1.00 20.00     0.008 A 
HETATM    2  C2  UNL     1     -34.631  16.916  -1.538  1.00 20.00     0.008 A 
HETATM    3  C3  UNL     1     -33.619  15.684  -3.827  1.00 20.00     0.019 A 
HETATM    4  C4  UNL     1     -35.432  16.040  -2.270  1.00 20.00     0.019 A 
HETATM    5  C5  UNL     1     -33.324  17.176  -1.949  1.00 20.00    -0.062 A 
HETATM    6  C6  UNL     1     -34.926  15.424  -3.415  1.00 20.00     0.006 A 
HETATM    7  C7  UNL     1     -32.467  18.110  -1.164  1.00 20.00     0.048 C 
HETATM    8  I8  UNL     1     -36.117  14.118  -4.506  1.00 20.00    -0.045 I 
ENDROOT
TORSDOF 0
ENDMDL
MODEL 6
REMARK VINA RESULT:      -4.0      2.457      3.999
REMARK  0 active torsions:
REMARK  status: ('A' for Active; 'I' for Inactive)
ROOT
HETATM    1  C1  UNL     1     -34.610  16.875  -1.610  1.00 20.00     0.008 A 
HETATM    2  C2  UNL     1     -32.823  16.487  -3.189  1.00 20.00     0.008 A 
HETATM    3  C3  UNL     1     -35.434  16.009  -2.331  1.00 20.00     0.019 A 
HETATM    4  C4  UNL     1     -33.645  15.621  -3.909  1.00 20.00     0.019 A 
HETATM    5  C5  UNL     1     -33.305  17.114  -2.040  1.00 20.00    -0.062 A 
HETATM    6  C6  UNL     1     -34.952  15.382  -3.480  1.00 20.00     0.006 A 
HETATM    7  C7  UNL     1     -32.426  18.042  -1.273  1.00 20.00     0.048 C 
HETATM    8  I8  UNL     1     -36.179  14.093  -4.552  1.00 20.00    -0.045 I 
ENDROOT
TORSDOF 0
ENDMDL
MODEL 7
REMARK VINA RESULT:      -4.0      2.340      4.031
REMARK  0 active torsions:
REMARK  status: ('A' for Active; 'I' for Inactive)
ROOT
HETATM    1  C1  UNL     1     -35.172  16.918  -0.846  1.00 20.00     0.008 A 
HETATM    2  C2  UNL     1     -33.020  17.859  -1.410  1.00 20.00     0.008 A 
HETATM    3  C3  UNL     1     -35.089  16.069  -1.950  1.00 20.00     0.019 A 
HETATM    4  C4  UNL     1     -32.937  17.010  -2.513  1.00 20.00     0.019 A 
HETATM    5  C5  UNL     1     -34.137  17.813  -0.576  1.00 20.00    -0.062 A 
HETATM    6  C6  UNL     1     -33.972  16.115  -2.783  1.00 20.00     0.006 A 
HETATM    7  C7  UNL     1     -34.227  18.724   0.601  1.00 20.00     0.048 C 
HETATM    8  I8  UNL     1     -33.851  14.850  -4.427  1.00 20.00    -0.045 I 
ENDROOT
TORSDOF 0
ENDMDL
MODEL 8
REMARK VINA RESULT:      -4.0     15.790     16.407
REMARK  0 active torsions:
REMARK  status: ('A' for Active; 'I' for Inactive)
ROOT
HETATM    1  C1  UNL     1     -23.059  16.987   9.818  1.00 20.00     0.008 A 
HETATM    2  C2  UNL     1     -23.688  18.769   8.312  1.00 20.00     0.008 A 
HETATM    3  C3  UNL     1     -24.089  17.356  10.684  1.00 20.00     0.019 A 
HETATM    4  C4  UNL     1     -24.718  19.138   9.178  1.00 20.00     0.019 A 
HETATM    5  C5  UNL     1     -22.858  17.694   8.632  1.00 20.00    -0.062 A 
HETATM    6  C6  UNL     1     -24.918  18.431  10.364  1.00 20.00     0.006 A 
HETATM    7  C7  UNL     1     -21.756  17.303   7.708  1.00 20.00     0.048 C 
HETATM    8  I8  UNL     1     -26.450  18.980  11.655  1.00 20.00    -0.045 I 
ENDROOT
TORSDOF 0
ENDMDL
MODEL 9
REMARK VINA RESULT:      -3.9      2.433      3.851
REMARK  0 active torsions:
REMARK  status: ('A' for Active; 'I' for Inactive)
ROOT
HETATM    1  C1  UNL     1     -32.789  17.694  -1.738  1.00 20.00     0.008 A 
HETATM    2  C2  UNL     1     -34.910  17.244  -0.671  1.00 20.00     0.008 A 
HETATM    3  C3  UNL     1     -33.075  16.734  -2.709  1.00 20.00     0.019 A 
HETATM    4  C4  UNL     1     -35.196  16.284  -1.642  1.00 20.00     0.019 A 
HETATM    5  C5  UNL     1     -33.707  17.948  -0.719  1.00 20.00    -0.062 A 
HETATM    6  C6  UNL     1     -34.278  16.029  -2.662  1.00 20.00     0.006 A 
HETATM    7  C7  UNL     1     -33.400  18.972   0.322  1.00 20.00     0.048 C 
HETATM    8  I8  UNL     1     -34.701  14.600  -4.108  1.00 20.00    -0.045 I 
ENDROOT
TORSDOF 0
ENDMDL
