MODEL 1
REMARK VINA RESULT:      -4.3      0.000      0.000
REMARK  3 active torsions:
REMARK  status: ('A' for Active; 'I' for Inactive)
REMARK    1  A    between atoms: C4_4  and  S10_10 
REMARK    2  A    between atoms: C5_5  and  C7_7 
REMARK    3  A    between atoms: C7_7  and  S10_10 
ROOT
HETATM    1  C1  UNL     1     -34.860  17.042  -1.217  1.00 20.00     0.009 A 
HETATM    2  C2  UNL     1     -34.866  15.920  -2.094  1.00 20.00     0.026 A 
HETATM    3  C3  UNL     1     -33.885  17.957  -1.553  1.00 20.00     0.051 A 
HETATM    4  C4  UNL     1     -33.896  16.018  -3.067  1.00 20.00     0.041 A 
HETATM    5  S9  UNL     1     -32.984  17.460  -2.921  1.00 20.00    -0.095 SA
ENDROOT
BRANCH   4   6
HETATM    6  S10 UNL     1     -33.579  14.835  -4.342  1.00 20.00    -0.115 SA
BRANCH   6   7
HETATM    7  C7  UNL     1     -35.159  14.886  -5.220  1.00 20.00     0.157 C 
BRANCH   7   8
HETATM    8  C5  UNL     1     -36.125  13.854  -4.688  1.00 20.00     0.132 C 
HETATM    9  C6  UNL     1     -37.476  14.387  -4.335  1.00 20.00     0.091 C 
HETATM   10  O8  UNL     1     -35.888  12.663  -4.535  1.00 20.00    -0.298 OA
ENDBRANCH   7   8
ENDBRANCH   6   7
ENDBRANCH   4   6
TORSDOF 3
ENDMDL
MODEL 2
REMARK VINA RESULT:      -4.1      1.388      1.504
REMARK  3 active torsions:
REMARK  status: ('A' for Active; 'I' for Inactive)
REMARK    1  A    between atoms: C4_4  and  S10_10 
REMARK    2  A    between atoms: C5_5  and  C7_7 
REMARK    3  A    between atoms: C7_7  and  S10_10 
ROOT
HETATM    1  C1  UNL     1     -33.606  16.775  -2.441  1.00 20.00     0.009 A 
HETATM    2  C2  UNL     1     -33.382  15.748  -3.402  1.00 20.00     0.026 A 
HETATM    3  C3  UNL     1     -34.442  17.760  -2.920  1.00 20.00     0.051 A 
HETATM    4  C4  UNL     1     -34.056  15.986  -4.579  1.00 20.00     0.041 A 
HETATM    5  S9  UNL     1     -34.954  17.443  -4.523  1.00 20.00    -0.095 SA
ENDROOT
BRANCH   4   6
HETATM    6  S10 UNL     1     -34.040  14.951  -6.013  1.00 20.00    -0.115 SA
BRANCH   6   7
HETATM    7  C7  UNL     1     -35.805  14.590  -6.163  1.00 20.00     0.157 C 
BRANCH   7   8
HETATM    8  C5  UNL     1     -36.320  13.823  -4.968  1.00 20.00     0.132 C 
HETATM    9  C6  UNL     1     -37.456  14.474  -4.249  1.00 20.00     0.091 C 
HETATM   10  O8  UNL     1     -35.889  12.749  -4.568  1.00 20.00    -0.298 OA
ENDBRANCH   7   8
ENDBRANCH   6   7
ENDBRANCH   4   6
TORSDOF 3
ENDMDL
MODEL 3
REMARK VINA RESULT:      -4.0     10.675     11.309
REMARK  3 active torsions:
REMARK  status: ('A' for Active; 'I' for Inactive)
REMARK    1  A    between atoms: C4_4  and  S10_10 
REMARK    2  A    between atoms: C5_5  and  C7_7 
REMARK    3  A    between atoms: C7_7  and  S10_10 
ROOT
HETATM    1  C1  UNL     1     -34.757   5.712   5.820  1.00 20.00     0.009 A 
HETATM    2  C2  UNL     1     -33.823   6.738   5.496  1.00 20.00     0.026 A 
HETATM    3  C3  UNL     1     -34.967   4.851   4.765  1.00 20.00     0.051 A 
HETATM    4  C4  UNL     1     -33.354   6.621   4.206  1.00 20.00     0.041 A 
HETATM    5  S9  UNL     1     -34.039   5.280   3.392  1.00 20.00    -0.095 SA
ENDROOT
BRANCH   4   6
HETATM    6  S10 UNL     1     -32.184   7.693   3.426  1.00 20.00    -0.115 SA
BRANCH   6   7
HETATM    7  C7  UNL     1     -32.560   7.361   1.689  1.00 20.00     0.157 C 
BRANCH   7   8
HETATM    8  C5  UNL     1     -32.896   8.629   0.940  1.00 20.00     0.132 C 
HETATM    9  C6  UNL     1     -33.293   8.427  -0.486  1.00 20.00     0.091 C 
HETATM   10  O8  UNL     1     -32.867   9.763   1.403  1.00 20.00    -0.298 OA
ENDBRANCH   7   8
ENDBRANCH   6   7
ENDBRANCH   4   6
TORSDOF 3
ENDMDL
MODEL 4
REMARK VINA RESULT:      -3.9      1.113      1.199
REMARK  3 active torsions:
REMARK  status: ('A' for Active; 'I' for Inactive)
REMARK    1  A    between atoms: C4_4  and  S10_10 
REMARK    2  A    between atoms: C5_5  and  C7_7 
REMARK    3  A    between atoms: C7_7  and  S10_10 
ROOT
HETATM    1  C1  UNL     1     -35.040  16.944  -1.162  1.00 20.00     0.009 A 
HETATM    2  C2  UNL     1     -35.005  15.893  -2.122  1.00 20.00     0.026 A 
HETATM    3  C3  UNL     1     -33.965  17.798  -1.290  1.00 20.00     0.051 A 
HETATM    4  C4  UNL     1     -33.906  15.983  -2.948  1.00 20.00     0.041 A 
HETATM    5  S9  UNL     1     -32.922  17.331  -2.564  1.00 20.00    -0.095 SA
ENDROOT
BRANCH   4   6
HETATM    6  S10 UNL     1     -33.502  14.874  -4.265  1.00 20.00    -0.115 SA
BRANCH   6   7
HETATM    7  C7  UNL     1     -34.611  15.494  -5.552  1.00 20.00     0.157 C 
BRANCH   7   8
HETATM    8  C5  UNL     1     -35.692  14.493  -5.886  1.00 20.00     0.132 C 
HETATM    9  C6  UNL     1     -36.167  13.677  -4.728  1.00 20.00     0.091 C 
HETATM   10  O8  UNL     1     -36.184  14.314  -6.993  1.00 20.00    -0.298 OA
ENDBRANCH   7   8
ENDBRANCH   6   7
ENDBRANCH   4   6
TORSDOF 3
ENDMDL
MODEL 5
REMARK VINA RESULT:      -3.6     16.777     18.119
REMARK  3 active torsions:
REMARK  status: ('A' for Active; 'I' for Inactive)
REMARK    1  A    between atoms: C4_4  and  S10_10 
REMARK    2  A    between atoms: C5_5  and  C7_7 
REMARK    3  A    between atoms: C7_7  and  S10_10 
ROOT
HETATM    1  C1  UNL     1     -22.389  17.730   7.948  1.00 20.00     0.009 A 
HETATM    2  C2  UNL     1     -22.087  17.404   9.302  1.00 20.00     0.026 A 
HETATM    3  C3  UNL     1     -23.531  18.495   7.842  1.00 20.00     0.051 A 
HETATM    4  C4  UNL     1     -23.009  17.932  10.179  1.00 20.00     0.041 A 
HETATM    5  S9  UNL     1     -24.232  18.816   9.370  1.00 20.00    -0.095 SA
ENDROOT
BRANCH   4   6
HETATM    6  S10 UNL     1     -22.988  17.756  11.938  1.00 20.00    -0.115 SA
BRANCH   6   7
HETATM    7  C7  UNL     1     -24.661  18.317  12.332  1.00 20.00     0.157 C 
BRANCH   7   8
HETATM    8  C5  UNL     1     -25.652  17.178  12.302  1.00 20.00     0.132 C 
HETATM    9  C6  UNL     1     -27.086  17.596  12.331  1.00 20.00     0.091 C 
HETATM   10  O8  UNL     1     -25.372  15.987  12.255  1.00 20.00    -0.298 OA
ENDBRANCH   7   8
ENDBRANCH   6   7
ENDBRANCH   4   6
TORSDOF 3
ENDMDL
MODEL 6
REMARK VINA RESULT:      -3.6      3.529      5.662
REMARK  3 active torsions:
REMARK  status: ('A' for Active; 'I' for Inactive)
REMARK    1  A    between atoms: C4_4  and  S10_10 
REMARK    2  A    between atoms: C5_5  and  C7_7 
REMARK    3  A    between atoms: C7_7  and  S10_10 
ROOT
HETATM    1  C1  UNL     1     -33.780  15.353  -3.802  1.00 20.00     0.009 A 
HETATM    2  C2  UNL     1     -33.084  16.259  -2.953  1.00 20.00     0.026 A 
HETATM    3  C3  UNL     1     -34.465  16.005  -4.805  1.00 20.00     0.051 A 
HETATM    4  C4  UNL     1     -33.262  17.570  -3.338  1.00 20.00     0.041 A 
HETATM    5  S9  UNL     1     -34.265  17.703  -4.719  1.00 20.00    -0.095 SA
ENDROOT
BRANCH   4   6
HETATM    6  S10 UNL     1     -32.564  18.989  -2.547  1.00 20.00    -0.115 SA
BRANCH   6   7
HETATM    7  C7  UNL     1     -32.858  18.562  -0.815  1.00 20.00     0.157 C 
BRANCH   7   8
HETATM    8  C5  UNL     1     -31.563  18.427  -0.048  1.00 20.00     0.132 C 
HETATM    9  C6  UNL     1     -31.724  18.311   1.433  1.00 20.00     0.091 C 
HETATM   10  O8  UNL     1     -30.441  18.405  -0.537  1.00 20.00    -0.298 OA
ENDBRANCH   7   8
ENDBRANCH   6   7
ENDBRANCH   4   6
TORSDOF 3
ENDMDL
MODEL 7
REMARK VINA RESULT:      -3.4      1.836      2.287
REMARK  3 active torsions:
REMARK  status: ('A' for Active; 'I' for Inactive)
REMARK    1  A    between atoms: C4_4  and  S10_10 
REMARK    2  A    between atoms: C5_5  and  C7_7 
REMARK    3  A    between atoms: C7_7  and  S10_10 
ROOT
HETATM    1  C1  UNL     1     -36.200  17.928  -0.815  1.00 20.00     0.009 A 
HETATM    2  C2  UNL     1     -36.920  17.806  -2.037  1.00 20.00     0.026 A 
HETATM    3  C3  UNL     1     -35.104  17.093  -0.775  1.00 20.00     0.051 A 
HETATM    4  C4  UNL     1     -36.349  16.884  -2.886  1.00 20.00     0.041 A 
HETATM    5  S9  UNL     1     -34.948  16.169  -2.207  1.00 20.00    -0.095 SA
ENDROOT
BRANCH   4   6
HETATM    6  S10 UNL     1     -36.938  16.446  -4.494  1.00 20.00    -0.115 SA
BRANCH   6   7
HETATM    7  C7  UNL     1     -37.283  14.690  -4.238  1.00 20.00     0.157 C 
BRANCH   7   8
HETATM    8  C5  UNL     1     -36.257  13.816  -4.921  1.00 20.00     0.132 C 
HETATM    9  C6  UNL     1     -35.643  14.413  -6.145  1.00 20.00     0.091 C 
HETATM   10  O8  UNL     1     -35.909  12.701  -4.553  1.00 20.00    -0.298 OA
ENDBRANCH   7   8
ENDBRANCH   6   7
ENDBRANCH   4   6
TORSDOF 3
ENDMDL
MODEL 8
REMARK VINA RESULT:      -3.4      1.821      2.231
REMARK  3 active torsions:
REMARK  status: ('A' for Active; 'I' for Inactive)
REMARK    1  A    between atoms: C4_4  and  S10_10 
REMARK    2  A    between atoms: C5_5  and  C7_7 
REMARK    3  A    between atoms: C7_7  and  S10_10 
ROOT
HETATM    1  C1  UNL     1     -32.927  17.395  -2.370  1.00 20.00     0.009 A 
HETATM    2  C2  UNL     1     -33.064  16.270  -3.233  1.00 20.00     0.026 A 
HETATM    3  C3  UNL     1     -34.021  17.552  -1.546  1.00 20.00     0.051 A 
HETATM    4  C4  UNL     1     -34.257  15.610  -3.037  1.00 20.00     0.041 A 
HETATM    5  S9  UNL     1     -35.206  16.346  -1.816  1.00 20.00    -0.095 SA
ENDROOT
BRANCH   4   6
HETATM    6  S10 UNL     1     -34.802  14.169  -3.906  1.00 20.00    -0.115 SA
BRANCH   6   7
HETATM    7  C7  UNL     1     -36.513  14.638  -4.254  1.00 20.00     0.157 C 
BRANCH   7   8
HETATM    8  C5  UNL     1     -36.673  15.155  -5.664  1.00 20.00     0.132 C 
HETATM    9  C6  UNL     1     -35.500  14.909  -6.557  1.00 20.00     0.091 C 
HETATM   10  O8  UNL     1     -37.656  15.735  -6.107  1.00 20.00    -0.298 OA
ENDBRANCH   7   8
ENDBRANCH   6   7
ENDBRANCH   4   6
TORSDOF 3
ENDMDL
MODEL 9
REMARK VINA RESULT:      -3.4      2.164      2.973
REMARK  3 active torsions:
REMARK  status: ('A' for Active; 'I' for Inactive)
REMARK    1  A    between atoms: C4_4  and  S10_10 
REMARK    2  A    between atoms: C5_5  and  C7_7 
REMARK    3  A    between atoms: C7_7  and  S10_10 
ROOT
HETATM    1  C1  UNL     1     -33.980  15.858  -2.739  1.00 20.00     0.009 A 
HETATM    2  C2  UNL     1     -35.256  16.412  -3.044  1.00 20.00     0.026 A 
HETATM    3  C3  UNL     1     -33.356  15.347  -3.857  1.00 20.00     0.051 A 
HETATM    4  C4  UNL     1     -35.560  16.304  -4.383  1.00 20.00     0.041 A 
HETATM    5  S9  UNL     1     -34.309  15.537  -5.266  1.00 20.00    -0.095 SA
ENDROOT
BRANCH   4   6
HETATM    6  S10 UNL     1     -37.044  16.870  -5.161  1.00 20.00    -0.115 SA
BRANCH   6   7
HETATM    7  C7  UNL     1     -38.265  16.337  -3.938  1.00 20.00     0.157 C 
BRANCH   7   8
HETATM    8  C5  UNL     1     -38.848  14.987  -4.286  1.00 20.00     0.132 C 
HETATM    9  C6  UNL     1     -40.315  14.994  -4.566  1.00 20.00     0.091 C 
HETATM   10  O8  UNL     1     -38.226  13.935  -4.352  1.00 20.00    -0.298 OA
ENDBRANCH   7   8
ENDBRANCH   6   7
ENDBRANCH   4   6
TORSDOF 3
ENDMDL
