MODEL 1
REMARK VINA RESULT:      -4.4      0.000      0.000
REMARK  0 active torsions:
REMARK  status: ('A' for Active; 'I' for Inactive)
ROOT
HETATM    1  C1  UNL     1     -34.064   4.181   3.344  1.00 20.00     0.002 A 
HETATM    2  C2  UNL     1     -34.430   4.586   4.626  1.00 20.00     0.007 A 
HETATM    3  C3  UNL     1     -33.473   5.091   2.466  1.00 20.00     0.018 A 
HETATM    4  C4  UNL     1     -33.619   6.813   4.156  1.00 20.00     0.025 A 
HETATM    5  C5  UNL     1     -34.208   5.903   5.032  1.00 20.00    -0.061 A 
HETATM    6  C6  UNL     1     -33.251   6.408   2.872  1.00 20.00     0.006 A 
HETATM    7  C7  UNL     1     -34.602   6.335   6.405  1.00 20.00     0.048 C 
HETATM    8  I8  UNL     1     -32.371   7.763   1.566  1.00 20.00    -0.045 I 
ENDROOT
TORSDOF 0
ENDMDL
MODEL 2
REMARK VINA RESULT:      -4.3     11.847     12.288
REMARK  0 active torsions:
REMARK  status: ('A' for Active; 'I' for Inactive)
ROOT
HETATM    1  C1  UNL     1     -32.924  15.541  -3.799  1.00 20.00     0.002 A 
HETATM    2  C2  UNL     1     -33.828  14.654  -4.382  1.00 20.00     0.007 A 
HETATM    3  C3  UNL     1     -33.326  16.349  -2.736  1.00 20.00     0.018 A 
HETATM    4  C4  UNL     1     -35.539  15.384  -2.840  1.00 20.00     0.025 A 
HETATM    5  C5  UNL     1     -35.137  14.576  -3.903  1.00 20.00    -0.061 A 
HETATM    6  C6  UNL     1     -34.635  16.271  -2.257  1.00 20.00     0.006 A 
HETATM    7  C7  UNL     1     -36.103  13.627  -4.529  1.00 20.00     0.048 C 
HETATM    8  I8  UNL     1     -35.233  17.474  -0.672  1.00 20.00    -0.045 I 
ENDROOT
TORSDOF 0
ENDMDL
MODEL 3
REMARK VINA RESULT:      -4.2     11.810     12.655
REMARK  0 active torsions:
REMARK  status: ('A' for Active; 'I' for Inactive)
ROOT
HETATM    1  C1  UNL     1     -32.713  17.282  -2.481  1.00 20.00     0.002 A 
HETATM    2  C2  UNL     1     -33.139  16.200  -3.251  1.00 20.00     0.007 A 
HETATM    3  C3  UNL     1     -33.505  17.746  -1.431  1.00 20.00     0.018 A 
HETATM    4  C4  UNL     1     -35.150  16.044  -1.921  1.00 20.00     0.025 A 
HETATM    5  C5  UNL     1     -34.358  15.581  -2.971  1.00 20.00    -0.061 A 
HETATM    6  C6  UNL     1     -34.724  17.127  -1.151  1.00 20.00     0.006 A 
HETATM    7  C7  UNL     1     -34.812  14.424  -3.795  1.00 20.00     0.048 C 
HETATM    8  I8  UNL     1     -35.903  17.817   0.415  1.00 20.00    -0.045 I 
ENDROOT
TORSDOF 0
ENDMDL
MODEL 4
REMARK VINA RESULT:      -4.2     12.089     12.688
REMARK  0 active torsions:
REMARK  status: ('A' for Active; 'I' for Inactive)
ROOT
HETATM    1  C1  UNL     1     -35.398  16.237  -1.799  1.00 20.00     0.002 A 
HETATM    2  C2  UNL     1     -34.929  15.434  -2.838  1.00 20.00     0.007 A 
HETATM    3  C3  UNL     1     -34.587  17.242  -1.273  1.00 20.00     0.018 A 
HETATM    4  C4  UNL     1     -32.835  16.640  -2.826  1.00 20.00     0.025 A 
HETATM    5  C5  UNL     1     -33.647  15.635  -3.351  1.00 20.00    -0.061 A 
HETATM    6  C6  UNL     1     -33.304  17.444  -1.787  1.00 20.00     0.006 A 
HETATM    7  C7  UNL     1     -33.146  14.774  -4.462  1.00 20.00     0.048 C 
HETATM    8  I8  UNL     1     -32.097  18.942  -1.005  1.00 20.00    -0.045 I 
ENDROOT
TORSDOF 0
ENDMDL
MODEL 5
REMARK VINA RESULT:      -4.1     11.971     12.701
REMARK  0 active torsions:
REMARK  status: ('A' for Active; 'I' for Inactive)
ROOT
HETATM    1  C1  UNL     1     -35.176  17.013  -0.835  1.00 20.00     0.002 A 
HETATM    2  C2  UNL     1     -34.073  17.830  -0.590  1.00 20.00     0.007 A 
HETATM    3  C3  UNL     1     -35.167  16.134  -1.918  1.00 20.00     0.018 A 
HETATM    4  C4  UNL     1     -32.951  16.892  -2.513  1.00 20.00     0.025 A 
HETATM    5  C5  UNL     1     -32.960  17.770  -1.430  1.00 20.00    -0.061 A 
HETATM    6  C6  UNL     1     -34.054  16.074  -2.758  1.00 20.00     0.006 A 
HETATM    7  C7  UNL     1     -31.781  18.645  -1.167  1.00 20.00     0.048 C 
HETATM    8  I8  UNL     1     -34.040  14.764  -4.371  1.00 20.00    -0.045 I 
ENDROOT
TORSDOF 0
ENDMDL
MODEL 6
REMARK VINA RESULT:      -4.1     11.915     12.437
REMARK  0 active torsions:
REMARK  status: ('A' for Active; 'I' for Inactive)
ROOT
HETATM    1  C1  UNL     1     -32.765  17.633  -1.937  1.00 20.00     0.002 A 
HETATM    2  C2  UNL     1     -33.636  17.902  -0.883  1.00 20.00     0.007 A 
HETATM    3  C3  UNL     1     -33.088  16.655  -2.878  1.00 20.00     0.018 A 
HETATM    4  C4  UNL     1     -35.156  16.215  -1.707  1.00 20.00     0.025 A 
HETATM    5  C5  UNL     1     -34.832  17.192  -0.767  1.00 20.00    -0.061 A 
HETATM    6  C6  UNL     1     -34.284  15.945  -2.762  1.00 20.00     0.006 A 
HETATM    7  C7  UNL     1     -35.763  17.482   0.363  1.00 20.00     0.048 C 
HETATM    8  I8  UNL     1     -34.767  14.489  -4.163  1.00 20.00    -0.045 I 
ENDROOT
TORSDOF 0
ENDMDL
MODEL 7
REMARK VINA RESULT:      -4.0     12.026     12.357
REMARK  0 active torsions:
REMARK  status: ('A' for Active; 'I' for Inactive)
ROOT
HETATM    1  C1  UNL     1     -32.876  16.533  -3.136  1.00 20.00     0.002 A 
HETATM    2  C2  UNL     1     -33.389  17.089  -1.965  1.00 20.00     0.007 A 
HETATM    3  C3  UNL     1     -33.659  15.666  -3.899  1.00 20.00     0.018 A 
HETATM    4  C4  UNL     1     -35.469  15.908  -2.315  1.00 20.00     0.025 A 
HETATM    5  C5  UNL     1     -34.686  16.776  -1.554  1.00 20.00    -0.061 A 
HETATM    6  C6  UNL     1     -34.955  15.353  -3.488  1.00 20.00     0.006 A 
HETATM    7  C7  UNL     1     -35.233  17.370  -0.300  1.00 20.00     0.048 C 
HETATM    8  I8  UNL     1     -36.121  14.062  -4.623  1.00 20.00    -0.045 I 
ENDROOT
TORSDOF 0
ENDMDL
MODEL 8
REMARK VINA RESULT:      -3.9     16.736     17.151
REMARK  0 active torsions:
REMARK  status: ('A' for Active; 'I' for Inactive)
ROOT
HETATM    1  C1  UNL     1     -22.132  17.466   9.295  1.00 20.00     0.002 A 
HETATM    2  C2  UNL     1     -22.693  18.032   8.151  1.00 20.00     0.007 A 
HETATM    3  C3  UNL     1     -22.846  17.459  10.493  1.00 20.00     0.018 A 
HETATM    4  C4  UNL     1     -24.685  18.586   9.401  1.00 20.00     0.025 A 
HETATM    5  C5  UNL     1     -23.970  18.592   8.204  1.00 20.00    -0.061 A 
HETATM    6  C6  UNL     1     -24.124  18.020  10.546  1.00 20.00     0.006 A 
HETATM    7  C7  UNL     1     -24.569  19.198   6.979  1.00 20.00     0.048 C 
HETATM    8  I8  UNL     1     -25.189  18.008  12.330  1.00 20.00    -0.045 I 
ENDROOT
TORSDOF 0
ENDMDL
MODEL 9
REMARK VINA RESULT:      -3.7     16.807     17.104
REMARK  0 active torsions:
REMARK  status: ('A' for Active; 'I' for Inactive)
ROOT
HETATM    1  C1  UNL     1     -24.741  19.121   8.218  1.00 20.00     0.002 A 
HETATM    2  C2  UNL     1     -23.548  18.559   7.768  1.00 20.00     0.007 A 
HETATM    3  C3  UNL     1     -25.171  18.894   9.525  1.00 20.00     0.018 A 
HETATM    4  C4  UNL     1     -23.212  17.539   9.932  1.00 20.00     0.025 A 
HETATM    5  C5  UNL     1     -22.783  17.766   8.625  1.00 20.00    -0.061 A 
HETATM    6  C6  UNL     1     -24.406  18.102  10.383  1.00 20.00     0.006 A 
HETATM    7  C7  UNL     1     -21.506  17.165   8.141  1.00 20.00     0.048 C 
HETATM    8  I8  UNL     1     -25.044  17.764  12.331  1.00 20.00    -0.045 I 
ENDROOT
TORSDOF 0
ENDMDL
