MODEL 1
REMARK VINA RESULT:      -6.3      0.000      0.000
REMARK  0 active torsions:
REMARK  status: ('A' for Active; 'I' for Inactive)
ROOT
HETATM    1  C1  UNL     1     -34.282   6.501   6.030  1.00 20.00     0.001 A 
HETATM    2  C2  UNL     1     -34.872   5.272   5.740  1.00 20.00     0.001 A 
HETATM    3  C3  UNL     1     -33.481   7.133   5.079  1.00 20.00     0.007 A 
HETATM    4  C4  UNL     1     -34.661   4.673   4.497  1.00 20.00     0.007 A 
HETATM    5  C5  UNL     1     -33.270   6.534   3.836  1.00 20.00    -0.056 A 
HETATM    6  C6  UNL     1     -33.860   5.305   3.546  1.00 20.00    -0.056 A 
HETATM    7  C7  UNL     1     -32.409   7.230   2.832  1.00 20.00     0.049 C 
HETATM    8  C8  UNL     1     -33.648   4.644   2.223  1.00 20.00     0.049 C 
ENDROOT
TORSDOF 0
ENDMDL
MODEL 2
REMARK VINA RESULT:      -6.2      0.017      2.251
REMARK  0 active torsions:
REMARK  status: ('A' for Active; 'I' for Inactive)
ROOT
HETATM    1  C1  UNL     1     -34.871   5.248   5.737  1.00 20.00     0.001 A 
HETATM    2  C2  UNL     1     -34.285   6.478   6.033  1.00 20.00     0.001 A 
HETATM    3  C3  UNL     1     -34.660   4.656   4.492  1.00 20.00     0.007 A 
HETATM    4  C4  UNL     1     -33.488   7.118   5.082  1.00 20.00     0.007 A 
HETATM    5  C5  UNL     1     -33.864   5.295   3.541  1.00 20.00    -0.056 A 
HETATM    6  C6  UNL     1     -33.278   6.525   3.837  1.00 20.00    -0.056 A 
HETATM    7  C7  UNL     1     -33.651   4.642   2.215  1.00 20.00     0.049 C 
HETATM    8  C8  UNL     1     -32.421   7.229   2.835  1.00 20.00     0.049 C 
ENDROOT
TORSDOF 0
ENDMDL
MODEL 3
REMARK VINA RESULT:      -5.2      0.798      2.747
REMARK  0 active torsions:
REMARK  status: ('A' for Active; 'I' for Inactive)
ROOT
HETATM    1  C1  UNL     1     -32.893   6.135   2.490  1.00 20.00     0.001 A 
HETATM    2  C2  UNL     1     -33.533   4.896   2.504  1.00 20.00     0.001 A 
HETATM    3  C3  UNL     1     -32.958   6.967   3.608  1.00 20.00     0.007 A 
HETATM    4  C4  UNL     1     -34.239   4.488   3.636  1.00 20.00     0.007 A 
HETATM    5  C5  UNL     1     -33.664   6.559   4.740  1.00 20.00    -0.056 A 
HETATM    6  C6  UNL     1     -34.304   5.321   4.754  1.00 20.00    -0.056 A 
HETATM    7  C7  UNL     1     -33.720   7.467   5.926  1.00 20.00     0.049 C 
HETATM    8  C8  UNL     1     -35.067   4.864   5.954  1.00 20.00     0.049 C 
ENDROOT
TORSDOF 0
ENDMDL
MODEL 4
REMARK VINA RESULT:      -5.1      0.806      3.530
REMARK  0 active torsions:
REMARK  status: ('A' for Active; 'I' for Inactive)
ROOT
HETATM    1  C1  UNL     1     -33.607   4.899   2.546  1.00 20.00     0.001 A 
HETATM    2  C2  UNL     1     -32.943   6.124   2.513  1.00 20.00     0.001 A 
HETATM    3  C3  UNL     1     -34.299   4.510   3.693  1.00 20.00     0.007 A 
HETATM    4  C4  UNL     1     -32.970   6.963   3.628  1.00 20.00     0.007 A 
HETATM    5  C5  UNL     1     -34.326   5.348   4.808  1.00 20.00    -0.056 A 
HETATM    6  C6  UNL     1     -33.662   6.574   4.775  1.00 20.00    -0.056 A 
HETATM    7  C7  UNL     1     -35.075   4.912   6.025  1.00 20.00     0.049 C 
HETATM    8  C8  UNL     1     -33.677   7.487   5.958  1.00 20.00     0.049 C 
ENDROOT
TORSDOF 0
ENDMDL
MODEL 5
REMARK VINA RESULT:      -5.1      0.801      2.803
REMARK  0 active torsions:
REMARK  status: ('A' for Active; 'I' for Inactive)
ROOT
HETATM    1  C1  UNL     1     -32.156   7.261   2.877  1.00 20.00     0.001 A 
HETATM    2  C2  UNL     1     -32.678   6.197   2.144  1.00 20.00     0.001 A 
HETATM    3  C3  UNL     1     -32.607   7.502   4.176  1.00 20.00     0.007 A 
HETATM    4  C4  UNL     1     -33.652   5.372   2.707  1.00 20.00     0.007 A 
HETATM    5  C5  UNL     1     -33.581   6.677   4.739  1.00 20.00    -0.056 A 
HETATM    6  C6  UNL     1     -34.103   5.613   4.005  1.00 20.00    -0.056 A 
HETATM    7  C7  UNL     1     -34.048   6.954   6.131  1.00 20.00     0.049 C 
HETATM    8  C8  UNL     1     -35.147   4.717   4.588  1.00 20.00     0.049 C 
ENDROOT
TORSDOF 0
ENDMDL
MODEL 6
REMARK VINA RESULT:      -5.1      0.802      3.552
REMARK  0 active torsions:
REMARK  status: ('A' for Active; 'I' for Inactive)
ROOT
HETATM    1  C1  UNL     1     -32.682   6.189   2.139  1.00 20.00     0.001 A 
HETATM    2  C2  UNL     1     -32.156   7.251   2.874  1.00 20.00     0.001 A 
HETATM    3  C3  UNL     1     -33.659   5.366   2.701  1.00 20.00     0.007 A 
HETATM    4  C4  UNL     1     -32.605   7.490   4.173  1.00 20.00     0.007 A 
HETATM    5  C5  UNL     1     -34.108   5.606   4.000  1.00 20.00    -0.056 A 
HETATM    6  C6  UNL     1     -33.581   6.667   4.735  1.00 20.00    -0.056 A 
HETATM    7  C7  UNL     1     -35.155   4.713   4.582  1.00 20.00     0.049 C 
HETATM    8  C8  UNL     1     -34.046   6.942   6.128  1.00 20.00     0.049 C 
ENDROOT
TORSDOF 0
ENDMDL
MODEL 7
REMARK VINA RESULT:      -4.7      0.804      2.691
REMARK  0 active torsions:
REMARK  status: ('A' for Active; 'I' for Inactive)
ROOT
HETATM    1  C1  UNL     1     -34.739   4.397   4.087  1.00 20.00     0.001 A 
HETATM    2  C2  UNL     1     -33.989   4.530   2.919  1.00 20.00     0.001 A 
HETATM    3  C3  UNL     1     -34.640   5.358   5.094  1.00 20.00     0.007 A 
HETATM    4  C4  UNL     1     -33.139   5.624   2.757  1.00 20.00     0.007 A 
HETATM    5  C5  UNL     1     -33.790   6.452   4.932  1.00 20.00    -0.056 A 
HETATM    6  C6  UNL     1     -33.040   6.585   3.764  1.00 20.00    -0.056 A 
HETATM    7  C7  UNL     1     -33.701   7.469   6.022  1.00 20.00     0.049 C 
HETATM    8  C8  UNL     1     -32.123   7.748   3.568  1.00 20.00     0.049 C 
ENDROOT
TORSDOF 0
ENDMDL
MODEL 8
REMARK VINA RESULT:      -4.4     11.795     12.506
REMARK  0 active torsions:
REMARK  status: ('A' for Active; 'I' for Inactive)
ROOT
HETATM    1  C1  UNL     1     -33.527  14.663  -4.329  1.00 20.00     0.001 A 
HETATM    2  C2  UNL     1     -34.817  14.336  -3.913  1.00 20.00     0.001 A 
HETATM    3  C3  UNL     1     -32.842  15.714  -3.718  1.00 20.00     0.007 A 
HETATM    4  C4  UNL     1     -35.424  15.059  -2.886  1.00 20.00     0.007 A 
HETATM    5  C5  UNL     1     -33.450  16.437  -2.691  1.00 20.00    -0.056 A 
HETATM    6  C6  UNL     1     -34.739  16.110  -2.275  1.00 20.00    -0.056 A 
HETATM    7  C7  UNL     1     -32.697  17.558  -2.050  1.00 20.00     0.049 C 
HETATM    8  C8  UNL     1     -35.410  16.870  -1.178  1.00 20.00     0.049 C 
ENDROOT
TORSDOF 0
ENDMDL
MODEL 9
REMARK VINA RESULT:      -4.4     11.818     12.616
REMARK  0 active torsions:
REMARK  status: ('A' for Active; 'I' for Inactive)
ROOT
HETATM    1  C1  UNL     1     -34.860  14.369  -3.905  1.00 20.00     0.001 A 
HETATM    2  C2  UNL     1     -33.566  14.679  -4.320  1.00 20.00     0.001 A 
HETATM    3  C3  UNL     1     -35.454  15.095  -2.872  1.00 20.00     0.007 A 
HETATM    4  C4  UNL     1     -32.864  15.716  -3.704  1.00 20.00     0.007 A 
HETATM    5  C5  UNL     1     -34.753  16.132  -2.256  1.00 20.00    -0.056 A 
HETATM    6  C6  UNL     1     -33.459  16.442  -2.671  1.00 20.00    -0.056 A 
HETATM    7  C7  UNL     1     -35.410  16.896  -1.153  1.00 20.00     0.049 C 
HETATM    8  C8  UNL     1     -32.688  17.547  -2.025  1.00 20.00     0.049 C 
ENDROOT
TORSDOF 0
ENDMDL
