MODEL 1
REMARK VINA RESULT:      -5.1      0.000      0.000
REMARK  2 active torsions:
REMARK  status: ('A' for Active; 'I' for Inactive)
REMARK    1  A    between atoms: C6_6  and  C7_7 
REMARK    2  A    between atoms: C7_7  and  S8_8 
ROOT
HETATM    1  C1  UNL     1     -34.983   5.186   5.375  1.00 20.00     0.000 A 
HETATM    2  C2  UNL     1     -34.341   6.298   5.918  1.00 20.00     0.001 A 
HETATM    3  C3  UNL     1     -34.693   4.781   4.072  1.00 20.00     0.001 A 
HETATM    4  C4  UNL     1     -33.409   7.006   5.159  1.00 20.00     0.008 A 
HETATM    5  C5  UNL     1     -33.762   5.489   3.313  1.00 20.00     0.008 A 
HETATM    6  C6  UNL     1     -33.120   6.601   3.856  1.00 20.00    -0.049 A 
ENDROOT
BRANCH   6   7
HETATM    7  C7  UNL     1     -32.124   7.358   3.043  1.00 20.00     0.109 C 
BRANCH   7   8
HETATM    8  S8  UNL     1     -32.779   7.851   1.420  1.00 20.00    -0.178 SA
HETATM    9  H16 UNL     1     -32.067   6.967   0.708  1.00 20.00     0.101 HD
ENDBRANCH   7   8
ENDBRANCH   6   7
TORSDOF 2
ENDMDL
MODEL 2
REMARK VINA RESULT:      -5.1      0.018      1.708
REMARK  2 active torsions:
REMARK  status: ('A' for Active; 'I' for Inactive)
REMARK    1  A    between atoms: C6_6  and  C7_7 
REMARK    2  A    between atoms: C7_7  and  S8_8 
ROOT
HETATM    1  C1  UNL     1     -34.985   5.175   5.372  1.00 20.00     0.000 A 
HETATM    2  C2  UNL     1     -34.680   4.769   4.073  1.00 20.00     0.001 A 
HETATM    3  C3  UNL     1     -34.358   6.296   5.918  1.00 20.00     0.001 A 
HETATM    4  C4  UNL     1     -33.746   5.482   3.320  1.00 20.00     0.008 A 
HETATM    5  C5  UNL     1     -33.425   7.008   5.165  1.00 20.00     0.008 A 
HETATM    6  C6  UNL     1     -33.118   6.601   3.867  1.00 20.00    -0.049 A 
ENDROOT
BRANCH   6   7
HETATM    7  C7  UNL     1     -32.120   7.364   3.063  1.00 20.00     0.109 C 
BRANCH   7   8
HETATM    8  S8  UNL     1     -32.759   7.839   1.428  1.00 20.00    -0.178 SA
HETATM    9  H16 UNL     1     -32.130   9.020   1.371  1.00 20.00     0.101 HD
ENDBRANCH   7   8
ENDBRANCH   6   7
TORSDOF 2
ENDMDL
MODEL 3
REMARK VINA RESULT:      -4.0     11.571     12.131
REMARK  2 active torsions:
REMARK  status: ('A' for Active; 'I' for Inactive)
REMARK    1  A    between atoms: C6_6  and  C7_7 
REMARK    2  A    between atoms: C7_7  and  S8_8 
ROOT
HETATM    1  C1  UNL     1     -33.909  17.574  -1.374  1.00 20.00     0.000 A 
HETATM    2  C2  UNL     1     -35.069  16.799  -1.354  1.00 20.00     0.001 A 
HETATM    3  C3  UNL     1     -32.904  17.300  -2.302  1.00 20.00     0.001 A 
HETATM    4  C4  UNL     1     -35.223  15.750  -2.260  1.00 20.00     0.008 A 
HETATM    5  C5  UNL     1     -33.058  16.252  -3.208  1.00 20.00     0.008 A 
HETATM    6  C6  UNL     1     -34.217  15.476  -3.187  1.00 20.00    -0.049 A 
ENDROOT
BRANCH   6   7
HETATM    7  C7  UNL     1     -34.382  14.355  -4.157  1.00 20.00     0.109 C 
BRANCH   7   8
HETATM    8  S8  UNL     1     -36.128  13.974  -4.492  1.00 20.00    -0.178 SA
HETATM    9  H16 UNL     1     -36.040  12.666  -4.213  1.00 20.00     0.101 HD
ENDBRANCH   7   8
ENDBRANCH   6   7
TORSDOF 2
ENDMDL
MODEL 4
REMARK VINA RESULT:      -4.0     11.571     12.135
REMARK  2 active torsions:
REMARK  status: ('A' for Active; 'I' for Inactive)
REMARK    1  A    between atoms: C6_6  and  C7_7 
REMARK    2  A    between atoms: C7_7  and  S8_8 
ROOT
HETATM    1  C1  UNL     1     -33.910  17.574  -1.375  1.00 20.00     0.000 A 
HETATM    2  C2  UNL     1     -32.905  17.299  -2.302  1.00 20.00     0.001 A 
HETATM    3  C3  UNL     1     -35.069  16.799  -1.354  1.00 20.00     0.001 A 
HETATM    4  C4  UNL     1     -33.059  16.250  -3.209  1.00 20.00     0.008 A 
HETATM    5  C5  UNL     1     -35.224  15.751  -2.260  1.00 20.00     0.008 A 
HETATM    6  C6  UNL     1     -34.219  15.476  -3.187  1.00 20.00    -0.049 A 
ENDROOT
BRANCH   6   7
HETATM    7  C7  UNL     1     -34.386  14.354  -4.156  1.00 20.00     0.109 C 
BRANCH   7   8
HETATM    8  S8  UNL     1     -36.133  13.976  -4.492  1.00 20.00    -0.178 SA
HETATM    9  H16 UNL     1     -36.292  13.132  -3.463  1.00 20.00     0.101 HD
ENDBRANCH   7   8
ENDBRANCH   6   7
TORSDOF 2
ENDMDL
MODEL 5
REMARK VINA RESULT:      -3.9     11.722     12.288
REMARK  2 active torsions:
REMARK  status: ('A' for Active; 'I' for Inactive)
REMARK    1  A    between atoms: C6_6  and  C7_7 
REMARK    2  A    between atoms: C7_7  and  S8_8 
ROOT
HETATM    1  C1  UNL     1     -34.345  14.840  -3.803  1.00 20.00     0.000 A 
HETATM    2  C2  UNL     1     -35.321  15.179  -2.866  1.00 20.00     0.001 A 
HETATM    3  C3  UNL     1     -33.136  15.536  -3.833  1.00 20.00     0.001 A 
HETATM    4  C4  UNL     1     -35.089  16.215  -1.960  1.00 20.00     0.008 A 
HETATM    5  C5  UNL     1     -32.905  16.571  -2.928  1.00 20.00     0.008 A 
HETATM    6  C6  UNL     1     -33.881  16.911  -1.992  1.00 20.00    -0.049 A 
ENDROOT
BRANCH   6   7
HETATM    7  C7  UNL     1     -33.631  18.018  -1.024  1.00 20.00     0.109 C 
BRANCH   7   8
HETATM    8  S8  UNL     1     -31.868  18.440  -0.888  1.00 20.00    -0.178 SA
HETATM    9  H16 UNL     1     -31.485  17.268  -0.364  1.00 20.00     0.101 HD
ENDBRANCH   7   8
ENDBRANCH   6   7
TORSDOF 2
ENDMDL
MODEL 6
REMARK VINA RESULT:      -3.8     11.862     12.153
REMARK  2 active torsions:
REMARK  status: ('A' for Active; 'I' for Inactive)
REMARK    1  A    between atoms: C6_6  and  C7_7 
REMARK    2  A    between atoms: C7_7  and  S8_8 
ROOT
HETATM    1  C1  UNL     1     -33.235  16.355  -2.717  1.00 20.00     0.000 A 
HETATM    2  C2  UNL     1     -34.526  16.421  -2.193  1.00 20.00     0.001 A 
HETATM    3  C3  UNL     1     -32.961  15.505  -3.788  1.00 20.00     0.001 A 
HETATM    4  C4  UNL     1     -35.542  15.637  -2.739  1.00 20.00     0.008 A 
HETATM    5  C5  UNL     1     -33.976  14.720  -4.334  1.00 20.00     0.008 A 
HETATM    6  C6  UNL     1     -35.267  14.786  -3.809  1.00 20.00    -0.049 A 
ENDROOT
BRANCH   6   7
HETATM    7  C7  UNL     1     -36.352  13.946  -4.394  1.00 20.00     0.109 C 
BRANCH   7   8
HETATM    8  S8  UNL     1     -37.972  14.772  -4.349  1.00 20.00    -0.178 SA
HETATM    9  H16 UNL     1     -37.489  16.019  -4.256  1.00 20.00     0.101 HD
ENDBRANCH   7   8
ENDBRANCH   6   7
TORSDOF 2
ENDMDL
MODEL 7
REMARK VINA RESULT:      -3.8     11.749     12.524
REMARK  2 active torsions:
REMARK  status: ('A' for Active; 'I' for Inactive)
REMARK    1  A    between atoms: C6_6  and  C7_7 
REMARK    2  A    between atoms: C7_7  and  S8_8 
ROOT
HETATM    1  C1  UNL     1     -34.998  15.554  -2.513  1.00 20.00     0.000 A 
HETATM    2  C2  UNL     1     -33.847  15.642  -3.296  1.00 20.00     0.001 A 
HETATM    3  C3  UNL     1     -35.210  16.467  -1.480  1.00 20.00     0.001 A 
HETATM    4  C4  UNL     1     -32.907  16.642  -3.044  1.00 20.00     0.008 A 
HETATM    5  C5  UNL     1     -34.271  17.466  -1.228  1.00 20.00     0.008 A 
HETATM    6  C6  UNL     1     -33.119  17.553  -2.010  1.00 20.00    -0.049 A 
ENDROOT
BRANCH   6   7
HETATM    7  C7  UNL     1     -32.115  18.622  -1.740  1.00 20.00     0.109 C 
BRANCH   7   8
HETATM    8  S8  UNL     1     -31.278  18.405  -0.140  1.00 20.00    -0.178 SA
HETATM    9  H16 UNL     1     -30.149  17.888  -0.643  1.00 20.00     0.101 HD
ENDBRANCH   7   8
ENDBRANCH   6   7
TORSDOF 2
ENDMDL
MODEL 8
REMARK VINA RESULT:      -3.8     11.716     12.191
REMARK  2 active torsions:
REMARK  status: ('A' for Active; 'I' for Inactive)
REMARK    1  A    between atoms: C6_6  and  C7_7 
REMARK    2  A    between atoms: C7_7  and  S8_8 
ROOT
HETATM    1  C1  UNL     1     -34.087  14.836  -4.046  1.00 20.00     0.000 A 
HETATM    2  C2  UNL     1     -32.981  15.645  -3.786  1.00 20.00     0.001 A 
HETATM    3  C3  UNL     1     -35.253  14.987  -3.295  1.00 20.00     0.001 A 
HETATM    4  C4  UNL     1     -33.040  16.604  -2.775  1.00 20.00     0.008 A 
HETATM    5  C5  UNL     1     -35.312  15.945  -2.284  1.00 20.00     0.008 A 
HETATM    6  C6  UNL     1     -34.206  16.753  -2.023  1.00 20.00    -0.049 A 
ENDROOT
BRANCH   6   7
HETATM    7  C7  UNL     1     -34.270  17.778  -0.941  1.00 20.00     0.109 C 
BRANCH   7   8
HETATM    8  S8  UNL     1     -35.440  17.327   0.376  1.00 20.00    -0.178 SA
HETATM    9  H16 UNL     1     -34.730  16.291   0.844  1.00 20.00     0.101 HD
ENDBRANCH   7   8
ENDBRANCH   6   7
TORSDOF 2
ENDMDL
MODEL 9
REMARK VINA RESULT:      -3.6     11.896     12.585
REMARK  2 active torsions:
REMARK  status: ('A' for Active; 'I' for Inactive)
REMARK    1  A    between atoms: C6_6  and  C7_7 
REMARK    2  A    between atoms: C7_7  and  S8_8 
ROOT
HETATM    1  C1  UNL     1     -33.122  16.200  -3.327  1.00 20.00     0.000 A 
HETATM    2  C2  UNL     1     -34.329  15.530  -3.126  1.00 20.00     0.001 A 
HETATM    3  C3  UNL     1     -32.761  17.253  -2.486  1.00 20.00     0.001 A 
HETATM    4  C4  UNL     1     -35.175  15.913  -2.085  1.00 20.00     0.008 A 
HETATM    5  C5  UNL     1     -33.606  17.636  -1.446  1.00 20.00     0.008 A 
HETATM    6  C6  UNL     1     -34.813  16.967  -1.245  1.00 20.00    -0.049 A 
ENDROOT
BRANCH   6   7
HETATM    7  C7  UNL     1     -35.717  17.377  -0.131  1.00 20.00     0.109 C 
BRANCH   7   8
HETATM    8  S8  UNL     1     -37.192  18.262  -0.721  1.00 20.00    -0.178 SA
HETATM    9  H16 UNL     1     -37.496  17.392  -1.693  1.00 20.00     0.101 HD
ENDBRANCH   7   8
ENDBRANCH   6   7
TORSDOF 2
ENDMDL
