MODEL 1
REMARK VINA RESULT:      -6.2      0.000      0.000
REMARK  1 active torsions:
REMARK  status: ('A' for Active; 'I' for Inactive)
REMARK    1  A    between atoms: C6_6  and  C9_9 
ROOT
HETATM    1  C1  UNL     1     -34.923   5.398   5.589  1.00 20.00     0.001 A 
HETATM    2  C2  UNL     1     -34.266   6.589   5.899  1.00 20.00     0.001 A 
HETATM    3  C3  UNL     1     -34.679   4.763   4.371  1.00 20.00     0.007 A 
HETATM    4  C4  UNL     1     -33.365   7.145   4.990  1.00 20.00     0.007 A 
HETATM    5  C5  UNL     1     -33.778   5.320   3.463  1.00 20.00    -0.056 A 
HETATM    6  C6  UNL     1     -33.122   6.510   3.772  1.00 20.00    -0.053 A 
HETATM    7  C7  UNL     1     -33.532   4.621   2.165  1.00 20.00     0.049 C 
ENDROOT
BRANCH   6   8
HETATM    8  C9  UNL     1     -32.154   7.125   2.815  1.00 20.00     0.034 C 
HETATM    9  C8  UNL     1     -32.850   7.951   1.738  1.00 20.00     0.010 C 
ENDBRANCH   6   8
TORSDOF 1
ENDMDL
MODEL 2
REMARK VINA RESULT:      -5.4      0.532      2.545
REMARK  1 active torsions:
REMARK  status: ('A' for Active; 'I' for Inactive)
REMARK    1  A    between atoms: C6_6  and  C9_9 
ROOT
HETATM    1  C1  UNL     1     -34.211   6.564   6.132  1.00 20.00     0.001 A 
HETATM    2  C2  UNL     1     -34.908   5.398   5.817  1.00 20.00     0.001 A 
HETATM    3  C3  UNL     1     -33.410   7.180   5.170  1.00 20.00     0.007 A 
HETATM    4  C4  UNL     1     -34.804   4.848   4.540  1.00 20.00     0.007 A 
HETATM    5  C5  UNL     1     -33.307   6.629   3.893  1.00 20.00    -0.056 A 
HETATM    6  C6  UNL     1     -34.003   5.463   3.577  1.00 20.00    -0.053 A 
HETATM    7  C7  UNL     1     -32.444   7.307   2.878  1.00 20.00     0.049 C 
ENDROOT
BRANCH   6   8
HETATM    8  C9  UNL     1     -33.907   4.855   2.216  1.00 20.00     0.034 C 
HETATM    9  C8  UNL     1     -32.784   3.828   2.120  1.00 20.00     0.010 C 
ENDBRANCH   6   8
TORSDOF 1
ENDMDL
MODEL 3
REMARK VINA RESULT:      -5.2      0.683      2.358
REMARK  1 active torsions:
REMARK  status: ('A' for Active; 'I' for Inactive)
REMARK    1  A    between atoms: C6_6  and  C9_9 
ROOT
HETATM    1  C1  UNL     1     -34.898   4.422   4.494  1.00 20.00     0.001 A 
HETATM    2  C2  UNL     1     -34.287   4.294   3.247  1.00 20.00     0.001 A 
HETATM    3  C3  UNL     1     -34.632   5.536   5.289  1.00 20.00     0.007 A 
HETATM    4  C4  UNL     1     -33.410   5.279   2.795  1.00 20.00     0.007 A 
HETATM    5  C5  UNL     1     -33.755   6.522   4.838  1.00 20.00    -0.056 A 
HETATM    6  C6  UNL     1     -33.143   6.394   3.592  1.00 20.00    -0.053 A 
HETATM    7  C7  UNL     1     -33.486   7.707   5.707  1.00 20.00     0.049 C 
ENDROOT
BRANCH   6   8
HETATM    8  C9  UNL     1     -32.199   7.436   3.088  1.00 20.00     0.034 C 
HETATM    9  C8  UNL     1     -32.432   7.764   1.616  1.00 20.00     0.010 C 
ENDBRANCH   6   8
TORSDOF 1
ENDMDL
MODEL 4
REMARK VINA RESULT:      -4.6     11.475     12.373
REMARK  1 active torsions:
REMARK  status: ('A' for Active; 'I' for Inactive)
REMARK    1  A    between atoms: C6_6  and  C9_9 
ROOT
HETATM    1  C1  UNL     1     -34.858  14.391  -3.897  1.00 20.00     0.001 A 
HETATM    2  C2  UNL     1     -33.557  14.693  -4.299  1.00 20.00     0.001 A 
HETATM    3  C3  UNL     1     -35.456  15.119  -2.869  1.00 20.00     0.007 A 
HETATM    4  C4  UNL     1     -32.855  15.723  -3.674  1.00 20.00     0.007 A 
HETATM    5  C5  UNL     1     -34.754  16.150  -2.244  1.00 20.00    -0.056 A 
HETATM    6  C6  UNL     1     -33.454  16.452  -2.646  1.00 20.00    -0.053 A 
HETATM    7  C7  UNL     1     -35.417  16.917  -1.146  1.00 20.00     0.049 C 
ENDROOT
BRANCH   6   8
HETATM    8  C9  UNL     1     -32.682  17.550  -1.991  1.00 20.00     0.034 C 
HETATM    9  C8  UNL     1     -32.620  18.807  -2.853  1.00 20.00     0.010 C 
ENDBRANCH   6   8
TORSDOF 1
ENDMDL
MODEL 5
REMARK VINA RESULT:      -4.6     11.685     12.586
REMARK  1 active torsions:
REMARK  status: ('A' for Active; 'I' for Inactive)
REMARK    1  A    between atoms: C6_6  and  C9_9 
ROOT
HETATM    1  C1  UNL     1     -34.495  15.494  -3.073  1.00 20.00     0.001 A 
HETATM    2  C2  UNL     1     -33.256  16.032  -3.421  1.00 20.00     0.001 A 
HETATM    3  C3  UNL     1     -35.185  15.991  -1.968  1.00 20.00     0.007 A 
HETATM    4  C4  UNL     1     -32.707  17.066  -2.663  1.00 20.00     0.007 A 
HETATM    5  C5  UNL     1     -34.636  17.025  -1.210  1.00 20.00    -0.056 A 
HETATM    6  C6  UNL     1     -33.397  17.563  -1.557  1.00 20.00    -0.053 A 
HETATM    7  C7  UNL     1     -35.394  17.542  -0.031  1.00 20.00     0.049 C 
ENDROOT
BRANCH   6   8
HETATM    8  C9  UNL     1     -32.789  18.670  -0.760  1.00 20.00     0.034 C 
HETATM    9  C8  UNL     1     -31.337  18.387  -0.390  1.00 20.00     0.010 C 
ENDBRANCH   6   8
TORSDOF 1
ENDMDL
MODEL 6
REMARK VINA RESULT:      -4.5     11.594     12.595
REMARK  1 active torsions:
REMARK  status: ('A' for Active; 'I' for Inactive)
REMARK    1  A    between atoms: C6_6  and  C9_9 
ROOT
HETATM    1  C1  UNL     1     -33.720  15.602  -3.555  1.00 20.00     0.001 A 
HETATM    2  C2  UNL     1     -34.922  15.427  -2.871  1.00 20.00     0.001 A 
HETATM    3  C3  UNL     1     -32.807  16.566  -3.126  1.00 20.00     0.007 A 
HETATM    4  C4  UNL     1     -35.213  16.216  -1.758  1.00 20.00     0.007 A 
HETATM    5  C5  UNL     1     -33.098  17.355  -2.013  1.00 20.00    -0.056 A 
HETATM    6  C6  UNL     1     -34.300  17.181  -1.329  1.00 20.00    -0.053 A 
HETATM    7  C7  UNL     1     -32.105  18.381  -1.572  1.00 20.00     0.049 C 
ENDROOT
BRANCH   6   8
HETATM    8  C9  UNL     1     -34.634  18.014  -0.136  1.00 20.00     0.034 C 
HETATM    9  C8  UNL     1     -35.680  17.354   0.757  1.00 20.00     0.010 C 
ENDBRANCH   6   8
TORSDOF 1
ENDMDL
MODEL 7
REMARK VINA RESULT:      -4.5     11.373     12.104
REMARK  1 active torsions:
REMARK  status: ('A' for Active; 'I' for Inactive)
REMARK    1  A    between atoms: C6_6  and  C9_9 
ROOT
HETATM    1  C1  UNL     1     -33.632  17.312  -1.915  1.00 20.00     0.001 A 
HETATM    2  C2  UNL     1     -34.954  16.971  -1.632  1.00 20.00     0.001 A 
HETATM    3  C3  UNL     1     -32.907  16.576  -2.852  1.00 20.00     0.007 A 
HETATM    4  C4  UNL     1     -35.552  15.893  -2.285  1.00 20.00     0.007 A 
HETATM    5  C5  UNL     1     -33.505  15.498  -3.505  1.00 20.00    -0.056 A 
HETATM    6  C6  UNL     1     -34.827  15.156  -3.222  1.00 20.00    -0.053 A 
HETATM    7  C7  UNL     1     -32.709  14.724  -4.506  1.00 20.00     0.049 C 
ENDROOT
BRANCH   6   8
HETATM    8  C9  UNL     1     -35.487  14.006  -3.908  1.00 20.00     0.034 C 
HETATM    9  C8  UNL     1     -36.889  14.352  -4.398  1.00 20.00     0.010 C 
ENDBRANCH   6   8
TORSDOF 1
ENDMDL
MODEL 8
REMARK VINA RESULT:      -4.4      0.934      3.170
REMARK  1 active torsions:
REMARK  status: ('A' for Active; 'I' for Inactive)
REMARK    1  A    between atoms: C6_6  and  C9_9 
ROOT
HETATM    1  C1  UNL     1     -31.826   7.626   3.231  1.00 20.00     0.001 A 
HETATM    2  C2  UNL     1     -32.412   7.896   4.468  1.00 20.00     0.001 A 
HETATM    3  C3  UNL     1     -32.277   6.551   2.466  1.00 20.00     0.007 A 
HETATM    4  C4  UNL     1     -33.449   7.092   4.939  1.00 20.00     0.007 A 
HETATM    5  C5  UNL     1     -33.314   5.746   2.937  1.00 20.00    -0.056 A 
HETATM    6  C6  UNL     1     -33.900   6.015   4.173  1.00 20.00    -0.053 A 
HETATM    7  C7  UNL     1     -33.781   4.601   2.099  1.00 20.00     0.049 C 
ENDROOT
BRANCH   6   8
HETATM    8  C9  UNL     1     -35.011   5.167   4.698  1.00 20.00     0.034 C 
HETATM    9  C8  UNL     1     -34.909   4.948   6.204  1.00 20.00     0.010 C 
ENDBRANCH   6   8
TORSDOF 1
ENDMDL
MODEL 9
REMARK VINA RESULT:      -4.3     11.720     12.252
REMARK  1 active torsions:
REMARK  status: ('A' for Active; 'I' for Inactive)
REMARK    1  A    between atoms: C6_6  and  C9_9 
ROOT
HETATM    1  C1  UNL     1     -34.410  17.021  -1.628  1.00 20.00     0.001 A 
HETATM    2  C2  UNL     1     -33.153  17.048  -2.232  1.00 20.00     0.001 A 
HETATM    3  C3  UNL     1     -35.405  16.181  -2.127  1.00 20.00     0.007 A 
HETATM    4  C4  UNL     1     -32.891  16.236  -3.335  1.00 20.00     0.007 A 
HETATM    5  C5  UNL     1     -35.144  15.368  -3.230  1.00 20.00    -0.056 A 
HETATM    6  C6  UNL     1     -33.887  15.395  -3.834  1.00 20.00    -0.053 A 
HETATM    7  C7  UNL     1     -36.225  14.475  -3.746  1.00 20.00     0.049 C 
ENDROOT
BRANCH   6   8
HETATM    8  C9  UNL     1     -33.584  14.534  -5.016  1.00 20.00     0.034 C 
HETATM    9  C8  UNL     1     -33.953  15.209  -6.333  1.00 20.00     0.010 C 
ENDBRANCH   6   8
TORSDOF 1
ENDMDL
