MODEL 1
REMARK VINA RESULT:      -4.0      0.000      0.000
REMARK  5 active torsions:
REMARK  status: ('A' for Active; 'I' for Inactive)
REMARK    1  A    between atoms: C3_3  and  C5_5 
REMARK    2  A    between atoms: C4_4  and  C6_6 
REMARK    3  A    between atoms: C5_5  and  S7_7 
REMARK    4  A    between atoms: C6_6  and  S8_8 
REMARK    5  A    between atoms: S7_7  and  S8_8 
ROOT
HETATM    1  S7  UNL     1     -32.931   6.883   3.082  1.00 20.00    -0.098 SA
ENDROOT
BRANCH   1   2
HETATM    2  C5  UNL     1     -32.188   7.579   1.579  1.00 20.00     0.086 C 
BRANCH   2   3
HETATM    3  C3  UNL     1     -32.959   8.813   1.124  1.00 20.00     0.006 C 
HETATM    4  C1  UNL     1     -33.383   8.686  -0.331  1.00 20.00     0.006 C 
ENDBRANCH   2   3
ENDBRANCH   1   2
BRANCH   1   5
HETATM    5  S8  UNL     1     -33.309   4.949   2.498  1.00 20.00    -0.098 SA
BRANCH   5   6
HETATM    6  C6  UNL     1     -34.260   4.320   3.902  1.00 20.00     0.086 C 
BRANCH   6   7
HETATM    7  C4  UNL     1     -35.030   5.451   4.574  1.00 20.00     0.006 C 
HETATM    8  C2  UNL     1     -34.750   5.490   6.071  1.00 20.00     0.006 C 
ENDBRANCH   6   7
ENDBRANCH   5   6
ENDBRANCH   1   5
TORSDOF 5
ENDMDL
MODEL 2
REMARK VINA RESULT:      -4.0      0.044      5.123
REMARK  5 active torsions:
REMARK  status: ('A' for Active; 'I' for Inactive)
REMARK    1  A    between atoms: C3_3  and  C5_5 
REMARK    2  A    between atoms: C4_4  and  C6_6 
REMARK    3  A    between atoms: C5_5  and  S7_7 
REMARK    4  A    between atoms: C6_6  and  S8_8 
REMARK    5  A    between atoms: S7_7  and  S8_8 
ROOT
HETATM    1  S7  UNL     1     -33.312   4.951   2.456  1.00 20.00    -0.098 SA
ENDROOT
BRANCH   1   2
HETATM    2  C5  UNL     1     -34.204   4.309   3.901  1.00 20.00     0.086 C 
BRANCH   2   3
HETATM    3  C3  UNL     1     -35.027   5.413   4.555  1.00 20.00     0.006 C 
HETATM    4  C1  UNL     1     -34.759   5.482   6.051  1.00 20.00     0.006 C 
ENDBRANCH   2   3
ENDBRANCH   1   2
BRANCH   1   5
HETATM    5  S8  UNL     1     -32.858   6.860   3.068  1.00 20.00    -0.098 SA
BRANCH   5   6
HETATM    6  C6  UNL     1     -32.160   7.573   1.559  1.00 20.00     0.086 C 
BRANCH   6   7
HETATM    7  C4  UNL     1     -32.954   8.804   1.133  1.00 20.00     0.006 C 
HETATM    8  C2  UNL     1     -33.392   8.697  -0.321  1.00 20.00     0.006 C 
ENDBRANCH   6   7
ENDBRANCH   5   6
ENDBRANCH   1   5
TORSDOF 5
ENDMDL
MODEL 3
REMARK VINA RESULT:      -3.7      1.080      4.742
REMARK  5 active torsions:
REMARK  status: ('A' for Active; 'I' for Inactive)
REMARK    1  A    between atoms: C3_3  and  C5_5 
REMARK    2  A    between atoms: C4_4  and  C6_6 
REMARK    3  A    between atoms: C5_5  and  S7_7 
REMARK    4  A    between atoms: C6_6  and  S8_8 
REMARK    5  A    between atoms: S7_7  and  S8_8 
ROOT
HETATM    1  S7  UNL     1     -34.024   4.094   3.869  1.00 20.00    -0.098 SA
ENDROOT
BRANCH   1   2
HETATM    2  C5  UNL     1     -35.107   5.395   4.527  1.00 20.00     0.086 C 
BRANCH   2   3
HETATM    3  C3  UNL     1     -34.776   5.677   5.988  1.00 20.00     0.006 C 
HETATM    4  C1  UNL     1     -33.876   6.897   6.120  1.00 20.00     0.006 C 
ENDBRANCH   2   3
ENDBRANCH   1   2
BRANCH   1   5
HETATM    5  S8  UNL     1     -33.200   5.031   2.236  1.00 20.00    -0.098 SA
BRANCH   5   6
HETATM    6  C6  UNL     1     -33.058   6.737   2.824  1.00 20.00     0.086 C 
BRANCH   6   7
HETATM    7  C4  UNL     1     -32.112   7.532   1.931  1.00 20.00     0.006 C 
HETATM    8  C2  UNL     1     -32.885   8.421   0.967  1.00 20.00     0.006 C 
ENDBRANCH   6   7
ENDBRANCH   5   6
ENDBRANCH   1   5
TORSDOF 5
ENDMDL
MODEL 4
REMARK VINA RESULT:      -3.1     11.033     11.773
REMARK  5 active torsions:
REMARK  status: ('A' for Active; 'I' for Inactive)
REMARK    1  A    between atoms: C3_3  and  C5_5 
REMARK    2  A    between atoms: C4_4  and  C6_6 
REMARK    3  A    between atoms: C5_5  and  S7_7 
REMARK    4  A    between atoms: C6_6  and  S8_8 
REMARK    5  A    between atoms: S7_7  and  S8_8 
ROOT
HETATM    1  S7  UNL     1     -34.290  15.267  -6.025  1.00 20.00    -0.098 SA
ENDROOT
BRANCH   1   2
HETATM    2  C5  UNL     1     -35.827  14.303  -6.110  1.00 20.00     0.086 C 
BRANCH   2   3
HETATM    3  C3  UNL     1     -36.238  13.830  -4.721  1.00 20.00     0.006 C 
HETATM    4  C1  UNL     1     -37.545  14.477  -4.287  1.00 20.00     0.006 C 
ENDBRANCH   2   3
ENDBRANCH   1   2
BRANCH   1   5
HETATM    5  S8  UNL     1     -33.652  14.857  -4.115  1.00 20.00    -0.098 SA
BRANCH   5   6
HETATM    6  C6  UNL     1     -33.133  16.492  -3.541  1.00 20.00     0.086 C 
BRANCH   6   7
HETATM    7  C4  UNL     1     -33.720  16.785  -2.165  1.00 20.00     0.006 C 
HETATM    8  C2  UNL     1     -35.059  16.085  -1.979  1.00 20.00     0.006 C 
ENDBRANCH   6   7
ENDBRANCH   5   6
ENDBRANCH   1   5
TORSDOF 5
ENDMDL
MODEL 5
REMARK VINA RESULT:      -3.1     11.410     12.066
REMARK  5 active torsions:
REMARK  status: ('A' for Active; 'I' for Inactive)
REMARK    1  A    between atoms: C3_3  and  C5_5 
REMARK    2  A    between atoms: C4_4  and  C6_6 
REMARK    3  A    between atoms: C5_5  and  S7_7 
REMARK    4  A    between atoms: C6_6  and  S8_8 
REMARK    5  A    between atoms: S7_7  and  S8_8 
ROOT
HETATM    1  S7  UNL     1     -34.599  17.048  -5.380  1.00 20.00    -0.098 SA
ENDROOT
BRANCH   1   2
HETATM    2  C5  UNL     1     -33.674  17.226  -3.828  1.00 20.00     0.086 C 
BRANCH   2   3
HETATM    3  C3  UNL     1     -33.805  15.967  -2.979  1.00 20.00     0.006 C 
HETATM    4  C1  UNL     1     -34.978  16.075  -2.017  1.00 20.00     0.006 C 
ENDBRANCH   2   3
ENDBRANCH   1   2
BRANCH   1   5
HETATM    5  S8  UNL     1     -34.165  15.106  -5.897  1.00 20.00    -0.098 SA
BRANCH   5   6
HETATM    6  C6  UNL     1     -35.819  14.398  -6.089  1.00 20.00     0.086 C 
BRANCH   6   7
HETATM    7  C4  UNL     1     -36.305  13.815  -4.767  1.00 20.00     0.006 C 
HETATM    8  C2  UNL     1     -37.566  14.522  -4.287  1.00 20.00     0.006 C 
ENDBRANCH   6   7
ENDBRANCH   5   6
ENDBRANCH   1   5
TORSDOF 5
ENDMDL
MODEL 6
REMARK VINA RESULT:      -3.0     11.389     11.804
REMARK  5 active torsions:
REMARK  status: ('A' for Active; 'I' for Inactive)
REMARK    1  A    between atoms: C3_3  and  C5_5 
REMARK    2  A    between atoms: C4_4  and  C6_6 
REMARK    3  A    between atoms: C5_5  and  S7_7 
REMARK    4  A    between atoms: C6_6  and  S8_8 
REMARK    5  A    between atoms: S7_7  and  S8_8 
ROOT
HETATM    1  S7  UNL     1     -33.875  15.168  -5.961  1.00 20.00    -0.098 SA
ENDROOT
BRANCH   1   2
HETATM    2  C5  UNL     1     -33.726  14.643  -4.229  1.00 20.00     0.086 C 
BRANCH   2   3
HETATM    3  C3  UNL     1     -33.491  15.848  -3.324  1.00 20.00     0.006 C 
HETATM    4  C1  UNL     1     -34.610  15.991  -2.303  1.00 20.00     0.006 C 
ENDBRANCH   2   3
ENDBRANCH   1   2
BRANCH   1   5
HETATM    5  S8  UNL     1     -35.809  14.621  -6.392  1.00 20.00    -0.098 SA
BRANCH   5   6
HETATM    6  C6  UNL     1     -36.315  13.815  -4.854  1.00 20.00     0.086 C 
BRANCH   6   7
HETATM    7  C4  UNL     1     -37.539  14.508  -4.266  1.00 20.00     0.006 C 
HETATM    8  C2  UNL     1     -37.560  15.986  -4.632  1.00 20.00     0.006 C 
ENDBRANCH   6   7
ENDBRANCH   5   6
ENDBRANCH   1   5
TORSDOF 5
ENDMDL
MODEL 7
REMARK VINA RESULT:      -3.0     16.359     16.722
REMARK  5 active torsions:
REMARK  status: ('A' for Active; 'I' for Inactive)
REMARK    1  A    between atoms: C3_3  and  C5_5 
REMARK    2  A    between atoms: C4_4  and  C6_6 
REMARK    3  A    between atoms: C5_5  and  S7_7 
REMARK    4  A    between atoms: C6_6  and  S8_8 
REMARK    5  A    between atoms: S7_7  and  S8_8 
ROOT
HETATM    1  S7  UNL     1     -24.303  18.211   9.541  1.00 20.00    -0.098 SA
ENDROOT
BRANCH   1   2
HETATM    2  C5  UNL     1     -22.560  18.701   9.417  1.00 20.00     0.086 C 
BRANCH   2   3
HETATM    3  C3  UNL     1     -21.686  17.491   9.107  1.00 20.00     0.006 C 
HETATM    4  C1  UNL     1     -21.566  17.272   7.606  1.00 20.00     0.006 C 
ENDBRANCH   2   3
ENDBRANCH   1   2
BRANCH   1   5
HETATM    5  S8  UNL     1     -24.190  16.603  10.817  1.00 20.00    -0.098 SA
BRANCH   5   6
HETATM    6  C6  UNL     1     -25.286  17.120  12.160  1.00 20.00     0.086 C 
BRANCH   6   7
HETATM    7  C4  UNL     1     -25.787  18.540  11.921  1.00 20.00     0.006 C 
HETATM    8  C2  UNL     1     -27.309  18.587  11.897  1.00 20.00     0.006 C 
ENDBRANCH   6   7
ENDBRANCH   5   6
ENDBRANCH   1   5
TORSDOF 5
ENDMDL
MODEL 8
REMARK VINA RESULT:      -3.0     10.665     12.190
REMARK  5 active torsions:
REMARK  status: ('A' for Active; 'I' for Inactive)
REMARK    1  A    between atoms: C3_3  and  C5_5 
REMARK    2  A    between atoms: C4_4  and  C6_6 
REMARK    3  A    between atoms: C5_5  and  S7_7 
REMARK    4  A    between atoms: C6_6  and  S8_8 
REMARK    5  A    between atoms: S7_7  and  S8_8 
ROOT
HETATM    1  S7  UNL     1     -36.796  15.873  -5.024  1.00 20.00    -0.098 SA
ENDROOT
BRANCH   1   2
HETATM    2  C5  UNL     1     -36.244  16.006  -6.749  1.00 20.00     0.086 C 
BRANCH   2   3
HETATM    3  C3  UNL     1     -34.770  16.390  -6.809  1.00 20.00     0.006 C 
HETATM    4  C1  UNL     1     -33.931  15.253  -7.371  1.00 20.00     0.006 C 
ENDBRANCH   2   3
ENDBRANCH   1   2
BRANCH   1   5
HETATM    5  S8  UNL     1     -36.348  13.913  -4.598  1.00 20.00    -0.098 SA
BRANCH   5   6
HETATM    6  C6  UNL     1     -34.700  14.064  -3.865  1.00 20.00     0.086 C 
BRANCH   6   7
HETATM    7  C4  UNL     1     -34.591  15.355  -3.062  1.00 20.00     0.006 C 
HETATM    8  C2  UNL     1     -33.261  16.050  -3.321  1.00 20.00     0.006 C 
ENDBRANCH   6   7
ENDBRANCH   5   6
ENDBRANCH   1   5
TORSDOF 5
ENDMDL
MODEL 9
REMARK VINA RESULT:      -3.0      9.612     10.173
REMARK  5 active torsions:
REMARK  status: ('A' for Active; 'I' for Inactive)
REMARK    1  A    between atoms: C3_3  and  C5_5 
REMARK    2  A    between atoms: C4_4  and  C6_6 
REMARK    3  A    between atoms: C5_5  and  S7_7 
REMARK    4  A    between atoms: C6_6  and  S8_8 
REMARK    5  A    between atoms: S7_7  and  S8_8 
ROOT
HETATM    1  S7  UNL     1     -41.258   5.625  -0.947  1.00 20.00    -0.098 SA
ENDROOT
BRANCH   1   2
HETATM    2  C5  UNL     1     -41.271   6.784   0.451  1.00 20.00     0.086 C 
BRANCH   2   3
HETATM    3  C3  UNL     1     -42.205   7.955   0.166  1.00 20.00     0.006 C 
HETATM    4  C1  UNL     1     -41.459   9.279   0.235  1.00 20.00     0.006 C 
ENDBRANCH   2   3
ENDBRANCH   1   2
BRANCH   1   5
HETATM    5  S8  UNL     1     -43.251   5.562  -1.447  1.00 20.00    -0.098 SA
BRANCH   5   6
HETATM    6  C6  UNL     1     -43.360   3.982  -2.322  1.00 20.00     0.086 C 
BRANCH   6   7
HETATM    7  C4  UNL     1     -41.971   3.495  -2.719  1.00 20.00     0.006 C 
HETATM    8  C2  UNL     1     -42.037   2.585  -3.938  1.00 20.00     0.006 C 
ENDBRANCH   6   7
ENDBRANCH   5   6
ENDBRANCH   1   5
TORSDOF 5
ENDMDL
