MODEL 1
REMARK VINA RESULT:      -4.0      0.000      0.000
REMARK  4 active torsions:
REMARK  status: ('A' for Active; 'I' for Inactive)
REMARK    1  A    between atoms: C3_3  and  C5_5 
REMARK    2  A    between atoms: C4_4  and  C6_6 
REMARK    3  A    between atoms: C5_5  and  S7_7 
REMARK    4  A    between atoms: C6_6  and  S7_7 
ROOT
HETATM    1  S7  UNL     1     -34.004   4.125   3.746  1.00 20.00    -0.162 SA
ENDROOT
BRANCH   1   2
HETATM    2  C5  UNL     1     -33.343   5.093   2.363  1.00 20.00     0.100 C 
BRANCH   2   3
HETATM    3  C3  UNL     1     -32.848   6.416   2.851  1.00 20.00    -0.027 C 
HETATM    4  C1  UNL     1     -32.485   7.420   2.044  1.00 20.00     0.007 C 
ENDBRANCH   2   3
ENDBRANCH   1   2
BRANCH   1   5
HETATM    5  C6  UNL     1     -35.127   5.367   4.426  1.00 20.00     0.100 C 
BRANCH   5   6
HETATM    6  C4  UNL     1     -34.750   5.686   5.837  1.00 20.00    -0.027 C 
HETATM    7  C2  UNL     1     -34.043   6.765   6.193  1.00 20.00     0.007 C 
ENDBRANCH   5   6
ENDBRANCH   1   5
TORSDOF 4
ENDMDL
MODEL 2
REMARK VINA RESULT:      -4.0      0.040      3.400
REMARK  4 active torsions:
REMARK  status: ('A' for Active; 'I' for Inactive)
REMARK    1  A    between atoms: C3_3  and  C5_5 
REMARK    2  A    between atoms: C4_4  and  C6_6 
REMARK    3  A    between atoms: C5_5  and  S7_7 
REMARK    4  A    between atoms: C6_6  and  S7_7 
ROOT
HETATM    1  S7  UNL     1     -33.996   4.134   3.724  1.00 20.00    -0.162 SA
ENDROOT
BRANCH   1   2
HETATM    2  C5  UNL     1     -35.108   5.390   4.413  1.00 20.00     0.100 C 
BRANCH   2   3
HETATM    3  C3  UNL     1     -34.710   5.718   5.815  1.00 20.00    -0.027 C 
HETATM    4  C1  UNL     1     -34.001   6.800   6.157  1.00 20.00     0.007 C 
ENDBRANCH   2   3
ENDBRANCH   1   2
BRANCH   1   5
HETATM    5  C6  UNL     1     -33.334   5.094   2.344  1.00 20.00     0.100 C 
BRANCH   5   6
HETATM    6  C4  UNL     1     -32.854   6.426   2.825  1.00 20.00    -0.027 C 
HETATM    7  C2  UNL     1     -32.477   7.420   2.013  1.00 20.00     0.007 C 
ENDBRANCH   5   6
ENDBRANCH   1   5
TORSDOF 4
ENDMDL
MODEL 3
REMARK VINA RESULT:      -3.9      1.540      2.078
REMARK  4 active torsions:
REMARK  status: ('A' for Active; 'I' for Inactive)
REMARK    1  A    between atoms: C3_3  and  C5_5 
REMARK    2  A    between atoms: C4_4  and  C6_6 
REMARK    3  A    between atoms: C5_5  and  S7_7 
REMARK    4  A    between atoms: C6_6  and  S7_7 
ROOT
HETATM    1  S7  UNL     1     -33.149   5.929   2.688  1.00 20.00    -0.162 SA
ENDROOT
BRANCH   1   2
HETATM    2  C5  UNL     1     -32.219   7.438   2.304  1.00 20.00     0.100 C 
BRANCH   2   3
HETATM    3  C3  UNL     1     -32.554   7.913   0.927  1.00 20.00    -0.027 C 
HETATM    4  C1  UNL     1     -32.964   9.155   0.646  1.00 20.00     0.007 C 
ENDBRANCH   2   3
ENDBRANCH   1   2
BRANCH   1   5
HETATM    5  C6  UNL     1     -34.019   6.523   4.157  1.00 20.00     0.100 C 
BRANCH   5   6
HETATM    6  C4  UNL     1     -34.812   5.413   4.770  1.00 20.00    -0.027 C 
HETATM    7  C2  UNL     1     -34.793   5.116   6.075  1.00 20.00     0.007 C 
ENDBRANCH   5   6
ENDBRANCH   1   5
TORSDOF 4
ENDMDL
MODEL 4
REMARK VINA RESULT:      -3.9      1.542      4.392
REMARK  4 active torsions:
REMARK  status: ('A' for Active; 'I' for Inactive)
REMARK    1  A    between atoms: C3_3  and  C5_5 
REMARK    2  A    between atoms: C4_4  and  C6_6 
REMARK    3  A    between atoms: C5_5  and  S7_7 
REMARK    4  A    between atoms: C6_6  and  S7_7 
ROOT
HETATM    1  S7  UNL     1     -33.155   5.933   2.686  1.00 20.00    -0.162 SA
ENDROOT
BRANCH   1   2
HETATM    2  C5  UNL     1     -34.030   6.518   4.163  1.00 20.00     0.100 C 
BRANCH   2   3
HETATM    3  C3  UNL     1     -34.805   5.399   4.780  1.00 20.00    -0.027 C 
HETATM    4  C1  UNL     1     -34.790   5.112   6.086  1.00 20.00     0.007 C 
ENDBRANCH   2   3
ENDBRANCH   1   2
BRANCH   1   5
HETATM    5  C6  UNL     1     -32.223   7.437   2.318  1.00 20.00     0.100 C 
BRANCH   5   6
HETATM    6  C4  UNL     1     -32.532   7.909   0.934  1.00 20.00    -0.027 C 
HETATM    7  C2  UNL     1     -32.970   9.141   0.647  1.00 20.00     0.007 C 
ENDBRANCH   5   6
ENDBRANCH   1   5
TORSDOF 4
ENDMDL
MODEL 5
REMARK VINA RESULT:      -2.9     12.332     12.762
REMARK  4 active torsions:
REMARK  status: ('A' for Active; 'I' for Inactive)
REMARK    1  A    between atoms: C3_3  and  C5_5 
REMARK    2  A    between atoms: C4_4  and  C6_6 
REMARK    3  A    between atoms: C5_5  and  S7_7 
REMARK    4  A    between atoms: C6_6  and  S7_7 
ROOT
HETATM    1  S7  UNL     1     -34.511  15.718  -5.598  1.00 20.00    -0.162 SA
ENDROOT
BRANCH   1   2
HETATM    2  C5  UNL     1     -33.779  14.917  -4.145  1.00 20.00     0.100 C 
BRANCH   2   3
HETATM    3  C3  UNL     1     -33.776  15.859  -2.985  1.00 20.00    -0.027 C 
HETATM    4  C1  UNL     1     -34.822  16.046  -2.172  1.00 20.00     0.007 C 
ENDBRANCH   2   3
ENDBRANCH   1   2
BRANCH   1   5
HETATM    5  C6  UNL     1     -35.702  14.432  -6.038  1.00 20.00     0.100 C 
BRANCH   5   6
HETATM    6  C4  UNL     1     -36.388  13.923  -4.811  1.00 20.00    -0.027 C 
HETATM    7  C2  UNL     1     -37.500  14.466  -4.300  1.00 20.00     0.007 C 
ENDBRANCH   5   6
ENDBRANCH   1   5
TORSDOF 4
ENDMDL
MODEL 6
REMARK VINA RESULT:      -2.9     12.351     12.733
REMARK  4 active torsions:
REMARK  status: ('A' for Active; 'I' for Inactive)
REMARK    1  A    between atoms: C3_3  and  C5_5 
REMARK    2  A    between atoms: C4_4  and  C6_6 
REMARK    3  A    between atoms: C5_5  and  S7_7 
REMARK    4  A    between atoms: C6_6  and  S7_7 
ROOT
HETATM    1  S7  UNL     1     -34.517  15.718  -5.611  1.00 20.00    -0.162 SA
ENDROOT
BRANCH   1   2
HETATM    2  C5  UNL     1     -35.734  14.443  -6.036  1.00 20.00     0.100 C 
BRANCH   2   3
HETATM    3  C3  UNL     1     -36.399  13.933  -4.799  1.00 20.00    -0.027 C 
HETATM    4  C1  UNL     1     -37.510  14.463  -4.276  1.00 20.00     0.007 C 
ENDBRANCH   2   3
ENDBRANCH   1   2
BRANCH   1   5
HETATM    5  C6  UNL     1     -33.757  14.896  -4.193  1.00 20.00     0.100 C 
BRANCH   5   6
HETATM    6  C4  UNL     1     -33.730  15.817  -3.016  1.00 20.00    -0.027 C 
HETATM    7  C2  UNL     1     -34.784  16.046  -2.224  1.00 20.00     0.007 C 
ENDBRANCH   5   6
ENDBRANCH   1   5
TORSDOF 4
ENDMDL
MODEL 7
REMARK VINA RESULT:      -2.9      9.105      9.506
REMARK  4 active torsions:
REMARK  status: ('A' for Active; 'I' for Inactive)
REMARK    1  A    between atoms: C3_3  and  C5_5 
REMARK    2  A    between atoms: C4_4  and  C6_6 
REMARK    3  A    between atoms: C5_5  and  S7_7 
REMARK    4  A    between atoms: C6_6  and  S7_7 
ROOT
HETATM    1  S7  UNL     1     -41.120   5.745  -0.828  1.00 20.00    -0.162 SA
ENDROOT
BRANCH   1   2
HETATM    2  C5  UNL     1     -41.307   7.521  -1.145  1.00 20.00     0.100 C 
BRANCH   2   3
HETATM    3  C3  UNL     1     -41.589   8.245   0.132  1.00 20.00    -0.027 C 
HETATM    4  C1  UNL     1     -41.466   9.568   0.282  1.00 20.00     0.007 C 
ENDBRANCH   2   3
ENDBRANCH   1   2
BRANCH   1   5
HETATM    5  C6  UNL     1     -42.846   5.254  -1.045  1.00 20.00     0.100 C 
BRANCH   5   6
HETATM    6  C4  UNL     1     -43.417   4.794   0.258  1.00 20.00    -0.027 C 
HETATM    7  C2  UNL     1     -42.977   5.205   1.452  1.00 20.00     0.007 C 
ENDBRANCH   5   6
ENDBRANCH   1   5
TORSDOF 4
ENDMDL
MODEL 8
REMARK VINA RESULT:      -2.9     11.678     13.242
REMARK  4 active torsions:
REMARK  status: ('A' for Active; 'I' for Inactive)
REMARK    1  A    between atoms: C3_3  and  C5_5 
REMARK    2  A    between atoms: C4_4  and  C6_6 
REMARK    3  A    between atoms: C5_5  and  S7_7 
REMARK    4  A    between atoms: C6_6  and  S7_7 
ROOT
HETATM    1  S7  UNL     1     -36.546  14.215  -4.562  1.00 20.00    -0.162 SA
ENDROOT
BRANCH   1   2
HETATM    2  C5  UNL     1     -34.883  14.066  -3.856  1.00 20.00     0.100 C 
BRANCH   2   3
HETATM    3  C3  UNL     1     -34.520  15.317  -3.123  1.00 20.00    -0.027 C 
HETATM    4  C1  UNL     1     -33.366  15.972  -3.292  1.00 20.00     0.007 C 
ENDBRANCH   2   3
ENDBRANCH   1   2
BRANCH   1   5
HETATM    5  C6  UNL     1     -36.189  15.465  -5.818  1.00 20.00     0.100 C 
BRANCH   5   6
HETATM    6  C4  UNL     1     -35.345  14.879  -6.904  1.00 20.00    -0.027 C 
HETATM    7  C2  UNL     1     -34.126  15.328  -7.225  1.00 20.00     0.007 C 
ENDBRANCH   5   6
ENDBRANCH   1   5
TORSDOF 4
ENDMDL
MODEL 9
REMARK VINA RESULT:      -2.8     11.699     12.983
REMARK  4 active torsions:
REMARK  status: ('A' for Active; 'I' for Inactive)
REMARK    1  A    between atoms: C3_3  and  C5_5 
REMARK    2  A    between atoms: C4_4  and  C6_6 
REMARK    3  A    between atoms: C5_5  and  S7_7 
REMARK    4  A    between atoms: C6_6  and  S7_7 
ROOT
HETATM    1  S7  UNL     1     -36.377  14.121  -4.587  1.00 20.00    -0.162 SA
ENDROOT
BRANCH   1   2
HETATM    2  C5  UNL     1     -36.160  15.469  -5.780  1.00 20.00     0.100 C 
BRANCH   2   3
HETATM    3  C3  UNL     1     -35.427  14.976  -6.986  1.00 20.00    -0.027 C 
HETATM    4  C1  UNL     1     -34.158  15.295  -7.269  1.00 20.00     0.007 C 
ENDBRANCH   2   3
ENDBRANCH   1   2
BRANCH   1   5
HETATM    5  C6  UNL     1     -34.715  14.127  -3.877  1.00 20.00     0.100 C 
BRANCH   5   6
HETATM    6  C4  UNL     1     -34.492  15.383  -3.098  1.00 20.00    -0.027 C 
HETATM    7  C2  UNL     1     -33.366  16.105  -3.155  1.00 20.00     0.007 C 
ENDBRANCH   5   6
ENDBRANCH   1   5
TORSDOF 4
ENDMDL
