MODEL 1
REMARK VINA RESULT:      -5.6      0.000      0.000
REMARK  1 active torsions:
REMARK  status: ('A' for Active; 'I' for Inactive)
REMARK    1  A    between atoms: C6_6  and  C9_9 
ROOT
HETATM    1  C1  UNL     1     -33.575   6.896   5.080  1.00 20.00     0.007 A 
HETATM    2  C2  UNL     1     -34.243   5.032   3.697  1.00 20.00     0.007 A 
HETATM    3  C3  UNL     1     -32.877   7.444   4.005  1.00 20.00     0.007 A 
HETATM    4  C4  UNL     1     -33.544   5.580   2.620  1.00 20.00     0.007 A 
HETATM    5  C5  UNL     1     -34.258   5.690   4.926  1.00 20.00    -0.062 A 
HETATM    6  C6  UNL     1     -32.861   6.787   2.775  1.00 20.00    -0.059 A 
HETATM    7  C7  UNL     1     -35.006   5.103   6.075  1.00 20.00     0.048 C 
ENDROOT
BRANCH   6   8
HETATM    8  C9  UNL     1     -32.115   7.375   1.625  1.00 20.00     0.034 C 
HETATM    9  C8  UNL     1     -32.892   8.498   0.943  1.00 20.00     0.010 C 
ENDBRANCH   6   8
TORSDOF 1
ENDMDL
MODEL 2
REMARK VINA RESULT:      -4.6     11.114     12.060
REMARK  1 active torsions:
REMARK  status: ('A' for Active; 'I' for Inactive)
REMARK    1  A    between atoms: C6_6  and  C9_9 
ROOT
HETATM    1  C1  UNL     1     -33.212  15.990  -3.390  1.00 20.00     0.007 A 
HETATM    2  C2  UNL     1     -35.194  16.006  -2.010  1.00 20.00     0.007 A 
HETATM    3  C3  UNL     1     -32.677  17.033  -2.635  1.00 20.00     0.007 A 
HETATM    4  C4  UNL     1     -34.660  17.049  -1.254  1.00 20.00     0.007 A 
HETATM    5  C5  UNL     1     -34.471  15.476  -3.078  1.00 20.00    -0.062 A 
HETATM    6  C6  UNL     1     -33.401  17.563  -1.567  1.00 20.00    -0.059 A 
HETATM    7  C7  UNL     1     -35.044  14.361  -3.885  1.00 20.00     0.048 C 
ENDROOT
BRANCH   6   8
HETATM    8  C9  UNL     1     -32.827  18.678  -0.759  1.00 20.00     0.034 C 
HETATM    9  C8  UNL     1     -31.372  18.423  -0.370  1.00 20.00     0.010 C 
ENDBRANCH   6   8
TORSDOF 1
ENDMDL
MODEL 3
REMARK VINA RESULT:      -4.6     11.105     12.052
REMARK  1 active torsions:
REMARK  status: ('A' for Active; 'I' for Inactive)
REMARK    1  A    between atoms: C6_6  and  C9_9 
ROOT
HETATM    1  C1  UNL     1     -35.177  16.012  -1.995  1.00 20.00     0.007 A 
HETATM    2  C2  UNL     1     -33.218  15.986  -3.408  1.00 20.00     0.007 A 
HETATM    3  C3  UNL     1     -34.627  17.058  -1.253  1.00 20.00     0.007 A 
HETATM    4  C4  UNL     1     -32.668  17.032  -2.667  1.00 20.00     0.007 A 
HETATM    5  C5  UNL     1     -34.472  15.476  -3.073  1.00 20.00    -0.062 A 
HETATM    6  C6  UNL     1     -33.373  17.568  -1.589  1.00 20.00    -0.059 A 
HETATM    7  C7  UNL     1     -35.058  14.358  -3.867  1.00 20.00     0.048 C 
ENDROOT
BRANCH   6   8
HETATM    8  C9  UNL     1     -32.788  18.687  -0.795  1.00 20.00     0.034 C 
HETATM    9  C8  UNL     1     -31.333  18.427  -0.412  1.00 20.00     0.010 C 
ENDBRANCH   6   8
TORSDOF 1
ENDMDL
MODEL 4
REMARK VINA RESULT:      -4.6     11.057     11.838
REMARK  1 active torsions:
REMARK  status: ('A' for Active; 'I' for Inactive)
REMARK    1  A    between atoms: C6_6  and  C9_9 
ROOT
HETATM    1  C1  UNL     1     -34.602  16.669  -1.812  1.00 20.00     0.007 A 
HETATM    2  C2  UNL     1     -32.752  16.263  -3.312  1.00 20.00     0.007 A 
HETATM    3  C3  UNL     1     -35.331  15.659  -2.438  1.00 20.00     0.007 A 
HETATM    4  C4  UNL     1     -33.481  15.252  -3.938  1.00 20.00     0.007 A 
HETATM    5  C5  UNL     1     -33.312  16.972  -2.249  1.00 20.00    -0.062 A 
HETATM    6  C6  UNL     1     -34.771  14.950  -3.501  1.00 20.00    -0.059 A 
HETATM    7  C7  UNL     1     -32.531  18.052  -1.581  1.00 20.00     0.048 C 
ENDROOT
BRANCH   6   8
HETATM    8  C9  UNL     1     -35.552  13.868  -4.168  1.00 20.00     0.034 C 
HETATM    9  C8  UNL     1     -37.006  14.266  -4.409  1.00 20.00     0.010 C 
ENDBRANCH   6   8
TORSDOF 1
ENDMDL
MODEL 5
REMARK VINA RESULT:      -4.6     10.929     11.845
REMARK  1 active torsions:
REMARK  status: ('A' for Active; 'I' for Inactive)
REMARK    1  A    between atoms: C6_6  and  C9_9 
ROOT
HETATM    1  C1  UNL     1     -35.133  16.809  -1.238  1.00 20.00     0.007 A 
HETATM    2  C2  UNL     1     -32.932  17.487  -1.964  1.00 20.00     0.007 A 
HETATM    3  C3  UNL     1     -35.167  15.843  -2.244  1.00 20.00     0.007 A 
HETATM    4  C4  UNL     1     -32.965  16.522  -2.970  1.00 20.00     0.007 A 
HETATM    5  C5  UNL     1     -34.016  17.631  -1.098  1.00 20.00    -0.062 A 
HETATM    6  C6  UNL     1     -34.083  15.699  -3.110  1.00 20.00    -0.059 A 
HETATM    7  C7  UNL     1     -33.978  18.664  -0.023  1.00 20.00     0.048 C 
ENDROOT
BRANCH   6   8
HETATM    8  C9  UNL     1     -34.121  14.665  -4.184  1.00 20.00     0.034 C 
HETATM    9  C8  UNL     1     -35.365  13.785  -4.099  1.00 20.00     0.010 C 
ENDBRANCH   6   8
TORSDOF 1
ENDMDL
MODEL 6
REMARK VINA RESULT:      -4.6     11.012     11.832
REMARK  1 active torsions:
REMARK  status: ('A' for Active; 'I' for Inactive)
REMARK    1  A    between atoms: C6_6  and  C9_9 
ROOT
HETATM    1  C1  UNL     1     -32.923  17.566  -1.896  1.00 20.00     0.007 A 
HETATM    2  C2  UNL     1     -35.106  16.835  -1.162  1.00 20.00     0.007 A 
HETATM    3  C3  UNL     1     -32.947  16.614  -2.915  1.00 20.00     0.007 A 
HETATM    4  C4  UNL     1     -35.130  15.883  -2.182  1.00 20.00     0.007 A 
HETATM    5  C5  UNL     1     -34.002  17.676  -1.019  1.00 20.00    -0.062 A 
HETATM    6  C6  UNL     1     -34.050  15.773  -3.058  1.00 20.00    -0.059 A 
HETATM    7  C7  UNL     1     -33.978  18.693   0.072  1.00 20.00     0.048 C 
ENDROOT
BRANCH   6   8
HETATM    8  C9  UNL     1     -34.075  14.757  -4.150  1.00 20.00     0.034 C 
HETATM    9  C8  UNL     1     -35.340  13.902  -4.118  1.00 20.00     0.010 C 
ENDBRANCH   6   8
TORSDOF 1
ENDMDL
MODEL 7
REMARK VINA RESULT:      -4.5      0.804      3.923
REMARK  1 active torsions:
REMARK  status: ('A' for Active; 'I' for Inactive)
REMARK    1  A    between atoms: C6_6  and  C9_9 
ROOT
HETATM    1  C1  UNL     1     -33.029   7.579   3.301  1.00 20.00     0.007 A 
HETATM    2  C2  UNL     1     -32.989   5.736   1.739  1.00 20.00     0.007 A 
HETATM    3  C3  UNL     1     -33.717   6.787   4.219  1.00 20.00     0.007 A 
HETATM    4  C4  UNL     1     -33.677   4.943   2.658  1.00 20.00     0.007 A 
HETATM    5  C5  UNL     1     -32.665   7.054   2.060  1.00 20.00    -0.062 A 
HETATM    6  C6  UNL     1     -34.041   5.469   3.898  1.00 20.00    -0.059 A 
HETATM    7  C7  UNL     1     -31.929   7.900   1.078  1.00 20.00     0.048 C 
ENDROOT
BRANCH   6   8
HETATM    8  C9  UNL     1     -34.776   4.622   4.882  1.00 20.00     0.034 C 
HETATM    9  C8  UNL     1     -34.851   5.269   6.263  1.00 20.00     0.010 C 
ENDBRANCH   6   8
TORSDOF 1
ENDMDL
MODEL 8
REMARK VINA RESULT:      -4.4     16.321     16.910
REMARK  1 active torsions:
REMARK  status: ('A' for Active; 'I' for Inactive)
REMARK    1  A    between atoms: C6_6  and  C9_9 
ROOT
HETATM    1  C1  UNL     1     -25.015  18.594  10.201  1.00 20.00     0.007 A 
HETATM    2  C2  UNL     1     -23.895  17.899  12.225  1.00 20.00     0.007 A 
HETATM    3  C3  UNL     1     -23.813  18.492   9.501  1.00 20.00     0.007 A 
HETATM    4  C4  UNL     1     -22.693  17.796  11.525  1.00 20.00     0.007 A 
HETATM    5  C5  UNL     1     -25.056  18.298  11.563  1.00 20.00    -0.062 A 
HETATM    6  C6  UNL     1     -22.652  18.093  10.163  1.00 20.00    -0.059 A 
HETATM    7  C7  UNL     1     -26.341  18.407  12.312  1.00 20.00     0.048 C 
ENDROOT
BRANCH   6   8
HETATM    8  C9  UNL     1     -21.367  17.982   9.413  1.00 20.00     0.034 C 
HETATM    9  C8  UNL     1     -21.550  17.333   8.042  1.00 20.00     0.010 C 
ENDBRANCH   6   8
TORSDOF 1
ENDMDL
MODEL 9
REMARK VINA RESULT:      -4.2     15.046     16.231
REMARK  1 active torsions:
REMARK  status: ('A' for Active; 'I' for Inactive)
REMARK    1  A    between atoms: C6_6  and  C9_9 
ROOT
HETATM    1  C1  UNL     1     -24.618  18.435  10.566  1.00 20.00     0.007 A 
HETATM    2  C2  UNL     1     -22.594  17.583   9.558  1.00 20.00     0.007 A 
HETATM    3  C3  UNL     1     -25.037  18.909   9.323  1.00 20.00     0.007 A 
HETATM    4  C4  UNL     1     -23.014  18.056   8.315  1.00 20.00     0.007 A 
HETATM    5  C5  UNL     1     -23.396  17.773  10.684  1.00 20.00    -0.062 A 
HETATM    6  C6  UNL     1     -24.236  18.719   8.197  1.00 20.00    -0.059 A 
HETATM    7  C7  UNL     1     -22.947  17.266  12.012  1.00 20.00     0.048 C 
ENDROOT
BRANCH   6   8
HETATM    8  C9  UNL     1     -24.686  19.225   6.868  1.00 20.00     0.034 C 
HETATM    9  C8  UNL     1     -26.144  18.873   6.578  1.00 20.00     0.010 C 
ENDBRANCH   6   8
TORSDOF 1
ENDMDL
