MODEL 1
REMARK VINA RESULT:      -6.2      0.000      0.000
REMARK  1 active torsions:
REMARK  status: ('A' for Active; 'I' for Inactive)
REMARK    1  A    between atoms: C6_6  and  C8_8 
ROOT
HETATM    1  C1  UNL     1     -34.928   5.174   5.528  1.00 20.00     0.000 A 
HETATM    2  C2  UNL     1     -34.274   6.317   5.988  1.00 20.00     0.001 A 
HETATM    3  C3  UNL     1     -34.724   4.732   4.221  1.00 20.00     0.001 A 
HETATM    4  C4  UNL     1     -33.418   7.019   5.140  1.00 20.00     0.011 A 
HETATM    5  C5  UNL     1     -33.867   5.434   3.373  1.00 20.00     0.011 A 
HETATM    6  C6  UNL     1     -33.215   6.577   3.833  1.00 20.00    -0.037 A 
ENDROOT
BRANCH   6   7
HETATM    7  C8  UNL     1     -32.321   7.309   2.948  1.00 20.00     0.001 C 
HETATM    8  C7  UNL     1     -32.590   7.561   1.674  1.00 20.00     0.012 C 
ENDBRANCH   6   7
TORSDOF 1
ENDMDL
MODEL 2
REMARK VINA RESULT:      -6.2      0.012      1.708
REMARK  1 active torsions:
REMARK  status: ('A' for Active; 'I' for Inactive)
REMARK    1  A    between atoms: C6_6  and  C8_8 
ROOT
HETATM    1  C1  UNL     1     -34.931   5.168   5.533  1.00 20.00     0.000 A 
HETATM    2  C2  UNL     1     -34.733   4.735   4.221  1.00 20.00     0.001 A 
HETATM    3  C3  UNL     1     -34.274   6.307   5.998  1.00 20.00     0.001 A 
HETATM    4  C4  UNL     1     -33.876   5.440   3.377  1.00 20.00     0.011 A 
HETATM    5  C5  UNL     1     -33.418   7.013   5.152  1.00 20.00     0.011 A 
HETATM    6  C6  UNL     1     -33.220   6.579   3.842  1.00 20.00    -0.037 A 
ENDROOT
BRANCH   6   7
HETATM    7  C8  UNL     1     -32.327   7.316   2.960  1.00 20.00     0.001 C 
HETATM    8  C7  UNL     1     -32.587   7.557   1.682  1.00 20.00     0.012 C 
ENDBRANCH   6   7
TORSDOF 1
ENDMDL
MODEL 3
REMARK VINA RESULT:      -4.7      0.898      3.795
REMARK  1 active torsions:
REMARK  status: ('A' for Active; 'I' for Inactive)
REMARK    1  A    between atoms: C6_6  and  C8_8 
ROOT
HETATM    1  C1  UNL     1     -32.312   6.800   2.239  1.00 20.00     0.000 A 
HETATM    2  C2  UNL     1     -32.920   5.581   1.937  1.00 20.00     0.001 A 
HETATM    3  C3  UNL     1     -32.604   7.447   3.440  1.00 20.00     0.001 A 
HETATM    4  C4  UNL     1     -33.822   5.011   2.835  1.00 20.00     0.011 A 
HETATM    5  C5  UNL     1     -33.506   6.876   4.338  1.00 20.00     0.011 A 
HETATM    6  C6  UNL     1     -34.114   5.658   4.036  1.00 20.00    -0.037 A 
ENDROOT
BRANCH   6   7
HETATM    7  C8  UNL     1     -35.055   5.063   4.973  1.00 20.00     0.001 C 
HETATM    8  C7  UNL     1     -34.917   5.118   6.291  1.00 20.00     0.012 C 
ENDBRANCH   6   7
TORSDOF 1
ENDMDL
MODEL 4
REMARK VINA RESULT:      -4.7      0.899      3.394
REMARK  1 active torsions:
REMARK  status: ('A' for Active; 'I' for Inactive)
REMARK    1  A    between atoms: C6_6  and  C8_8 
ROOT
HETATM    1  C1  UNL     1     -32.318   6.802   2.236  1.00 20.00     0.000 A 
HETATM    2  C2  UNL     1     -32.624   7.459   3.429  1.00 20.00     0.001 A 
HETATM    3  C3  UNL     1     -32.912   5.574   1.944  1.00 20.00     0.001 A 
HETATM    4  C4  UNL     1     -33.520   6.886   4.330  1.00 20.00     0.011 A 
HETATM    5  C5  UNL     1     -33.809   5.001   2.846  1.00 20.00     0.011 A 
HETATM    6  C6  UNL     1     -34.113   5.658   4.038  1.00 20.00    -0.037 A 
ENDROOT
BRANCH   6   7
HETATM    7  C8  UNL     1     -35.049   5.060   4.979  1.00 20.00     0.001 C 
HETATM    8  C7  UNL     1     -34.931   5.154   6.296  1.00 20.00     0.012 C 
ENDBRANCH   6   7
TORSDOF 1
ENDMDL
MODEL 5
REMARK VINA RESULT:      -4.4     11.527     12.190
REMARK  1 active torsions:
REMARK  status: ('A' for Active; 'I' for Inactive)
REMARK    1  A    between atoms: C6_6  and  C8_8 
ROOT
HETATM    1  C1  UNL     1     -33.799  17.687  -1.347  1.00 20.00     0.000 A 
HETATM    2  C2  UNL     1     -34.973  16.941  -1.241  1.00 20.00     0.001 A 
HETATM    3  C3  UNL     1     -32.851  17.362  -2.316  1.00 20.00     0.001 A 
HETATM    4  C4  UNL     1     -35.196  15.868  -2.103  1.00 20.00     0.011 A 
HETATM    5  C5  UNL     1     -33.075  16.289  -3.179  1.00 20.00     0.011 A 
HETATM    6  C6  UNL     1     -34.248  15.542  -3.072  1.00 20.00    -0.037 A 
ENDROOT
BRANCH   6   7
HETATM    7  C8  UNL     1     -34.481  14.423  -3.972  1.00 20.00     0.001 C 
HETATM    8  C7  UNL     1     -35.681  13.919  -4.225  1.00 20.00     0.012 C 
ENDBRANCH   6   7
TORSDOF 1
ENDMDL
MODEL 6
REMARK VINA RESULT:      -4.3     11.487     12.245
REMARK  1 active torsions:
REMARK  status: ('A' for Active; 'I' for Inactive)
REMARK    1  A    between atoms: C6_6  and  C8_8 
ROOT
HETATM    1  C1  UNL     1     -33.693  17.732  -1.515  1.00 20.00     0.000 A 
HETATM    2  C2  UNL     1     -32.810  17.301  -2.505  1.00 20.00     0.001 A 
HETATM    3  C3  UNL     1     -34.885  17.042  -1.293  1.00 20.00     0.001 A 
HETATM    4  C4  UNL     1     -33.121  16.181  -3.276  1.00 20.00     0.011 A 
HETATM    5  C5  UNL     1     -35.195  15.921  -2.064  1.00 20.00     0.011 A 
HETATM    6  C6  UNL     1     -34.313  15.491  -3.054  1.00 20.00    -0.037 A 
ENDROOT
BRANCH   6   7
HETATM    7  C8  UNL     1     -34.637  14.322  -3.858  1.00 20.00     0.001 C 
HETATM    8  C7  UNL     1     -35.853  14.058  -4.317  1.00 20.00     0.012 C 
ENDBRANCH   6   7
TORSDOF 1
ENDMDL
MODEL 7
REMARK VINA RESULT:      -4.3     11.695     12.236
REMARK  1 active torsions:
REMARK  status: ('A' for Active; 'I' for Inactive)
REMARK    1  A    between atoms: C6_6  and  C8_8 
ROOT
HETATM    1  C1  UNL     1     -33.948  17.924  -0.784  1.00 20.00     0.000 A 
HETATM    2  C2  UNL     1     -32.899  17.759  -1.688  1.00 20.00     0.001 A 
HETATM    3  C3  UNL     1     -35.073  17.102  -0.863  1.00 20.00     0.001 A 
HETATM    4  C4  UNL     1     -32.975  16.775  -2.673  1.00 20.00     0.011 A 
HETATM    5  C5  UNL     1     -35.149  16.117  -1.847  1.00 20.00     0.011 A 
HETATM    6  C6  UNL     1     -34.100  15.953  -2.752  1.00 20.00    -0.037 A 
ENDROOT
BRANCH   6   7
HETATM    7  C8  UNL     1     -34.179  14.925  -3.779  1.00 20.00     0.001 C 
HETATM    8  C7  UNL     1     -33.130  14.473  -4.451  1.00 20.00     0.012 C 
ENDBRANCH   6   7
TORSDOF 1
ENDMDL
MODEL 8
REMARK VINA RESULT:      -4.2     11.535     12.261
REMARK  1 active torsions:
REMARK  status: ('A' for Active; 'I' for Inactive)
REMARK    1  A    between atoms: C6_6  and  C8_8 
ROOT
HETATM    1  C1  UNL     1     -34.524  14.476  -4.000  1.00 20.00     0.000 A 
HETATM    2  C2  UNL     1     -33.261  15.057  -4.118  1.00 20.00     0.001 A 
HETATM    3  C3  UNL     1     -35.427  14.958  -3.053  1.00 20.00     0.001 A 
HETATM    4  C4  UNL     1     -32.901  16.118  -3.287  1.00 20.00     0.011 A 
HETATM    5  C5  UNL     1     -35.068  16.020  -2.222  1.00 20.00     0.011 A 
HETATM    6  C6  UNL     1     -33.805  16.600  -2.340  1.00 20.00    -0.037 A 
ENDROOT
BRANCH   6   7
HETATM    7  C8  UNL     1     -33.430  17.707  -1.474  1.00 20.00     0.001 C 
HETATM    8  C7  UNL     1     -32.184  18.134  -1.322  1.00 20.00     0.012 C 
ENDBRANCH   6   7
TORSDOF 1
ENDMDL
MODEL 9
REMARK VINA RESULT:      -4.2     11.695     12.477
REMARK  1 active torsions:
REMARK  status: ('A' for Active; 'I' for Inactive)
REMARK    1  A    between atoms: C6_6  and  C8_8 
ROOT
HETATM    1  C1  UNL     1     -34.930  15.533  -2.685  1.00 20.00     0.000 A 
HETATM    2  C2  UNL     1     -35.185  16.373  -1.601  1.00 20.00     0.001 A 
HETATM    3  C3  UNL     1     -33.733  15.650  -3.392  1.00 20.00     0.001 A 
HETATM    4  C4  UNL     1     -34.245  17.333  -1.226  1.00 20.00     0.011 A 
HETATM    5  C5  UNL     1     -32.792  16.610  -3.016  1.00 20.00     0.011 A 
HETATM    6  C6  UNL     1     -33.048  17.450  -1.933  1.00 20.00    -0.037 A 
ENDROOT
BRANCH   6   7
HETATM    7  C8  UNL     1     -32.067  18.451  -1.542  1.00 20.00     0.001 C 
HETATM    8  C7  UNL     1     -31.299  18.348  -0.466  1.00 20.00     0.012 C 
ENDBRANCH   6   7
TORSDOF 1
ENDMDL
