MODEL 1
REMARK VINA RESULT:      -5.4      0.000      0.000
REMARK  4 active torsions:
REMARK  status: ('A' for Active; 'I' for Inactive)
REMARK    1  A    between atoms: C6_6  and  C7_7 
REMARK    2  A    between atoms: C7_7  and  C8_8 
REMARK    3  A    between atoms: C8_8  and  C9_9 
REMARK    4  A    between atoms: C9_9  and  S10_10 
ROOT
HETATM    1  C1  UNL     1     -34.804   5.665   6.193  1.00 20.00     0.000 A 
HETATM    2  C2  UNL     1     -33.978   6.761   5.944  1.00 20.00     0.001 A 
HETATM    3  C3  UNL     1     -35.048   4.733   5.183  1.00 20.00     0.001 A 
HETATM    4  C4  UNL     1     -33.397   6.925   4.687  1.00 20.00     0.007 A 
HETATM    5  C5  UNL     1     -34.467   4.898   3.926  1.00 20.00     0.007 A 
HETATM    6  C6  UNL     1     -33.641   5.994   3.679  1.00 20.00    -0.058 A 
ENDROOT
BRANCH   6   7
HETATM    7  C7  UNL     1     -33.020   6.170   2.334  1.00 20.00     0.039 C 
BRANCH   7   8
HETATM    8  C8  UNL     1     -32.187   7.458   2.180  1.00 20.00     0.014 C 
BRANCH   8   9
HETATM    9  C9  UNL     1     -32.089   7.918   0.726  1.00 20.00     0.071 C 
BRANCH   9  10
HETATM   10  S10 UNL     1     -33.211   9.314   0.421  1.00 20.00    -0.182 SA
HETATM   11  H22 UNL     1     -32.253  10.246   0.327  1.00 20.00     0.101 HD
ENDBRANCH   9  10
ENDBRANCH   8   9
ENDBRANCH   7   8
ENDBRANCH   6   7
TORSDOF 4
ENDMDL
MODEL 2
REMARK VINA RESULT:      -5.3      0.844      1.709
REMARK  4 active torsions:
REMARK  status: ('A' for Active; 'I' for Inactive)
REMARK    1  A    between atoms: C6_6  and  C7_7 
REMARK    2  A    between atoms: C7_7  and  C8_8 
REMARK    3  A    between atoms: C8_8  and  C9_9 
REMARK    4  A    between atoms: C9_9  and  S10_10 
ROOT
HETATM    1  C1  UNL     1     -35.034   5.085   5.560  1.00 20.00     0.000 A 
HETATM    2  C2  UNL     1     -34.753   4.731   4.241  1.00 20.00     0.001 A 
HETATM    3  C3  UNL     1     -34.410   6.194   6.133  1.00 20.00     0.001 A 
HETATM    4  C4  UNL     1     -33.847   5.485   3.495  1.00 20.00     0.007 A 
HETATM    5  C5  UNL     1     -33.504   6.947   5.387  1.00 20.00     0.007 A 
HETATM    6  C6  UNL     1     -33.224   6.593   4.067  1.00 20.00    -0.058 A 
ENDROOT
BRANCH   6   7
HETATM    7  C7  UNL     1     -32.255   7.399   3.269  1.00 20.00     0.039 C 
BRANCH   7   8
HETATM    8  C8  UNL     1     -32.517   7.390   1.750  1.00 20.00     0.014 C 
BRANCH   8   9
HETATM    9  C9  UNL     1     -32.644   8.800   1.172  1.00 20.00     0.071 C 
BRANCH   9  10
HETATM   10  S10 UNL     1     -33.390   8.747  -0.483  1.00 20.00    -0.182 SA
HETATM   11  H22 UNL     1     -34.265   9.740  -0.274  1.00 20.00     0.101 HD
ENDBRANCH   9  10
ENDBRANCH   8   9
ENDBRANCH   7   8
ENDBRANCH   6   7
TORSDOF 4
ENDMDL
MODEL 3
REMARK VINA RESULT:      -4.4     11.256     11.857
REMARK  4 active torsions:
REMARK  status: ('A' for Active; 'I' for Inactive)
REMARK    1  A    between atoms: C6_6  and  C7_7 
REMARK    2  A    between atoms: C7_7  and  C8_8 
REMARK    3  A    between atoms: C8_8  and  C9_9 
REMARK    4  A    between atoms: C9_9  and  S10_10 
ROOT
HETATM    1  C1  UNL     1     -34.062  17.755  -1.056  1.00 20.00     0.000 A 
HETATM    2  C2  UNL     1     -32.962  17.620  -1.903  1.00 20.00     0.001 A 
HETATM    3  C3  UNL     1     -35.143  16.881  -1.174  1.00 20.00     0.001 A 
HETATM    4  C4  UNL     1     -32.944  16.613  -2.867  1.00 20.00     0.007 A 
HETATM    5  C5  UNL     1     -35.125  15.874  -2.138  1.00 20.00     0.007 A 
HETATM    6  C6  UNL     1     -34.024  15.740  -2.984  1.00 20.00    -0.058 A 
ENDROOT
BRANCH   6   7
HETATM    7  C7  UNL     1     -34.004  14.662  -4.015  1.00 20.00     0.039 C 
BRANCH   7   8
HETATM    8  C8  UNL     1     -35.362  13.964  -4.235  1.00 20.00     0.014 C 
BRANCH   8   9
HETATM    9  C9  UNL     1     -36.007  14.350  -5.565  1.00 20.00     0.071 C 
BRANCH   9  10
HETATM   10  S10 UNL     1     -34.791  15.138  -6.661  1.00 20.00    -0.182 SA
HETATM   11  H22 UNL     1     -35.686  15.762  -7.438  1.00 20.00     0.101 HD
ENDBRANCH   9  10
ENDBRANCH   8   9
ENDBRANCH   7   8
ENDBRANCH   6   7
TORSDOF 4
ENDMDL
MODEL 4
REMARK VINA RESULT:      -4.4     11.260     11.918
REMARK  4 active torsions:
REMARK  status: ('A' for Active; 'I' for Inactive)
REMARK    1  A    between atoms: C6_6  and  C7_7 
REMARK    2  A    between atoms: C7_7  and  C8_8 
REMARK    3  A    between atoms: C8_8  and  C9_9 
REMARK    4  A    between atoms: C9_9  and  S10_10 
ROOT
HETATM    1  C1  UNL     1     -34.046  17.761  -1.068  1.00 20.00     0.000 A 
HETATM    2  C2  UNL     1     -35.129  16.889  -1.178  1.00 20.00     0.001 A 
HETATM    3  C3  UNL     1     -32.949  17.620  -1.920  1.00 20.00     0.001 A 
HETATM    4  C4  UNL     1     -35.116  15.878  -2.137  1.00 20.00     0.007 A 
HETATM    5  C5  UNL     1     -32.936  16.608  -2.879  1.00 20.00     0.007 A 
HETATM    6  C6  UNL     1     -34.020  15.738  -2.988  1.00 20.00    -0.058 A 
ENDROOT
BRANCH   6   7
HETATM    7  C7  UNL     1     -34.006  14.656  -4.015  1.00 20.00     0.039 C 
BRANCH   7   8
HETATM    8  C8  UNL     1     -35.370  13.972  -4.240  1.00 20.00     0.014 C 
BRANCH   8   9
HETATM    9  C9  UNL     1     -36.003  14.360  -5.576  1.00 20.00     0.071 C 
BRANCH   9  10
HETATM   10  S10 UNL     1     -34.774  15.140  -6.663  1.00 20.00    -0.182 SA
HETATM   11  H22 UNL     1     -35.034  14.382  -7.736  1.00 20.00     0.101 HD
ENDBRANCH   9  10
ENDBRANCH   8   9
ENDBRANCH   7   8
ENDBRANCH   6   7
TORSDOF 4
ENDMDL
MODEL 5
REMARK VINA RESULT:      -4.4     11.299     11.964
REMARK  4 active torsions:
REMARK  status: ('A' for Active; 'I' for Inactive)
REMARK    1  A    between atoms: C6_6  and  C7_7 
REMARK    2  A    between atoms: C7_7  and  C8_8 
REMARK    3  A    between atoms: C8_8  and  C9_9 
REMARK    4  A    between atoms: C9_9  and  S10_10 
ROOT
HETATM    1  C1  UNL     1     -33.767  17.941  -0.934  1.00 20.00     0.000 A 
HETATM    2  C2  UNL     1     -34.935  17.184  -0.854  1.00 20.00     0.001 A 
HETATM    3  C3  UNL     1     -32.821  17.662  -1.921  1.00 20.00     0.001 A 
HETATM    4  C4  UNL     1     -35.157  16.148  -1.761  1.00 20.00     0.007 A 
HETATM    5  C5  UNL     1     -33.044  16.626  -2.827  1.00 20.00     0.007 A 
HETATM    6  C6  UNL     1     -34.212  15.870  -2.747  1.00 20.00    -0.058 A 
ENDROOT
BRANCH   6   7
HETATM    7  C7  UNL     1     -34.450  14.762  -3.717  1.00 20.00     0.039 C 
BRANCH   7   8
HETATM    8  C8  UNL     1     -33.386  14.645  -4.826  1.00 20.00     0.014 C 
BRANCH   8   9
HETATM    9  C9  UNL     1     -33.952  14.950  -6.212  1.00 20.00     0.071 C 
BRANCH   9  10
HETATM   10  S10 UNL     1     -35.762  14.796  -6.211  1.00 20.00    -0.182 SA
HETATM   11  H22 UNL     1     -35.873  14.446  -4.923  1.00 20.00     0.101 HD
ENDBRANCH   9  10
ENDBRANCH   8   9
ENDBRANCH   7   8
ENDBRANCH   6   7
TORSDOF 4
ENDMDL
MODEL 6
REMARK VINA RESULT:      -4.3     11.242     12.037
REMARK  4 active torsions:
REMARK  status: ('A' for Active; 'I' for Inactive)
REMARK    1  A    between atoms: C6_6  and  C7_7 
REMARK    2  A    between atoms: C7_7  and  C8_8 
REMARK    3  A    between atoms: C8_8  and  C9_9 
REMARK    4  A    between atoms: C9_9  and  S10_10 
ROOT
HETATM    1  C1  UNL     1     -34.762  14.332  -3.981  1.00 20.00     0.000 A 
HETATM    2  C2  UNL     1     -33.452  14.723  -4.259  1.00 20.00     0.001 A 
HETATM    3  C3  UNL     1     -35.496  15.000  -3.000  1.00 20.00     0.001 A 
HETATM    4  C4  UNL     1     -32.877  15.781  -3.555  1.00 20.00     0.007 A 
HETATM    5  C5  UNL     1     -34.920  16.057  -2.296  1.00 20.00     0.007 A 
HETATM    6  C6  UNL     1     -33.610  16.448  -2.575  1.00 20.00    -0.058 A 
ENDROOT
BRANCH   6   7
HETATM    7  C7  UNL     1     -32.995  17.579  -1.822  1.00 20.00     0.039 C 
BRANCH   7   8
HETATM    8  C8  UNL     1     -33.777  18.009  -0.565  1.00 20.00     0.014 C 
BRANCH   8   9
HETATM    9  C9  UNL     1     -32.868  18.586   0.519  1.00 20.00     0.071 C 
BRANCH   9  10
HETATM   10  S10 UNL     1     -31.125  18.463   0.023  1.00 20.00    -0.182 SA
HETATM   11  H22 UNL     1     -30.719  17.781   1.101  1.00 20.00     0.101 HD
ENDBRANCH   9  10
ENDBRANCH   8   9
ENDBRANCH   7   8
ENDBRANCH   6   7
TORSDOF 4
ENDMDL
MODEL 7
REMARK VINA RESULT:      -4.2     11.258     12.144
REMARK  4 active torsions:
REMARK  status: ('A' for Active; 'I' for Inactive)
REMARK    1  A    between atoms: C6_6  and  C7_7 
REMARK    2  A    between atoms: C7_7  and  C8_8 
REMARK    3  A    between atoms: C8_8  and  C9_9 
REMARK    4  A    between atoms: C9_9  and  S10_10 
ROOT
HETATM    1  C1  UNL     1     -34.481  14.502  -4.007  1.00 20.00     0.000 A 
HETATM    2  C2  UNL     1     -35.413  14.950  -3.071  1.00 20.00     0.001 A 
HETATM    3  C3  UNL     1     -33.229  15.112  -4.091  1.00 20.00     0.001 A 
HETATM    4  C4  UNL     1     -35.094  16.008  -2.221  1.00 20.00     0.007 A 
HETATM    5  C5  UNL     1     -32.910  16.170  -3.240  1.00 20.00     0.007 A 
HETATM    6  C6  UNL     1     -33.843  16.617  -2.305  1.00 20.00    -0.058 A 
ENDROOT
BRANCH   6   7
HETATM    7  C7  UNL     1     -33.501  17.749  -1.395  1.00 20.00     0.039 C 
BRANCH   7   8
HETATM    8  C8  UNL     1     -32.023  18.185  -1.446  1.00 20.00     0.014 C 
BRANCH   8   9
HETATM    9  C9  UNL     1     -31.545  18.781  -0.123  1.00 20.00     0.071 C 
BRANCH   9  10
HETATM   10  S10 UNL     1     -32.821  18.602   1.157  1.00 20.00    -0.182 SA
HETATM   11  H22 UNL     1     -33.157  19.898   1.204  1.00 20.00     0.101 HD
ENDBRANCH   9  10
ENDBRANCH   8   9
ENDBRANCH   7   8
ENDBRANCH   6   7
TORSDOF 4
ENDMDL
MODEL 8
REMARK VINA RESULT:      -4.0     11.357     12.142
REMARK  4 active torsions:
REMARK  status: ('A' for Active; 'I' for Inactive)
REMARK    1  A    between atoms: C6_6  and  C7_7 
REMARK    2  A    between atoms: C7_7  and  C8_8 
REMARK    3  A    between atoms: C8_8  and  C9_9 
REMARK    4  A    between atoms: C9_9  and  S10_10 
ROOT
HETATM    1  C1  UNL     1     -33.398  17.276  -1.921  1.00 20.00     0.000 A 
HETATM    2  C2  UNL     1     -32.750  16.679  -3.002  1.00 20.00     0.001 A 
HETATM    3  C3  UNL     1     -34.663  16.831  -1.535  1.00 20.00     0.001 A 
HETATM    4  C4  UNL     1     -33.367  15.640  -3.698  1.00 20.00     0.007 A 
HETATM    5  C5  UNL     1     -35.280  15.792  -2.230  1.00 20.00     0.007 A 
HETATM    6  C6  UNL     1     -34.631  15.196  -3.311  1.00 20.00    -0.058 A 
ENDROOT
BRANCH   6   7
HETATM    7  C7  UNL     1     -35.291  14.084  -4.055  1.00 20.00     0.039 C 
BRANCH   7   8
HETATM    8  C8  UNL     1     -35.684  14.431  -5.505  1.00 20.00     0.014 C 
BRANCH   8   9
HETATM    9  C9  UNL     1     -36.707  15.564  -5.577  1.00 20.00     0.071 C 
BRANCH   9  10
HETATM   10  S10 UNL     1     -36.013  16.998  -6.449  1.00 20.00    -0.182 SA
HETATM   11  H22 UNL     1     -37.186  17.603  -6.681  1.00 20.00     0.101 HD
ENDBRANCH   9  10
ENDBRANCH   8   9
ENDBRANCH   7   8
ENDBRANCH   6   7
TORSDOF 4
ENDMDL
MODEL 9
REMARK VINA RESULT:      -4.0     11.226     12.029
REMARK  4 active torsions:
REMARK  status: ('A' for Active; 'I' for Inactive)
REMARK    1  A    between atoms: C6_6  and  C7_7 
REMARK    2  A    between atoms: C7_7  and  C8_8 
REMARK    3  A    between atoms: C8_8  and  C9_9 
REMARK    4  A    between atoms: C9_9  and  S10_10 
ROOT
HETATM    1  C1  UNL     1     -34.659  14.323  -4.124  1.00 20.00     0.000 A 
HETATM    2  C2  UNL     1     -33.358  14.799  -4.284  1.00 20.00     0.001 A 
HETATM    3  C3  UNL     1     -35.492  14.883  -3.156  1.00 20.00     0.001 A 
HETATM    4  C4  UNL     1     -32.890  15.834  -3.475  1.00 20.00     0.007 A 
HETATM    5  C5  UNL     1     -35.025  15.918  -2.346  1.00 20.00     0.007 A 
HETATM    6  C6  UNL     1     -33.723  16.393  -2.507  1.00 20.00    -0.058 A 
ENDROOT
BRANCH   6   7
HETATM    7  C7  UNL     1     -33.223  17.501  -1.641  1.00 20.00     0.039 C 
BRANCH   7   8
HETATM    8  C8  UNL     1     -34.331  18.367  -1.010  1.00 20.00     0.014 C 
BRANCH   8   9
HETATM    9  C9  UNL     1     -34.356  18.262   0.514  1.00 20.00     0.071 C 
BRANCH   9  10
HETATM   10  S10 UNL     1     -35.997  17.740   1.092  1.00 20.00    -0.182 SA
HETATM   11  H22 UNL     1     -35.934  18.363   2.276  1.00 20.00     0.101 HD
ENDBRANCH   9  10
ENDBRANCH   8   9
ENDBRANCH   7   8
ENDBRANCH   6   7
TORSDOF 4
ENDMDL
