MODEL 1
REMARK VINA RESULT:      -5.0      0.000      0.000
REMARK  0 active torsions:
REMARK  status: ('A' for Active; 'I' for Inactive)
ROOT
HETATM    1  C1  UNL     1     -33.325   6.523   3.715  1.00 20.00    -0.030 C 
HETATM    2  C2  UNL     1     -33.381   7.138   4.904  1.00 20.00    -0.030 C 
HETATM    3  C3  UNL     1     -34.094   5.274   3.401  1.00 20.00     0.026 C 
HETATM    4  C4  UNL     1     -34.192   6.623   6.056  1.00 20.00     0.026 C 
HETATM    5  C5  UNL     1     -35.180   4.960   4.435  1.00 20.00     0.004 C 
HETATM    6  C6  UNL     1     -34.673   5.184   5.857  1.00 20.00     0.004 C 
ENDROOT
TORSDOF 0
ENDMDL
MODEL 2
REMARK VINA RESULT:      -5.0      0.087      2.082
REMARK  0 active torsions:
REMARK  status: ('A' for Active; 'I' for Inactive)
ROOT
HETATM    1  C1  UNL     1     -33.332   7.122   4.800  1.00 20.00    -0.030 C 
HETATM    2  C2  UNL     1     -33.321   6.457   3.637  1.00 20.00    -0.030 C 
HETATM    3  C3  UNL     1     -34.128   6.678   5.991  1.00 20.00     0.026 C 
HETATM    4  C4  UNL     1     -34.129   5.217   3.394  1.00 20.00     0.026 C 
HETATM    5  C5  UNL     1     -34.654   5.246   5.862  1.00 20.00     0.004 C 
HETATM    6  C6  UNL     1     -35.199   4.978   4.462  1.00 20.00     0.004 C 
ENDROOT
TORSDOF 0
ENDMDL
MODEL 3
REMARK VINA RESULT:      -4.9      0.275      2.517
REMARK  0 active torsions:
REMARK  status: ('A' for Active; 'I' for Inactive)
ROOT
HETATM    1  C1  UNL     1     -34.088   6.465   6.020  1.00 20.00    -0.030 C 
HETATM    2  C2  UNL     1     -34.881   5.417   5.759  1.00 20.00    -0.030 C 
HETATM    3  C3  UNL     1     -33.233   7.125   4.979  1.00 20.00     0.026 C 
HETATM    4  C4  UNL     1     -34.970   4.773   4.407  1.00 20.00     0.026 C 
HETATM    5  C5  UNL     1     -33.593   6.706   3.550  1.00 20.00     0.004 C 
HETATM    6  C6  UNL     1     -33.848   5.204   3.460  1.00 20.00     0.004 C 
ENDROOT
TORSDOF 0
ENDMDL
MODEL 4
REMARK VINA RESULT:      -4.9      0.282      2.080
REMARK  0 active torsions:
REMARK  status: ('A' for Active; 'I' for Inactive)
ROOT
HETATM    1  C1  UNL     1     -34.886   5.355   5.774  1.00 20.00    -0.030 C 
HETATM    2  C2  UNL     1     -34.124   6.421   6.053  1.00 20.00    -0.030 C 
HETATM    3  C3  UNL     1     -34.950   4.727   4.414  1.00 20.00     0.026 C 
HETATM    4  C4  UNL     1     -33.281   7.117   5.027  1.00 20.00     0.026 C 
HETATM    5  C5  UNL     1     -33.835   5.203   3.478  1.00 20.00     0.004 C 
HETATM    6  C6  UNL     1     -33.622   6.710   3.592  1.00 20.00     0.004 C 
ENDROOT
TORSDOF 0
ENDMDL
MODEL 5
REMARK VINA RESULT:      -4.9      0.295      2.496
REMARK  0 active torsions:
REMARK  status: ('A' for Active; 'I' for Inactive)
ROOT
HETATM    1  C1  UNL     1     -34.743   4.649   4.538  1.00 20.00    -0.030 C 
HETATM    2  C2  UNL     1     -34.214   5.319   3.506  1.00 20.00    -0.030 C 
HETATM    3  C3  UNL     1     -34.728   5.167   5.946  1.00 20.00     0.026 C 
HETATM    4  C4  UNL     1     -33.521   6.642   3.655  1.00 20.00     0.026 C 
HETATM    5  C5  UNL     1     -34.354   6.650   6.038  1.00 20.00     0.004 C 
HETATM    6  C6  UNL     1     -33.190   6.986   5.109  1.00 20.00     0.004 C 
ENDROOT
TORSDOF 0
ENDMDL
MODEL 6
REMARK VINA RESULT:      -4.9      0.294      2.080
REMARK  0 active torsions:
REMARK  status: ('A' for Active; 'I' for Inactive)
ROOT
HETATM    1  C1  UNL     1     -34.237   5.330   3.517  1.00 20.00    -0.030 C 
HETATM    2  C2  UNL     1     -34.760   4.662   4.554  1.00 20.00    -0.030 C 
HETATM    3  C3  UNL     1     -33.535   6.647   3.661  1.00 20.00     0.026 C 
HETATM    4  C4  UNL     1     -34.728   5.179   5.962  1.00 20.00     0.026 C 
HETATM    5  C5  UNL     1     -33.190   6.990   5.113  1.00 20.00     0.004 C 
HETATM    6  C6  UNL     1     -34.347   6.658   6.051  1.00 20.00     0.004 C 
ENDROOT
TORSDOF 0
ENDMDL
MODEL 7
REMARK VINA RESULT:      -3.6     12.113     12.466
REMARK  0 active torsions:
REMARK  status: ('A' for Active; 'I' for Inactive)
ROOT
HETATM    1  C1  UNL     1     -33.603  14.533  -4.272  1.00 20.00    -0.030 C 
HETATM    2  C2  UNL     1     -32.966  15.560  -3.694  1.00 20.00    -0.030 C 
HETATM    3  C3  UNL     1     -35.047  14.218  -4.020  1.00 20.00     0.026 C 
HETATM    4  C4  UNL     1     -33.622  16.482  -2.708  1.00 20.00     0.026 C 
HETATM    5  C5  UNL     1     -35.796  15.351  -3.311  1.00 20.00     0.004 C 
HETATM    6  C6  UNL     1     -34.957  15.950  -2.185  1.00 20.00     0.004 C 
ENDROOT
TORSDOF 0
ENDMDL
MODEL 8
REMARK VINA RESULT:      -3.6     12.119     12.603
REMARK  0 active torsions:
REMARK  status: ('A' for Active; 'I' for Inactive)
ROOT
HETATM    1  C1  UNL     1     -32.948  15.539  -3.734  1.00 20.00    -0.030 C 
HETATM    2  C2  UNL     1     -33.595  14.518  -4.311  1.00 20.00    -0.030 C 
HETATM    3  C3  UNL     1     -33.590  16.458  -2.738  1.00 20.00     0.026 C 
HETATM    4  C4  UNL     1     -35.039  14.208  -4.046  1.00 20.00     0.026 C 
HETATM    5  C5  UNL     1     -34.926  15.931  -2.206  1.00 20.00     0.004 C 
HETATM    6  C6  UNL     1     -35.776  15.341  -3.329  1.00 20.00     0.004 C 
ENDROOT
TORSDOF 0
ENDMDL
MODEL 9
REMARK VINA RESULT:      -3.4      8.858      9.381
REMARK  0 active torsions:
REMARK  status: ('A' for Active; 'I' for Inactive)
ROOT
HETATM    1  C1  UNL     1     -42.261   8.093   0.635  1.00 20.00    -0.030 C 
HETATM    2  C2  UNL     1     -42.676   6.874   1.003  1.00 20.00    -0.030 C 
HETATM    3  C3  UNL     1     -41.345   8.330  -0.529  1.00 20.00     0.026 C 
HETATM    4  C4  UNL     1     -42.242   5.616   0.311  1.00 20.00     0.026 C 
HETATM    5  C5  UNL     1     -41.198   7.106  -1.438  1.00 20.00     0.004 C 
HETATM    6  C6  UNL     1     -41.047   5.825  -0.622  1.00 20.00     0.004 C 
ENDROOT
TORSDOF 0
ENDMDL
