MODEL 1
REMARK VINA RESULT:      -6.6      0.000      0.000
REMARK  0 active torsions:
REMARK  status: ('A' for Active; 'I' for Inactive)
ROOT
HETATM    1  C1  UNL     1     -32.248   7.593   1.698  1.00 20.00     0.018 C 
HETATM    2  C2  UNL     1     -32.819   7.078   2.620  1.00 20.00    -0.078 C 
HETATM    3  C3  UNL     1     -34.825   5.270   5.860  1.00 20.00     0.000 A 
HETATM    4  C4  UNL     1     -34.151   6.477   6.044  1.00 20.00     0.001 A 
HETATM    5  C5  UNL     1     -34.837   4.660   4.605  1.00 20.00     0.001 A 
HETATM    6  C6  UNL     1     -33.488   7.074   4.972  1.00 20.00     0.020 A 
HETATM    7  C7  UNL     1     -34.174   5.258   3.534  1.00 20.00     0.020 A 
HETATM    8  C8  UNL     1     -33.498   6.465   3.717  1.00 20.00     0.016 A 
ENDROOT
TORSDOF 0
ENDMDL
MODEL 2
REMARK VINA RESULT:      -4.8      1.192      1.856
REMARK  0 active torsions:
REMARK  status: ('A' for Active; 'I' for Inactive)
ROOT
HETATM    1  C1  UNL     1     -33.275   4.279   1.474  1.00 20.00     0.018 C 
HETATM    2  C2  UNL     1     -33.522   4.779   2.537  1.00 20.00    -0.078 C 
HETATM    3  C3  UNL     1     -34.394   6.542   6.269  1.00 20.00     0.000 A 
HETATM    4  C4  UNL     1     -33.582   7.213   5.354  1.00 20.00     0.001 A 
HETATM    5  C5  UNL     1     -34.917   5.288   5.950  1.00 20.00     0.001 A 
HETATM    6  C6  UNL     1     -33.295   6.629   4.120  1.00 20.00     0.020 A 
HETATM    7  C7  UNL     1     -34.629   4.706   4.717  1.00 20.00     0.020 A 
HETATM    8  C8  UNL     1     -33.818   5.376   3.801  1.00 20.00     0.016 A 
ENDROOT
TORSDOF 0
ENDMDL
MODEL 3
REMARK VINA RESULT:      -4.5     11.502     12.274
REMARK  0 active torsions:
REMARK  status: ('A' for Active; 'I' for Inactive)
ROOT
HETATM    1  C1  UNL     1     -35.159  13.883  -4.161  1.00 20.00     0.018 C 
HETATM    2  C2  UNL     1     -34.794  14.793  -3.467  1.00 20.00    -0.078 C 
HETATM    3  C3  UNL     1     -33.509  17.989  -1.033  1.00 20.00     0.000 A 
HETATM    4  C4  UNL     1     -32.712  17.555  -2.091  1.00 20.00     0.001 A 
HETATM    5  C5  UNL     1     -34.732  17.367  -0.779  1.00 20.00     0.001 A 
HETATM    6  C6  UNL     1     -33.137  16.498  -2.896  1.00 20.00     0.020 A 
HETATM    7  C7  UNL     1     -35.157  16.311  -1.584  1.00 20.00     0.020 A 
HETATM    8  C8  UNL     1     -34.359  15.875  -2.643  1.00 20.00     0.016 A 
ENDROOT
TORSDOF 0
ENDMDL
MODEL 4
REMARK VINA RESULT:      -4.5     11.504     12.273
REMARK  0 active torsions:
REMARK  status: ('A' for Active; 'I' for Inactive)
ROOT
HETATM    1  C1  UNL     1     -35.166  13.885  -4.160  1.00 20.00     0.018 C 
HETATM    2  C2  UNL     1     -34.799  14.795  -3.468  1.00 20.00    -0.078 C 
HETATM    3  C3  UNL     1     -33.510  17.990  -1.035  1.00 20.00     0.000 A 
HETATM    4  C4  UNL     1     -34.734  17.371  -0.781  1.00 20.00     0.001 A 
HETATM    5  C5  UNL     1     -32.712  17.554  -2.093  1.00 20.00     0.001 A 
HETATM    6  C6  UNL     1     -35.159  16.314  -1.586  1.00 20.00     0.020 A 
HETATM    7  C7  UNL     1     -33.138  16.497  -2.897  1.00 20.00     0.020 A 
HETATM    8  C8  UNL     1     -34.362  15.877  -2.644  1.00 20.00     0.016 A 
ENDROOT
TORSDOF 0
ENDMDL
MODEL 5
REMARK VINA RESULT:      -4.5     11.629     12.299
REMARK  0 active torsions:
REMARK  status: ('A' for Active; 'I' for Inactive)
ROOT
HETATM    1  C1  UNL     1     -32.283  18.253  -1.355  1.00 20.00     0.018 C 
HETATM    2  C2  UNL     1     -32.859  17.384  -1.951  1.00 20.00    -0.078 C 
HETATM    3  C3  UNL     1     -34.878  14.330  -4.046  1.00 20.00     0.000 A 
HETATM    4  C4  UNL     1     -33.552  14.629  -4.357  1.00 20.00     0.001 A 
HETATM    5  C5  UNL     1     -35.537  15.040  -3.042  1.00 20.00     0.001 A 
HETATM    6  C6  UNL     1     -32.885  15.639  -3.664  1.00 20.00     0.020 A 
HETATM    7  C7  UNL     1     -34.869  16.049  -2.349  1.00 20.00     0.020 A 
HETATM    8  C8  UNL     1     -33.543  16.349  -2.660  1.00 20.00     0.016 A 
ENDROOT
TORSDOF 0
ENDMDL
MODEL 6
REMARK VINA RESULT:      -4.4     11.655     12.278
REMARK  0 active torsions:
REMARK  status: ('A' for Active; 'I' for Inactive)
ROOT
HETATM    1  C1  UNL     1     -32.245  18.254  -1.351  1.00 20.00     0.018 C 
HETATM    2  C2  UNL     1     -32.834  17.392  -1.943  1.00 20.00    -0.078 C 
HETATM    3  C3  UNL     1     -34.907  14.363  -4.022  1.00 20.00     0.000 A 
HETATM    4  C4  UNL     1     -35.556  15.095  -3.028  1.00 20.00     0.001 A 
HETATM    5  C5  UNL     1     -33.573  14.632  -4.329  1.00 20.00     0.001 A 
HETATM    6  C6  UNL     1     -34.870  16.097  -2.341  1.00 20.00     0.020 A 
HETATM    7  C7  UNL     1     -32.888  15.633  -3.642  1.00 20.00     0.020 A 
HETATM    8  C8  UNL     1     -33.536  16.366  -2.647  1.00 20.00     0.016 A 
ENDROOT
TORSDOF 0
ENDMDL
MODEL 7
REMARK VINA RESULT:      -4.4     11.595     12.255
REMARK  0 active torsions:
REMARK  status: ('A' for Active; 'I' for Inactive)
ROOT
HETATM    1  C1  UNL     1     -35.598  17.364  -0.223  1.00 20.00     0.018 C 
HETATM    2  C2  UNL     1     -35.170  16.760  -1.168  1.00 20.00    -0.078 C 
HETATM    3  C3  UNL     1     -33.669  14.638  -4.490  1.00 20.00     0.000 A 
HETATM    4  C4  UNL     1     -34.957  14.378  -4.021  1.00 20.00     0.001 A 
HETATM    5  C5  UNL     1     -32.878  15.600  -3.862  1.00 20.00     0.001 A 
HETATM    6  C6  UNL     1     -35.452  15.080  -2.922  1.00 20.00     0.020 A 
HETATM    7  C7  UNL     1     -33.374  16.302  -2.764  1.00 20.00     0.020 A 
HETATM    8  C8  UNL     1     -34.662  16.042  -2.293  1.00 20.00     0.016 A 
ENDROOT
TORSDOF 0
ENDMDL
MODEL 8
REMARK VINA RESULT:      -4.4     11.595     12.177
REMARK  0 active torsions:
REMARK  status: ('A' for Active; 'I' for Inactive)
ROOT
HETATM    1  C1  UNL     1     -35.594  17.371  -0.221  1.00 20.00     0.018 C 
HETATM    2  C2  UNL     1     -35.168  16.766  -1.167  1.00 20.00    -0.078 C 
HETATM    3  C3  UNL     1     -33.666  14.641  -4.486  1.00 20.00     0.000 A 
HETATM    4  C4  UNL     1     -32.874  15.602  -3.858  1.00 20.00     0.001 A 
HETATM    5  C5  UNL     1     -34.954  14.382  -4.017  1.00 20.00     0.001 A 
HETATM    6  C6  UNL     1     -33.371  16.304  -2.761  1.00 20.00     0.020 A 
HETATM    7  C7  UNL     1     -35.450  15.084  -2.920  1.00 20.00     0.020 A 
HETATM    8  C8  UNL     1     -34.659  16.046  -2.291  1.00 20.00     0.016 A 
ENDROOT
TORSDOF 0
ENDMDL
MODEL 9
REMARK VINA RESULT:      -4.2     11.897     12.588
REMARK  0 active torsions:
REMARK  status: ('A' for Active; 'I' for Inactive)
ROOT
HETATM    1  C1  UNL     1     -31.479  18.759  -0.824  1.00 20.00     0.018 C 
HETATM    2  C2  UNL     1     -32.273  18.021  -1.342  1.00 20.00    -0.078 C 
HETATM    3  C3  UNL     1     -35.058  15.427  -3.160  1.00 20.00     0.000 A 
HETATM    4  C4  UNL     1     -33.778  15.563  -3.698  1.00 20.00     0.001 A 
HETATM    5  C5  UNL     1     -35.417  16.148  -2.022  1.00 20.00     0.001 A 
HETATM    6  C6  UNL     1     -32.857  16.421  -3.096  1.00 20.00     0.020 A 
HETATM    7  C7  UNL     1     -34.496  17.005  -1.420  1.00 20.00     0.020 A 
HETATM    8  C8  UNL     1     -33.216  17.142  -1.957  1.00 20.00     0.016 A 
ENDROOT
TORSDOF 0
ENDMDL
