MODEL 1
REMARK VINA RESULT:      -5.3      0.000      0.000
REMARK  0 active torsions:
REMARK  status: ('A' for Active; 'I' for Inactive)
ROOT
HETATM    1  C1  UNL     1     -34.964   5.198   5.938  1.00 20.00     0.001 A 
HETATM    2  C2  UNL     1     -34.386   6.404   6.305  1.00 20.00     0.001 A 
HETATM    3  C3  UNL     1     -34.751   4.673   4.660  1.00 20.00     0.013 A 
HETATM    4  C4  UNL     1     -33.585   7.113   5.407  1.00 20.00     0.019 A 
HETATM    5  C5  UNL     1     -33.586   5.036   2.376  1.00 20.00     0.020 A 
HETATM    6  C6  UNL     1     -32.773   5.979   1.792  1.00 20.00     0.051 A 
HETATM    7  C7  UNL     1     -33.945   5.367   3.726  1.00 20.00    -0.019 A 
HETATM    8  C8  UNL     1     -33.374   6.581   4.119  1.00 20.00     0.015 A 
HETATM    9  S9  UNL     1     -32.430   7.271   2.851  1.00 20.00    -0.101 SA
ENDROOT
TORSDOF 0
ENDMDL
MODEL 2
REMARK VINA RESULT:      -5.2      0.968      2.036
REMARK  0 active torsions:
REMARK  status: ('A' for Active; 'I' for Inactive)
ROOT
HETATM    1  C1  UNL     1     -34.532   6.158   6.324  1.00 20.00     0.001 A 
HETATM    2  C2  UNL     1     -35.038   5.010   5.731  1.00 20.00     0.001 A 
HETATM    3  C3  UNL     1     -33.681   7.005   5.608  1.00 20.00     0.013 A 
HETATM    4  C4  UNL     1     -34.706   4.683   4.414  1.00 20.00     0.019 A 
HETATM    5  C5  UNL     1     -32.481   7.404   3.348  1.00 20.00     0.020 A 
HETATM    6  C6  UNL     1     -32.385   6.778   2.128  1.00 20.00     0.051 A 
HETATM    7  C7  UNL     1     -33.326   6.701   4.272  1.00 20.00    -0.019 A 
HETATM    8  C8  UNL     1     -33.848   5.539   3.697  1.00 20.00     0.015 A 
HETATM    9  S9  UNL     1     -33.303   5.343   2.072  1.00 20.00    -0.101 SA
ENDROOT
TORSDOF 0
ENDMDL
MODEL 3
REMARK VINA RESULT:      -4.8      1.341      3.266
REMARK  0 active torsions:
REMARK  status: ('A' for Active; 'I' for Inactive)
ROOT
HETATM    1  C1  UNL     1     -32.874   5.875   1.788  1.00 20.00     0.001 A 
HETATM    2  C2  UNL     1     -32.375   7.052   2.327  1.00 20.00     0.001 A 
HETATM    3  C3  UNL     1     -33.701   5.044   2.550  1.00 20.00     0.013 A 
HETATM    4  C4  UNL     1     -32.688   7.425   3.636  1.00 20.00     0.019 A 
HETATM    5  C5  UNL     1     -34.855   4.715   4.845  1.00 20.00     0.020 A 
HETATM    6  C6  UNL     1     -34.938   5.386   6.042  1.00 20.00     0.051 A 
HETATM    7  C7  UNL     1     -34.037   5.395   3.880  1.00 20.00    -0.019 A 
HETATM    8  C8  UNL     1     -33.522   6.585   4.401  1.00 20.00     0.015 A 
HETATM    9  S9  UNL     1     -34.042   6.836   6.027  1.00 20.00    -0.101 SA
ENDROOT
TORSDOF 0
ENDMDL
MODEL 4
REMARK VINA RESULT:      -4.6      1.662      3.793
REMARK  0 active torsions:
REMARK  status: ('A' for Active; 'I' for Inactive)
ROOT
HETATM    1  C1  UNL     1     -31.960   7.660   2.969  1.00 20.00     0.001 A 
HETATM    2  C2  UNL     1     -32.414   6.684   2.094  1.00 20.00     0.001 A 
HETATM    3  C3  UNL     1     -32.439   7.709   4.282  1.00 20.00     0.013 A 
HETATM    4  C4  UNL     1     -33.355   5.739   2.507  1.00 20.00     0.019 A 
HETATM    5  C5  UNL     1     -34.025   6.613   6.011  1.00 20.00     0.020 A 
HETATM    6  C6  UNL     1     -34.907   5.560   6.052  1.00 20.00     0.051 A 
HETATM    7  C7  UNL     1     -33.394   6.764   4.731  1.00 20.00    -0.019 A 
HETATM    8  C8  UNL     1     -33.836   5.791   3.830  1.00 20.00     0.015 A 
HETATM    9  S9  UNL     1     -34.991   4.738   4.560  1.00 20.00    -0.101 SA
ENDROOT
TORSDOF 0
ENDMDL
MODEL 5
REMARK VINA RESULT:      -4.4     15.867     16.232
REMARK  0 active torsions:
REMARK  status: ('A' for Active; 'I' for Inactive)
ROOT
HETATM    1  C1  UNL     1     -25.365  16.539  12.321  1.00 20.00     0.001 A 
HETATM    2  C2  UNL     1     -25.962  17.784  12.185  1.00 20.00     0.001 A 
HETATM    3  C3  UNL     1     -24.373  16.129  11.424  1.00 20.00     0.013 A 
HETATM    4  C4  UNL     1     -25.585  18.645  11.152  1.00 20.00     0.019 A 
HETATM    5  C5  UNL     1     -22.989  16.785   9.336  1.00 20.00     0.020 A 
HETATM    6  C6  UNL     1     -22.887  17.860   8.485  1.00 20.00     0.051 A 
HETATM    7  C7  UNL     1     -23.969  16.980  10.367  1.00 20.00    -0.019 A 
HETATM    8  C8  UNL     1     -24.586  18.229  10.250  1.00 20.00     0.015 A 
HETATM    9  S9  UNL     1     -23.961  19.115   8.908  1.00 20.00    -0.101 SA
ENDROOT
TORSDOF 0
ENDMDL
MODEL 6
REMARK VINA RESULT:      -4.3     11.840     12.634
REMARK  0 active torsions:
REMARK  status: ('A' for Active; 'I' for Inactive)
ROOT
HETATM    1  C1  UNL     1     -33.578  14.572  -4.385  1.00 20.00     0.001 A 
HETATM    2  C2  UNL     1     -34.878  14.296  -3.987  1.00 20.00     0.001 A 
HETATM    3  C3  UNL     1     -32.852  15.594  -3.766  1.00 20.00     0.013 A 
HETATM    4  C4  UNL     1     -35.482  15.034  -2.966  1.00 20.00     0.019 A 
HETATM    5  C5  UNL     1     -32.900  17.444  -1.955  1.00 20.00     0.020 A 
HETATM    6  C6  UNL     1     -33.791  17.931  -1.028  1.00 20.00     0.051 A 
HETATM    7  C7  UNL     1     -33.436  16.360  -2.729  1.00 20.00    -0.019 A 
HETATM    8  C8  UNL     1     -34.747  16.064  -2.345  1.00 20.00     0.015 A 
HETATM    9  S9  UNL     1     -35.278  17.100  -1.072  1.00 20.00    -0.101 SA
ENDROOT
TORSDOF 0
ENDMDL
MODEL 7
REMARK VINA RESULT:      -4.3     11.848     12.558
REMARK  0 active torsions:
REMARK  status: ('A' for Active; 'I' for Inactive)
ROOT
HETATM    1  C1  UNL     1     -34.806  14.334  -3.946  1.00 20.00     0.001 A 
HETATM    2  C2  UNL     1     -33.533  14.708  -4.353  1.00 20.00     0.001 A 
HETATM    3  C3  UNL     1     -35.438  15.009  -2.898  1.00 20.00     0.013 A 
HETATM    4  C4  UNL     1     -32.864  15.760  -3.724  1.00 20.00     0.019 A 
HETATM    5  C5  UNL     1     -35.224  16.912  -1.154  1.00 20.00     0.020 A 
HETATM    6  C6  UNL     1     -34.290  17.855  -0.794  1.00 20.00     0.051 A 
HETATM    7  C7  UNL     1     -34.786  16.080  -2.240  1.00 20.00    -0.019 A 
HETATM    8  C8  UNL     1     -33.505  16.437  -2.667  1.00 20.00     0.015 A 
HETATM    9  S9  UNL     1     -32.881  17.757  -1.748  1.00 20.00    -0.101 SA
ENDROOT
TORSDOF 0
ENDMDL
MODEL 8
REMARK VINA RESULT:      -4.3     15.802     16.330
REMARK  0 active torsions:
REMARK  status: ('A' for Active; 'I' for Inactive)
ROOT
HETATM    1  C1  UNL     1     -26.159  17.740  12.196  1.00 20.00     0.001 A 
HETATM    2  C2  UNL     1     -25.476  16.539  12.329  1.00 20.00     0.001 A 
HETATM    3  C3  UNL     1     -25.808  18.643  11.189  1.00 20.00     0.013 A 
HETATM    4  C4  UNL     1     -24.429  16.215  11.463  1.00 20.00     0.019 A 
HETATM    5  C5  UNL     1     -24.216  19.100   9.198  1.00 20.00     0.020 A 
HETATM    6  C6  UNL     1     -23.178  18.460   8.564  1.00 20.00     0.051 A 
HETATM    7  C7  UNL     1     -24.752  18.344  10.295  1.00 20.00    -0.019 A 
HETATM    8  C8  UNL     1     -24.079  17.129  10.449  1.00 20.00     0.015 A 
HETATM    9  S9  UNL     1     -22.832  16.948   9.271  1.00 20.00    -0.101 SA
ENDROOT
TORSDOF 0
ENDMDL
MODEL 9
REMARK VINA RESULT:      -4.3     15.950     16.596
REMARK  0 active torsions:
REMARK  status: ('A' for Active; 'I' for Inactive)
ROOT
HETATM    1  C1  UNL     1     -22.829  17.757   8.412  1.00 20.00     0.001 A 
HETATM    2  C2  UNL     1     -23.626  18.893   8.408  1.00 20.00     0.001 A 
HETATM    3  C3  UNL     1     -22.978  16.794   9.414  1.00 20.00     0.013 A 
HETATM    4  C4  UNL     1     -24.586  19.093   9.403  1.00 20.00     0.019 A 
HETATM    5  C5  UNL     1     -24.275  16.133  11.556  1.00 20.00     0.020 A 
HETATM    6  C6  UNL     1     -25.282  16.656  12.332  1.00 20.00     0.051 A 
HETATM    7  C7  UNL     1     -23.941  16.968  10.437  1.00 20.00    -0.019 A 
HETATM    8  C8  UNL     1     -24.732  18.120  10.411  1.00 20.00     0.015 A 
HETATM    9  S9  UNL     1     -25.841  18.150  11.732  1.00 20.00    -0.101 SA
ENDROOT
TORSDOF 0
ENDMDL
