REMARK  2 active torsions:
REMARK  status: ('A' for Active; 'I' for Inactive)
REMARK    1  A    between atoms: C5_5  and  S7_7 
REMARK    2  A    between atoms: C6_6  and  S8_8 
ROOT
HETATM    1  C1  UNL     1     -34.865   5.843   5.627  1.00 20.00     0.001 A 
HETATM    2  C2  UNL     1     -34.326   7.101   5.898  1.00 20.00     0.001 A 
HETATM    3  C3  UNL     1     -34.421   5.117   4.521  1.00 20.00     0.019 A 
HETATM    4  C4  UNL     1     -33.343   7.633   5.064  1.00 20.00     0.019 A 
HETATM    5  C5  UNL     1     -33.437   5.649   3.687  1.00 20.00     0.014 A 
HETATM    6  C6  UNL     1     -32.898   6.907   3.958  1.00 20.00     0.014 A 
ENDROOT
BRANCH   5   7
HETATM    7  S7  UNL     1     -32.932   4.642   2.292  1.00 20.00    -0.142 SA
HETATM    8  H13 UNL     1     -33.748   3.608   2.538  1.00 20.00     0.107 HD
ENDBRANCH   5   7
BRANCH   6   9
HETATM    9  S8  UNL     1     -31.632   7.674   2.946  1.00 20.00    -0.142 SA
HETATM   10  H14 UNL     1     -31.522   8.804   3.658  1.00 20.00     0.107 HD
ENDBRANCH   6   9
TORSDOF 2
