REMARK  0 active torsions:
REMARK  status: ('A' for Active; 'I' for Inactive)
ROOT
HETATM    1  C1  UNL     1     -34.102   3.705   5.081  1.00 20.00     0.001 A 
HETATM    2  C2  UNL     1     -34.183   4.652   6.107  1.00 20.00     0.003 A 
HETATM    3  C3  UNL     1     -33.809   4.087   3.764  1.00 20.00     0.016 A 
HETATM    4  C4  UNL     1     -33.976   6.013   5.859  1.00 20.00     0.040 A 
HETATM    5  C5  UNL     1     -33.296   6.253   2.385  1.00 20.00     0.161 A 
HETATM    6  C6  UNL     1     -33.599   5.448   3.500  1.00 20.00     0.019 A 
HETATM    7  C7  UNL     1     -33.688   6.356   4.541  1.00 20.00     0.113 A 
HETATM    8  N8  UNL     1     -33.204   7.548   2.701  1.00 20.00    -0.140 NA
HETATM    9  O9  UNL     1     -33.453   7.610   4.067  1.00 20.00    -0.213 OA
ENDROOT
TORSDOF 0
