REMARK  1 active torsions:
REMARK  status: ('A' for Active; 'I' for Inactive)
REMARK    1  A    between atoms: C1_1  and  C8_8 
ROOT
HETATM    1  C1  UNL     1     -33.032   7.376   2.756  1.00 20.00    -0.067 C 
HETATM    2  C2  UNL     1     -32.669   8.285   2.060  1.00 20.00    -0.105 C 
HETATM    3  C9  UNL     1     -32.228   9.392   1.213  1.00 20.00     0.112 C 
ENDROOT
BRANCH   1   4
HETATM    4  C8  UNL     1     -33.466   6.294   3.583  1.00 20.00     0.017 A 
HETATM    5  C6  UNL     1     -33.442   4.988   3.093  1.00 20.00     0.020 A 
HETATM    6  C4  UNL     1     -33.866   3.932   3.900  1.00 20.00     0.001 A 
HETATM    7  C3  UNL     1     -34.314   4.183   5.197  1.00 20.00     0.000 A 
HETATM    8  C5  UNL     1     -34.338   5.488   5.687  1.00 20.00     0.001 A 
HETATM    9  C7  UNL     1     -33.914   6.544   4.880  1.00 20.00     0.020 A 
ENDBRANCH   1   4
TORSDOF 1
