REMARK  1 active torsions:
REMARK  status: ('A' for Active; 'I' for Inactive)
REMARK    1  A    between atoms: C4_4  and  S7_7 
ROOT
HETATM    1  C1  UNL     1     -34.598   4.866   5.424  1.00 20.00     0.009 A 
HETATM    2  C2  UNL     1     -34.270   6.162   4.931  1.00 20.00     0.026 A 
HETATM    3  C3  UNL     1     -34.195   3.868   4.566  1.00 20.00     0.051 A 
HETATM    4  C4  UNL     1     -33.627   6.104   3.714  1.00 20.00     0.040 A 
HETATM    5  S6  UNL     1     -33.423   4.493   3.171  1.00 20.00    -0.095 SA
ENDROOT
BRANCH   4   6
HETATM    6  S7  UNL     1     -33.059   7.477   2.781  1.00 20.00    -0.127 SA
HETATM    7  C5  UNL     1     -31.896   8.215   3.956  1.00 20.00     0.096 C 
ENDBRANCH   4   6
TORSDOF 1
