REMARK  1 active torsions:
REMARK  status: ('A' for Active; 'I' for Inactive)
REMARK    1  A    between atoms: C6_6  and  C9_9 
ROOT
HETATM    1  C1  UNL     1     -34.103   3.850   4.606  1.00 20.00     0.001 A 
HETATM    2  C2  UNL     1     -33.639   4.107   3.316  1.00 20.00     0.001 A 
HETATM    3  C3  UNL     1     -34.304   4.903   5.498  1.00 20.00     0.007 A 
HETATM    4  C4  UNL     1     -33.377   5.418   2.918  1.00 20.00     0.007 A 
HETATM    5  C5  UNL     1     -34.042   6.214   5.100  1.00 20.00    -0.056 A 
HETATM    6  C6  UNL     1     -33.578   6.471   3.810  1.00 20.00    -0.053 A 
HETATM    7  C7  UNL     1     -34.266   7.326   6.072  1.00 20.00     0.049 C 
ENDROOT
BRANCH   6   8
HETATM    8  C9  UNL     1     -33.289   7.866   3.362  1.00 20.00     0.034 C 
HETATM    9  C8  UNL     1     -31.794   8.171   3.344  1.00 20.00     0.010 C 
ENDBRANCH   6   8
TORSDOF 1
