REMARK  3 active torsions:
REMARK  status: ('A' for Active; 'I' for Inactive)
REMARK    1  A    between atoms: C5_5  and  O9_9 
REMARK    2  A    between atoms: C6_6  and  O10_10 
REMARK    3  A    between atoms: C8_8  and  O10_10 
ROOT
HETATM    1  C1  UNL     1     -34.455   5.390   4.858  1.00 20.00     0.003 A 
HETATM    2  C2  UNL     1     -34.390   5.139   3.487  1.00 20.00     0.003 A 
HETATM    3  C3  UNL     1     -33.704   6.426   5.413  1.00 20.00     0.039 A 
HETATM    4  C4  UNL     1     -33.574   5.924   2.672  1.00 20.00     0.039 A 
HETATM    5  C5  UNL     1     -32.889   7.211   4.598  1.00 20.00     0.099 A 
HETATM    6  C6  UNL     1     -32.824   6.960   3.228  1.00 20.00     0.101 A 
ENDROOT
BRANCH   6   7
HETATM    7  O10 UNL     1     -32.030   7.719   2.421  1.00 20.00    -0.349 OA
BRANCH   7   8
HETATM    8  C8  UNL     1     -32.671   8.434   1.367  1.00 20.00     0.171 C 
HETATM    9  C7  UNL     1     -31.899   9.706   1.093  1.00 20.00     0.034 C 
ENDBRANCH   7   8
ENDBRANCH   6   7
BRANCH   5  10
HETATM   10  O9  UNL     1     -32.159   8.219   5.153  1.00 20.00    -0.358 OA
HETATM   11  H20 UNL     1     -32.316   8.259   6.110  1.00 20.00     0.217 HD
ENDBRANCH   5  10
TORSDOF 3
