REMARK  0 active torsions:
REMARK  status: ('A' for Active; 'I' for Inactive)
ROOT
HETATM    1  C1  UNL     1     -34.595   4.453   5.254  1.00 20.00     0.001 A 
HETATM    2  C2  UNL     1     -34.586   4.420   3.859  1.00 20.00     0.001 A 
HETATM    3  C3  UNL     1     -34.182   5.603   5.926  1.00 20.00     0.008 A 
HETATM    4  C4  UNL     1     -34.164   5.537   3.138  1.00 20.00     0.019 A 
HETATM    5  C5  UNL     1     -33.761   6.720   5.205  1.00 20.00    -0.045 A 
HETATM    6  C6  UNL     1     -33.752   6.687   3.810  1.00 20.00     0.012 A 
HETATM    7  C7  UNL     1     -33.331   7.924   5.979  1.00 20.00     0.049 C 
HETATM    8  I8  UNL     1     -33.133   8.326   2.667  1.00 20.00    -0.044 I 
ENDROOT
TORSDOF 0
