REMARK  0 active torsions:
REMARK  status: ('A' for Active; 'I' for Inactive)
ROOT
HETATM    1  C1  UNL     1     -34.471   5.729   5.919  1.00 20.00     0.021 C 
HETATM    2  C2  UNL     1     -33.861   3.539   4.839  1.00 20.00     0.021 C 
HETATM    3  C3  UNL     1     -34.698   4.810   4.723  1.00 20.00     0.045 C 
HETATM    4  I4  UNL     1     -34.192   5.850   2.901  1.00 20.00    -0.086 I 
ENDROOT
TORSDOF 0
