REMARK  0 active torsions:
REMARK  status: ('A' for Active; 'I' for Inactive)
ROOT
HETATM    1  C1  UNL     1     -33.969   4.935   3.739  1.00 20.00     0.002 A 
HETATM    2  C2  UNL     1     -34.088   5.486   5.015  1.00 20.00     0.007 A 
HETATM    3  C3  UNL     1     -33.649   5.751   2.654  1.00 20.00     0.018 A 
HETATM    4  C4  UNL     1     -33.565   7.669   4.120  1.00 20.00     0.025 A 
HETATM    5  C5  UNL     1     -33.886   6.853   5.205  1.00 20.00    -0.061 A 
HETATM    6  C6  UNL     1     -33.447   7.117   2.844  1.00 20.00     0.006 A 
HETATM    7  C7  UNL     1     -34.014   7.442   6.570  1.00 20.00     0.048 C 
HETATM    8  I8  UNL     1     -32.967   8.332   1.228  1.00 20.00    -0.045 I 
ENDROOT
TORSDOF 0
