REMARK  2 active torsions:
REMARK  status: ('A' for Active; 'I' for Inactive)
REMARK    1  A    between atoms: C6_6  and  C8_8 
REMARK    2  A    between atoms: C8_8  and  N10_10 
ROOT
HETATM    1  N9  UNL     1     -33.138  10.907   1.237  1.00 20.00     0.068 N 
HETATM    2  N10 UNL     1     -32.480   8.649   0.848  1.00 20.00    -0.111 NA
HETATM    3  N11 UNL     1     -32.821   9.826   1.056  1.00 20.00    -0.167 NA
ENDROOT
BRANCH   2   4
HETATM    4  C8  UNL     1     -31.800   7.978   1.963  1.00 20.00     0.227 C 
BRANCH   4   5
HETATM    5  C6  UNL     1     -32.749   7.224   2.832  1.00 20.00    -0.035 A 
HETATM    6  C3  UNL     1     -33.549   6.221   2.285  1.00 20.00     0.009 A 
HETATM    7  C1  UNL     1     -34.437   5.516   3.098  1.00 20.00     0.001 A 
HETATM    8  C2  UNL     1     -34.525   5.814   4.458  1.00 20.00     0.007 A 
HETATM    9  C5  UNL     1     -33.724   6.817   5.005  1.00 20.00    -0.061 A 
HETATM   10  C4  UNL     1     -32.837   7.522   4.192  1.00 20.00     0.015 A 
HETATM   11  C7  UNL     1     -33.818   7.135   6.459  1.00 20.00     0.048 C 
ENDBRANCH   4   5
ENDBRANCH   2   4
TORSDOF 2
