REMARK  2 active torsions:
REMARK  status: ('A' for Active; 'I' for Inactive)
REMARK    1  A    between atoms: C5_5  and  N8_8 
REMARK    2  A    between atoms: C6_6  and  S11_11 
ROOT
HETATM    1  C1  UNL     1     -33.095   5.451   2.858  1.00 20.00     0.037 A 
HETATM    2  C2  UNL     1     -33.550   7.428   4.170  1.00 20.00     0.037 A 
HETATM    3  C3  UNL     1     -32.514   6.242   1.868  1.00 20.00     0.021 A 
HETATM    4  C4  UNL     1     -32.968   8.219   3.180  1.00 20.00     0.021 A 
HETATM    5  C5  UNL     1     -33.613   6.044   4.010  1.00 20.00     0.102 A 
HETATM    6  C6  UNL     1     -32.450   7.626   2.028  1.00 20.00    -0.000 A 
ENDROOT
BRANCH   5   7
HETATM    7  N8  UNL     1     -34.205   5.239   5.018  1.00 20.00    -0.116 N 
HETATM    8  O9  UNL     1     -34.251   3.995   4.855  1.00 20.00    -0.532 OA
HETATM    9  O10 UNL     1     -34.665   5.792   6.046  1.00 20.00    -0.532 OA
ENDBRANCH   5   7
BRANCH   6  10
HETATM   10  S11 UNL     1     -31.708   8.637   0.762  1.00 20.00    -0.134 SA
HETATM   11  C7  UNL     1     -32.664  10.153   0.987  1.00 20.00     0.095 C 
ENDBRANCH   6  10
TORSDOF 2
