REMARK  1 active torsions:
REMARK  status: ('A' for Active; 'I' for Inactive)
REMARK    1  A    between atoms: C6_6  and  C9_9 
ROOT
HETATM    1  C1  UNL     1     -33.239   6.890   5.186  1.00 20.00     0.007 A 
HETATM    2  C2  UNL     1     -33.933   5.569   3.286  1.00 20.00     0.007 A 
HETATM    3  C3  UNL     1     -32.489   7.709   4.342  1.00 20.00     0.007 A 
HETATM    4  C4  UNL     1     -33.183   6.388   2.442  1.00 20.00     0.007 A 
HETATM    5  C5  UNL     1     -33.961   5.820   4.658  1.00 20.00    -0.062 A 
HETATM    6  C6  UNL     1     -32.461   7.458   2.970  1.00 20.00    -0.059 A 
HETATM    7  C7  UNL     1     -34.764   4.944   5.559  1.00 20.00     0.048 C 
ENDROOT
BRANCH   6   8
HETATM    8  C9  UNL     1     -31.660   8.336   2.069  1.00 20.00     0.034 C 
HETATM    9  C8  UNL     1     -32.468   9.519   1.542  1.00 20.00     0.010 C 
ENDBRANCH   6   8
TORSDOF 1
