REMARK  4 active torsions:
REMARK  status: ('A' for Active; 'I' for Inactive)
REMARK    1  A    between atoms: C2_2  and  C4_4 
REMARK    2  A    between atoms: C4_4  and  O7_7 
REMARK    3  A    between atoms: C5_5  and  C6_6 
REMARK    4  A    between atoms: C6_6  and  O7_7 
ROOT
HETATM    1  O7  UNL     1     -33.286   7.734   2.633  1.00 20.00    -0.388 OA
ENDROOT
BRANCH   1   2
HETATM    2  C4  UNL     1     -32.217   8.653   2.448  1.00 20.00     0.194 C 
BRANCH   2   3
HETATM    3  C2  UNL     1     -32.429   9.383   1.164  1.00 20.00    -0.011 C 
HETATM    4  C1  UNL     1     -32.564  10.711   1.073  1.00 20.00     0.009 C 
ENDBRANCH   2   3
ENDBRANCH   1   2
BRANCH   1   5
HETATM    5  C6  UNL     1     -33.144   7.004   3.844  1.00 20.00     0.167 C 
BRANCH   5   6
HETATM    6  C5  UNL     1     -34.304   6.029   3.969  1.00 20.00     0.022 C 
HETATM    7  C3  UNL     1     -34.226   5.221   5.252  1.00 20.00     0.007 C 
ENDBRANCH   5   6
ENDBRANCH   1   5
TORSDOF 4
