REMARK  4 active torsions:
REMARK  status: ('A' for Active; 'I' for Inactive)
REMARK    1  A    between atoms: C6_6  and  C8_8 
REMARK    2  A    between atoms: C8_8  and  C10_10 
REMARK    3  A    between atoms: C9_9  and  C11_11 
REMARK    4  A    between atoms: C10_10  and  C11_11 
ROOT
HETATM    1  C1  UNL     1     -34.299   5.605   6.213  1.00 20.00     0.000 A 
HETATM    2  C2  UNL     1     -34.575   4.828   5.088  1.00 20.00     0.001 A 
HETATM    3  C3  UNL     1     -33.634   6.824   6.073  1.00 20.00     0.001 A 
HETATM    4  C4  UNL     1     -34.186   5.269   3.823  1.00 20.00     0.007 A 
HETATM    5  C5  UNL     1     -33.246   7.265   4.809  1.00 20.00     0.007 A 
HETATM    6  C6  UNL     1     -33.522   6.488   3.684  1.00 20.00    -0.058 A 
ENDROOT
BRANCH   6   7
HETATM    7  C8  UNL     1     -33.104   6.963   2.325  1.00 20.00     0.038 C 
BRANCH   7   8
HETATM    8  C10 UNL     1     -31.843   7.833   2.345  1.00 20.00     0.005 C 
BRANCH   8   9
HETATM    9  C11 UNL     1     -31.465   8.380   0.965  1.00 20.00    -0.000 C 
BRANCH   9  10
HETATM   10  C9  UNL     1     -32.595   9.227   0.377  1.00 20.00    -0.005 C 
HETATM   11  C7  UNL     1     -32.896  10.436   1.247  1.00 20.00     0.005 C 
ENDBRANCH   9  10
ENDBRANCH   8   9
ENDBRANCH   7   8
ENDBRANCH   6   7
TORSDOF 4
