REMARK  2 active torsions:
REMARK  status: ('A' for Active; 'I' for Inactive)
REMARK    1  A    between atoms: C6_6  and  C7_7 
REMARK    2  A    between atoms: C7_7  and  S8_8 
ROOT
HETATM    1  C1  UNL     1     -34.379   4.496   5.364  1.00 20.00     0.000 A 
HETATM    2  C2  UNL     1     -33.865   3.872   4.227  1.00 20.00     0.001 A 
HETATM    3  C3  UNL     1     -34.288   5.881   5.501  1.00 20.00     0.001 A 
HETATM    4  C4  UNL     1     -33.259   4.633   3.227  1.00 20.00     0.008 A 
HETATM    5  C5  UNL     1     -33.682   6.642   4.501  1.00 20.00     0.008 A 
HETATM    6  C6  UNL     1     -33.168   6.019   3.365  1.00 20.00    -0.049 A 
ENDROOT
BRANCH   6   7
HETATM    7  C7  UNL     1     -32.520   6.833   2.296  1.00 20.00     0.109 C 
BRANCH   7   8
HETATM    8  S8  UNL     1     -32.157   8.531   2.838  1.00 20.00    -0.178 SA
HETATM    9  H16 UNL     1     -31.613   8.932   1.681  1.00 20.00     0.101 HD
ENDBRANCH   7   8
ENDBRANCH   6   7
TORSDOF 2
