REMARK  0 active torsions:
REMARK  status: ('A' for Active; 'I' for Inactive)
ROOT
HETATM    1  C1  UNL     1     -34.075   6.114   3.487  1.00 20.00     0.000 A 
HETATM    2  C2  UNL     1     -34.038   4.728   3.339  1.00 20.00     0.000 A 
HETATM    3  C3  UNL     1     -34.345   6.676   4.735  1.00 20.00     0.000 A 
HETATM    4  C4  UNL     1     -34.272   3.903   4.439  1.00 20.00     0.000 A 
HETATM    5  C5  UNL     1     -34.578   5.851   5.835  1.00 20.00     0.000 A 
HETATM    6  C6  UNL     1     -34.542   4.464   5.687  1.00 20.00     0.000 A 
ENDROOT
TORSDOF 0
