REMARK  0 active torsions:
REMARK  status: ('A' for Active; 'I' for Inactive)
ROOT
HETATM    1  C1  UNL     1     -32.321  10.913   1.030  1.00 20.00     0.016 C 
HETATM    2  C2  UNL     1     -32.198   9.430   0.772  1.00 20.00     0.081 C 
HETATM    3 BR3  UNL     1     -32.803   8.435   2.329  1.00 20.00    -0.097 Br
ENDROOT
TORSDOF 0
