REMARK  1 active torsions:
REMARK  status: ('A' for Active; 'I' for Inactive)
REMARK    1  A    between atoms: C6_6  and  C8_8 
ROOT
HETATM    1  C1  UNL     1     -34.253   4.111   5.087  1.00 20.00     0.000 A 
HETATM    2  C2  UNL     1     -33.860   4.193   3.751  1.00 20.00     0.001 A 
HETATM    3  C3  UNL     1     -34.374   5.272   5.851  1.00 20.00     0.001 A 
HETATM    4  C4  UNL     1     -33.587   5.435   3.179  1.00 20.00     0.007 A 
HETATM    5  C5  UNL     1     -34.101   6.515   5.279  1.00 20.00     0.007 A 
HETATM    6  C6  UNL     1     -33.708   6.596   3.943  1.00 20.00    -0.059 A 
ENDROOT
BRANCH   6   7
HETATM    7  C8  UNL     1     -33.416   7.925   3.332  1.00 20.00     0.034 C 
HETATM    8  C7  UNL     1     -31.951   8.325   3.485  1.00 20.00     0.010 C 
ENDBRANCH   6   7
TORSDOF 1
