REMARK  0 active torsions:
REMARK  status: ('A' for Active; 'I' for Inactive)
ROOT
HETATM    1  C1  UNL     1     -34.244   6.394   6.454  1.00 20.00     0.001 A 
HETATM    2  C2  UNL     1     -34.319   5.064   6.007  1.00 20.00     0.001 A 
HETATM    3  C3  UNL     1     -33.952   7.432   5.564  1.00 20.00     0.012 A 
HETATM    4  C4  UNL     1     -34.103   4.747   4.664  1.00 20.00     0.008 A 
HETATM    5  C5  UNL     1     -33.740   7.110   4.236  1.00 20.00    -0.030 A 
HETATM    6  C6  UNL     1     -33.814   5.782   3.792  1.00 20.00    -0.044 A 
HETATM    7  C7  UNL     1     -33.424   7.968   3.107  1.00 20.00     0.008 A 
HETATM    8  C8  UNL     1     -33.310   7.190   2.020  1.00 20.00    -0.021 A 
HETATM    9  C9  UNL     1     -33.542   5.728   2.321  1.00 20.00     0.066 A 
ENDROOT
TORSDOF 0
