REMARK  2 active torsions:
REMARK  status: ('A' for Active; 'I' for Inactive)
REMARK    1  A    between atoms: C6_6  and  C9_9 
REMARK    2  A    between atoms: C9_9  and  C10_10 
ROOT
HETATM    1  C1  UNL     1     -34.734   4.745   5.731  1.00 20.00     0.000 A 
HETATM    2  C2  UNL     1     -34.230   4.021   4.650  1.00 20.00     0.001 A 
HETATM    3  C3  UNL     1     -34.748   6.139   5.690  1.00 20.00     0.001 A 
HETATM    4  C4  UNL     1     -33.739   4.691   3.530  1.00 20.00     0.007 A 
HETATM    5  C5  UNL     1     -34.257   6.809   4.570  1.00 20.00     0.007 A 
HETATM    6  C6  UNL     1     -33.753   6.085   3.490  1.00 20.00    -0.058 A 
ENDROOT
BRANCH   6   7
HETATM    7  C9  UNL     1     -33.222   6.811   2.278  1.00 20.00     0.042 C 
BRANCH   7   8
HETATM    8  C10 UNL     1     -32.622   8.196   2.593  1.00 20.00    -0.019 C 
HETATM    9  C7  UNL     1     -31.448   8.103   3.572  1.00 20.00     0.010 C 
HETATM   10  C8  UNL     1     -32.161   8.869   1.298  1.00 20.00     0.010 C 
ENDBRANCH   7   8
ENDBRANCH   6   7
TORSDOF 2
