REMARK  0 active torsions:
REMARK  status: ('A' for Active; 'I' for Inactive)
ROOT
HETATM    1  C1  UNL     1     -34.038   5.168   3.235  1.00 20.00     0.001 A 
HETATM    2  C2  UNL     1     -33.465   5.995   2.270  1.00 20.00     0.007 A 
HETATM    3  C3  UNL     1     -34.096   5.584   4.565  1.00 20.00     0.007 A 
HETATM    4  C4  UNL     1     -33.007   7.655   3.965  1.00 20.00     0.013 A 
HETATM    5  C5  UNL     1     -32.950   7.239   2.635  1.00 20.00    -0.061 A 
HETATM    6  C6  UNL     1     -33.581   6.828   4.930  1.00 20.00    -0.061 A 
HETATM    7  C7  UNL     1     -32.338   8.124   1.602  1.00 20.00     0.048 C 
HETATM    8  C8  UNL     1     -33.642   7.272   6.353  1.00 20.00     0.048 C 
ENDROOT
TORSDOF 0
