REMARK  1 active torsions:
REMARK  status: ('A' for Active; 'I' for Inactive)
REMARK    1  A    between atoms: C2_2  and  C8_8 
ROOT
HETATM    1  C1  UNL     1     -34.195   6.108   5.389  1.00 20.00    -0.081 C 
HETATM    2  C2  UNL     1     -33.894   6.077   4.082  1.00 20.00    -0.078 C 
HETATM    3  C3  UNL     1     -34.632   4.761   5.882  1.00 20.00     0.034 C 
HETATM    4  C4  UNL     1     -34.084   4.705   3.509  1.00 20.00     0.034 C 
HETATM    5  C5  UNL     1     -34.215   3.828   4.750  1.00 20.00     0.009 C 
HETATM    6  C6  UNL     1     -34.177   7.260   6.332  1.00 20.00     0.043 C 
ENDROOT
BRANCH   2   7
HETATM    7  C8  UNL     1     -33.453   7.186   3.191  1.00 20.00     0.030 C 
HETATM    8  C7  UNL     1     -31.941   7.301   3.190  1.00 20.00     0.010 C 
ENDBRANCH   2   7
TORSDOF 1
