REMARK  1 active torsions:
REMARK  status: ('A' for Active; 'I' for Inactive)
REMARK    1  A    between atoms: C6_6  and  N8_8 
ROOT
HETATM    1  C1  UNL     1     -34.400   5.165   6.014  1.00 20.00     0.000 A 
HETATM    2  C2  UNL     1     -34.314   4.497   4.793  1.00 20.00     0.002 A 
HETATM    3  C3  UNL     1     -34.175   6.541   6.074  1.00 20.00     0.002 A 
HETATM    4  C4  UNL     1     -34.005   5.204   3.631  1.00 20.00     0.029 A 
HETATM    5  C5  UNL     1     -33.866   7.248   4.913  1.00 20.00     0.029 A 
HETATM    6  C6  UNL     1     -33.781   6.580   3.691  1.00 20.00     0.027 A 
ENDROOT
BRANCH   6   7
HETATM    7  N8  UNL     1     -33.468   7.295   2.517  1.00 20.00    -0.394 N 
HETATM    8  C7  UNL     1     -32.653   8.470   2.517  1.00 20.00     0.146 C 
HETATM    9  H17 UNL     1     -33.847   6.945   1.657  1.00 20.00     0.159 HD
ENDBRANCH   6   7
TORSDOF 1
