REMARK  2 active torsions:
REMARK  status: ('A' for Active; 'I' for Inactive)
REMARK    1  A    between atoms: C6_6  and  C8_8 
REMARK    2  A    between atoms: C8_8  and  C9_9 
ROOT
HETATM    1  C1  UNL     1     -34.870   4.523   4.890  1.00 20.00     0.000 A 
HETATM    2  C2  UNL     1     -34.643   5.799   5.407  1.00 20.00     0.001 A 
HETATM    3  C3  UNL     1     -34.249   4.130   3.704  1.00 20.00     0.001 A 
HETATM    4  C4  UNL     1     -33.795   6.681   4.738  1.00 20.00     0.007 A 
HETATM    5  C5  UNL     1     -33.401   5.013   3.036  1.00 20.00     0.007 A 
HETATM    6  C6  UNL     1     -33.174   6.288   3.552  1.00 20.00    -0.058 A 
ENDROOT
BRANCH   6   7
HETATM    7  C8  UNL     1     -32.267   7.232   2.836  1.00 20.00     0.038 C 
BRANCH   7   8
HETATM    8  C9  UNL     1     -33.022   8.096   1.815  1.00 20.00     0.000 C 
HETATM    9  C7  UNL     1     -32.102   9.080   1.111  1.00 20.00     0.005 C 
ENDBRANCH   7   8
ENDBRANCH   6   7
TORSDOF 2
