REMARK  0 active torsions:
REMARK  status: ('A' for Active; 'I' for Inactive)
ROOT
HETATM    1  C1  UNL     1     -34.509   4.014   3.968  1.00 20.00     0.001 A 
HETATM    2  C2  UNL     1     -34.742   4.532   5.239  1.00 20.00     0.001 A 
HETATM    3  C3  UNL     1     -31.662   7.822   2.935  1.00 20.00     0.001 A 
HETATM    4  C4  UNL     1     -31.894   8.340   4.206  1.00 20.00     0.001 A 
HETATM    5  C5  UNL     1     -33.686   4.699   3.074  1.00 20.00     0.012 A 
HETATM    6  C6  UNL     1     -34.152   5.738   5.620  1.00 20.00     0.012 A 
HETATM    7  C7  UNL     1     -32.252   6.616   2.554  1.00 20.00     0.012 A 
HETATM    8  C8  UNL     1     -32.718   7.655   5.100  1.00 20.00     0.012 A 
HETATM    9  C9  UNL     1     -33.084   5.913   3.441  1.00 20.00    -0.026 A 
HETATM   10  C10 UNL     1     -33.320   6.441   4.733  1.00 20.00    -0.026 A 
ENDROOT
TORSDOF 0
