REMARK  1 active torsions:
REMARK  status: ('A' for Active; 'I' for Inactive)
REMARK    1  A    between atoms: C6_6  and  N9_9 
ROOT
HETATM    1  N8  UNL     1     -32.346  10.359   2.023  1.00 20.00     0.068 N 
HETATM    2  N9  UNL     1     -32.796   8.064   1.521  1.00 20.00    -0.073 NA
HETATM    3  N10 UNL     1     -32.561   9.263   1.787  1.00 20.00    -0.162 NA
ENDROOT
BRANCH   2   4
HETATM    4  C6  UNL     1     -33.224   7.335   2.635  1.00 20.00     0.093 A 
HETATM    5  C3  UNL     1     -34.089   6.253   2.469  1.00 20.00     0.035 A 
HETATM    6  C1  UNL     1     -34.515   5.524   3.579  1.00 20.00     0.009 A 
HETATM    7  C5  UNL     1     -34.078   5.878   4.856  1.00 20.00    -0.062 A 
HETATM    8  C2  UNL     1     -33.213   6.960   5.021  1.00 20.00     0.009 A 
HETATM    9  C7  UNL     1     -34.534   5.101   6.043  1.00 20.00     0.048 C 
HETATM   10  C4  UNL     1     -32.786   7.689   3.911  1.00 20.00     0.035 A 
ENDBRANCH   2   4
TORSDOF 1
