REMARK  1 active torsions:
REMARK  status: ('A' for Active; 'I' for Inactive)
REMARK    1  A    between atoms: C6_6  and  N8_8 
ROOT
HETATM    1  N7  UNL     1     -32.432   8.450   1.286  1.00 20.00     0.068 N 
HETATM    2  N8  UNL     1     -32.479   7.956   3.626  1.00 20.00    -0.073 NA
HETATM    3  N9  UNL     1     -32.456   8.211   2.402  1.00 20.00    -0.162 NA
ENDROOT
BRANCH   2   4
HETATM    4  C6  UNL     1     -33.090   6.732   3.914  1.00 20.00     0.093 A 
HETATM    5  C4  UNL     1     -33.034   5.689   2.990  1.00 20.00     0.034 A 
HETATM    6  C2  UNL     1     -33.643   4.468   3.278  1.00 20.00     0.002 A 
HETATM    7  C1  UNL     1     -34.310   4.290   4.491  1.00 20.00     0.000 A 
HETATM    8  C3  UNL     1     -34.367   5.333   5.415  1.00 20.00     0.002 A 
HETATM    9  C5  UNL     1     -33.757   6.554   5.127  1.00 20.00     0.034 A 
ENDBRANCH   2   4
TORSDOF 1
