REMARK  0 active torsions:
REMARK  status: ('A' for Active; 'I' for Inactive)
ROOT
HETATM    1  C1  UNL     1     -34.776   5.546   6.427  1.00 20.00     0.001 A 
HETATM    2  C2  UNL     1     -34.316   6.801   6.801  1.00 20.00     0.001 A 
HETATM    3  C3  UNL     1     -34.468   5.029   5.167  1.00 20.00     0.013 A 
HETATM    4  C4  UNL     1     -33.539   7.563   5.927  1.00 20.00     0.019 A 
HETATM    5  C5  UNL     1     -33.241   5.464   2.928  1.00 20.00     0.020 A 
HETATM    6  C6  UNL     1     -32.485   6.466   2.365  1.00 20.00     0.051 A 
HETATM    7  C7  UNL     1     -33.682   5.777   4.257  1.00 20.00    -0.019 A 
HETATM    8  C8  UNL     1     -33.230   7.038   4.657  1.00 20.00     0.015 A 
HETATM    9  S9  UNL     1     -32.295   7.792   3.419  1.00 20.00    -0.101 SA
ENDROOT
TORSDOF 0
