REMARK  2 active torsions:
REMARK  status: ('A' for Active; 'I' for Inactive)
REMARK    1  A    between atoms: C6_6  and  C10_10 
REMARK    2  A    between atoms: C9_9  and  C10_10 
ROOT
HETATM    1  C1  UNL     1     -34.443   6.114   7.073  1.00 20.00     0.000 A 
HETATM    2  C2  UNL     1     -34.069   7.352   6.549  1.00 20.00     0.001 A 
HETATM    3  C3  UNL     1     -34.517   4.998   6.239  1.00 20.00     0.001 A 
HETATM    4  C4  UNL     1     -33.770   7.473   5.192  1.00 20.00     0.007 A 
HETATM    5  C5  UNL     1     -34.218   5.120   4.883  1.00 20.00     0.007 A 
HETATM    6  C6  UNL     1     -33.844   6.357   4.359  1.00 20.00    -0.054 A 
ENDROOT
BRANCH   6   7
HETATM    7  C10 UNL     1     -33.518   6.489   2.881  1.00 20.00     0.014 C 
HETATM    8  C8  UNL     1     -32.945   5.175   2.337  1.00 20.00     0.015 C 
BRANCH   7   9
HETATM    9  C9  UNL     1     -32.553   7.652   2.571  1.00 20.00     0.004 C 
HETATM   10  C7  UNL     1     -32.230   7.780   1.087  1.00 20.00     0.006 C 
ENDBRANCH   7   9
ENDBRANCH   6   7
TORSDOF 2
