REMARK  0 active torsions:
REMARK  status: ('A' for Active; 'I' for Inactive)
ROOT
HETATM    1  C1  UNL     1     -34.708   5.446   6.515  1.00 20.00     0.000 A 
HETATM    2  C2  UNL     1     -34.661   4.884   5.239  1.00 20.00     0.003 A 
HETATM    3  C3  UNL     1     -34.074   6.662   6.766  1.00 20.00     0.003 A 
HETATM    4  C4  UNL     1     -33.980   5.539   4.214  1.00 20.00     0.042 A 
HETATM    5  C5  UNL     1     -33.392   7.318   5.740  1.00 20.00     0.042 A 
HETATM    6  C6  UNL     1     -33.345   6.756   4.464  1.00 20.00     0.116 A 
HETATM    7  F7  UNL     1     -32.691   7.385   3.479  1.00 20.00    -0.206 F 
ENDROOT
TORSDOF 0
