REMARK  3 active torsions:
REMARK  status: ('A' for Active; 'I' for Inactive)
REMARK    1  A    between atoms: C6_6  and  O9_9 
REMARK    2  A    between atoms: C7_7  and  C8_8 
REMARK    3  A    between atoms: C7_7  and  O9_9 
ROOT
HETATM    1  C1  UNL     1     -35.084   5.817   6.587  1.00 20.00     0.000 A 
HETATM    2  C2  UNL     1     -34.787   5.216   5.364  1.00 20.00     0.003 A 
HETATM    3  C3  UNL     1     -34.457   7.009   6.950  1.00 20.00     0.003 A 
HETATM    4  C4  UNL     1     -33.862   5.808   4.504  1.00 20.00     0.037 A 
HETATM    5  C5  UNL     1     -33.532   7.600   6.089  1.00 20.00     0.037 A 
HETATM    6  C6  UNL     1     -33.234   7.000   4.866  1.00 20.00     0.068 A 
ENDROOT
BRANCH   6   7
HETATM    7  O9  UNL     1     -32.331   7.576   4.028  1.00 20.00    -0.350 OA
BRANCH   7   8
HETATM    8  C7  UNL     1     -32.515   7.365   2.629  1.00 20.00     0.190 C 
BRANCH   8   9
HETATM    9  C8  UNL     1     -31.924   8.526   1.852  1.00 20.00     0.141 C 
HETATM   10 CL10 UNL     1     -32.163   8.305   0.101  1.00 20.00    -0.128 Cl
ENDBRANCH   8   9
ENDBRANCH   7   8
ENDBRANCH   6   7
TORSDOF 3
