REMARK  1 active torsions:
REMARK  status: ('A' for Active; 'I' for Inactive)
REMARK    1  A    between atoms: C6_6  and  S8_8 
ROOT
HETATM    1  C1  UNL     1     -34.471   6.611   6.352  1.00 20.00     0.001 A 
HETATM    2  C2  UNL     1     -34.937   5.385   5.878  1.00 20.00     0.001 A 
HETATM    3  C3  UNL     1     -33.545   7.341   5.607  1.00 20.00     0.021 A 
HETATM    4  C4  UNL     1     -34.476   4.888   4.659  1.00 20.00     0.019 A 
HETATM    5  C5  UNL     1     -33.084   6.844   4.388  1.00 20.00     0.028 A 
HETATM    6  C6  UNL     1     -33.549   5.617   3.914  1.00 20.00     0.015 A 
HETATM    7  S7  UNL     1     -31.880   7.868   3.494  1.00 20.00    -0.051 SA
ENDROOT
BRANCH   6   8
HETATM    8  S8  UNL     1     -33.035   4.867   2.363  1.00 20.00    -0.142 SA
HETATM    9  H13 UNL     1     -33.789   3.764   2.467  1.00 20.00     0.107 HD
ENDBRANCH   6   8
TORSDOF 1
