REMARK  0 active torsions:
REMARK  status: ('A' for Active; 'I' for Inactive)
ROOT
HETATM    1  C1  UNL     1     -33.879   5.773   5.600  1.00 20.00     0.199 A 
HETATM    2  C2  UNL     1     -33.929   5.064   4.399  1.00 20.00     0.198 A 
HETATM    3  C3  UNL     1     -33.297   7.040   5.639  1.00 20.00     0.198 A 
HETATM    4  C4  UNL     1     -33.396   5.623   3.237  1.00 20.00     0.182 A 
HETATM    5  C5  UNL     1     -32.764   7.598   4.477  1.00 20.00     0.182 A 
HETATM    6  C6  UNL     1     -32.813   6.890   3.276  1.00 20.00     0.117 A 
HETATM    7  F7  UNL     1     -34.390   5.236   6.715  1.00 20.00    -0.199 F 
HETATM    8  F8  UNL     1     -34.487   3.848   4.362  1.00 20.00    -0.199 F 
HETATM    9  F9  UNL     1     -33.250   7.719   6.792  1.00 20.00    -0.199 F 
HETATM   10  F10 UNL     1     -33.451   4.930   2.091  1.00 20.00    -0.201 F 
HETATM   11  F11 UNL     1     -32.208   8.817   4.530  1.00 20.00    -0.201 F 
HETATM   12 CL12 UNL     1     -32.156   7.580   1.842  1.00 20.00    -0.077 Cl
ENDROOT
TORSDOF 0
