REMARK  3 active torsions:
REMARK  status: ('A' for Active; 'I' for Inactive)
REMARK    1  A    between atoms: C5_5  and  O9_9 
REMARK    2  A    between atoms: C6_6  and  O10_10 
REMARK    3  A    between atoms: C8_8  and  O10_10 
ROOT
HETATM    1  C1  UNL     1     -34.867   6.172   5.967  1.00 20.00     0.003 A 
HETATM    2  C2  UNL     1     -35.217   5.554   4.767  1.00 20.00     0.003 A 
HETATM    3  C3  UNL     1     -33.751   7.008   6.020  1.00 20.00     0.039 A 
HETATM    4  C4  UNL     1     -34.453   5.771   3.621  1.00 20.00     0.039 A 
HETATM    5  C5  UNL     1     -32.987   7.226   4.874  1.00 20.00     0.099 A 
HETATM    6  C6  UNL     1     -33.338   6.607   3.674  1.00 20.00     0.101 A 
ENDROOT
BRANCH   6   7
HETATM    7  O10 UNL     1     -32.598   6.810   2.548  1.00 20.00    -0.349 OA
BRANCH   7   8
HETATM    8  C8  UNL     1     -33.269   7.385   1.428  1.00 20.00     0.171 C 
HETATM    9  C7  UNL     1     -32.278   8.203   0.627  1.00 20.00     0.034 C 
ENDBRANCH   7   8
ENDBRANCH   6   7
BRANCH   5  10
HETATM   10  O9  UNL     1     -31.899   8.044   4.940  1.00 20.00    -0.358 OA
HETATM   11  H20 UNL     1     -31.795   8.390   5.840  1.00 20.00     0.217 HD
ENDBRANCH   5  10
TORSDOF 3
