REMARK  0 active torsions:
REMARK  status: ('A' for Active; 'I' for Inactive)
ROOT
HETATM    1  C1  UNL     1     -33.898   4.832   3.770  1.00 20.00     0.091 A 
HETATM    2  C2  UNL     1     -34.155   5.542   4.942  1.00 20.00     0.161 A 
HETATM    3  C3  UNL     1     -33.177   5.430   2.736  1.00 20.00     0.161 A 
HETATM    4  C4  UNL     1     -33.692   6.851   5.081  1.00 20.00     0.196 A 
HETATM    5  C5  UNL     1     -32.714   6.738   2.875  1.00 20.00     0.196 A 
HETATM    6  C6  UNL     1     -32.971   7.449   4.047  1.00 20.00     0.199 A 
HETATM    7  F7  UNL     1     -34.847   4.968   5.935  1.00 20.00    -0.203 F 
HETATM    8  F8  UNL     1     -32.929   4.748   1.610  1.00 20.00    -0.203 F 
HETATM    9  F9  UNL     1     -33.940   7.533   6.206  1.00 20.00    -0.199 F 
HETATM   10  F10 UNL     1     -32.021   7.312   1.882  1.00 20.00    -0.199 F 
HETATM   11  F11 UNL     1     -32.527   8.705   4.181  1.00 20.00    -0.199 F 
ENDROOT
TORSDOF 0
