REMARK  1 active torsions:
REMARK  status: ('A' for Active; 'I' for Inactive)
REMARK    1  A    between atoms: C6_6  and  N8_8 
ROOT
HETATM    1  C1  UNL     1     -34.989   5.708   6.359  1.00 20.00     0.000 A 
HETATM    2  C2  UNL     1     -34.340   6.843   6.845  1.00 20.00     0.002 A 
HETATM    3  C3  UNL     1     -34.715   5.245   5.072  1.00 20.00     0.002 A 
HETATM    4  C4  UNL     1     -33.417   7.516   6.043  1.00 20.00     0.029 A 
HETATM    5  C5  UNL     1     -33.792   5.917   4.271  1.00 20.00     0.029 A 
HETATM    6  C6  UNL     1     -33.143   7.053   4.756  1.00 20.00     0.027 A 
ENDROOT
BRANCH   6   7
HETATM    7  N8  UNL     1     -32.210   7.732   3.945  1.00 20.00    -0.394 N 
HETATM    8  C7  UNL     1     -32.298   7.762   2.518  1.00 20.00     0.146 C 
HETATM    9  H17 UNL     1     -31.462   8.206   4.414  1.00 20.00     0.159 HD
ENDBRANCH   6   7
TORSDOF 1
