REMARK  1 active torsions:
REMARK  status: ('A' for Active; 'I' for Inactive)
REMARK    1  A    between atoms: C6_6  and  C9_9 
ROOT
HETATM    1  C1  UNL     1     -33.346   7.431   5.670  1.00 20.00     0.007 A 
HETATM    2  C2  UNL     1     -34.201   5.447   4.588  1.00 20.00     0.007 A 
HETATM    3  C3  UNL     1     -32.528   7.679   4.569  1.00 20.00     0.007 A 
HETATM    4  C4  UNL     1     -33.382   5.695   3.487  1.00 20.00     0.007 A 
HETATM    5  C5  UNL     1     -34.183   6.315   5.680  1.00 20.00    -0.062 A 
HETATM    6  C6  UNL     1     -32.546   6.811   3.477  1.00 20.00    -0.059 A 
HETATM    7  C7  UNL     1     -35.058   6.048   6.858  1.00 20.00     0.048 C 
ENDROOT
BRANCH   6   8
HETATM    8  C9  UNL     1     -31.671   7.078   2.299  1.00 20.00     0.034 C 
HETATM    9  C8  UNL     1     -32.360   7.948   1.250  1.00 20.00     0.010 C 
ENDBRANCH   6   8
TORSDOF 1
