REMARK  1 active torsions:
REMARK  status: ('A' for Active; 'I' for Inactive)
REMARK    1  A    between atoms: C6_6  and  C9_9 
ROOT
HETATM    1  C1  UNL     1     -33.788   4.626   3.884  1.00 20.00     0.001 A 
HETATM    2  C2  UNL     1     -34.121   5.210   5.106  1.00 20.00     0.007 A 
HETATM    3  C3  UNL     1     -33.083   5.360   2.930  1.00 20.00     0.007 A 
HETATM    4  C4  UNL     1     -33.045   7.261   4.420  1.00 20.00     0.013 A 
HETATM    5  C5  UNL     1     -33.750   6.528   5.374  1.00 20.00    -0.061 A 
HETATM    6  C6  UNL     1     -32.711   6.677   3.198  1.00 20.00    -0.058 A 
HETATM    7  C7  UNL     1     -34.106   7.151   6.681  1.00 20.00     0.048 C 
ENDROOT
BRANCH   6   8
HETATM    8  C9  UNL     1     -31.958   7.462   2.177  1.00 20.00     0.034 C 
HETATM    9  C8  UNL     1     -32.883   8.222   1.230  1.00 20.00     0.010 C 
ENDBRANCH   6   8
TORSDOF 1
