REMARK  0 active torsions:
REMARK  status: ('A' for Active; 'I' for Inactive)
ROOT
HETATM    1  C1  UNL     1     -34.907   5.672   6.502  1.00 20.00     0.000 A 
HETATM    2  C2  UNL     1     -34.067   6.734   6.841  1.00 20.00     0.001 A 
HETATM    3  C3  UNL     1     -34.971   5.227   5.182  1.00 20.00     0.001 A 
HETATM    4  C4  UNL     1     -33.292   7.350   5.859  1.00 20.00     0.019 A 
HETATM    5  C5  UNL     1     -34.195   5.843   4.200  1.00 20.00     0.019 A 
HETATM    6  C6  UNL     1     -33.355   6.904   4.538  1.00 20.00     0.011 A 
HETATM    7  S7  UNL     1     -32.354   7.698   3.270  1.00 20.00    -0.053 SA
ENDROOT
TORSDOF 0
