REMARK  0 active torsions:
REMARK  status: ('A' for Active; 'I' for Inactive)
ROOT
HETATM    1  C1  UNL     1     -34.952   5.691   6.986  1.00 20.00     0.001 A 
HETATM    2  C2  UNL     1     -35.304   4.530   6.313  1.00 20.00     0.001 A 
HETATM    3  C3  UNL     1     -34.256   6.706   6.325  1.00 20.00     0.013 A 
HETATM    4  C4  UNL     1     -34.969   4.357   4.968  1.00 20.00     0.019 A 
HETATM    5  C5  UNL     1     -33.197   7.450   4.081  1.00 20.00     0.020 A 
HETATM    6  C6  UNL     1     -33.049   6.939   2.813  1.00 20.00     0.051 A 
HETATM    7  C7  UNL     1     -33.901   6.561   4.962  1.00 20.00    -0.019 A 
HETATM    8  C8  UNL     1     -34.266   5.382   4.305  1.00 20.00     0.015 A 
HETATM    9  S9  UNL     1     -33.749   5.393   2.660  1.00 20.00    -0.101 SA
ENDROOT
TORSDOF 0
