REMARK  1 active torsions:
REMARK  status: ('A' for Active; 'I' for Inactive)
REMARK    1  A    between atoms: C4_4  and  C7_7 
ROOT
HETATM    1  C1  UNL     1     -35.502   5.259   5.579  1.00 20.00     0.006 A 
HETATM    2  C2  UNL     1     -35.168   5.034   4.244  1.00 20.00     0.043 A 
HETATM    3  C3  UNL     1     -34.650   6.003   6.395  1.00 20.00     0.043 A 
HETATM    4  C4  UNL     1     -33.130   6.297   4.541  1.00 20.00     0.029 A 
HETATM    5  C5  UNL     1     -33.982   5.553   3.724  1.00 20.00     0.126 A 
HETATM    6  C6  UNL     1     -33.464   6.522   5.876  1.00 20.00     0.126 A 
HETATM    7  F8  UNL     1     -33.670   5.332   2.440  1.00 20.00    -0.205 F 
HETATM    8  F9  UNL     1     -32.652   7.235   6.668  1.00 20.00    -0.205 F 
ENDROOT
BRANCH   4   9
HETATM    9  C7  UNL     1     -31.862   6.852   3.985  1.00 20.00     0.130 C 
HETATM   10 BR10 UNL     1     -32.265   8.365   2.830  1.00 20.00    -0.091 Br
ENDBRANCH   4   9
TORSDOF 1
