REMARK  0 active torsions:
REMARK  status: ('A' for Active; 'I' for Inactive)
ROOT
HETATM    1  C1  UNL     1     -34.886   5.539   6.400  1.00 20.00     0.001 A 
HETATM    2  C2  UNL     1     -35.516   4.949   5.301  1.00 20.00     0.003 A 
HETATM    3  C3  UNL     1     -33.717   6.296   6.242  1.00 20.00     0.014 A 
HETATM    4  C4  UNL     1     -35.004   5.092   4.009  1.00 20.00     0.038 A 
HETATM    5  C5  UNL     1     -32.062   7.116   4.388  1.00 20.00     0.039 A 
HETATM    6  C6  UNL     1     -32.108   6.877   3.034  1.00 20.00     0.143 A 
HETATM    7  C7  UNL     1     -33.184   6.453   4.951  1.00 20.00    -0.001 A 
HETATM    8  C8  UNL     1     -33.841   5.850   3.883  1.00 20.00     0.085 A 
HETATM    9  O9  UNL     1     -33.184   6.109   2.718  1.00 20.00    -0.322 OA
ENDROOT
TORSDOF 0
