REMARK  4 active torsions:
REMARK  status: ('A' for Active; 'I' for Inactive)
REMARK    1  A    between atoms: C3_3  and  C5_5 
REMARK    2  A    between atoms: C4_4  and  C6_6 
REMARK    3  A    between atoms: C5_5  and  S7_7 
REMARK    4  A    between atoms: C6_6  and  S7_7 
ROOT
HETATM    1  S7  UNL     1     -33.473   6.233   2.774  1.00 20.00    -0.162 SA
ENDROOT
BRANCH   1   2
HETATM    2  C5  UNL     1     -33.809   6.135   4.553  1.00 20.00     0.100 C 
BRANCH   2   3
HETATM    3  C3  UNL     1     -34.606   4.908   4.860  1.00 20.00    -0.027 C 
HETATM    4  C1  UNL     1     -34.198   3.942   5.691  1.00 20.00     0.007 C 
ENDBRANCH   2   3
ENDBRANCH   1   2
BRANCH   1   5
HETATM    5  C6  UNL     1     -32.529   7.775   2.767  1.00 20.00     0.100 C 
BRANCH   5   6
HETATM    6  C4  UNL     1     -32.106   8.114   1.374  1.00 20.00    -0.027 C 
HETATM    7  C2  UNL     1     -32.444   9.246   0.747  1.00 20.00     0.007 C 
ENDBRANCH   5   6
ENDBRANCH   1   5
TORSDOF 4
