REMARK  0 active torsions:
REMARK  status: ('A' for Active; 'I' for Inactive)
ROOT
HETATM    1  C1  UNL     1     -32.936   6.973   5.211  1.00 20.00     0.091 A 
HETATM    2  C2  UNL     1     -32.330   7.068   3.958  1.00 20.00     0.161 A 
HETATM    3  C3  UNL     1     -33.995   6.086   5.408  1.00 20.00     0.161 A 
HETATM    4  C4  UNL     1     -32.783   6.277   2.903  1.00 20.00     0.196 A 
HETATM    5  C5  UNL     1     -34.448   5.295   4.352  1.00 20.00     0.196 A 
HETATM    6  C6  UNL     1     -33.842   5.391   3.100  1.00 20.00     0.199 A 
HETATM    7  F7  UNL     1     -31.313   7.919   3.770  1.00 20.00    -0.203 F 
HETATM    8  F8  UNL     1     -34.577   5.995   6.611  1.00 20.00    -0.203 F 
HETATM    9  F9  UNL     1     -32.202   6.369   1.699  1.00 20.00    -0.199 F 
HETATM   10  F10 UNL     1     -35.465   4.445   4.542  1.00 20.00    -0.199 F 
HETATM   11  F11 UNL     1     -34.278   4.632   2.086  1.00 20.00    -0.199 F 
ENDROOT
TORSDOF 0
