REMARK  1 active torsions:
REMARK  status: ('A' for Active; 'I' for Inactive)
REMARK    1  A    between atoms: C2_2  and  C8_8 
ROOT
HETATM    1  C1  UNL     1     -34.442   5.782   5.479  1.00 20.00    -0.081 C 
HETATM    2  C2  UNL     1     -34.278   6.002   4.165  1.00 20.00    -0.078 C 
HETATM    3  C3  UNL     1     -35.210   4.518   5.729  1.00 20.00     0.034 C 
HETATM    4  C4  UNL     1     -34.911   4.918   3.345  1.00 20.00     0.034 C 
HETATM    5  C5  UNL     1     -35.185   3.823   4.372  1.00 20.00     0.009 C 
HETATM    6  C6  UNL     1     -34.006   6.612   6.634  1.00 20.00     0.043 C 
ENDROOT
BRANCH   2   7
HETATM    7  C8  UNL     1     -33.610   7.141   3.478  1.00 20.00     0.030 C 
HETATM    8  C7  UNL     1     -32.137   6.850   3.269  1.00 20.00     0.010 C 
ENDBRANCH   2   7
TORSDOF 1
