REMARK  1 active torsions:
REMARK  status: ('A' for Active; 'I' for Inactive)
REMARK    1  A    between atoms: C6_6  and  C9_9 
ROOT
HETATM    1  C1  UNL     1     -34.386   5.026   3.057  1.00 20.00     0.001 A 
HETATM    2  C2  UNL     1     -34.632   4.851   4.419  1.00 20.00     0.007 A 
HETATM    3  C3  UNL     1     -33.539   6.048   2.627  1.00 20.00     0.007 A 
HETATM    4  C4  UNL     1     -33.183   6.718   4.921  1.00 20.00     0.013 A 
HETATM    5  C5  UNL     1     -34.030   5.696   5.351  1.00 20.00    -0.061 A 
HETATM    6  C6  UNL     1     -32.937   6.893   3.559  1.00 20.00    -0.058 A 
HETATM    7  C7  UNL     1     -34.292   5.507   6.807  1.00 20.00     0.048 C 
ENDROOT
BRANCH   6   8
HETATM    8  C9  UNL     1     -32.032   7.986   3.099  1.00 20.00     0.034 C 
HETATM    9  C8  UNL     1     -31.888   8.019   1.580  1.00 20.00     0.010 C 
ENDBRANCH   6   8
TORSDOF 1
