REMARK  0 active torsions:
REMARK  status: ('A' for Active; 'I' for Inactive)
ROOT
HETATM    1  C1  UNL     1     -32.808   5.637   1.899  1.00 20.00     0.001 A 
HETATM    2  C2  UNL     1     -31.973   6.531   2.563  1.00 20.00     0.001 A 
HETATM    3  C3  UNL     1     -35.410   5.047   5.968  1.00 20.00     0.001 A 
HETATM    4  C4  UNL     1     -34.574   5.941   6.632  1.00 20.00     0.001 A 
HETATM    5  C5  UNL     1     -33.873   5.043   2.576  1.00 20.00     0.012 A 
HETATM    6  C6  UNL     1     -32.199   6.833   3.906  1.00 20.00     0.012 A 
HETATM    7  C7  UNL     1     -35.183   4.746   4.625  1.00 20.00     0.012 A 
HETATM    8  C8  UNL     1     -33.509   6.536   5.955  1.00 20.00     0.012 A 
HETATM    9  C9  UNL     1     -34.116   5.335   3.928  1.00 20.00    -0.026 A 
HETATM   10  C10 UNL     1     -33.266   6.244   4.603  1.00 20.00    -0.026 A 
ENDROOT
TORSDOF 0
