REMARK  0 active torsions:
REMARK  status: ('A' for Active; 'I' for Inactive)
ROOT
HETATM    1  C1  UNL     1     -34.626   5.629   6.793  1.00 20.00     0.001 A 
HETATM    2  C2  UNL     1     -35.217   4.515   6.188  1.00 20.00     0.003 A 
HETATM    3  C3  UNL     1     -33.884   6.553   6.045  1.00 20.00     0.016 A 
HETATM    4  C4  UNL     1     -35.088   4.281   4.815  1.00 20.00     0.040 A 
HETATM    5  C5  UNL     1     -33.121   6.960   3.573  1.00 20.00     0.161 A 
HETATM    6  C6  UNL     1     -33.746   6.331   4.667  1.00 20.00     0.019 A 
HETATM    7  C7  UNL     1     -34.345   5.217   4.103  1.00 20.00     0.113 A 
HETATM    8  N8  UNL     1     -33.312   6.298   2.428  1.00 20.00    -0.140 NA
HETATM    9  O9  UNL     1     -34.086   5.195   2.766  1.00 20.00    -0.213 OA
ENDROOT
TORSDOF 0
