REMARK  1 active torsions:
REMARK  status: ('A' for Active; 'I' for Inactive)
REMARK    1  A    between atoms: C6_6  and  C9_9 
ROOT
HETATM    1  C1  UNL     1     -33.940   5.903   5.318  1.00 20.00     0.007 A 
HETATM    2  C2  UNL     1     -34.457   4.852   3.204  1.00 20.00     0.007 A 
HETATM    3  C3  UNL     1     -33.062   6.773   4.670  1.00 20.00     0.007 A 
HETATM    4  C4  UNL     1     -33.580   5.722   2.557  1.00 20.00     0.007 A 
HETATM    5  C5  UNL     1     -34.638   4.943   4.584  1.00 20.00    -0.062 A 
HETATM    6  C6  UNL     1     -32.882   6.682   3.290  1.00 20.00    -0.059 A 
HETATM    7  C7  UNL     1     -35.576   4.013   5.275  1.00 20.00     0.048 C 
ENDROOT
BRANCH   6   8
HETATM    8  C9  UNL     1     -31.945   7.614   2.599  1.00 20.00     0.034 C 
HETATM    9  C8  UNL     1     -32.635   8.893   2.134  1.00 20.00     0.010 C 
ENDBRANCH   6   8
TORSDOF 1
