REMARK  2 active torsions:
REMARK  status: ('A' for Active; 'I' for Inactive)
REMARK    1  A    between atoms: C6_6  and  C10_10 
REMARK    2  A    between atoms: C9_9  and  C10_10 
ROOT
HETATM    1  C1  UNL     1     -35.226   5.129   5.683  1.00 20.00     0.000 A 
HETATM    2  C2  UNL     1     -35.369   4.781   4.340  1.00 20.00     0.001 A 
HETATM    3  C3  UNL     1     -34.189   5.974   6.077  1.00 20.00     0.001 A 
HETATM    4  C4  UNL     1     -34.475   5.277   3.391  1.00 20.00     0.007 A 
HETATM    5  C5  UNL     1     -33.294   6.470   5.129  1.00 20.00     0.007 A 
HETATM    6  C6  UNL     1     -33.437   6.121   3.786  1.00 20.00    -0.054 A 
ENDROOT
BRANCH   6   7
HETATM    7  C10 UNL     1     -32.462   6.662   2.754  1.00 20.00     0.014 C 
HETATM    8  C8  UNL     1     -31.085   6.898   3.385  1.00 20.00     0.015 C 
BRANCH   7   9
HETATM    9  C9  UNL     1     -32.954   7.953   2.068  1.00 20.00     0.004 C 
HETATM   10  C7  UNL     1     -31.974   8.491   1.033  1.00 20.00     0.006 C 
ENDBRANCH   7   9
ENDBRANCH   6   7
TORSDOF 2
