REMARK  3 active torsions:
REMARK  status: ('A' for Active; 'I' for Inactive)
REMARK    1  A    between atoms: C2_2  and  C4_4 
REMARK    2  A    between atoms: C4_4  and  S6_6 
REMARK    3  A    between atoms: C5_5  and  S6_6 
ROOT
HETATM    1  C4  UNL     1     -34.226   5.119   3.718  1.00 20.00     0.100 C 
ENDROOT
BRANCH   1   2
HETATM    2  C2  UNL     1     -35.026   4.670   4.899  1.00 20.00    -0.027 C 
HETATM    3  C1  UNL     1     -34.656   3.677   5.715  1.00 20.00     0.007 C 
ENDBRANCH   1   2
BRANCH   1   4
HETATM    4  S6  UNL     1     -33.743   6.856   3.913  1.00 20.00    -0.166 SA
BRANCH   4   5
HETATM    5  C5  UNL     1     -32.829   7.052   2.366  1.00 20.00     0.069 C 
HETATM    6  C3  UNL     1     -32.283   8.463   2.245  1.00 20.00     0.016 C 
ENDBRANCH   4   5
ENDBRANCH   1   4
TORSDOF 3
