REMARK  4 active torsions:
REMARK  status: ('A' for Active; 'I' for Inactive)
REMARK    1  A    between atoms: C6_6  and  C7_7 
REMARK    2  A    between atoms: C7_7  and  C8_8 
REMARK    3  A    between atoms: C8_8  and  C9_9 
REMARK    4  A    between atoms: C9_9  and  O10_10 
ROOT
HETATM    1  C1  UNL     1     -35.064   4.173   5.505  1.00 20.00     0.000 C 
HETATM    2  C2  UNL     1     -34.835   4.344   4.007  1.00 20.00     0.000 C 
HETATM    3  C3  UNL     1     -34.087   5.006   6.328  1.00 20.00     0.000 C 
HETATM    4  C4  UNL     1     -34.865   5.815   3.596  1.00 20.00     0.004 C 
HETATM    5  C5  UNL     1     -34.117   6.478   5.918  1.00 20.00     0.004 C 
HETATM    6  C6  UNL     1     -33.901   6.688   4.412  1.00 20.00    -0.014 C 
ENDROOT
BRANCH   6   7
HETATM    7  C7  UNL     1     -32.443   6.446   4.011  1.00 20.00     0.007 C 
BRANCH   7   8
HETATM    8  C8  UNL     1     -32.223   6.731   2.531  1.00 20.00     0.026 C 
BRANCH   8   9
HETATM    9  C9  UNL     1     -32.600   8.163   2.179  1.00 20.00     0.164 C 
BRANCH   9  10
HETATM   10  O10 UNL     1     -32.389   8.364   0.788  1.00 20.00    -0.401 OA
HETATM   11  H28 UNL     1     -32.637   9.283   0.597  1.00 20.00     0.209 HD
ENDBRANCH   9  10
ENDBRANCH   8   9
ENDBRANCH   7   8
ENDBRANCH   6   7
TORSDOF 4
