REMARK  3 active torsions:
REMARK  status: ('A' for Active; 'I' for Inactive)
REMARK    1  A    between atoms: C2_2  and  C4_4 
REMARK    2  A    between atoms: C4_4  and  S8_8 
REMARK    3  A    between atoms: C5_5  and  S8_8 
ROOT
HETATM    1  O6  UNL     1     -35.620   5.620   3.725  1.00 20.00    -0.228 OA
HETATM    2  O7  UNL     1     -34.093   6.655   5.449  1.00 20.00    -0.228 OA
HETATM    3  S8  UNL     1     -34.362   5.628   4.455  1.00 20.00     0.147 S 
ENDROOT
BRANCH   3   4
HETATM    4  C4  UNL     1     -33.043   5.630   3.286  1.00 20.00     0.166 C 
BRANCH   4   5
HETATM    5  C2  UNL     1     -33.097   6.928   2.556  1.00 20.00    -0.022 C 
HETATM    6  C1  UNL     1     -32.117   7.838   2.583  1.00 20.00     0.008 C 
ENDBRANCH   4   5
ENDBRANCH   3   4
BRANCH   3   7
HETATM    7  C5  UNL     1     -34.200   4.050   5.259  1.00 20.00     0.136 C 
HETATM    8  C3  UNL     1     -35.263   3.855   6.317  1.00 20.00     0.021 C 
ENDBRANCH   3   7
TORSDOF 3
