REMARK  2 active torsions:
REMARK  status: ('A' for Active; 'I' for Inactive)
REMARK    1  A    between atoms: C6_6  and  C8_8 
REMARK    2  A    between atoms: C8_8  and  N10_10 
ROOT
HETATM    1  N9  UNL     1     -32.541   9.580   1.355  1.00 20.00     0.068 N 
HETATM    2  N10 UNL     1     -32.091   7.819   2.896  1.00 20.00    -0.111 NA
HETATM    3  N11 UNL     1     -32.329   8.739   2.096  1.00 20.00    -0.167 NA
ENDROOT
BRANCH   2   4
HETATM    4  C8  UNL     1     -32.856   7.852   4.149  1.00 20.00     0.227 C 
BRANCH   4   5
HETATM    5  C6  UNL     1     -33.634   6.599   4.370  1.00 20.00    -0.035 A 
HETATM    6  C3  UNL     1     -34.137   5.889   3.279  1.00 20.00     0.009 A 
HETATM    7  C1  UNL     1     -34.865   4.718   3.486  1.00 20.00     0.001 A 
HETATM    8  C2  UNL     1     -35.090   4.255   4.782  1.00 20.00     0.007 A 
HETATM    9  C5  UNL     1     -34.587   4.965   5.872  1.00 20.00    -0.061 A 
HETATM   10  C4  UNL     1     -33.859   6.137   5.666  1.00 20.00     0.015 A 
HETATM   11  C7  UNL     1     -34.827   4.470   7.259  1.00 20.00     0.048 C 
ENDBRANCH   4   5
ENDBRANCH   2   4
TORSDOF 2
