REMARK  0 active torsions:
REMARK  status: ('A' for Active; 'I' for Inactive)
ROOT
HETATM    1  C1  UNL     1     -33.356   6.109   2.678  1.00 20.00     0.002 A 
HETATM    2  C2  UNL     1     -34.144   4.963   2.571  1.00 20.00     0.002 A 
HETATM    3  C3  UNL     1     -33.200   6.736   3.914  1.00 20.00     0.025 A 
HETATM    4  C4  UNL     1     -34.777   4.444   3.701  1.00 20.00     0.025 A 
HETATM    5  C5  UNL     1     -33.833   6.218   5.044  1.00 20.00     0.055 A 
HETATM    6  C6  UNL     1     -34.621   5.072   4.937  1.00 20.00     0.055 A 
HETATM    7 CL7  UNL     1     -33.602   7.039   6.547  1.00 20.00    -0.083 Cl
HETATM    8 CL8  UNL     1     -35.431   4.381   6.299  1.00 20.00    -0.083 Cl
ENDROOT
TORSDOF 0
