REMARK  1 active torsions:
REMARK  status: ('A' for Active; 'I' for Inactive)
REMARK    1  A    between atoms: C6_6  and  N8_8 
ROOT
HETATM    1  C1  UNL     1     -34.998   4.054   5.867  1.00 20.00     0.000 A 
HETATM    2  C2  UNL     1     -35.305   3.880   4.518  1.00 20.00     0.002 A 
HETATM    3  C3  UNL     1     -34.160   5.097   6.262  1.00 20.00     0.002 A 
HETATM    4  C4  UNL     1     -34.775   4.749   3.564  1.00 20.00     0.029 A 
HETATM    5  C5  UNL     1     -33.630   5.965   5.308  1.00 20.00     0.029 A 
HETATM    6  C6  UNL     1     -33.937   5.791   3.959  1.00 20.00     0.027 A 
ENDROOT
BRANCH   6   7
HETATM    7  N8  UNL     1     -33.401   6.670   2.995  1.00 20.00    -0.394 N 
HETATM    8  C7  UNL     1     -32.137   7.319   3.154  1.00 20.00     0.146 C 
HETATM    9  H17 UNL     1     -33.950   6.831   2.172  1.00 20.00     0.159 HD
ENDBRANCH   6   7
TORSDOF 1
