REMARK  3 active torsions:
REMARK  status: ('A' for Active; 'I' for Inactive)
REMARK    1  A    between atoms: C6_6  and  O9_9 
REMARK    2  A    between atoms: C7_7  and  C8_8 
REMARK    3  A    between atoms: C7_7  and  O9_9 
ROOT
HETATM    1  C1  UNL     1     -35.324   4.881   5.956  1.00 20.00     0.000 A 
HETATM    2  C2  UNL     1     -35.218   4.726   4.574  1.00 20.00     0.003 A 
HETATM    3  C3  UNL     1     -34.452   5.736   6.631  1.00 20.00     0.003 A 
HETATM    4  C4  UNL     1     -34.241   5.425   3.866  1.00 20.00     0.037 A 
HETATM    5  C5  UNL     1     -33.474   6.435   5.923  1.00 20.00     0.037 A 
HETATM    6  C6  UNL     1     -33.369   6.280   4.541  1.00 20.00     0.068 A 
ENDROOT
BRANCH   6   7
HETATM    7  O9  UNL     1     -32.414   6.961   3.850  1.00 20.00    -0.350 OA
BRANCH   7   8
HETATM    8  C7  UNL     1     -32.712   7.307   2.499  1.00 20.00     0.190 C 
BRANCH   8   9
HETATM    9  C8  UNL     1     -31.942   8.555   2.108  1.00 20.00     0.141 C 
HETATM   10 CL10 UNL     1     -32.313   9.029   0.431  1.00 20.00    -0.128 Cl
ENDBRANCH   8   9
ENDBRANCH   7   8
ENDBRANCH   6   7
TORSDOF 3
