REMARK  0 active torsions:
REMARK  status: ('A' for Active; 'I' for Inactive)
ROOT
HETATM    1  C1  UNL     1     -33.263   6.590   3.186  1.00 20.00     0.199 A 
HETATM    2  C2  UNL     1     -34.005   5.510   2.708  1.00 20.00     0.198 A 
HETATM    3  C3  UNL     1     -33.301   6.917   4.541  1.00 20.00     0.198 A 
HETATM    4  C4  UNL     1     -34.786   4.758   3.586  1.00 20.00     0.182 A 
HETATM    5  C5  UNL     1     -34.082   6.165   5.419  1.00 20.00     0.182 A 
HETATM    6  C6  UNL     1     -34.825   5.086   4.941  1.00 20.00     0.117 A 
HETATM    7  F7  UNL     1     -32.514   7.312   2.343  1.00 20.00    -0.199 F 
HETATM    8  F8  UNL     1     -33.969   5.195   1.407  1.00 20.00    -0.199 F 
HETATM    9  F9  UNL     1     -32.588   7.955   4.999  1.00 20.00    -0.199 F 
HETATM   10  F10 UNL     1     -35.494   3.723   3.111  1.00 20.00    -0.201 F 
HETATM   11  F11 UNL     1     -34.109   6.493   6.719  1.00 20.00    -0.201 F 
HETATM   12 CL12 UNL     1     -35.788   4.156   6.024  1.00 20.00    -0.077 Cl
ENDROOT
TORSDOF 0
