REMARK  0 active torsions:
REMARK  status: ('A' for Active; 'I' for Inactive)
ROOT
HETATM    1  C1  UNL     1     -34.679   5.793   6.704  1.00 20.00     0.000 A 
HETATM    2  C2  UNL     1     -33.827   6.698   6.071  1.00 20.00     0.003 A 
HETATM    3  C3  UNL     1     -35.273   4.765   5.972  1.00 20.00     0.003 A 
HETATM    4  C4  UNL     1     -33.571   6.575   4.705  1.00 20.00     0.042 A 
HETATM    5  C5  UNL     1     -35.016   4.642   4.607  1.00 20.00     0.042 A 
HETATM    6  C6  UNL     1     -34.165   5.547   3.973  1.00 20.00     0.116 A 
HETATM    7  F7  UNL     1     -33.919   5.429   2.662  1.00 20.00    -0.206 F 
ENDROOT
TORSDOF 0
