REMARK  5 active torsions:
REMARK  status: ('A' for Active; 'I' for Inactive)
REMARK    1  A    between atoms: C3_3  and  C5_5 
REMARK    2  A    between atoms: C4_4  and  C6_6 
REMARK    3  A    between atoms: C5_5  and  S7_7 
REMARK    4  A    between atoms: C6_6  and  S8_8 
REMARK    5  A    between atoms: S7_7  and  S8_8 
ROOT
HETATM    1  S7  UNL     1     -33.463   5.685   3.326  1.00 20.00    -0.098 SA
ENDROOT
BRANCH   1   2
HETATM    2  C5  UNL     1     -34.734   6.268   4.484  1.00 20.00     0.086 C 
BRANCH   2   3
HETATM    3  C3  UNL     1     -34.487   5.700   5.878  1.00 20.00     0.006 C 
HETATM    4  C1  UNL     1     -34.527   4.179   5.864  1.00 20.00     0.006 C 
ENDBRANCH   2   3
ENDBRANCH   1   2
BRANCH   1   5
HETATM    5  S8  UNL     1     -31.898   6.944   3.763  1.00 20.00    -0.098 SA
BRANCH   5   6
HETATM    6  C6  UNL     1     -31.628   7.762   2.173  1.00 20.00     0.086 C 
BRANCH   6   7
HETATM    7  C4  UNL     1     -32.645   8.879   1.967  1.00 20.00     0.006 C 
HETATM    8  C2  UNL     1     -32.427   9.579   0.633  1.00 20.00     0.006 C 
ENDBRANCH   6   7
ENDBRANCH   5   6
ENDBRANCH   1   5
TORSDOF 5
