REMARK  0 active torsions:
REMARK  status: ('A' for Active; 'I' for Inactive)
ROOT
HETATM    1  C1  UNL     1     -35.000   4.537   6.042  1.00 20.00     0.000 A 
HETATM    2  C2  UNL     1     -34.984   4.250   4.677  1.00 20.00     0.001 A 
HETATM    3  C3  UNL     1     -34.329   5.660   6.526  1.00 20.00     0.001 A 
HETATM    4  C4  UNL     1     -34.297   5.086   3.796  1.00 20.00     0.019 A 
HETATM    5  C5  UNL     1     -33.642   6.496   5.646  1.00 20.00     0.019 A 
HETATM    6  C6  UNL     1     -33.626   6.209   4.281  1.00 20.00     0.011 A 
HETATM    7  S7  UNL     1     -32.740   7.289   3.146  1.00 20.00    -0.053 SA
ENDROOT
TORSDOF 0
