REMARK  0 active torsions:
REMARK  status: ('A' for Active; 'I' for Inactive)
ROOT
HETATM    1  C1  UNL     1     -33.854   5.218   2.507  1.00 20.00     0.001 A 
HETATM    2  C2  UNL     1     -32.846   6.146   2.820  1.00 20.00     0.001 A 
HETATM    3  C3  UNL     1     -34.769   4.800   3.478  1.00 20.00     0.012 A 
HETATM    4  C4  UNL     1     -32.735   6.673   4.109  1.00 20.00     0.008 A 
HETATM    5  C5  UNL     1     -34.651   5.327   4.752  1.00 20.00    -0.030 A 
HETATM    6  C6  UNL     1     -33.645   6.253   5.062  1.00 20.00    -0.044 A 
HETATM    7  C7  UNL     1     -35.449   5.079   5.941  1.00 20.00     0.008 A 
HETATM    8  C8  UNL     1     -34.944   5.826   6.935  1.00 20.00    -0.021 A 
HETATM    9  C9  UNL     1     -33.755   6.649   6.502  1.00 20.00     0.066 A 
ENDROOT
TORSDOF 0
