REMARK  0 active torsions:
REMARK  status: ('A' for Active; 'I' for Inactive)
ROOT
HETATM    1  C1  UNL     1     -35.489   4.689   5.690  1.00 20.00     0.001 A 
HETATM    2  C2  UNL     1     -34.857   5.552   6.583  1.00 20.00     0.002 A 
HETATM    3  C3  UNL     1     -35.043   4.572   4.369  1.00 20.00     0.014 A 
HETATM    4  C4  UNL     1     -33.763   6.325   6.185  1.00 20.00     0.030 A 
HETATM    5  C5  UNL     1     -33.239   5.473   2.714  1.00 20.00     0.030 A 
HETATM    6  C6  UNL     1     -32.231   6.391   2.904  1.00 20.00     0.089 A 
HETATM    7  C7  UNL     1     -33.941   5.341   3.945  1.00 20.00    -0.008 A 
HETATM    8  C8  UNL     1     -33.327   6.198   4.861  1.00 20.00     0.042 A 
HETATM    9  N9  UNL     1     -32.293   6.823   4.202  1.00 20.00    -0.365 N 
HETATM   10  H16 UNL     1     -31.669   7.501   4.616  1.00 20.00     0.165 HD
ENDROOT
TORSDOF 0
