@<TRIPOS>MOLECULE
o-xylene.pdb
   18    18     0     0     0
SMALL
NO_CHARGES

@<TRIPOS>ATOM
      1 C1         27.2140    7.4650    4.4890 C.ar      1 MOL         0.0000
      2 C2         27.5750    6.9460    3.2690 C.ar      1 MOL         0.0000
      3 C3         27.2520    5.6280    2.9580 C.ar      1 MOL         0.0000
      4 C4         26.4320    4.8790    3.8100 C.ar      1 MOL         0.0000
      5 C5         26.0190    5.4030    5.0400 C.ar      1 MOL         0.0000
      6 C6         26.4360    6.6760    5.4130 C.ar      1 MOL         0.0000
      7 C7         27.6430    8.8780    4.7960 C.3       1 MOL         0.0000
      8 C8         28.4530    7.7660    2.3490 C.3       1 MOL         0.0000
      9 H1         27.6366    5.1805    2.0534 H         1 MOL         0.0000
     10 H2         26.1157    3.8892    3.5158 H         1 MOL         0.0000
     11 H3         25.3826    4.8244    5.6932 H         1 MOL         0.0000
     12 H4         26.1799    7.0704    6.3852 H         1 MOL         0.0000
     13 H5         27.2572    9.1714    5.7723 H         1 MOL         0.0000
     14 H6         28.7316    8.9333    4.8042 H         1 MOL         0.0000
     15 H7         27.2508    9.5506    4.0332 H         1 MOL         0.0000
     16 H8         28.6740    7.1915    1.4494 H         1 MOL         0.0000
     17 H9         27.9338    8.6844    2.0749 H         1 MOL         0.0000
     18 H10        29.3835    8.0133    2.8599 H         1 MOL         0.0000
@<TRIPOS>BOND
     1    1    2 ar
     2    1    6 ar
     3    1    7 1
     4    2    3 ar
     5    2    8 1
     6    3    4 ar
     7    4    5 ar
     8    5    6 ar
     9    3    9 1
    10    4   10 1
    11    5   11 1
    12    6   12 1
    13    7   13 1
    14    7   14 1
    15    7   15 1
    16    8   16 1
    17    8   17 1
    18    8   18 1
