MODEL 1
REMARK VINA RESULT:      -4.4      0.000      0.000
REMARK  1 active torsions:
REMARK  status: ('A' for Active; 'I' for Inactive)
REMARK    1  A    between atoms: C3_3  and  C8_8 
ROOT
HETATM    1  C1  UNL     1     -24.075  18.768  12.202  1.00 20.00    -0.026 C 
HETATM    2  C2  UNL     1     -22.944  18.048  12.203  1.00 20.00    -0.024 C 
HETATM    3  C4  UNL     1     -24.348  17.085  10.650  1.00 20.00     0.018 C 
HETATM    4  C5  UNL     1     -23.906  19.262   9.779  1.00 20.00     0.029 C 
HETATM    5  C6  UNL     1     -24.747  18.547  10.867  1.00 20.00     0.010 C 
HETATM    6  C7  UNL     1     -22.850  17.362  10.859  1.00 20.00     0.027 C 
HETATM    7  C8  UNL     1     -22.593  18.428   9.767  1.00 20.00     0.052 C 
HETATM    8  C9  UNL     1     -21.328  19.260   9.938  1.00 20.00     0.027 C 
ENDROOT
BRANCH   7   9
HETATM    9  C3  UNL     1     -22.401  17.759   8.410  1.00 20.00     0.182 C 
HETATM   10  O10 UNL     1     -21.804  16.647   8.437  1.00 20.00    -0.647 OA
HETATM   11  O11 UNL     1     -22.866  18.405   7.429  1.00 20.00    -0.647 OA
ENDBRANCH   7   9
TORSDOF 1
ENDMDL
MODEL 2
REMARK VINA RESULT:      -3.5     18.071     19.316
REMARK  1 active torsions:
REMARK  status: ('A' for Active; 'I' for Inactive)
REMARK    1  A    between atoms: C3_3  and  C8_8 
ROOT
HETATM    1  C1  UNL     1     -41.179  13.407   4.917  1.00 20.00    -0.026 C 
HETATM    2  C2  UNL     1     -42.088  14.323   5.283  1.00 20.00    -0.024 C 
HETATM    3  C4  UNL     1     -42.302  12.549   6.739  1.00 20.00     0.018 C 
HETATM    4  C5  UNL     1     -40.109  13.394   7.153  1.00 20.00     0.029 C 
HETATM    5  C6  UNL     1     -40.900  12.545   6.125  1.00 20.00     0.010 C 
HETATM    6  C7  UNL     1     -42.400  14.084   6.743  1.00 20.00     0.027 C 
HETATM    7  C8  UNL     1     -41.159  14.455   7.590  1.00 20.00     0.052 C 
HETATM    8  C9  UNL     1     -40.676  15.894   7.461  1.00 20.00     0.027 C 
ENDROOT
BRANCH   7   9
HETATM    9  C3  UNL     1     -41.471  14.313   9.076  1.00 20.00     0.182 C 
HETATM   10  O10 UNL     1     -42.582  14.788   9.441  1.00 20.00    -0.647 OA
HETATM   11  O11 UNL     1     -40.575  13.736   9.753  1.00 20.00    -0.647 OA
ENDBRANCH   7   9
TORSDOF 1
ENDMDL
MODEL 3
REMARK VINA RESULT:      -3.4     19.205     20.300
REMARK  1 active torsions:
REMARK  status: ('A' for Active; 'I' for Inactive)
REMARK    1  A    between atoms: C3_3  and  C8_8 
ROOT
HETATM    1  C1  UNL     1     -34.175  18.514  -5.715  1.00 20.00    -0.026 C 
HETATM    2  C2  UNL     1     -34.564  17.883  -4.597  1.00 20.00    -0.024 C 
HETATM    3  C4  UNL     1     -36.288  17.679  -6.112  1.00 20.00     0.018 C 
HETATM    4  C5  UNL     1     -34.478  16.488  -7.111  1.00 20.00     0.029 C 
HETATM    5  C6  UNL     1     -34.975  17.934  -6.858  1.00 20.00     0.010 C 
HETATM    6  C7  UNL     1     -35.609  16.867  -4.997  1.00 20.00     0.027 C 
HETATM    7  C8  UNL     1     -34.931  15.746  -5.821  1.00 20.00     0.052 C 
HETATM    8  C9  UNL     1     -33.812  14.989  -5.116  1.00 20.00     0.027 C 
ENDROOT
BRANCH   7   9
HETATM    9  C3  UNL     1     -35.941  14.656  -6.163  1.00 20.00     0.182 C 
HETATM   10  O10 UNL     1     -35.962  14.301  -7.374  1.00 20.00    -0.647 OA
HETATM   11  O11 UNL     1     -36.631  14.247  -5.186  1.00 20.00    -0.647 OA
ENDBRANCH   7   9
TORSDOF 1
ENDMDL
MODEL 4
REMARK VINA RESULT:      -3.4     19.135     20.232
REMARK  1 active torsions:
REMARK  status: ('A' for Active; 'I' for Inactive)
REMARK    1  A    between atoms: C3_3  and  C8_8 
ROOT
HETATM    1  C1  UNL     1     -33.950  15.470  -3.647  1.00 20.00    -0.026 C 
HETATM    2  C2  UNL     1     -34.087  16.651  -4.269  1.00 20.00    -0.024 C 
HETATM    3  C4  UNL     1     -33.536  15.105  -5.886  1.00 20.00     0.018 C 
HETATM    4  C5  UNL     1     -35.659  14.380  -5.074  1.00 20.00     0.029 C 
HETATM    5  C6  UNL     1     -34.159  14.391  -4.684  1.00 20.00     0.010 C 
HETATM    6  C7  UNL     1     -34.409  16.359  -5.717  1.00 20.00     0.027 C 
HETATM    7  C8  UNL     1     -35.827  15.744  -5.803  1.00 20.00     0.052 C 
HETATM    8  C9  UNL     1     -36.957  16.605  -5.254  1.00 20.00     0.027 C 
ENDROOT
BRANCH   7   9
HETATM    9  C3  UNL     1     -36.219  15.522  -7.260  1.00 20.00     0.182 C 
HETATM   10  O10 UNL     1     -36.279  14.315  -7.625  1.00 20.00    -0.647 OA
HETATM   11  O11 UNL     1     -36.434  16.579  -7.918  1.00 20.00    -0.647 OA
ENDBRANCH   7   9
TORSDOF 1
ENDMDL
MODEL 5
REMARK VINA RESULT:      -3.4     15.761     16.945
REMARK  1 active torsions:
REMARK  status: ('A' for Active; 'I' for Inactive)
REMARK    1  A    between atoms: C3_3  and  C8_8 
ROOT
HETATM    1  C1  UNL     1     -35.202   5.906   6.549  1.00 20.00    -0.026 C 
HETATM    2  C2  UNL     1     -33.950   6.352   6.732  1.00 20.00    -0.024 C 
HETATM    3  C4  UNL     1     -33.825   4.616   5.222  1.00 20.00     0.018 C 
HETATM    4  C5  UNL     1     -35.112   6.284   4.101  1.00 20.00     0.029 C 
HETATM    5  C6  UNL     1     -35.237   5.208   5.210  1.00 20.00     0.010 C 
HETATM    6  C7  UNL     1     -33.156   5.971   5.504  1.00 20.00     0.027 C 
HETATM    7  C8  UNL     1     -33.659   6.804   4.300  1.00 20.00     0.052 C 
HETATM    8  C9  UNL     1     -33.557   8.317   4.452  1.00 20.00     0.027 C 
ENDROOT
BRANCH   7   9
HETATM    9  C3  UNL     1     -32.815   6.510   3.065  1.00 20.00     0.182 C 
HETATM   10  O10 UNL     1     -32.981   5.366   2.558  1.00 20.00    -0.647 OA
HETATM   11  O11 UNL     1     -32.056   7.453   2.705  1.00 20.00    -0.647 OA
ENDBRANCH   7   9
TORSDOF 1
ENDMDL
MODEL 6
REMARK VINA RESULT:      -3.3     19.580     20.681
REMARK  1 active torsions:
REMARK  status: ('A' for Active; 'I' for Inactive)
REMARK    1  A    between atoms: C3_3  and  C8_8 
ROOT
HETATM    1  C1  UNL     1     -28.971  -2.095  11.081  1.00 20.00    -0.026 C 
HETATM    2  C2  UNL     1     -28.302  -2.960  10.304  1.00 20.00    -0.024 C 
HETATM    3  C4  UNL     1     -27.294  -0.905  10.037  1.00 20.00     0.018 C 
HETATM    4  C5  UNL     1     -26.931  -1.447  12.332  1.00 20.00     0.029 C 
HETATM    5  C6  UNL     1     -28.040  -0.942  11.373  1.00 20.00     0.010 C 
HETATM    6  C7  UNL     1     -26.916  -2.394  10.097  1.00 20.00     0.027 C 
HETATM    7  C8  UNL     1     -26.144  -2.447  11.438  1.00 20.00     0.052 C 
HETATM    8  C9  UNL     1     -25.979  -3.831  12.052  1.00 20.00     0.027 C 
ENDROOT
BRANCH   7   9
HETATM    9  C3  UNL     1     -24.710  -1.968  11.241  1.00 20.00     0.182 C 
HETATM   10  O10 UNL     1     -24.366  -0.988  11.958  1.00 20.00    -0.647 OA
HETATM   11  O11 UNL     1     -24.047  -2.617  10.383  1.00 20.00    -0.647 OA
ENDBRANCH   7   9
TORSDOF 1
ENDMDL
MODEL 7
REMARK VINA RESULT:      -3.3     15.589     16.512
REMARK  1 active torsions:
REMARK  status: ('A' for Active; 'I' for Inactive)
REMARK    1  A    between atoms: C3_3  and  C8_8 
ROOT
HETATM    1  C1  UNL     1     -33.018  19.261  -0.477  1.00 20.00    -0.026 C 
HETATM    2  C2  UNL     1     -32.066  18.699  -1.236  1.00 20.00    -0.024 C 
HETATM    3  C4  UNL     1     -33.754  17.145  -1.021  1.00 20.00     0.018 C 
HETATM    4  C5  UNL     1     -34.761  18.951  -2.211  1.00 20.00     0.029 C 
HETATM    5  C6  UNL     1     -34.314  18.549  -0.782  1.00 20.00     0.010 C 
HETATM    6  C7  UNL     1     -32.733  17.625  -2.065  1.00 20.00     0.027 C 
HETATM    7  C8  UNL     1     -33.667  18.297  -3.102  1.00 20.00     0.052 C 
HETATM    8  C9  UNL     1     -32.996  19.263  -4.070  1.00 20.00     0.027 C 
ENDROOT
BRANCH   7   9
HETATM    9  C3  UNL     1     -34.285  17.244  -4.016  1.00 20.00     0.182 C 
HETATM   10  O10 UNL     1     -33.546  16.253  -4.273  1.00 20.00    -0.647 OA
HETATM   11  O11 UNL     1     -35.461  17.500  -4.400  1.00 20.00    -0.647 OA
ENDBRANCH   7   9
TORSDOF 1
ENDMDL
MODEL 8
REMARK VINA RESULT:      -3.3     19.082     20.276
REMARK  1 active torsions:
REMARK  status: ('A' for Active; 'I' for Inactive)
REMARK    1  A    between atoms: C3_3  and  C8_8 
ROOT
HETATM    1  C1  UNL     1     -36.520  16.348  -7.608  1.00 20.00    -0.026 C 
HETATM    2  C2  UNL     1     -35.876  15.178  -7.726  1.00 20.00    -0.024 C 
HETATM    3  C4  UNL     1     -34.331  16.719  -6.985  1.00 20.00     0.018 C 
HETATM    4  C5  UNL     1     -35.922  16.578  -5.213  1.00 20.00     0.029 C 
HETATM    5  C6  UNL     1     -35.742  17.191  -6.625  1.00 20.00     0.010 C 
HETATM    6  C7  UNL     1     -34.678  15.232  -6.805  1.00 20.00     0.027 C 
HETATM    7  C8  UNL     1     -35.171  15.222  -5.337  1.00 20.00     0.052 C 
HETATM    8  C9  UNL     1     -36.002  14.013  -4.926  1.00 20.00     0.027 C 
ENDROOT
BRANCH   7   9
HETATM    9  C3  UNL     1     -33.983  15.183  -4.381  1.00 20.00     0.182 C 
HETATM   10  O10 UNL     1     -33.820  16.221  -3.682  1.00 20.00    -0.647 OA
HETATM   11  O11 UNL     1     -33.313  14.113  -4.413  1.00 20.00    -0.647 OA
ENDBRANCH   7   9
TORSDOF 1
ENDMDL
MODEL 9
REMARK VINA RESULT:      -3.3     18.662     19.770
REMARK  1 active torsions:
REMARK  status: ('A' for Active; 'I' for Inactive)
REMARK    1  A    between atoms: C3_3  and  C8_8 
ROOT
HETATM    1  C1  UNL     1     -36.340  17.655  -6.726  1.00 20.00    -0.026 C 
HETATM    2  C2  UNL     1     -35.021  17.892  -6.694  1.00 20.00    -0.024 C 
HETATM    3  C4  UNL     1     -35.678  17.480  -4.524  1.00 20.00     0.018 C 
HETATM    4  C5  UNL     1     -36.091  15.427  -5.668  1.00 20.00     0.029 C 
HETATM    5  C6  UNL     1     -36.681  16.850  -5.494  1.00 20.00     0.010 C 
HETATM    6  C7  UNL     1     -34.477  17.227  -5.451  1.00 20.00     0.027 C 
HETATM    7  C8  UNL     1     -34.559  15.691  -5.625  1.00 20.00     0.052 C 
HETATM    8  C9  UNL     1     -33.797  15.118  -6.813  1.00 20.00     0.027 C 
ENDROOT
BRANCH   7   9
HETATM    9  C3  UNL     1     -33.932  14.989  -4.424  1.00 20.00     0.182 C 
HETATM   10  O10 UNL     1     -32.906  15.549  -3.948  1.00 20.00    -0.647 OA
HETATM   11  O11 UNL     1     -34.523  13.934  -4.060  1.00 20.00    -0.647 OA
ENDBRANCH   7   9
TORSDOF 1
ENDMDL
