MODEL 1
REMARK VINA RESULT:      -3.3      0.000      0.000
REMARK  0 active torsions:
REMARK  status: ('A' for Active; 'I' for Inactive)
ROOT
HETATM    1  C1  UNL     1     -22.038  17.514   8.336  1.00 20.00     0.075 C 
HETATM    2  C2  UNL     1     -23.753  18.883  12.332  1.00 20.00     0.084 C 
HETATM    3  C3  UNL     1     -24.597  17.897  11.537  1.00 20.00     0.085 C 
HETATM    4  C4  UNL     1     -21.672  18.542  10.536  1.00 20.00     0.104 C 
HETATM    5  C5  UNL     1     -22.512  17.549   9.730  1.00 20.00     0.163 C 
HETATM    6  N6  UNL     1     -21.665  17.488   7.237  1.00 20.00    -0.196 NA
HETATM    7  S7  UNL     1     -21.987  18.457  12.326  1.00 20.00    -0.166 SA
HETATM    8  S8  UNL     1     -24.287  17.991   9.749  1.00 20.00    -0.148 SA
ENDROOT
TORSDOF 0
ENDMDL
MODEL 2
REMARK VINA RESULT:      -3.1     18.456     19.602
REMARK  0 active torsions:
REMARK  status: ('A' for Active; 'I' for Inactive)
ROOT
HETATM    1  C1  UNL     1     -35.469  15.049  -6.768  1.00 20.00     0.075 C 
HETATM    2  C2  UNL     1     -33.827  17.166  -3.078  1.00 20.00     0.084 C 
HETATM    3  C3  UNL     1     -33.050  15.950  -3.561  1.00 20.00     0.085 C 
HETATM    4  C4  UNL     1     -35.402  17.056  -5.354  1.00 20.00     0.104 C 
HETATM    5  C5  UNL     1     -34.626  15.834  -5.850  1.00 20.00     0.163 C 
HETATM    6  N6  UNL     1     -36.134  14.429  -7.490  1.00 20.00    -0.196 NA
HETATM    7  S7  UNL     1     -34.365  18.240  -4.442  1.00 20.00    -0.166 SA
HETATM    8  S8  UNL     1     -34.090  14.765  -4.465  1.00 20.00    -0.148 SA
ENDROOT
TORSDOF 0
ENDMDL
MODEL 3
REMARK VINA RESULT:      -3.0     18.390     19.498
REMARK  0 active torsions:
REMARK  status: ('A' for Active; 'I' for Inactive)
ROOT
HETATM    1  C1  UNL     1     -35.638  15.062  -6.310  1.00 20.00     0.075 C 
HETATM    2  C2  UNL     1     -33.296  18.035  -3.768  1.00 20.00     0.084 C 
HETATM    3  C3  UNL     1     -34.623  18.524  -4.328  1.00 20.00     0.085 C 
HETATM    4  C4  UNL     1     -33.871  15.475  -4.655  1.00 20.00     0.104 C 
HETATM    5  C5  UNL     1     -35.209  15.956  -5.221  1.00 20.00     0.163 C 
HETATM    6  N6  UNL     1     -35.976  14.359  -7.169  1.00 20.00    -0.196 NA
HETATM    7  S7  UNL     1     -33.389  16.337  -3.127  1.00 20.00    -0.166 SA
HETATM    8  S8  UNL     1     -35.098  17.668  -5.859  1.00 20.00    -0.148 SA
ENDROOT
TORSDOF 0
ENDMDL
MODEL 4
REMARK VINA RESULT:      -2.8     16.068     16.849
REMARK  0 active torsions:
REMARK  status: ('A' for Active; 'I' for Inactive)
ROOT
HETATM    1  C1  UNL     1     -32.343   7.545   2.542  1.00 20.00     0.075 C 
HETATM    2  C2  UNL     1     -34.856   5.539   5.774  1.00 20.00     0.084 C 
HETATM    3  C3  UNL     1     -34.023   4.616   4.897  1.00 20.00     0.085 C 
HETATM    4  C4  UNL     1     -33.611   7.736   4.636  1.00 20.00     0.104 C 
HETATM    5  C5  UNL     1     -32.767   6.817   3.751  1.00 20.00     0.163 C 
HETATM    6  N6  UNL     1     -32.009   8.118   1.590  1.00 20.00    -0.196 NA
HETATM    7  S7  UNL     1     -33.951   7.031   6.279  1.00 20.00    -0.166 SA
HETATM    8  S8  UNL     1     -33.693   5.319   3.253  1.00 20.00    -0.148 SA
ENDROOT
TORSDOF 0
ENDMDL
MODEL 5
REMARK VINA RESULT:      -2.7     18.568     19.702
REMARK  0 active torsions:
REMARK  status: ('A' for Active; 'I' for Inactive)
ROOT
HETATM    1  C1  UNL     1     -36.402  16.210  -6.505  1.00 20.00     0.075 C 
HETATM    2  C2  UNL     1     -33.338  16.275  -3.129  1.00 20.00     0.084 C 
HETATM    3  C3  UNL     1     -33.173  15.178  -4.169  1.00 20.00     0.085 C 
HETATM    4  C4  UNL     1     -35.312  17.443  -4.682  1.00 20.00     0.104 C 
HETATM    5  C5  UNL     1     -35.153  16.345  -5.735  1.00 20.00     0.163 C 
HETATM    6  N6  UNL     1     -37.386  16.102  -7.110  1.00 20.00    -0.196 NA
HETATM    7  S7  UNL     1     -33.746  17.885  -3.867  1.00 20.00    -0.166 SA
HETATM    8  S8  UNL     1     -34.740  14.732  -4.975  1.00 20.00    -0.148 SA
ENDROOT
TORSDOF 0
ENDMDL
MODEL 6
REMARK VINA RESULT:      -2.7     17.445     18.775
REMARK  0 active torsions:
REMARK  status: ('A' for Active; 'I' for Inactive)
ROOT
HETATM    1  C1  UNL     1     -33.297  17.294  -2.437  1.00 20.00     0.075 C 
HETATM    2  C2  UNL     1     -34.496  16.006  -6.643  1.00 20.00     0.084 C 
HETATM    3  C3  UNL     1     -34.538  14.929  -5.570  1.00 20.00     0.085 C 
HETATM    4  C4  UNL     1     -34.027  17.920  -4.696  1.00 20.00     0.104 C 
HETATM    5  C5  UNL     1     -34.068  16.845  -3.609  1.00 20.00     0.163 C 
HETATM    6  N6  UNL     1     -32.688  17.647  -1.514  1.00 20.00    -0.196 NA
HETATM    7  S7  UNL     1     -35.174  17.592  -6.070  1.00 20.00    -0.166 SA
HETATM    8  S8  UNL     1     -33.385  15.255  -4.203  1.00 20.00    -0.148 SA
ENDROOT
TORSDOF 0
ENDMDL
MODEL 7
REMARK VINA RESULT:      -2.6     17.638     18.742
REMARK  0 active torsions:
REMARK  status: ('A' for Active; 'I' for Inactive)
ROOT
HETATM    1  C1  UNL     1     -34.486  15.742  -6.015  1.00 20.00     0.075 C 
HETATM    2  C2  UNL     1     -34.509  18.179  -2.162  1.00 20.00     0.084 C 
HETATM    3  C3  UNL     1     -33.197  17.498  -2.522  1.00 20.00     0.085 C 
HETATM    4  C4  UNL     1     -35.550  17.468  -4.628  1.00 20.00     0.104 C 
HETATM    5  C5  UNL     1     -34.234  16.781  -5.001  1.00 20.00     0.163 C 
HETATM    6  N6  UNL     1     -34.685  14.924  -6.813  1.00 20.00    -0.196 NA
HETATM    7  S7  UNL     1     -35.315  18.949  -3.597  1.00 20.00    -0.166 SA
HETATM    8  S8  UNL     1     -33.434  16.014  -3.544  1.00 20.00    -0.148 SA
ENDROOT
TORSDOF 0
ENDMDL
MODEL 8
REMARK VINA RESULT:      -2.6     13.896     14.979
REMARK  0 active torsions:
REMARK  status: ('A' for Active; 'I' for Inactive)
ROOT
HETATM    1  C1  UNL     1     -31.360  18.600   1.113  1.00 20.00     0.075 C 
HETATM    2  C2  UNL     1     -34.635  18.518  -2.058  1.00 20.00     0.084 C 
HETATM    3  C3  UNL     1     -34.960  19.260  -0.770  1.00 20.00     0.085 C 
HETATM    4  C4  UNL     1     -32.006  18.244  -1.229  1.00 20.00     0.104 C 
HETATM    5  C5  UNL     1     -32.322  18.990   0.068  1.00 20.00     0.163 C 
HETATM    6  N6  UNL     1     -30.602  18.292   1.936  1.00 20.00    -0.196 NA
HETATM    7  S7  UNL     1     -32.953  18.859  -2.656  1.00 20.00    -0.166 SA
HETATM    8  S8  UNL     1     -34.019  18.639   0.655  1.00 20.00    -0.148 SA
ENDROOT
TORSDOF 0
ENDMDL
MODEL 9
REMARK VINA RESULT:      -2.6     18.058     19.346
REMARK  0 active torsions:
REMARK  status: ('A' for Active; 'I' for Inactive)
ROOT
HETATM    1  C1  UNL     1     -33.670  16.969  -2.763  1.00 20.00     0.075 C 
HETATM    2  C2  UNL     1     -35.736  16.184  -6.751  1.00 20.00     0.084 C 
HETATM    3  C3  UNL     1     -35.586  17.642  -6.344  1.00 20.00     0.085 C 
HETATM    4  C4  UNL     1     -34.137  15.429  -4.619  1.00 20.00     0.104 C 
HETATM    5  C5  UNL     1     -33.978  16.893  -4.202  1.00 20.00     0.163 C 
HETATM    6  N6  UNL     1     -33.428  17.028  -1.629  1.00 20.00    -0.196 NA
HETATM    7  S7  UNL     1     -34.239  15.207  -6.422  1.00 20.00    -0.166 SA
HETATM    8  S8  UNL     1     -35.492  17.862  -4.542  1.00 20.00    -0.148 SA
ENDROOT
TORSDOF 0
ENDMDL
