MODEL 1
REMARK VINA RESULT:      -4.5      0.000      0.000
REMARK  2 active torsions:
REMARK  status: ('A' for Active; 'I' for Inactive)
REMARK    1  A    between atoms: C3_3  and  O11_11 
REMARK    2  A    between atoms: C8_8  and  O11_11 
ROOT
HETATM    1  C1  UNL     1     -33.855   4.307   4.837  1.00 20.00    -0.025 C 
HETATM    2  C2  UNL     1     -33.649   5.053   3.742  1.00 20.00    -0.023 C 
HETATM    3  C4  UNL     1     -35.685   5.706   4.620  1.00 20.00     0.019 C 
HETATM    4  C5  UNL     1     -34.074   6.289   6.287  1.00 20.00     0.042 C 
HETATM    5  C6  UNL     1     -34.823   5.062   5.716  1.00 20.00     0.011 C 
HETATM    6  C7  UNL     1     -34.478   6.310   3.893  1.00 20.00     0.038 C 
HETATM    7  C8  UNL     1     -33.893   7.183   5.028  1.00 20.00     0.140 C 
ENDROOT
BRANCH   7   8
HETATM    8  O11 UNL     1     -32.535   7.515   4.811  1.00 20.00    -0.316 OA
BRANCH   8   9
HETATM    9  C3  UNL     1     -32.288   8.800   4.400  1.00 20.00     0.255 C 
HETATM   10  C9  UNL     1     -32.463   8.909   2.915  1.00 20.00     0.126 C 
HETATM   11  O10 UNL     1     -31.969   9.734   5.123  1.00 20.00    -0.266 OA
ENDBRANCH   8   9
ENDBRANCH   7   8
TORSDOF 2
ENDMDL
MODEL 2
REMARK VINA RESULT:      -4.3      0.950      1.293
REMARK  2 active torsions:
REMARK  status: ('A' for Active; 'I' for Inactive)
REMARK    1  A    between atoms: C3_3  and  O11_11 
REMARK    2  A    between atoms: C8_8  and  O11_11 
ROOT
HETATM    1  C1  UNL     1     -33.828   4.415   5.263  1.00 20.00    -0.025 C 
HETATM    2  C2  UNL     1     -33.714   4.873   4.008  1.00 20.00    -0.023 C 
HETATM    3  C4  UNL     1     -35.668   5.761   4.865  1.00 20.00     0.019 C 
HETATM    4  C5  UNL     1     -33.922   6.691   6.206  1.00 20.00     0.042 C 
HETATM    5  C6  UNL     1     -34.718   5.380   6.010  1.00 20.00     0.011 C 
HETATM    6  C7  UNL     1     -34.526   6.147   3.919  1.00 20.00     0.038 C 
HETATM    7  C8  UNL     1     -33.846   7.253   4.759  1.00 20.00     0.140 C 
ENDROOT
BRANCH   7   8
HETATM    8  O11 UNL     1     -32.510   7.494   4.358  1.00 20.00    -0.316 OA
BRANCH   8   9
HETATM    9  C3  UNL     1     -32.343   7.998   3.094  1.00 20.00     0.255 C 
HETATM   10  C9  UNL     1     -32.719   9.448   3.063  1.00 20.00     0.126 C 
HETATM   11  O10 UNL     1     -31.946   7.372   2.121  1.00 20.00    -0.266 OA
ENDBRANCH   8   9
ENDBRANCH   7   8
TORSDOF 2
ENDMDL
MODEL 3
REMARK VINA RESULT:      -3.9      9.454     10.168
REMARK  2 active torsions:
REMARK  status: ('A' for Active; 'I' for Inactive)
REMARK    1  A    between atoms: C3_3  and  O11_11 
REMARK    2  A    between atoms: C8_8  and  O11_11 
ROOT
HETATM    1  C1  UNL     1     -42.831  13.218   8.106  1.00 20.00    -0.025 C 
HETATM    2  C2  UNL     1     -42.803  12.628   6.902  1.00 20.00    -0.023 C 
HETATM    3  C4  UNL     1     -42.427  14.880   6.548  1.00 20.00     0.019 C 
HETATM    4  C5  UNL     1     -40.558  14.134   7.837  1.00 20.00     0.042 C 
HETATM    5  C6  UNL     1     -42.051  14.506   7.989  1.00 20.00     0.011 C 
HETATM    6  C7  UNL     1     -42.000  13.521   5.982  1.00 20.00     0.038 C 
HETATM    7  C8  UNL     1     -40.515  13.508   6.415  1.00 20.00     0.140 C 
ENDROOT
BRANCH   7   8
HETATM    8  O11 UNL     1     -39.967  12.203   6.431  1.00 20.00    -0.316 OA
BRANCH   8   9
HETATM    9  C3  UNL     1     -38.886  11.994   5.614  1.00 20.00     0.255 C 
HETATM   10  C9  UNL     1     -39.345  11.645   4.230  1.00 20.00     0.126 C 
HETATM   11  O10 UNL     1     -37.712  12.074   5.946  1.00 20.00    -0.266 OA
ENDBRANCH   8   9
ENDBRANCH   7   8
TORSDOF 2
ENDMDL
MODEL 4
REMARK VINA RESULT:      -3.9     12.144     13.604
REMARK  2 active torsions:
REMARK  status: ('A' for Active; 'I' for Inactive)
REMARK    1  A    between atoms: C3_3  and  O11_11 
REMARK    2  A    between atoms: C8_8  and  O11_11 
ROOT
HETATM    1  C1  UNL     1     -34.834  18.806  -1.935  1.00 20.00    -0.025 C 
HETATM    2  C2  UNL     1     -34.718  18.992  -3.258  1.00 20.00    -0.023 C 
HETATM    3  C4  UNL     1     -32.571  18.852  -2.414  1.00 20.00     0.019 C 
HETATM    4  C5  UNL     1     -33.542  16.707  -2.002  1.00 20.00     0.042 C 
HETATM    5  C6  UNL     1     -33.555  18.157  -1.463  1.00 20.00     0.011 C 
HETATM    6  C7  UNL     1     -33.361  18.463  -3.669  1.00 20.00     0.038 C 
HETATM    7  C8  UNL     1     -33.342  16.922  -3.528  1.00 20.00     0.140 C 
ENDROOT
BRANCH   7   8
HETATM    8  O11 UNL     1     -34.361  16.297  -4.284  1.00 20.00    -0.316 OA
BRANCH   8   9
HETATM    9  C3  UNL     1     -34.050  15.072  -4.818  1.00 20.00     0.255 C 
HETATM   10  C9  UNL     1     -34.060  15.144  -6.314  1.00 20.00     0.126 C 
HETATM   11  O10 UNL     1     -33.798  14.058  -4.182  1.00 20.00    -0.266 OA
ENDBRANCH   8   9
ENDBRANCH   7   8
TORSDOF 2
ENDMDL
MODEL 5
REMARK VINA RESULT:      -3.7     12.391     13.579
REMARK  2 active torsions:
REMARK  status: ('A' for Active; 'I' for Inactive)
REMARK    1  A    between atoms: C3_3  and  O11_11 
REMARK    2  A    between atoms: C8_8  and  O11_11 
ROOT
HETATM    1  C1  UNL     1     -35.843  14.341  -5.321  1.00 20.00    -0.025 C 
HETATM    2  C2  UNL     1     -34.725  14.463  -4.589  1.00 20.00    -0.023 C 
HETATM    3  C4  UNL     1     -34.191  15.129  -6.737  1.00 20.00     0.019 C 
HETATM    4  C5  UNL     1     -35.808  16.717  -5.979  1.00 20.00     0.042 C 
HETATM    5  C6  UNL     1     -35.702  15.266  -6.506  1.00 20.00     0.011 C 
HETATM    6  C7  UNL     1     -33.841  15.475  -5.285  1.00 20.00     0.038 C 
HETATM    7  C8  UNL     1     -34.482  16.879  -5.185  1.00 20.00     0.140 C 
ENDROOT
BRANCH   7   8
HETATM    8  O11 UNL     1     -34.717  17.273  -3.846  1.00 20.00    -0.316 OA
BRANCH   8   9
HETATM    9  C3  UNL     1     -33.627  17.737  -3.155  1.00 20.00     0.255 C 
HETATM   10  C9  UNL     1     -33.471  16.981  -1.870  1.00 20.00     0.126 C 
HETATM   11  O10 UNL     1     -32.880  18.635  -3.517  1.00 20.00    -0.266 OA
ENDBRANCH   8   9
ENDBRANCH   7   8
TORSDOF 2
ENDMDL
MODEL 6
REMARK VINA RESULT:      -3.7     10.134     10.949
REMARK  2 active torsions:
REMARK  status: ('A' for Active; 'I' for Inactive)
REMARK    1  A    between atoms: C3_3  and  O11_11 
REMARK    2  A    between atoms: C8_8  and  O11_11 
ROOT
HETATM    1  C1  UNL     1     -41.650  16.256   7.278  1.00 20.00    -0.025 C 
HETATM    2  C2  UNL     1     -40.468  15.703   7.590  1.00 20.00    -0.023 C 
HETATM    3  C4  UNL     1     -42.071  14.595   8.833  1.00 20.00     0.019 C 
HETATM    4  C5  UNL     1     -42.597  14.098   6.555  1.00 20.00     0.042 C 
HETATM    5  C6  UNL     1     -42.716  15.235   7.596  1.00 20.00     0.011 C 
HETATM    6  C7  UNL     1     -40.748  14.311   8.113  1.00 20.00     0.038 C 
HETATM    7  C8  UNL     1     -41.259  13.418   6.958  1.00 20.00     0.140 C 
ENDROOT
BRANCH   7   8
HETATM    8  O11 UNL     1     -40.351  13.361   5.875  1.00 20.00    -0.316 OA
BRANCH   8   9
HETATM    9  C3  UNL     1     -39.490  12.294   5.866  1.00 20.00     0.255 C 
HETATM   10  C9  UNL     1     -39.219  11.861   4.457  1.00 20.00     0.126 C 
HETATM   11  O10 UNL     1     -39.003  11.759   6.853  1.00 20.00    -0.266 OA
ENDBRANCH   8   9
ENDBRANCH   7   8
TORSDOF 2
ENDMDL
MODEL 7
REMARK VINA RESULT:      -3.6     12.653     13.609
REMARK  2 active torsions:
REMARK  status: ('A' for Active; 'I' for Inactive)
REMARK    1  A    between atoms: C3_3  and  O11_11 
REMARK    2  A    between atoms: C8_8  and  O11_11 
ROOT
HETATM    1  C1  UNL     1     -34.094  15.824  -6.826  1.00 20.00    -0.025 C 
HETATM    2  C2  UNL     1     -34.624  16.984  -6.410  1.00 20.00    -0.023 C 
HETATM    3  C4  UNL     1     -35.721  15.302  -5.265  1.00 20.00     0.019 C 
HETATM    4  C5  UNL     1     -33.448  15.169  -4.539  1.00 20.00     0.042 C 
HETATM    5  C6  UNL     1     -34.349  14.804  -5.742  1.00 20.00     0.011 C 
HETATM    6  C7  UNL     1     -35.230  16.738  -5.045  1.00 20.00     0.038 C 
HETATM    7  C8  UNL     1     -34.102  16.479  -4.018  1.00 20.00     0.140 C 
ENDROOT
BRANCH   7   8
HETATM    8  O11 UNL     1     -33.171  17.543  -3.956  1.00 20.00    -0.316 OA
BRANCH   8   9
HETATM    9  C3  UNL     1     -32.951  18.078  -2.713  1.00 20.00     0.255 C 
HETATM   10  C9  UNL     1     -33.605  17.232  -1.663  1.00 20.00     0.126 C 
HETATM   11  O10 UNL     1     -32.317  19.097  -2.475  1.00 20.00    -0.266 OA
ENDBRANCH   8   9
ENDBRANCH   7   8
TORSDOF 2
ENDMDL
MODEL 8
REMARK VINA RESULT:      -3.5     10.584     11.400
REMARK  2 active torsions:
REMARK  status: ('A' for Active; 'I' for Inactive)
REMARK    1  A    between atoms: C3_3  and  O11_11 
REMARK    2  A    between atoms: C8_8  and  O11_11 
ROOT
HETATM    1  C1  UNL     1     -40.145  15.297  10.089  1.00 20.00    -0.025 C 
HETATM    2  C2  UNL     1     -40.878  14.173  10.086  1.00 20.00    -0.023 C 
HETATM    3  C4  UNL     1     -42.207  15.838   9.191  1.00 20.00     0.019 C 
HETATM    4  C5  UNL     1     -40.392  15.600   7.655  1.00 20.00     0.042 C 
HETATM    5  C6  UNL     1     -40.726  16.210   9.036  1.00 20.00     0.011 C 
HETATM    6  C7  UNL     1     -41.946  14.337   9.027  1.00 20.00     0.038 C 
HETATM    7  C8  UNL     1     -41.290  14.332   7.626  1.00 20.00     0.140 C 
ENDROOT
BRANCH   7   8
HETATM    8  O11 UNL     1     -40.536  13.159   7.384  1.00 20.00    -0.316 OA
BRANCH   8   9
HETATM    9  C3  UNL     1     -40.306  12.852   6.068  1.00 20.00     0.255 C 
HETATM   10  C9  UNL     1     -39.136  11.923   5.952  1.00 20.00     0.126 C 
HETATM   11  O10 UNL     1     -40.950  13.266   5.113  1.00 20.00    -0.266 OA
ENDBRANCH   8   9
ENDBRANCH   7   8
TORSDOF 2
ENDMDL
MODEL 9
REMARK VINA RESULT:      -3.5      1.784      4.181
REMARK  2 active torsions:
REMARK  status: ('A' for Active; 'I' for Inactive)
REMARK    1  A    between atoms: C3_3  and  O11_11 
REMARK    2  A    between atoms: C8_8  and  O11_11 
ROOT
HETATM    1  C1  UNL     1     -32.657   8.526   2.388  1.00 20.00    -0.025 C 
HETATM    2  C2  UNL     1     -32.245   7.299   2.739  1.00 20.00    -0.023 C 
HETATM    3  C4  UNL     1     -31.782   8.692   4.524  1.00 20.00     0.019 C 
HETATM    4  C5  UNL     1     -34.164   8.699   4.332  1.00 20.00     0.042 C 
HETATM    5  C6  UNL     1     -32.903   9.295   3.664  1.00 20.00     0.011 C 
HETATM    6  C7  UNL     1     -32.220   7.249   4.251  1.00 20.00     0.038 C 
HETATM    7  C8  UNL     1     -33.667   7.302   4.795  1.00 20.00     0.140 C 
ENDROOT
BRANCH   7   8
HETATM    8  O11 UNL     1     -34.476   6.260   4.285  1.00 20.00    -0.316 OA
BRANCH   8   9
HETATM    9  C3  UNL     1     -34.415   5.066   4.956  1.00 20.00     0.255 C 
HETATM   10  C9  UNL     1     -34.617   5.288   6.424  1.00 20.00     0.126 C 
HETATM   11  O10 UNL     1     -34.224   3.969   4.449  1.00 20.00    -0.266 OA
ENDBRANCH   8   9
ENDBRANCH   7   8
TORSDOF 2
ENDMDL
