MODEL 1
REMARK VINA RESULT:      -4.4      0.000      0.000
REMARK  1 active torsions:
REMARK  status: ('A' for Active; 'I' for Inactive)
REMARK    1  A    between atoms: C4_4  and  C5_5 
ROOT
HETATM    1  C1  UNL     1     -34.817   5.420   6.269  1.00 20.00     0.029 C 
HETATM    2  C2  UNL     1     -33.967   6.658   6.404  1.00 20.00     0.035 C 
HETATM    3  C3  UNL     1     -34.434   4.925   4.891  1.00 20.00     0.168 C 
HETATM    4  C4  UNL     1     -34.021   7.217   4.993  1.00 20.00     0.131 C 
HETATM    5  O6  UNL     1     -34.083   6.080   4.114  1.00 20.00    -0.385 OA
ENDROOT
BRANCH   4   6
HETATM    6  C5  UNL     1     -32.824   8.078   4.637  1.00 20.00     0.117 C 
HETATM    7 BR7  UNL     1     -32.107   7.527   2.918  1.00 20.00    -0.094 Br
ENDBRANCH   4   6
TORSDOF 1
ENDMDL
MODEL 2
REMARK VINA RESULT:      -3.9      1.216      1.681
REMARK  1 active torsions:
REMARK  status: ('A' for Active; 'I' for Inactive)
REMARK    1  A    between atoms: C4_4  and  C5_5 
ROOT
HETATM    1  C1  UNL     1     -34.531   6.537   6.409  1.00 20.00     0.029 C 
HETATM    2  C2  UNL     1     -33.788   6.921   5.155  1.00 20.00     0.035 C 
HETATM    3  C3  UNL     1     -34.462   5.026   6.364  1.00 20.00     0.168 C 
HETATM    4  C4  UNL     1     -34.242   5.839   4.191  1.00 20.00     0.131 C 
HETATM    5  O6  UNL     1     -34.420   4.650   4.980  1.00 20.00    -0.385 OA
ENDROOT
BRANCH   4   6
HETATM    6  C5  UNL     1     -33.254   5.571   3.072  1.00 20.00     0.117 C 
HETATM    7 BR7  UNL     1     -32.184   7.159   2.747  1.00 20.00    -0.094 Br
ENDBRANCH   4   6
TORSDOF 1
ENDMDL
MODEL 3
REMARK VINA RESULT:      -3.8      2.353      3.562
REMARK  1 active torsions:
REMARK  status: ('A' for Active; 'I' for Inactive)
REMARK    1  A    between atoms: C4_4  and  C5_5 
ROOT
HETATM    1  C1  UNL     1     -32.177   7.402   2.877  1.00 20.00     0.029 C 
HETATM    2  C2  UNL     1     -32.743   6.008   2.972  1.00 20.00     0.035 C 
HETATM    3  C3  UNL     1     -32.481   7.958   4.251  1.00 20.00     0.168 C 
HETATM    4  C4  UNL     1     -33.996   6.247   3.797  1.00 20.00     0.131 C 
HETATM    5  O6  UNL     1     -33.677   7.312   4.709  1.00 20.00    -0.385 OA
ENDROOT
BRANCH   4   6
HETATM    6  C5  UNL     1     -34.453   5.025   4.572  1.00 20.00     0.117 C 
HETATM    7 BR7  UNL     1     -34.565   5.451   6.463  1.00 20.00    -0.094 Br
ENDBRANCH   4   6
TORSDOF 1
ENDMDL
MODEL 4
REMARK VINA RESULT:      -3.7      2.398      3.412
REMARK  1 active torsions:
REMARK  status: ('A' for Active; 'I' for Inactive)
REMARK    1  A    between atoms: C4_4  and  C5_5 
ROOT
HETATM    1  C1  UNL     1     -32.438   7.149   2.915  1.00 20.00     0.029 C 
HETATM    2  C2  UNL     1     -33.340   6.453   3.902  1.00 20.00     0.035 C 
HETATM    3  C3  UNL     1     -31.659   8.089   3.810  1.00 20.00     0.168 C 
HETATM    4  C4  UNL     1     -33.685   7.589   4.850  1.00 20.00     0.131 C 
HETATM    5  O6  UNL     1     -32.518   8.428   4.909  1.00 20.00    -0.385 OA
ENDROOT
BRANCH   4   6
HETATM    6  C5  UNL     1     -34.054   7.122   6.245  1.00 20.00     0.117 C 
HETATM    7 BR7  UNL     1     -34.624   5.266   6.187  1.00 20.00    -0.094 Br
ENDBRANCH   4   6
TORSDOF 1
ENDMDL
MODEL 5
REMARK VINA RESULT:      -3.5      1.247      1.625
REMARK  1 active torsions:
REMARK  status: ('A' for Active; 'I' for Inactive)
REMARK    1  A    between atoms: C4_4  and  C5_5 
ROOT
HETATM    1  C1  UNL     1     -34.591   4.931   5.131  1.00 20.00     0.029 C 
HETATM    2  C2  UNL     1     -34.164   6.106   4.288  1.00 20.00     0.035 C 
HETATM    3  C3  UNL     1     -34.857   5.586   6.469  1.00 20.00     0.168 C 
HETATM    4  C4  UNL     1     -33.351   6.913   5.285  1.00 20.00     0.131 C 
HETATM    5  O6  UNL     1     -33.976   6.716   6.565  1.00 20.00    -0.385 OA
ENDROOT
BRANCH   4   6
HETATM    6  C5  UNL     1     -33.296   8.395   4.963  1.00 20.00     0.117 C 
HETATM    7 BR7  UNL     1     -32.444   8.659   3.237  1.00 20.00    -0.094 Br
ENDBRANCH   4   6
TORSDOF 1
ENDMDL
MODEL 6
REMARK VINA RESULT:      -3.5      2.327      3.458
REMARK  1 active torsions:
REMARK  status: ('A' for Active; 'I' for Inactive)
REMARK    1  A    between atoms: C4_4  and  C5_5 
ROOT
HETATM    1  C1  UNL     1     -32.351   8.764   3.866  1.00 20.00     0.029 C 
HETATM    2  C2  UNL     1     -33.455   8.077   4.630  1.00 20.00     0.035 C 
HETATM    3  C3  UNL     1     -32.249   7.906   2.623  1.00 20.00     0.168 C 
HETATM    4  C4  UNL     1     -33.161   6.616   4.337  1.00 20.00     0.131 C 
HETATM    5  O6  UNL     1     -32.630   6.575   3.001  1.00 20.00    -0.385 OA
ENDROOT
BRANCH   4   6
HETATM    6  C5  UNL     1     -34.383   5.723   4.433  1.00 20.00     0.117 C 
HETATM    7 BR7  UNL     1     -34.764   5.328   6.296  1.00 20.00    -0.094 Br
ENDBRANCH   4   6
TORSDOF 1
ENDMDL
MODEL 7
REMARK VINA RESULT:      -3.4      1.578      2.600
REMARK  1 active torsions:
REMARK  status: ('A' for Active; 'I' for Inactive)
REMARK    1  A    between atoms: C4_4  and  C5_5 
ROOT
HETATM    1  C1  UNL     1     -33.895   8.064   5.578  1.00 20.00     0.029 C 
HETATM    2  C2  UNL     1     -33.611   7.156   4.409  1.00 20.00     0.035 C 
HETATM    3  C3  UNL     1     -34.127   7.072   6.697  1.00 20.00     0.168 C 
HETATM    4  C4  UNL     1     -34.581   6.016   4.669  1.00 20.00     0.131 C 
HETATM    5  O6  UNL     1     -34.670   5.886   6.099  1.00 20.00    -0.385 OA
ENDROOT
BRANCH   4   6
HETATM    6  C5  UNL     1     -34.143   4.698   4.058  1.00 20.00     0.117 C 
HETATM    7 BR7  UNL     1     -32.921   5.031   2.586  1.00 20.00    -0.094 Br
ENDBRANCH   4   6
TORSDOF 1
ENDMDL
MODEL 8
REMARK VINA RESULT:      -3.3      2.251      3.213
REMARK  1 active torsions:
REMARK  status: ('A' for Active; 'I' for Inactive)
REMARK    1  A    between atoms: C4_4  and  C5_5 
ROOT
HETATM    1  C1  UNL     1     -32.913   5.179   2.520  1.00 20.00     0.029 C 
HETATM    2  C2  UNL     1     -33.642   4.539   3.674  1.00 20.00     0.035 C 
HETATM    3  C3  UNL     1     -32.582   6.547   3.076  1.00 20.00     0.168 C 
HETATM    4  C4  UNL     1     -34.436   5.715   4.218  1.00 20.00     0.131 C 
HETATM    5  O6  UNL     1     -33.619   6.879   4.012  1.00 20.00    -0.385 OA
ENDROOT
BRANCH   4   6
HETATM    6  C5  UNL     1     -34.783   5.582   5.689  1.00 20.00     0.117 C 
HETATM    7 BR7  UNL     1     -34.050   7.087   6.674  1.00 20.00    -0.094 Br
ENDBRANCH   4   6
TORSDOF 1
ENDMDL
MODEL 9
REMARK VINA RESULT:      -3.2     12.889     13.324
REMARK  1 active torsions:
REMARK  status: ('A' for Active; 'I' for Inactive)
REMARK    1  A    between atoms: C4_4  and  C5_5 
ROOT
HETATM    1  C1  UNL     1     -31.845  18.597   1.659  1.00 20.00     0.029 C 
HETATM    2  C2  UNL     1     -32.876  18.485   0.564  1.00 20.00     0.035 C 
HETATM    3  C3  UNL     1     -30.693  19.263   0.938  1.00 20.00     0.168 C 
HETATM    4  C4  UNL     1     -32.007  18.155  -0.637  1.00 20.00     0.131 C 
HETATM    5  O6  UNL     1     -30.765  18.851  -0.436  1.00 20.00    -0.385 OA
ENDROOT
BRANCH   4   6
HETATM    6  C5  UNL     1     -32.621  18.569  -1.960  1.00 20.00     0.117 C 
HETATM    7 BR7  UNL     1     -33.408  17.022  -2.832  1.00 20.00    -0.094 Br
ENDBRANCH   4   6
TORSDOF 1
ENDMDL
