MODEL 1
REMARK VINA RESULT:      -3.7      0.000      0.000
REMARK  2 active torsions:
REMARK  status: ('A' for Active; 'I' for Inactive)
REMARK    1  A    between atoms: C3_3  and  C5_5 
REMARK    2  A    between atoms: C5_5  and  C6_6 
ROOT
HETATM    1  C1  UNL     1     -34.584   6.186   6.639  1.00 20.00     0.179 C 
HETATM    2  C2  UNL     1     -34.408   5.023   5.679  1.00 20.00     0.103 C 
HETATM    3  C3  UNL     1     -33.852   7.418   4.820  1.00 20.00     0.182 C 
HETATM    4  O7  UNL     1     -33.693   7.231   6.233  1.00 20.00    -0.375 OA
HETATM    5  S8  UNL     1     -34.338   5.838   4.075  1.00 20.00    -0.135 SA
ENDROOT
BRANCH   3   6
HETATM    6  C5  UNL     1     -32.542   7.921   4.242  1.00 20.00     0.042 C 
BRANCH   6   7
HETATM    7  C6  UNL     1     -32.166   7.170   2.965  1.00 20.00    -0.001 C 
HETATM    8  C4  UNL     1     -32.170   8.089   1.755  1.00 20.00     0.005 C 
ENDBRANCH   6   7
ENDBRANCH   3   6
TORSDOF 2
ENDMDL
MODEL 2
REMARK VINA RESULT:      -3.5     12.292     12.880
REMARK  2 active torsions:
REMARK  status: ('A' for Active; 'I' for Inactive)
REMARK    1  A    between atoms: C3_3  and  C5_5 
REMARK    2  A    between atoms: C5_5  and  C6_6 
ROOT
HETATM    1  C1  UNL     1     -30.642  19.168   1.022  1.00 20.00     0.179 C 
HETATM    2  C2  UNL     1     -31.760  18.388   1.689  1.00 20.00     0.103 C 
HETATM    3  C3  UNL     1     -32.150  19.263  -0.733  1.00 20.00     0.182 C 
HETATM    4  O7  UNL     1     -30.779  19.011  -0.395  1.00 20.00    -0.375 OA
HETATM    5  S8  UNL     1     -33.192  18.799   0.677  1.00 20.00    -0.135 SA
ENDROOT
BRANCH   3   6
HETATM    6  C5  UNL     1     -32.505  18.459  -1.970  1.00 20.00     0.042 C 
BRANCH   6   7
HETATM    7  C6  UNL     1     -33.446  17.301  -1.636  1.00 20.00    -0.001 C 
HETATM    8  C4  UNL     1     -33.472  16.264  -2.747  1.00 20.00     0.005 C 
ENDBRANCH   6   7
ENDBRANCH   3   6
TORSDOF 2
ENDMDL
MODEL 3
REMARK VINA RESULT:      -3.4      1.469      3.747
REMARK  2 active torsions:
REMARK  status: ('A' for Active; 'I' for Inactive)
REMARK    1  A    between atoms: C3_3  and  C5_5 
REMARK    2  A    between atoms: C5_5  and  C6_6 
ROOT
HETATM    1  C1  UNL     1     -32.471   9.043   4.678  1.00 20.00     0.179 C 
HETATM    2  C2  UNL     1     -32.289   8.832   3.186  1.00 20.00     0.103 C 
HETATM    3  C3  UNL     1     -33.402   6.926   4.566  1.00 20.00     0.182 C 
HETATM    4  O7  UNL     1     -33.581   8.244   5.103  1.00 20.00    -0.375 OA
HETATM    5  S8  UNL     1     -32.484   7.051   3.008  1.00 20.00    -0.135 SA
ENDROOT
BRANCH   3   6
HETATM    6  C5  UNL     1     -34.766   6.294   4.355  1.00 20.00     0.042 C 
BRANCH   6   7
HETATM    7  C6  UNL     1     -34.925   5.014   5.175  1.00 20.00    -0.001 C 
HETATM    8  C4  UNL     1     -34.445   5.202   6.604  1.00 20.00     0.005 C 
ENDBRANCH   6   7
ENDBRANCH   3   6
TORSDOF 2
ENDMDL
MODEL 4
REMARK VINA RESULT:      -3.4      9.564     10.183
REMARK  2 active torsions:
REMARK  status: ('A' for Active; 'I' for Inactive)
REMARK    1  A    between atoms: C3_3  and  C5_5 
REMARK    2  A    between atoms: C5_5  and  C6_6 
ROOT
HETATM    1  C1  UNL     1     -40.388  14.563   8.937  1.00 20.00     0.179 C 
HETATM    2  C2  UNL     1     -41.785  15.030   8.573  1.00 20.00     0.103 C 
HETATM    3  C3  UNL     1     -40.390  13.798   6.752  1.00 20.00     0.182 C 
HETATM    4  O7  UNL     1     -40.065  13.445   8.103  1.00 20.00    -0.375 OA
HETATM    5  S8  UNL     1     -41.766  14.978   6.773  1.00 20.00    -0.135 SA
ENDROOT
BRANCH   3   6
HETATM    6  C5  UNL     1     -40.755  12.537   5.991  1.00 20.00     0.042 C 
BRANCH   6   7
HETATM    7  C6  UNL     1     -39.525  11.670   5.717  1.00 20.00    -0.001 C 
HETATM    8  C4  UNL     1     -39.140  11.696   4.247  1.00 20.00     0.005 C 
ENDBRANCH   6   7
ENDBRANCH   3   6
TORSDOF 2
ENDMDL
MODEL 5
REMARK VINA RESULT:      -3.3      1.733      3.773
REMARK  2 active torsions:
REMARK  status: ('A' for Active; 'I' for Inactive)
REMARK    1  A    between atoms: C3_3  and  C5_5 
REMARK    2  A    between atoms: C5_5  and  C6_6 
ROOT
HETATM    1  C1  UNL     1     -32.476   7.016   2.935  1.00 20.00     0.179 C 
HETATM    2  C2  UNL     1     -31.527   8.015   3.573  1.00 20.00     0.103 C 
HETATM    3  C3  UNL     1     -33.726   7.431   4.840  1.00 20.00     0.182 C 
HETATM    4  O7  UNL     1     -33.229   6.393   3.983  1.00 20.00    -0.375 OA
HETATM    5  S8  UNL     1     -32.567   8.824   4.800  1.00 20.00    -0.135 SA
ENDROOT
BRANCH   3   6
HETATM    6  C5  UNL     1     -33.874   6.875   6.245  1.00 20.00     0.042 C 
BRANCH   6   7
HETATM    7  C6  UNL     1     -34.530   5.495   6.237  1.00 20.00    -0.001 C 
HETATM    8  C4  UNL     1     -35.395   5.294   5.003  1.00 20.00     0.005 C 
ENDBRANCH   6   7
ENDBRANCH   3   6
TORSDOF 2
ENDMDL
MODEL 6
REMARK VINA RESULT:      -3.2     12.558     13.746
REMARK  2 active torsions:
REMARK  status: ('A' for Active; 'I' for Inactive)
REMARK    1  A    between atoms: C3_3  and  C5_5 
REMARK    2  A    between atoms: C5_5  and  C6_6 
ROOT
HETATM    1  C1  UNL     1     -34.371  15.559  -7.317  1.00 20.00     0.179 C 
HETATM    2  C2  UNL     1     -34.728  16.984  -6.934  1.00 20.00     0.103 C 
HETATM    3  C3  UNL     1     -34.523  15.219  -5.031  1.00 20.00     0.182 C 
HETATM    4  O7  UNL     1     -33.725  14.950  -6.193  1.00 20.00    -0.375 OA
HETATM    5  S8  UNL     1     -35.382  16.798  -5.267  1.00 20.00    -0.135 SA
ENDROOT
BRANCH   3   6
HETATM    6  C5  UNL     1     -33.617  15.259  -3.814  1.00 20.00     0.042 C 
BRANCH   6   7
HETATM    7  C6  UNL     1     -33.277  16.695  -3.414  1.00 20.00    -0.001 C 
HETATM    8  C4  UNL     1     -33.472  16.921  -1.924  1.00 20.00     0.005 C 
ENDBRANCH   6   7
ENDBRANCH   3   6
TORSDOF 2
ENDMDL
MODEL 7
REMARK VINA RESULT:      -3.2      1.747      2.040
REMARK  2 active torsions:
REMARK  status: ('A' for Active; 'I' for Inactive)
REMARK    1  A    between atoms: C3_3  and  C5_5 
REMARK    2  A    between atoms: C5_5  and  C6_6 
ROOT
HETATM    1  C1  UNL     1     -33.959   5.231   4.082  1.00 20.00     0.179 C 
HETATM    2  C2  UNL     1     -34.843   6.065   4.991  1.00 20.00     0.103 C 
HETATM    3  C3  UNL     1     -32.701   7.173   4.009  1.00 20.00     0.182 C 
HETATM    4  O7  UNL     1     -33.259   6.123   3.207  1.00 20.00    -0.375 OA
HETATM    5  S8  UNL     1     -33.763   7.428   5.457  1.00 20.00    -0.135 SA
ENDROOT
BRANCH   3   6
HETATM    6  C5  UNL     1     -32.604   8.432   3.167  1.00 20.00     0.042 C 
BRANCH   6   7
HETATM    7  C6  UNL     1     -32.213   8.115   1.724  1.00 20.00    -0.001 C 
HETATM    8  C4  UNL     1     -32.669   9.204   0.768  1.00 20.00     0.005 C 
ENDBRANCH   6   7
ENDBRANCH   3   6
TORSDOF 2
ENDMDL
MODEL 8
REMARK VINA RESULT:      -3.1     12.297     13.102
REMARK  2 active torsions:
REMARK  status: ('A' for Active; 'I' for Inactive)
REMARK    1  A    between atoms: C3_3  and  C5_5 
REMARK    2  A    between atoms: C5_5  and  C6_6 
ROOT
HETATM    1  C1  UNL     1     -34.778  16.837  -5.513  1.00 20.00     0.179 C 
HETATM    2  C2  UNL     1     -34.844  15.326  -5.392  1.00 20.00     0.103 C 
HETATM    3  C3  UNL     1     -33.396  16.631  -3.666  1.00 20.00     0.182 C 
HETATM    4  O7  UNL     1     -34.496  17.371  -4.214  1.00 20.00    -0.375 OA
HETATM    5  S8  UNL     1     -33.435  14.947  -4.338  1.00 20.00    -0.135 SA
ENDROOT
BRANCH   3   6
HETATM    6  C5  UNL     1     -33.516  16.624  -2.153  1.00 20.00     0.042 C 
BRANCH   6   7
HETATM    7  C6  UNL     1     -32.841  17.847  -1.531  1.00 20.00    -0.001 C 
HETATM    8  C4  UNL     1     -33.409  18.160  -0.157  1.00 20.00     0.005 C 
ENDBRANCH   6   7
ENDBRANCH   3   6
TORSDOF 2
ENDMDL
MODEL 9
REMARK VINA RESULT:      -3.1      1.771      3.974
REMARK  2 active torsions:
REMARK  status: ('A' for Active; 'I' for Inactive)
REMARK    1  A    between atoms: C3_3  and  C5_5 
REMARK    2  A    between atoms: C5_5  and  C6_6 
ROOT
HETATM    1  C1  UNL     1     -31.927   7.864   3.014  1.00 20.00     0.179 C 
HETATM    2  C2  UNL     1     -32.092   8.381   4.431  1.00 20.00     0.103 C 
HETATM    3  C3  UNL     1     -33.768   6.578   3.582  1.00 20.00     0.182 C 
HETATM    4  O7  UNL     1     -32.475   6.541   2.961  1.00 20.00    -0.375 OA
HETATM    5  S8  UNL     1     -33.769   7.876   4.848  1.00 20.00    -0.135 SA
ENDROOT
BRANCH   3   6
HETATM    6  C5  UNL     1     -34.059   5.217   4.186  1.00 20.00     0.042 C 
BRANCH   6   7
HETATM    7  C6  UNL     1     -35.115   5.306   5.288  1.00 20.00    -0.001 C 
HETATM    8  C4  UNL     1     -34.492   5.189   6.669  1.00 20.00     0.005 C 
ENDBRANCH   6   7
ENDBRANCH   3   6
TORSDOF 2
ENDMDL
