MODEL 1
REMARK VINA RESULT:      -3.5      0.000      0.000
REMARK  0 active torsions:
REMARK  status: ('A' for Active; 'I' for Inactive)
ROOT
HETATM    1  C1  UNL     1     -24.052  17.262  10.885  1.00 20.00     0.056 A 
HETATM    2  C2  UNL     1     -24.724  18.451  10.698  1.00 20.00     0.077 A 
HETATM    3  C3  UNL     1     -22.983  17.969   9.105  1.00 20.00     0.072 A 
HETATM    4  C4  UNL     1     -24.296  16.270  11.955  1.00 20.00     0.072 C 
HETATM    5  C5  UNL     1     -22.029  18.024   7.976  1.00 20.00     0.079 C 
HETATM    6  N6  UNL     1     -23.053  16.983   9.972  1.00 20.00    -0.249 NA
HETATM    7  S7  UNL     1     -24.087  19.262   9.328  1.00 20.00    -0.066 SA
HETATM    8 BR8  UNL     1     -26.137  19.124  11.766  1.00 20.00    -0.041 Br
ENDROOT
TORSDOF 0
ENDMDL
MODEL 2
REMARK VINA RESULT:      -3.4     15.298     15.809
REMARK  0 active torsions:
REMARK  status: ('A' for Active; 'I' for Inactive)
ROOT
HETATM    1  C1  UNL     1     -32.870   7.917   4.770  1.00 20.00     0.056 A 
HETATM    2  C2  UNL     1     -32.936   7.191   3.598  1.00 20.00     0.077 A 
HETATM    3  C3  UNL     1     -34.053   6.219   5.499  1.00 20.00     0.072 A 
HETATM    4  C4  UNL     1     -32.190   9.215   4.965  1.00 20.00     0.072 C 
HETATM    5  C5  UNL     1     -34.823   5.336   6.400  1.00 20.00     0.079 C 
HETATM    6  N6  UNL     1     -33.511   7.361   5.861  1.00 20.00    -0.249 NA
HETATM    7  S7  UNL     1     -33.831   5.753   3.863  1.00 20.00    -0.066 SA
HETATM    8 BR8  UNL     1     -32.169   7.670   1.934  1.00 20.00    -0.041 Br
ENDROOT
TORSDOF 0
ENDMDL
MODEL 3
REMARK VINA RESULT:      -3.2     15.726     15.913
REMARK  0 active torsions:
REMARK  status: ('A' for Active; 'I' for Inactive)
ROOT
HETATM    1  C1  UNL     1     -33.483   5.854   3.899  1.00 20.00     0.056 A 
HETATM    2  C2  UNL     1     -33.500   6.905   4.792  1.00 20.00     0.077 A 
HETATM    3  C3  UNL     1     -32.511   7.368   2.645  1.00 20.00     0.072 A 
HETATM    4  C4  UNL     1     -34.006   4.491   4.133  1.00 20.00     0.072 C 
HETATM    5  C5  UNL     1     -31.854   8.014   1.488  1.00 20.00     0.079 C 
HETATM    6  N6  UNL     1     -32.916   6.118   2.667  1.00 20.00    -0.249 NA
HETATM    7  S7  UNL     1     -32.779   8.283   4.071  1.00 20.00    -0.066 SA
HETATM    8 BR8  UNL     1     -34.199   6.875   6.552  1.00 20.00    -0.041 Br
ENDROOT
TORSDOF 0
ENDMDL
MODEL 4
REMARK VINA RESULT:      -3.2     15.318     15.622
REMARK  0 active torsions:
REMARK  status: ('A' for Active; 'I' for Inactive)
ROOT
HETATM    1  C1  UNL     1     -33.037   6.440   3.633  1.00 20.00     0.056 A 
HETATM    2  C2  UNL     1     -33.889   6.381   4.716  1.00 20.00     0.077 A 
HETATM    3  C3  UNL     1     -32.511   8.352   4.569  1.00 20.00     0.072 A 
HETATM    4  C4  UNL     1     -32.892   5.422   2.570  1.00 20.00     0.072 C 
HETATM    5  C5  UNL     1     -31.859   9.657   4.815  1.00 20.00     0.079 C 
HETATM    6  N6  UNL     1     -32.247   7.570   3.546  1.00 20.00    -0.249 NA
HETATM    7  S7  UNL     1     -33.699   7.792   5.672  1.00 20.00    -0.066 SA
HETATM    8 BR8  UNL     1     -35.096   4.980   5.123  1.00 20.00    -0.041 Br
ENDROOT
TORSDOF 0
ENDMDL
MODEL 5
REMARK VINA RESULT:      -3.2     16.520     16.933
REMARK  0 active torsions:
REMARK  status: ('A' for Active; 'I' for Inactive)
ROOT
HETATM    1  C1  UNL     1     -33.620  16.381  -3.486  1.00 20.00     0.056 A 
HETATM    2  C2  UNL     1     -34.285  17.440  -4.069  1.00 20.00     0.077 A 
HETATM    3  C3  UNL     1     -33.865  17.637  -1.704  1.00 20.00     0.072 A 
HETATM    4  C4  UNL     1     -33.149  15.155  -4.166  1.00 20.00     0.072 C 
HETATM    5  C5  UNL     1     -33.795  18.107  -0.304  1.00 20.00     0.079 C 
HETATM    6  N6  UNL     1     -33.378  16.493  -2.130  1.00 20.00    -0.249 NA
HETATM    7  S7  UNL     1     -34.627  18.627  -2.880  1.00 20.00    -0.066 SA
HETATM    8 BR8  UNL     1     -34.766  17.598  -5.893  1.00 20.00    -0.041 Br
ENDROOT
TORSDOF 0
ENDMDL
MODEL 6
REMARK VINA RESULT:      -3.1     16.108     16.612
REMARK  0 active torsions:
REMARK  status: ('A' for Active; 'I' for Inactive)
ROOT
HETATM    1  C1  UNL     1     -33.331   5.747   3.419  1.00 20.00     0.056 A 
HETATM    2  C2  UNL     1     -33.015   7.066   3.668  1.00 20.00     0.077 A 
HETATM    3  C3  UNL     1     -34.249   5.936   5.402  1.00 20.00     0.072 A 
HETATM    4  C4  UNL     1     -32.987   4.973   2.206  1.00 20.00     0.072 C 
HETATM    5  C5  UNL     1     -34.976   5.598   6.644  1.00 20.00     0.079 C 
HETATM    6  N6  UNL     1     -34.038   5.097   4.412  1.00 20.00    -0.249 NA
HETATM    7  S7  UNL     1     -33.626   7.522   5.205  1.00 20.00    -0.066 SA
HETATM    8 BR8  UNL     1     -32.060   8.231   2.521  1.00 20.00    -0.041 Br
ENDROOT
TORSDOF 0
ENDMDL
MODEL 7
REMARK VINA RESULT:      -3.1     15.484     15.668
REMARK  0 active torsions:
REMARK  status: ('A' for Active; 'I' for Inactive)
ROOT
HETATM    1  C1  UNL     1     -33.394   7.689   4.683  1.00 20.00     0.056 A 
HETATM    2  C2  UNL     1     -33.676   6.364   4.426  1.00 20.00     0.077 A 
HETATM    3  C3  UNL     1     -32.523   7.551   2.675  1.00 20.00     0.072 A 
HETATM    4  C4  UNL     1     -33.729   8.438   5.914  1.00 20.00     0.072 C 
HETATM    5  C5  UNL     1     -31.838   7.925   1.419  1.00 20.00     0.079 C 
HETATM    6  N6  UNL     1     -32.732   8.372   3.680  1.00 20.00    -0.249 NA
HETATM    7  S7  UNL     1     -33.094   5.945   2.868  1.00 20.00    -0.066 SA
HETATM    8 BR8  UNL     1     -34.565   5.157   5.584  1.00 20.00    -0.041 Br
ENDROOT
TORSDOF 0
ENDMDL
MODEL 8
REMARK VINA RESULT:      -3.1     17.348     17.728
REMARK  0 active torsions:
REMARK  status: ('A' for Active; 'I' for Inactive)
ROOT
HETATM    1  C1  UNL     1     -40.564  14.147   7.769  1.00 20.00     0.056 A 
HETATM    2  C2  UNL     1     -41.437  14.657   6.831  1.00 20.00     0.077 A 
HETATM    3  C3  UNL     1     -40.234  12.674   6.178  1.00 20.00     0.072 A 
HETATM    4  C4  UNL     1     -40.301  14.695   9.117  1.00 20.00     0.072 C 
HETATM    5  C5  UNL     1     -39.706  11.506   5.441  1.00 20.00     0.079 C 
HETATM    6  N6  UNL     1     -39.873  13.010   7.396  1.00 20.00    -0.249 NA
HETATM    7  S7  UNL     1     -41.399  13.681   5.421  1.00 20.00    -0.066 SA
HETATM    8 BR8  UNL     1     -42.528  16.193   7.027  1.00 20.00    -0.041 Br
ENDROOT
TORSDOF 0
ENDMDL
MODEL 9
REMARK VINA RESULT:      -3.1     17.363     17.915
REMARK  0 active torsions:
REMARK  status: ('A' for Active; 'I' for Inactive)
ROOT
HETATM    1  C1  UNL     1     -40.619  13.262   6.535  1.00 20.00     0.056 A 
HETATM    2  C2  UNL     1     -41.430  14.289   6.098  1.00 20.00     0.077 A 
HETATM    3  C3  UNL     1     -40.522  14.538   8.316  1.00 20.00     0.072 A 
HETATM    4  C4  UNL     1     -40.261  12.041   5.781  1.00 20.00     0.072 C 
HETATM    5  C5  UNL     1     -40.171  15.034   9.664  1.00 20.00     0.079 C 
HETATM    6  N6  UNL     1     -40.097  13.403   7.807  1.00 20.00    -0.249 NA
HETATM    7  S7  UNL     1     -41.551  15.484   7.322  1.00 20.00    -0.066 SA
HETATM    8 BR8  UNL     1     -42.295  14.402   4.418  1.00 20.00    -0.041 Br
ENDROOT
TORSDOF 0
ENDMDL
