MODEL 1
REMARK VINA RESULT:      -3.9      0.000      0.000
REMARK  2 active torsions:
REMARK  status: ('A' for Active; 'I' for Inactive)
REMARK    1  A    between atoms: C3_3  and  C5_5 
REMARK    2  A    between atoms: C5_5  and  C6_6 
ROOT
HETATM    1  C1  UNL     1     -34.818   5.081   4.910  1.00 20.00     0.179 C 
HETATM    2  C2  UNL     1     -34.316   5.300   6.326  1.00 20.00     0.103 C 
HETATM    3  C3  UNL     1     -33.948   7.202   4.586  1.00 20.00     0.182 C 
HETATM    4  O7  UNL     1     -34.019   5.883   4.031  1.00 20.00    -0.375 OA
HETATM    5  S8  UNL     1     -34.076   7.084   6.391  1.00 20.00    -0.135 SA
ENDROOT
BRANCH   3   6
HETATM    6  C5  UNL     1     -32.637   7.840   4.165  1.00 20.00     0.042 C 
BRANCH   6   7
HETATM    7  C6  UNL     1     -32.080   7.196   2.896  1.00 20.00    -0.001 C 
HETATM    8  C4  UNL     1     -32.203   8.122   1.698  1.00 20.00     0.005 C 
ENDBRANCH   6   7
ENDBRANCH   3   6
TORSDOF 2
ENDMDL
MODEL 2
REMARK VINA RESULT:      -3.5      9.703     10.387
REMARK  2 active torsions:
REMARK  status: ('A' for Active; 'I' for Inactive)
REMARK    1  A    between atoms: C3_3  and  C5_5 
REMARK    2  A    between atoms: C5_5  and  C6_6 
ROOT
HETATM    1  C1  UNL     1     -40.264  14.415   8.819  1.00 20.00     0.179 C 
HETATM    2  C2  UNL     1     -40.465  15.716   8.062  1.00 20.00     0.103 C 
HETATM    3  C3  UNL     1     -41.257  13.507   6.934  1.00 20.00     0.182 C 
HETATM    4  O7  UNL     1     -40.170  13.357   7.857  1.00 20.00    -0.375 OA
HETATM    5  S8  UNL     1     -41.681  15.265   6.812  1.00 20.00    -0.135 SA
ENDROOT
BRANCH   3   6
HETATM    6  C5  UNL     1     -40.837  12.944   5.589  1.00 20.00     0.042 C 
BRANCH   6   7
HETATM    7  C6  UNL     1     -39.573  12.092   5.705  1.00 20.00    -0.001 C 
HETATM    8  C4  UNL     1     -39.049  11.680   4.339  1.00 20.00     0.005 C 
ENDBRANCH   6   7
ENDBRANCH   3   6
TORSDOF 2
ENDMDL
MODEL 3
REMARK VINA RESULT:      -3.3     12.451     13.068
REMARK  2 active torsions:
REMARK  status: ('A' for Active; 'I' for Inactive)
REMARK    1  A    between atoms: C3_3  and  C5_5 
REMARK    2  A    between atoms: C5_5  and  C6_6 
ROOT
HETATM    1  C1  UNL     1     -30.812  18.596   0.841  1.00 20.00     0.179 C 
HETATM    2  C2  UNL     1     -32.073  19.194   1.437  1.00 20.00     0.103 C 
HETATM    3  C3  UNL     1     -32.199  18.220  -0.974  1.00 20.00     0.182 C 
HETATM    4  O7  UNL     1     -30.905  18.701  -0.585  1.00 20.00    -0.375 OA
HETATM    5  S8  UNL     1     -33.368  18.529   0.376  1.00 20.00    -0.135 SA
ENDROOT
BRANCH   3   6
HETATM    6  C5  UNL     1     -32.622  18.930  -2.247  1.00 20.00     0.042 C 
BRANCH   6   7
HETATM    7  C6  UNL     1     -33.190  17.952  -3.274  1.00 20.00    -0.001 C 
HETATM    8  C4  UNL     1     -33.294  16.545  -2.710  1.00 20.00     0.005 C 
ENDBRANCH   6   7
ENDBRANCH   3   6
TORSDOF 2
ENDMDL
MODEL 4
REMARK VINA RESULT:      -3.3      1.220      3.814
REMARK  2 active torsions:
REMARK  status: ('A' for Active; 'I' for Inactive)
REMARK    1  A    between atoms: C3_3  and  C5_5 
REMARK    2  A    between atoms: C5_5  and  C6_6 
ROOT
HETATM    1  C1  UNL     1     -31.878   7.499   2.849  1.00 20.00     0.179 C 
HETATM    2  C2  UNL     1     -32.466   8.809   3.341  1.00 20.00     0.103 C 
HETATM    3  C3  UNL     1     -33.406   6.593   4.333  1.00 20.00     0.182 C 
HETATM    4  O7  UNL     1     -32.874   6.482   3.006  1.00 20.00    -0.375 OA
HETATM    5  S8  UNL     1     -33.300   8.323   4.862  1.00 20.00    -0.135 SA
ENDROOT
BRANCH   3   6
HETATM    6  C5  UNL     1     -34.843   6.103   4.326  1.00 20.00     0.042 C 
BRANCH   6   7
HETATM    7  C6  UNL     1     -35.063   4.993   5.353  1.00 20.00    -0.001 C 
HETATM    8  C4  UNL     1     -34.374   5.306   6.671  1.00 20.00     0.005 C 
ENDBRANCH   6   7
ENDBRANCH   3   6
TORSDOF 2
ENDMDL
MODEL 5
REMARK VINA RESULT:      -3.3     12.383     12.832
REMARK  2 active torsions:
REMARK  status: ('A' for Active; 'I' for Inactive)
REMARK    1  A    between atoms: C3_3  and  C5_5 
REMARK    2  A    between atoms: C5_5  and  C6_6 
ROOT
HETATM    1  C1  UNL     1     -36.016  14.152  -5.250  1.00 20.00     0.179 C 
HETATM    2  C2  UNL     1     -36.315  15.599  -5.599  1.00 20.00     0.103 C 
HETATM    3  C3  UNL     1     -33.874  14.975  -4.942  1.00 20.00     0.182 C 
HETATM    4  O7  UNL     1     -34.886  14.135  -4.370  1.00 20.00    -0.375 OA
HETATM    5  S8  UNL     1     -34.676  16.279  -5.912  1.00 20.00    -0.135 SA
ENDROOT
BRANCH   3   6
HETATM    6  C5  UNL     1     -33.032  15.557  -3.822  1.00 20.00     0.042 C 
BRANCH   6   7
HETATM    7  C6  UNL     1     -33.602  16.884  -3.321  1.00 20.00    -0.001 C 
HETATM    8  C4  UNL     1     -33.487  17.008  -1.811  1.00 20.00     0.005 C 
ENDBRANCH   6   7
ENDBRANCH   3   6
TORSDOF 2
ENDMDL
MODEL 6
REMARK VINA RESULT:      -3.2     12.644     13.038
REMARK  2 active torsions:
REMARK  status: ('A' for Active; 'I' for Inactive)
REMARK    1  A    between atoms: C3_3  and  C5_5 
REMARK    2  A    between atoms: C5_5  and  C6_6 
ROOT
HETATM    1  C1  UNL     1     -33.435  16.135  -3.658  1.00 20.00     0.179 C 
HETATM    2  C2  UNL     1     -34.044  17.376  -4.283  1.00 20.00     0.103 C 
HETATM    3  C3  UNL     1     -33.002  17.587  -1.907  1.00 20.00     0.182 C 
HETATM    4  O7  UNL     1     -33.499  16.282  -2.234  1.00 20.00    -0.375 OA
HETATM    5  S8  UNL     1     -33.344  18.706  -3.291  1.00 20.00    -0.135 SA
ENDROOT
BRANCH   3   6
HETATM    6  C5  UNL     1     -33.675  18.061  -0.632  1.00 20.00     0.042 C 
BRANCH   6   7
HETATM    7  C6  UNL     1     -32.652  18.532   0.402  1.00 20.00    -0.001 C 
HETATM    8  C4  UNL     1     -31.240  18.515  -0.160  1.00 20.00     0.005 C 
ENDBRANCH   6   7
ENDBRANCH   3   6
TORSDOF 2
ENDMDL
MODEL 7
REMARK VINA RESULT:      -3.2      1.551      1.730
REMARK  2 active torsions:
REMARK  status: ('A' for Active; 'I' for Inactive)
REMARK    1  A    between atoms: C3_3  and  C5_5 
REMARK    2  A    between atoms: C5_5  and  C6_6 
ROOT
HETATM    1  C1  UNL     1     -34.418   6.506   6.301  1.00 20.00     0.179 C 
HETATM    2  C2  UNL     1     -35.023   5.753   5.130  1.00 20.00     0.103 C 
HETATM    3  C3  UNL     1     -32.943   7.252   4.681  1.00 20.00     0.182 C 
HETATM    4  O7  UNL     1     -33.758   7.668   5.784  1.00 20.00    -0.375 OA
HETATM    5  S8  UNL     1     -33.707   5.805   3.901  1.00 20.00    -0.135 SA
ENDROOT
BRANCH   3   6
HETATM    6  C5  UNL     1     -32.818   8.406   3.703  1.00 20.00     0.042 C 
BRANCH   6   7
HETATM    7  C6  UNL     1     -32.205   7.956   2.377  1.00 20.00    -0.001 C 
HETATM    8  C4  UNL     1     -32.573   8.897   1.242  1.00 20.00     0.005 C 
ENDBRANCH   6   7
ENDBRANCH   3   6
TORSDOF 2
ENDMDL
MODEL 8
REMARK VINA RESULT:      -3.2     12.365     12.924
REMARK  2 active torsions:
REMARK  status: ('A' for Active; 'I' for Inactive)
REMARK    1  A    between atoms: C3_3  and  C5_5 
REMARK    2  A    between atoms: C5_5  and  C6_6 
ROOT
HETATM    1  C1  UNL     1     -33.968  14.950  -5.118  1.00 20.00     0.179 C 
HETATM    2  C2  UNL     1     -35.092  15.947  -5.332  1.00 20.00     0.103 C 
HETATM    3  C3  UNL     1     -33.303  16.487  -3.519  1.00 20.00     0.182 C 
HETATM    4  O7  UNL     1     -33.506  15.090  -3.769  1.00 20.00    -0.375 OA
HETATM    5  S8  UNL     1     -34.458  17.437  -4.543  1.00 20.00    -0.135 SA
ENDROOT
BRANCH   3   6
HETATM    6  C5  UNL     1     -33.524  16.756  -2.041  1.00 20.00     0.042 C 
BRANCH   6   7
HETATM    7  C6  UNL     1     -32.687  17.938  -1.554  1.00 20.00    -0.001 C 
HETATM    8  C4  UNL     1     -33.046  18.329  -0.130  1.00 20.00     0.005 C 
ENDBRANCH   6   7
ENDBRANCH   3   6
TORSDOF 2
ENDMDL
MODEL 9
REMARK VINA RESULT:      -3.1     12.648     13.439
REMARK  2 active torsions:
REMARK  status: ('A' for Active; 'I' for Inactive)
REMARK    1  A    between atoms: C3_3  and  C5_5 
REMARK    2  A    between atoms: C5_5  and  C6_6 
ROOT
HETATM    1  C1  UNL     1     -33.111  18.802  -3.563  1.00 20.00     0.179 C 
HETATM    2  C2  UNL     1     -33.459  17.369  -3.202  1.00 20.00     0.103 C 
HETATM    3  C3  UNL     1     -32.571  18.928  -1.315  1.00 20.00     0.182 C 
HETATM    4  O7  UNL     1     -32.122  19.262  -2.635  1.00 20.00    -0.375 OA
HETATM    5  S8  UNL     1     -33.590  17.432  -1.406  1.00 20.00    -0.135 SA
ENDROOT
BRANCH   3   6
HETATM    6  C5  UNL     1     -31.359  18.718  -0.425  1.00 20.00     0.042 C 
BRANCH   6   7
HETATM    7  C6  UNL     1     -31.766  18.440   1.022  1.00 20.00    -0.001 C 
HETATM    8  C4  UNL     1     -30.555  18.202   1.908  1.00 20.00     0.005 C 
ENDBRANCH   6   7
ENDBRANCH   3   6
TORSDOF 2
ENDMDL
