MODEL 1
REMARK VINA RESULT:      -4.0      0.000      0.000
REMARK  1 active torsions:
REMARK  status: ('A' for Active; 'I' for Inactive)
REMARK    1  A    between atoms: C8_8  and  N9_9 
ROOT
HETATM    1  C1  UNL     1     -21.470  18.063   8.892  1.00 20.00     0.158 C 
HETATM    2  N9  UNL     1     -21.582  18.000  10.060  1.00 20.00    -0.270 NA
HETATM    3  S10 UNL     1     -21.293  18.134   7.311  1.00 20.00    -0.055 SA
ENDROOT
BRANCH   2   4
HETATM    4  C8  UNL     1     -22.736  18.714  10.608  1.00 20.00     0.118 C 
HETATM    5  C5  UNL     1     -22.810  18.502  12.148  1.00 20.00     0.036 C 
HETATM    6  C6  UNL     1     -24.170  17.790  12.327  1.00 20.00     0.010 C 
HETATM    7  C2  UNL     1     -25.261  18.759  11.931  1.00 20.00    -0.026 C 
HETATM    8  C4  UNL     1     -24.198  16.887  11.092  1.00 20.00     0.019 C 
HETATM    9  C3  UNL     1     -25.188  18.916  10.601  1.00 20.00    -0.024 C 
HETATM   10  C7  UNL     1     -24.045  18.058  10.113  1.00 20.00     0.033 C 
ENDBRANCH   2   4
TORSDOF 1
ENDMDL
MODEL 2
REMARK VINA RESULT:      -3.9     24.466     25.227
REMARK  1 active torsions:
REMARK  status: ('A' for Active; 'I' for Inactive)
REMARK    1  A    between atoms: C8_8  and  N9_9 
ROOT
HETATM    1  C1  UNL     1     -43.409   4.030  -1.409  1.00 20.00     0.158 C 
HETATM    2  N9  UNL     1     -43.416   4.864  -0.582  1.00 20.00    -0.270 NA
HETATM    3  S10 UNL     1     -43.417   2.883  -2.514  1.00 20.00    -0.055 SA
ENDROOT
BRANCH   2   4
HETATM    4  C8  UNL     1     -42.569   6.023  -0.868  1.00 20.00     0.118 C 
HETATM    5  C5  UNL     1     -41.119   5.757  -0.372  1.00 20.00     0.036 C 
HETATM    6  C6  UNL     1     -40.912   6.867   0.683  1.00 20.00     0.010 C 
HETATM    7  C2  UNL     1     -40.929   8.200  -0.031  1.00 20.00    -0.026 C 
HETATM    8  C4  UNL     1     -42.299   6.927   1.327  1.00 20.00     0.019 C 
HETATM    9  C3  UNL     1     -42.189   8.416  -0.438  1.00 20.00    -0.024 C 
HETATM   10  C7  UNL     1     -43.009   7.224  -0.000  1.00 20.00     0.033 C 
ENDBRANCH   2   4
TORSDOF 1
ENDMDL
MODEL 3
REMARK VINA RESULT:      -3.8     16.396     17.268
REMARK  1 active torsions:
REMARK  status: ('A' for Active; 'I' for Inactive)
REMARK    1  A    between atoms: C8_8  and  N9_9 
ROOT
HETATM    1  C1  UNL     1     -34.424  16.509  -5.138  1.00 20.00     0.158 C 
HETATM    2  N9  UNL     1     -34.395  17.556  -4.605  1.00 20.00    -0.270 NA
HETATM    3  S10 UNL     1     -34.488  15.099  -5.875  1.00 20.00    -0.055 SA
ENDROOT
BRANCH   2   4
HETATM    4  C8  UNL     1     -33.319  17.718  -3.625  1.00 20.00     0.118 C 
HETATM    5  C5  UNL     1     -33.375  16.568  -2.580  1.00 20.00     0.036 C 
HETATM    6  C6  UNL     1     -33.618  17.325  -1.254  1.00 20.00     0.010 C 
HETATM    7  C2  UNL     1     -32.396  18.166  -0.965  1.00 20.00    -0.026 C 
HETATM    8  C4  UNL     1     -34.565  18.435  -1.716  1.00 20.00     0.019 C 
HETATM    9  C3  UNL     1     -32.375  19.159  -1.868  1.00 20.00    -0.024 C 
HETATM   10  C7  UNL     1     -33.579  18.974  -2.762  1.00 20.00     0.033 C 
ENDBRANCH   2   4
TORSDOF 1
ENDMDL
MODEL 4
REMARK VINA RESULT:      -3.8     15.774     16.723
REMARK  1 active torsions:
REMARK  status: ('A' for Active; 'I' for Inactive)
REMARK    1  A    between atoms: C8_8  and  N9_9 
ROOT
HETATM    1  C1  UNL     1     -32.629   8.392   2.940  1.00 20.00     0.158 C 
HETATM    2  N9  UNL     1     -33.032   8.459   4.042  1.00 20.00    -0.270 NA
HETATM    3  S10 UNL     1     -32.088   8.330   1.444  1.00 20.00    -0.055 SA
ENDROOT
BRANCH   2   4
HETATM    4  C8  UNL     1     -33.047   7.189   4.771  1.00 20.00     0.118 C 
HETATM    5  C5  UNL     1     -33.256   6.010   3.778  1.00 20.00     0.036 C 
HETATM    6  C6  UNL     1     -34.586   5.390   4.263  1.00 20.00     0.010 C 
HETATM    7  C2  UNL     1     -34.358   4.813   5.641  1.00 20.00    -0.026 C 
HETATM    8  C4  UNL     1     -35.370   6.643   4.660  1.00 20.00     0.019 C 
HETATM    9  C3  UNL     1     -34.194   5.845   6.482  1.00 20.00    -0.024 C 
HETATM   10  C7  UNL     1     -34.307   7.109   5.662  1.00 20.00     0.033 C 
ENDBRANCH   2   4
TORSDOF 1
ENDMDL
MODEL 5
REMARK VINA RESULT:      -3.8     14.493     15.509
REMARK  1 active torsions:
REMARK  status: ('A' for Active; 'I' for Inactive)
REMARK    1  A    between atoms: C8_8  and  N9_9 
ROOT
HETATM    1  C1  UNL     1     -31.684  18.748   1.028  1.00 20.00     0.158 C 
HETATM    2  N9  UNL     1     -32.595  18.847   0.293  1.00 20.00    -0.270 NA
HETATM    3  S10 UNL     1     -30.464  18.630   2.045  1.00 20.00    -0.055 SA
ENDROOT
BRANCH   2   4
HETATM    4  C8  UNL     1     -32.419  18.180  -0.999  1.00 20.00     0.118 C 
HETATM    5  C5  UNL     1     -32.440  19.231  -2.146  1.00 20.00     0.036 C 
HETATM    6  C6  UNL     1     -33.662  18.793  -2.985  1.00 20.00     0.010 C 
HETATM    7  C2  UNL     1     -33.355  17.441  -3.588  1.00 20.00    -0.026 C 
HETATM    8  C4  UNL     1     -34.631  18.346  -1.887  1.00 20.00     0.019 C 
HETATM    9  C3  UNL     1     -33.355  16.550  -2.586  1.00 20.00    -0.024 C 
HETATM   10  C7  UNL     1     -33.656  17.309  -1.314  1.00 20.00     0.033 C 
ENDBRANCH   2   4
TORSDOF 1
ENDMDL
MODEL 6
REMARK VINA RESULT:      -3.5     18.329     19.197
REMARK  1 active torsions:
REMARK  status: ('A' for Active; 'I' for Inactive)
REMARK    1  A    between atoms: C8_8  and  N9_9 
ROOT
HETATM    1  C1  UNL     1     -33.296  16.765  -2.481  1.00 20.00     0.158 C 
HETATM    2  N9  UNL     1     -33.628  15.865  -3.159  1.00 20.00    -0.270 NA
HETATM    3  S10 UNL     1     -32.846  17.966  -1.537  1.00 20.00    -0.055 SA
ENDROOT
BRANCH   2   4
HETATM    4  C8  UNL     1     -33.802  16.194  -4.576  1.00 20.00     0.118 C 
HETATM    5  C5  UNL     1     -35.172  16.898  -4.793  1.00 20.00     0.036 C 
HETATM    6  C6  UNL     1     -35.905  15.928  -5.747  1.00 20.00     0.010 C 
HETATM    7  C2  UNL     1     -35.164  15.919  -7.065  1.00 20.00    -0.026 C 
HETATM    8  C4  UNL     1     -35.441  14.574  -5.207  1.00 20.00     0.019 C 
HETATM    9  C3  UNL     1     -33.994  15.296  -6.858  1.00 20.00    -0.024 C 
HETATM   10  C7  UNL     1     -33.953  14.896  -5.401  1.00 20.00     0.033 C 
ENDBRANCH   2   4
TORSDOF 1
ENDMDL
MODEL 7
REMARK VINA RESULT:      -3.4     18.024     18.964
REMARK  1 active torsions:
REMARK  status: ('A' for Active; 'I' for Inactive)
REMARK    1  A    between atoms: C8_8  and  N9_9 
ROOT
HETATM    1  C1  UNL     1     -39.418  12.115   5.608  1.00 20.00     0.158 C 
HETATM    2  N9  UNL     1     -39.721  12.482   6.682  1.00 20.00    -0.270 NA
HETATM    3  S10 UNL     1     -38.993  11.595   4.164  1.00 20.00    -0.055 SA
ENDROOT
BRANCH   2   4
HETATM    4  C8  UNL     1     -40.498  13.723   6.713  1.00 20.00     0.118 C 
HETATM    5  C5  UNL     1     -40.840  14.098   8.183  1.00 20.00     0.036 C 
HETATM    6  C6  UNL     1     -42.386  14.065   8.191  1.00 20.00     0.010 C 
HETATM    7  C2  UNL     1     -42.882  15.175   7.292  1.00 20.00    -0.026 C 
HETATM    8  C4  UNL     1     -42.662  12.875   7.270  1.00 20.00     0.019 C 
HETATM    9  C3  UNL     1     -42.589  14.825   6.031  1.00 20.00    -0.024 C 
HETATM   10  C7  UNL     1     -41.893  13.485   6.090  1.00 20.00     0.033 C 
ENDBRANCH   2   4
TORSDOF 1
ENDMDL
MODEL 8
REMARK VINA RESULT:      -3.3     18.377     19.255
REMARK  1 active torsions:
REMARK  status: ('A' for Active; 'I' for Inactive)
REMARK    1  A    between atoms: C8_8  and  N9_9 
ROOT
HETATM    1  C1  UNL     1     -33.445  17.165  -2.569  1.00 20.00     0.158 C 
HETATM    2  N9  UNL     1     -33.274  16.815  -3.678  1.00 20.00    -0.270 NA
HETATM    3  S10 UNL     1     -33.651  17.654  -1.068  1.00 20.00    -0.055 SA
ENDROOT
BRANCH   2   4
HETATM    4  C8  UNL     1     -34.280  15.884  -4.193  1.00 20.00     0.118 C 
HETATM    5  C5  UNL     1     -33.609  14.849  -5.140  1.00 20.00     0.036 C 
HETATM    6  C6  UNL     1     -34.318  15.113  -6.488  1.00 20.00     0.010 C 
HETATM    7  C2  UNL     1     -35.774  14.738  -6.332  1.00 20.00    -0.026 C 
HETATM    8  C4  UNL     1     -34.462  16.636  -6.453  1.00 20.00     0.019 C 
HETATM    9  C3  UNL     1     -36.335  15.650  -5.525  1.00 20.00    -0.024 C 
HETATM   10  C7  UNL     1     -35.251  16.629  -5.137  1.00 20.00     0.033 C 
ENDBRANCH   2   4
TORSDOF 1
ENDMDL
MODEL 9
REMARK VINA RESULT:      -3.3     18.005     19.062
REMARK  1 active torsions:
REMARK  status: ('A' for Active; 'I' for Inactive)
REMARK    1  A    between atoms: C8_8  and  N9_9 
ROOT
HETATM    1  C1  UNL     1     -40.393  14.502   9.501  1.00 20.00     0.158 C 
HETATM    2  N9  UNL     1     -40.243  13.674   8.680  1.00 20.00    -0.270 NA
HETATM    3  S10 UNL     1     -40.589  15.603  10.634  1.00 20.00    -0.055 SA
ENDROOT
BRANCH   2   4
HETATM    4  C8  UNL     1     -40.544  14.102   7.313  1.00 20.00     0.118 C 
HETATM    5  C5  UNL     1     -41.887  14.887   7.286  1.00 20.00     0.036 C 
HETATM    6  C6  UNL     1     -42.770  14.019   6.361  1.00 20.00     0.010 C 
HETATM    7  C2  UNL     1     -42.172  14.058   4.973  1.00 20.00    -0.026 C 
HETATM    8  C4  UNL     1     -42.330  12.611   6.768  1.00 20.00     0.019 C 
HETATM    9  C3  UNL     1     -41.025  13.364   5.015  1.00 20.00    -0.024 C 
HETATM   10  C7  UNL     1     -40.855  12.869   6.433  1.00 20.00     0.033 C 
ENDBRANCH   2   4
TORSDOF 1
ENDMDL
