MODEL 1
REMARK VINA RESULT:      -5.3      0.000      0.000
REMARK  0 active torsions:
REMARK  status: ('A' for Active; 'I' for Inactive)
ROOT
HETATM    1  C1  UNL     1     -32.227   7.329   2.483  1.00 20.00     0.136 A 
HETATM    2  C2  UNL     1     -32.118   8.397   3.340  1.00 20.00     0.136 A 
HETATM    3  C3  UNL     1     -33.439   6.175   4.060  1.00 20.00     0.059 A 
HETATM    4  C4  UNL     1     -33.338   7.261   4.925  1.00 20.00     0.059 A 
HETATM    5  C5  UNL     1     -34.219   4.943   4.424  1.00 20.00     0.061 C 
HETATM    6  C6  UNL     1     -33.907   7.223   6.314  1.00 20.00     0.061 C 
HETATM    7  C7  UNL     1     -34.466   4.811   5.926  1.00 20.00     0.006 C 
HETATM    8  C8  UNL     1     -34.959   6.132   6.503  1.00 20.00     0.006 C 
HETATM    9  N9  UNL     1     -32.888   6.207   2.825  1.00 20.00    -0.262 NA
HETATM   10  N10 UNL     1     -32.665   8.381   4.570  1.00 20.00    -0.262 NA
ENDROOT
TORSDOF 0
ENDMDL
MODEL 2
REMARK VINA RESULT:      -5.3      0.257      2.147
REMARK  0 active torsions:
REMARK  status: ('A' for Active; 'I' for Inactive)
ROOT
HETATM    1  C1  UNL     1     -32.162   8.667   3.632  1.00 20.00     0.136 A 
HETATM    2  C2  UNL     1     -32.203   7.680   2.678  1.00 20.00     0.136 A 
HETATM    3  C3  UNL     1     -33.381   7.345   5.064  1.00 20.00     0.059 A 
HETATM    4  C4  UNL     1     -33.413   6.340   4.103  1.00 20.00     0.059 A 
HETATM    5  C5  UNL     1     -33.989   7.157   6.427  1.00 20.00     0.061 C 
HETATM    6  C6  UNL     1     -34.152   5.052   4.326  1.00 20.00     0.061 C 
HETATM    7  C7  UNL     1     -35.002   6.014   6.479  1.00 20.00     0.006 C 
HETATM    8  C8  UNL     1     -34.438   4.772   5.800  1.00 20.00     0.006 C 
HETATM    9  N9  UNL     1     -32.744   8.516   4.836  1.00 20.00    -0.262 NA
HETATM   10  N10 UNL     1     -32.828   6.508   2.893  1.00 20.00    -0.262 NA
ENDROOT
TORSDOF 0
ENDMDL
MODEL 3
REMARK VINA RESULT:      -5.1      1.351      3.360
REMARK  0 active torsions:
REMARK  status: ('A' for Active; 'I' for Inactive)
ROOT
HETATM    1  C1  UNL     1     -34.476   4.619   4.772  1.00 20.00     0.136 A 
HETATM    2  C2  UNL     1     -34.832   5.241   5.944  1.00 20.00     0.136 A 
HETATM    3  C3  UNL     1     -33.360   6.512   4.097  1.00 20.00     0.059 A 
HETATM    4  C4  UNL     1     -33.710   7.138   5.289  1.00 20.00     0.059 A 
HETATM    5  C5  UNL     1     -32.491   7.189   3.073  1.00 20.00     0.061 C 
HETATM    6  C6  UNL     1     -33.336   8.565   5.576  1.00 20.00     0.061 C 
HETATM    7  C7  UNL     1     -32.438   8.706   3.239  1.00 20.00     0.006 C 
HETATM    8  C8  UNL     1     -32.194   9.074   4.698  1.00 20.00     0.006 C 
HETATM    9  N9  UNL     1     -33.735   5.240   3.835  1.00 20.00    -0.262 NA
HETATM   10  N10 UNL     1     -34.460   6.504   6.221  1.00 20.00    -0.262 NA
ENDROOT
TORSDOF 0
ENDMDL
MODEL 4
REMARK VINA RESULT:      -5.1      1.357      3.885
REMARK  0 active torsions:
REMARK  status: ('A' for Active; 'I' for Inactive)
ROOT
HETATM    1  C1  UNL     1     -34.825   5.249   5.977  1.00 20.00     0.136 A 
HETATM    2  C2  UNL     1     -34.490   4.630   4.797  1.00 20.00     0.136 A 
HETATM    3  C3  UNL     1     -33.700   7.141   5.312  1.00 20.00     0.059 A 
HETATM    4  C4  UNL     1     -33.371   6.518   4.112  1.00 20.00     0.059 A 
HETATM    5  C5  UNL     1     -33.312   8.566   5.597  1.00 20.00     0.061 C 
HETATM    6  C6  UNL     1     -32.514   7.191   3.078  1.00 20.00     0.061 C 
HETATM    7  C7  UNL     1     -32.178   9.069   4.705  1.00 20.00     0.006 C 
HETATM    8  C8  UNL     1     -32.447   8.708   3.249  1.00 20.00     0.006 C 
HETATM    9  N9  UNL     1     -34.440   6.510   6.251  1.00 20.00    -0.262 NA
HETATM   10  N10 UNL     1     -33.759   5.248   3.851  1.00 20.00    -0.262 NA
ENDROOT
TORSDOF 0
ENDMDL
MODEL 5
REMARK VINA RESULT:      -5.0      1.282      3.420
REMARK  0 active torsions:
REMARK  status: ('A' for Active; 'I' for Inactive)
ROOT
HETATM    1  C1  UNL     1     -34.881   5.065   5.681  1.00 20.00     0.136 A 
HETATM    2  C2  UNL     1     -34.742   6.134   6.532  1.00 20.00     0.136 A 
HETATM    3  C3  UNL     1     -33.548   6.115   4.129  1.00 20.00     0.059 A 
HETATM    4  C4  UNL     1     -33.397   7.193   4.995  1.00 20.00     0.059 A 
HETATM    5  C5  UNL     1     -32.845   6.062   2.801  1.00 20.00     0.061 C 
HETATM    6  C6  UNL     1     -32.615   8.416   4.611  1.00 20.00     0.061 C 
HETATM    7  C7  UNL     1     -32.370   7.431   2.318  1.00 20.00     0.006 C 
HETATM    8  C8  UNL     1     -31.659   8.175   3.443  1.00 20.00     0.006 C 
HETATM    9  N9  UNL     1     -34.287   5.035   4.473  1.00 20.00    -0.262 NA
HETATM   10  N10 UNL     1     -34.005   7.212   6.205  1.00 20.00    -0.262 NA
ENDROOT
TORSDOF 0
ENDMDL
MODEL 6
REMARK VINA RESULT:      -4.6      0.918      1.053
REMARK  0 active torsions:
REMARK  status: ('A' for Active; 'I' for Inactive)
ROOT
HETATM    1  C1  UNL     1     -32.617   5.923   1.971  1.00 20.00     0.136 A 
HETATM    2  C2  UNL     1     -32.118   7.154   2.318  1.00 20.00     0.136 A 
HETATM    3  C3  UNL     1     -33.637   5.746   4.024  1.00 20.00     0.059 A 
HETATM    4  C4  UNL     1     -33.142   6.999   4.372  1.00 20.00     0.059 A 
HETATM    5  C5  UNL     1     -34.533   4.965   4.945  1.00 20.00     0.061 C 
HETATM    6  C6  UNL     1     -33.379   7.596   5.730  1.00 20.00     0.061 C 
HETATM    7  C7  UNL     1     -34.455   5.432   6.397  1.00 20.00     0.006 C 
HETATM    8  C8  UNL     1     -34.548   6.951   6.473  1.00 20.00     0.006 C 
HETATM    9  N9  UNL     1     -33.383   5.203   2.811  1.00 20.00    -0.262 NA
HETATM   10  N10 UNL     1     -32.367   7.710   3.519  1.00 20.00    -0.262 NA
ENDROOT
TORSDOF 0
ENDMDL
MODEL 7
REMARK VINA RESULT:      -4.1      1.248      2.556
REMARK  0 active torsions:
REMARK  status: ('A' for Active; 'I' for Inactive)
ROOT
HETATM    1  C1  UNL     1     -32.464   5.949   2.237  1.00 20.00     0.136 A 
HETATM    2  C2  UNL     1     -33.240   4.885   2.629  1.00 20.00     0.136 A 
HETATM    3  C3  UNL     1     -33.064   7.096   4.138  1.00 20.00     0.059 A 
HETATM    4  C4  UNL     1     -33.841   6.014   4.540  1.00 20.00     0.059 A 
HETATM    5  C5  UNL     1     -32.910   8.323   4.994  1.00 20.00     0.061 C 
HETATM    6  C6  UNL     1     -34.660   6.051   5.799  1.00 20.00     0.061 C 
HETATM    7  C7  UNL     1     -34.004   8.457   6.051  1.00 20.00     0.006 C 
HETATM    8  C8  UNL     1     -34.209   7.133   6.778  1.00 20.00     0.006 C 
HETATM    9  N9  UNL     1     -32.361   7.065   2.983  1.00 20.00    -0.262 NA
HETATM   10  N10 UNL     1     -33.940   4.900   3.778  1.00 20.00    -0.262 NA
ENDROOT
TORSDOF 0
ENDMDL
MODEL 8
REMARK VINA RESULT:      -3.9     12.721     13.037
REMARK  0 active torsions:
REMARK  status: ('A' for Active; 'I' for Inactive)
ROOT
HETATM    1  C1  UNL     1     -31.301  19.261   2.761  1.00 20.00     0.136 A 
HETATM    2  C2  UNL     1     -30.306  18.896   1.887  1.00 20.00     0.136 A 
HETATM    3  C3  UNL     1     -32.879  18.892   1.130  1.00 20.00     0.059 A 
HETATM    4  C4  UNL     1     -31.873  18.511   0.248  1.00 20.00     0.059 A 
HETATM    5  C5  UNL     1     -34.331  18.847   0.741  1.00 20.00     0.061 C 
HETATM    6  C6  UNL     1     -32.166  18.139  -1.178  1.00 20.00     0.061 C 
HETATM    7  C7  UNL     1     -34.547  18.809  -0.770  1.00 20.00     0.006 C 
HETATM    8  C8  UNL     1     -33.630  17.775  -1.413  1.00 20.00     0.006 C 
HETATM    9  N9  UNL     1     -32.598  19.263   2.400  1.00 20.00    -0.262 NA
HETATM   10  N10 UNL     1     -30.572  18.520   0.622  1.00 20.00    -0.262 NA
ENDROOT
TORSDOF 0
ENDMDL
MODEL 9
REMARK VINA RESULT:      -3.8     12.731     12.947
REMARK  0 active torsions:
REMARK  status: ('A' for Active; 'I' for Inactive)
ROOT
HETATM    1  C1  UNL     1     -30.427  18.889   1.969  1.00 20.00     0.136 A 
HETATM    2  C2  UNL     1     -31.458  19.256   2.800  1.00 20.00     0.136 A 
HETATM    3  C3  UNL     1     -31.924  18.515   0.264  1.00 20.00     0.059 A 
HETATM    4  C4  UNL     1     -32.967  18.897   1.102  1.00 20.00     0.059 A 
HETATM    5  C5  UNL     1     -32.159  18.147  -1.175  1.00 20.00     0.061 C 
HETATM    6  C6  UNL     1     -34.400  18.857   0.653  1.00 20.00     0.061 C 
HETATM    7  C7  UNL     1     -33.613  17.788  -1.473  1.00 20.00     0.006 C 
HETATM    8  C8  UNL     1     -34.552  18.824  -0.866  1.00 20.00     0.006 C 
HETATM    9  N9  UNL     1     -30.641  18.518   0.693  1.00 20.00    -0.262 NA
HETATM   10  N10 UNL     1     -32.739  19.262   2.385  1.00 20.00    -0.262 NA
ENDROOT
TORSDOF 0
ENDMDL
