MODEL 1
REMARK VINA RESULT:      -5.6      0.000      0.000
REMARK  0 active torsions:
REMARK  status: ('A' for Active; 'I' for Inactive)
ROOT
HETATM    1  C1  UNL     1     -34.831   5.574   6.170  1.00 20.00    -0.030 C 
HETATM    2  C2  UNL     1     -34.601   4.873   5.034  1.00 20.00    -0.029 C 
HETATM    3  C3  UNL     1     -32.549   8.384   4.811  1.00 20.00     0.224 C 
HETATM    4  C4  UNL     1     -34.254   6.963   6.440  1.00 20.00     0.043 C 
HETATM    5  C5  UNL     1     -33.791   5.417   3.858  1.00 20.00     0.053 C 
HETATM    6  C6  UNL     1     -33.113   7.126   5.466  1.00 20.00     0.104 C 
HETATM    7  C7  UNL     1     -33.741   6.908   4.070  1.00 20.00     0.101 C 
HETATM    8  N8  UNL     1     -32.666   7.759   3.586  1.00 20.00    -0.355 N 
HETATM    9  O9  UNL     1     -32.108   9.453   5.157  1.00 20.00    -0.273 OA
HETATM   10  H18 UNL     1     -32.494   8.172   2.678  1.00 20.00     0.162 HD
ENDROOT
TORSDOF 0
ENDMDL
MODEL 2
REMARK VINA RESULT:      -5.5      1.082      2.036
REMARK  0 active torsions:
REMARK  status: ('A' for Active; 'I' for Inactive)
ROOT
HETATM    1  C1  UNL     1     -34.682   5.009   5.076  1.00 20.00    -0.030 C 
HETATM    2  C2  UNL     1     -34.813   5.587   6.293  1.00 20.00    -0.029 C 
HETATM    3  C3  UNL     1     -32.810   8.167   3.860  1.00 20.00     0.224 C 
HETATM    4  C4  UNL     1     -33.955   5.663   3.902  1.00 20.00     0.043 C 
HETATM    5  C5  UNL     1     -34.189   6.934   6.659  1.00 20.00     0.053 C 
HETATM    6  C6  UNL     1     -33.861   7.129   4.246  1.00 20.00     0.104 C 
HETATM    7  C7  UNL     1     -33.135   7.177   5.610  1.00 20.00     0.101 C 
HETATM    8  N8  UNL     1     -32.696   8.500   5.195  1.00 20.00    -0.355 N 
HETATM    9  O9  UNL     1     -32.313   8.605   2.852  1.00 20.00    -0.273 OA
HETATM   10  H18 UNL     1     -32.030   9.144   5.603  1.00 20.00     0.162 HD
ENDROOT
TORSDOF 0
ENDMDL
MODEL 3
REMARK VINA RESULT:      -5.4      1.573      1.961
REMARK  0 active torsions:
REMARK  status: ('A' for Active; 'I' for Inactive)
ROOT
HETATM    1  C1  UNL     1     -34.394   6.895   6.402  1.00 20.00    -0.030 C 
HETATM    2  C2  UNL     1     -34.606   5.563   6.291  1.00 20.00    -0.029 C 
HETATM    3  C3  UNL     1     -32.638   6.828   2.958  1.00 20.00     0.224 C 
HETATM    4  C4  UNL     1     -33.708   7.736   5.327  1.00 20.00     0.043 C 
HETATM    5  C5  UNL     1     -34.244   4.752   5.047  1.00 20.00     0.053 C 
HETATM    6  C6  UNL     1     -32.979   6.753   4.444  1.00 20.00     0.104 C 
HETATM    7  C7  UNL     1     -34.068   5.771   3.951  1.00 20.00     0.101 C 
HETATM    8  N8  UNL     1     -33.202   5.578   2.799  1.00 20.00    -0.355 N 
HETATM    9  O9  UNL     1     -32.063   7.578   2.208  1.00 20.00    -0.273 OA
HETATM   10  H18 UNL     1     -33.348   5.087   1.925  1.00 20.00     0.162 HD
ENDROOT
TORSDOF 0
ENDMDL
MODEL 4
REMARK VINA RESULT:      -5.1      2.303      3.392
REMARK  0 active torsions:
REMARK  status: ('A' for Active; 'I' for Inactive)
ROOT
HETATM    1  C1  UNL     1     -32.682   8.730   5.117  1.00 20.00    -0.030 C 
HETATM    2  C2  UNL     1     -32.267   8.806   3.830  1.00 20.00    -0.029 C 
HETATM    3  C3  UNL     1     -34.253   5.285   4.331  1.00 20.00     0.224 C 
HETATM    4  C4  UNL     1     -33.439   7.535   5.694  1.00 20.00     0.043 C 
HETATM    5  C5  UNL     1     -32.446   7.674   2.818  1.00 20.00     0.053 C 
HETATM    6  C6  UNL     1     -33.971   6.775   4.503  1.00 20.00     0.104 C 
HETATM    7  C7  UNL     1     -32.725   6.446   3.647  1.00 20.00     0.101 C 
HETATM    8  N8  UNL     1     -33.499   5.310   3.174  1.00 20.00    -0.355 N 
HETATM    9  O9  UNL     1     -34.900   4.427   4.879  1.00 20.00    -0.273 OA
HETATM   10  H18 UNL     1     -33.242   4.514   2.603  1.00 20.00     0.162 HD
ENDROOT
TORSDOF 0
ENDMDL
MODEL 5
REMARK VINA RESULT:      -5.0      2.046      2.831
REMARK  0 active torsions:
REMARK  status: ('A' for Active; 'I' for Inactive)
ROOT
HETATM    1  C1  UNL     1     -34.605   5.921   6.387  1.00 20.00    -0.030 C 
HETATM    2  C2  UNL     1     -34.308   7.242   6.373  1.00 20.00    -0.029 C 
HETATM    3  C3  UNL     1     -33.078   5.618   2.847  1.00 20.00     0.224 C 
HETATM    4  C4  UNL     1     -34.265   4.965   5.244  1.00 20.00     0.043 C 
HETATM    5  C5  UNL     1     -33.536   7.922   5.242  1.00 20.00     0.053 C 
HETATM    6  C6  UNL     1     -33.996   5.842   4.046  1.00 20.00     0.104 C 
HETATM    7  C7  UNL     1     -32.867   6.799   4.493  1.00 20.00     0.101 C 
HETATM    8  N8  UNL     1     -32.523   6.860   3.081  1.00 20.00    -0.355 N 
HETATM    9  O9  UNL     1     -32.912   4.785   1.990  1.00 20.00    -0.273 OA
HETATM   10  H18 UNL     1     -31.732   7.269   2.601  1.00 20.00     0.162 HD
ENDROOT
TORSDOF 0
ENDMDL
MODEL 6
REMARK VINA RESULT:      -4.8      2.319      3.171
REMARK  0 active torsions:
REMARK  status: ('A' for Active; 'I' for Inactive)
ROOT
HETATM    1  C1  UNL     1     -33.734   8.202   5.605  1.00 20.00    -0.030 C 
HETATM    2  C2  UNL     1     -34.232   7.345   6.527  1.00 20.00    -0.029 C 
HETATM    3  C3  UNL     1     -33.304   5.222   3.178  1.00 20.00     0.224 C 
HETATM    4  C4  UNL     1     -33.301   7.778   4.201  1.00 20.00     0.043 C 
HETATM    5  C5  UNL     1     -34.485   5.863   6.252  1.00 20.00     0.053 C 
HETATM    6  C6  UNL     1     -33.128   6.280   4.264  1.00 20.00     0.104 C 
HETATM    7  C7  UNL     1     -34.492   5.737   4.750  1.00 20.00     0.101 C 
HETATM    8  N8  UNL     1     -34.127   4.523   4.038  1.00 20.00    -0.355 N 
HETATM    9  O9  UNL     1     -32.881   4.997   2.070  1.00 20.00    -0.273 OA
HETATM   10  H18 UNL     1     -34.656   3.687   3.823  1.00 20.00     0.162 HD
ENDROOT
TORSDOF 0
ENDMDL
MODEL 7
REMARK VINA RESULT:      -4.7      2.359      3.305
REMARK  0 active torsions:
REMARK  status: ('A' for Active; 'I' for Inactive)
ROOT
HETATM    1  C1  UNL     1     -32.290   8.235   3.984  1.00 20.00    -0.030 C 
HETATM    2  C2  UNL     1     -32.270   7.507   2.843  1.00 20.00    -0.029 C 
HETATM    3  C3  UNL     1     -34.642   5.590   5.541  1.00 20.00     0.224 C 
HETATM    4  C4  UNL     1     -33.051   7.817   5.242  1.00 20.00     0.043 C 
HETATM    5  C5  UNL     1     -32.951   6.147   2.697  1.00 20.00     0.053 C 
HETATM    6  C6  UNL     1     -34.046   6.776   4.788  1.00 20.00     0.104 C 
HETATM    7  C7  UNL     1     -33.197   5.677   4.108  1.00 20.00     0.101 C 
HETATM    8  N8  UNL     1     -34.276   4.778   4.485  1.00 20.00    -0.355 N 
HETATM    9  O9  UNL     1     -35.246   5.392   6.566  1.00 20.00    -0.273 OA
HETATM   10  H18 UNL     1     -34.355   3.770   4.442  1.00 20.00     0.162 HD
ENDROOT
TORSDOF 0
ENDMDL
MODEL 8
REMARK VINA RESULT:      -4.6      2.326      3.466
REMARK  0 active torsions:
REMARK  status: ('A' for Active; 'I' for Inactive)
ROOT
HETATM    1  C1  UNL     1     -32.655   6.470   2.679  1.00 20.00    -0.030 C 
HETATM    2  C2  UNL     1     -32.116   7.627   3.130  1.00 20.00    -0.029 C 
HETATM    3  C3  UNL     1     -34.430   6.058   6.090  1.00 20.00     0.224 C 
HETATM    4  C4  UNL     1     -33.611   5.605   3.500  1.00 20.00     0.043 C 
HETATM    5  C5  UNL     1     -32.452   8.243   4.488  1.00 20.00     0.053 C 
HETATM    6  C6  UNL     1     -33.436   6.051   4.932  1.00 20.00     0.104 C 
HETATM    7  C7  UNL     1     -33.729   7.570   4.919  1.00 20.00     0.101 C 
HETATM    8  N8  UNL     1     -34.118   7.385   6.308  1.00 20.00    -0.355 N 
HETATM    9  O9  UNL     1     -35.145   5.271   6.661  1.00 20.00    -0.273 OA
HETATM   10  H18 UNL     1     -34.561   8.010   6.970  1.00 20.00     0.162 HD
ENDROOT
TORSDOF 0
ENDMDL
MODEL 9
REMARK VINA RESULT:      -4.0     15.900     16.634
REMARK  0 active torsions:
REMARK  status: ('A' for Active; 'I' for Inactive)
ROOT
HETATM    1  C1  UNL     1     -23.871  18.375  11.972  1.00 20.00    -0.030 C 
HETATM    2  C2  UNL     1     -22.532  18.387  12.167  1.00 20.00    -0.029 C 
HETATM    3  C3  UNL     1     -23.250  18.946   8.198  1.00 20.00     0.224 C 
HETATM    4  C4  UNL     1     -24.529  18.524  10.600  1.00 20.00     0.043 C 
HETATM    5  C5  UNL     1     -21.514  18.483  11.031  1.00 20.00     0.053 C 
HETATM    6  C6  UNL     1     -23.466  19.107   9.701  1.00 20.00     0.104 C 
HETATM    7  C7  UNL     1     -22.280  18.118   9.785  1.00 20.00     0.101 C 
HETATM    8  N8  UNL     1     -21.939  18.599   8.456  1.00 20.00    -0.355 N 
HETATM    9  O9  UNL     1     -23.879  19.109   7.181  1.00 20.00    -0.273 OA
HETATM   10  H18 UNL     1     -21.254  18.280   7.782  1.00 20.00     0.162 HD
ENDROOT
TORSDOF 0
ENDMDL
