MODEL 1
REMARK VINA RESULT:      -4.3      0.000      0.000
REMARK  0 active torsions:
REMARK  status: ('A' for Active; 'I' for Inactive)
ROOT
HETATM    1  C1  UNL     1     -33.622   8.598   5.371  1.00 20.00     0.029 C 
HETATM    2  C2  UNL     1     -33.906   7.230   5.990  1.00 20.00     0.048 C 
HETATM    3  C3  UNL     1     -32.513   8.498   4.332  1.00 20.00     0.170 C 
HETATM    4  C4  UNL     1     -32.950   6.206   3.902  1.00 20.00     0.255 C 
HETATM    5  C5  UNL     1     -34.108   6.146   4.919  1.00 20.00     0.152 C 
HETATM    6  O6  UNL     1     -32.827   7.517   3.344  1.00 20.00    -0.367 OA
HETATM    7 CL7  UNL     1     -33.129   5.048   2.551  1.00 20.00    -0.092 Cl
HETATM    8 CL8  UNL     1     -34.161   4.543   5.727  1.00 20.00    -0.098 Cl
HETATM    9 CL9  UNL     1     -35.698   6.408   4.110  1.00 20.00    -0.098 Cl
ENDROOT
TORSDOF 0
ENDMDL
MODEL 2
REMARK VINA RESULT:      -3.6      1.723      2.598
REMARK  0 active torsions:
REMARK  status: ('A' for Active; 'I' for Inactive)
ROOT
HETATM    1  C1  UNL     1     -34.684   5.511   6.510  1.00 20.00     0.029 C 
HETATM    2  C2  UNL     1     -34.190   4.852   5.222  1.00 20.00     0.048 C 
HETATM    3  C3  UNL     1     -33.841   6.735   6.844  1.00 20.00     0.170 C 
HETATM    4  C4  UNL     1     -33.218   7.080   4.581  1.00 20.00     0.255 C 
HETATM    5  C5  UNL     1     -34.031   5.869   4.081  1.00 20.00     0.152 C 
HETATM    6  O6  UNL     1     -33.814   7.649   5.749  1.00 20.00    -0.367 OA
HETATM    7 CL7  UNL     1     -33.049   8.377   3.361  1.00 20.00    -0.092 Cl
HETATM    8 CL8  UNL     1     -33.196   5.066   2.708  1.00 20.00    -0.098 Cl
HETATM    9 CL9  UNL     1     -35.666   6.374   3.513  1.00 20.00    -0.098 Cl
ENDROOT
TORSDOF 0
ENDMDL
MODEL 3
REMARK VINA RESULT:      -3.5      9.110     10.269
REMARK  0 active torsions:
REMARK  status: ('A' for Active; 'I' for Inactive)
ROOT
HETATM    1  C1  UNL     1     -39.839  11.807   5.106  1.00 20.00     0.029 C 
HETATM    2  C2  UNL     1     -40.760  13.007   4.885  1.00 20.00     0.048 C 
HETATM    3  C3  UNL     1     -38.810  12.111   6.185  1.00 20.00     0.170 C 
HETATM    4  C4  UNL     1     -40.193  13.736   7.223  1.00 20.00     0.255 C 
HETATM    5  C5  UNL     1     -41.336  13.540   6.207  1.00 20.00     0.152 C 
HETATM    6  O6  UNL     1     -39.446  12.529   7.393  1.00 20.00    -0.367 OA
HETATM    7 CL7  UNL     1     -40.758  14.265   8.836  1.00 20.00    -0.092 Cl
HETATM    8 CL8  UNL     1     -42.173  15.096   5.884  1.00 20.00    -0.098 Cl
HETATM    9 CL9  UNL     1     -42.562  12.372   6.826  1.00 20.00    -0.098 Cl
ENDROOT
TORSDOF 0
ENDMDL
MODEL 4
REMARK VINA RESULT:      -3.2     12.474     13.569
REMARK  0 active torsions:
REMARK  status: ('A' for Active; 'I' for Inactive)
ROOT
HETATM    1  C1  UNL     1     -32.297  18.524   0.496  1.00 20.00     0.029 C 
HETATM    2  C2  UNL     1     -31.968  18.801  -0.971  1.00 20.00     0.048 C 
HETATM    3  C3  UNL     1     -33.583  19.231   0.901  1.00 20.00     0.170 C 
HETATM    4  C4  UNL     1     -34.414  19.261  -1.321  1.00 20.00     0.255 C 
HETATM    5  C5  UNL     1     -33.174  18.542  -1.888  1.00 20.00     0.152 C 
HETATM    6  O6  UNL     1     -34.657  18.872   0.033  1.00 20.00    -0.367 OA
HETATM    7 CL7  UNL     1     -35.906  18.953  -2.259  1.00 20.00    -0.092 Cl
HETATM    8 CL8  UNL     1     -32.784  19.149  -3.534  1.00 20.00    -0.098 Cl
HETATM    9 CL9  UNL     1     -33.451  16.765  -2.007  1.00 20.00    -0.098 Cl
ENDROOT
TORSDOF 0
ENDMDL
MODEL 5
REMARK VINA RESULT:      -3.2     10.448     11.322
REMARK  0 active torsions:
REMARK  status: ('A' for Active; 'I' for Inactive)
ROOT
HETATM    1  C1  UNL     1     -40.241  15.083   8.716  1.00 20.00     0.029 C 
HETATM    2  C2  UNL     1     -40.633  15.216   7.245  1.00 20.00     0.048 C 
HETATM    3  C3  UNL     1     -41.402  14.532   9.533  1.00 20.00     0.170 C 
HETATM    4  C4  UNL     1     -42.370  13.447   7.659  1.00 20.00     0.255 C 
HETATM    5  C5  UNL     1     -41.262  13.923   6.700  1.00 20.00     0.152 C 
HETATM    6  O6  UNL     1     -41.867  13.298   8.989  1.00 20.00    -0.367 OA
HETATM    7 CL7  UNL     1     -43.112  11.893   7.174  1.00 20.00    -0.092 Cl
HETATM    8 CL8  UNL     1     -41.933  14.255   5.067  1.00 20.00    -0.098 Cl
HETATM    9 CL9  UNL     1     -39.974  12.673   6.523  1.00 20.00    -0.098 Cl
ENDROOT
TORSDOF 0
ENDMDL
MODEL 6
REMARK VINA RESULT:      -3.1     12.755     13.760
REMARK  0 active torsions:
REMARK  status: ('A' for Active; 'I' for Inactive)
ROOT
HETATM    1  C1  UNL     1     -33.568  15.852  -3.207  1.00 20.00     0.029 C 
HETATM    2  C2  UNL     1     -33.238  15.285  -4.588  1.00 20.00     0.048 C 
HETATM    3  C3  UNL     1     -33.940  17.325  -3.306  1.00 20.00     0.170 C 
HETATM    4  C4  UNL     1     -34.648  17.125  -5.562  1.00 20.00     0.255 C 
HETATM    5  C5  UNL     1     -34.327  15.618  -5.620  1.00 20.00     0.152 C 
HETATM    6  O6  UNL     1     -35.006  17.520  -4.235  1.00 20.00    -0.367 OA
HETATM    7 CL7  UNL     1     -35.975  17.613  -6.658  1.00 20.00    -0.092 Cl
HETATM    8 CL8  UNL     1     -33.732  15.157  -7.252  1.00 20.00    -0.098 Cl
HETATM    9 CL9  UNL     1     -35.792  14.627  -5.268  1.00 20.00    -0.098 Cl
ENDROOT
TORSDOF 0
ENDMDL
MODEL 7
REMARK VINA RESULT:      -3.1     13.069     13.916
REMARK  0 active torsions:
REMARK  status: ('A' for Active; 'I' for Inactive)
ROOT
HETATM    1  C1  UNL     1     -33.027  15.602  -3.844  1.00 20.00     0.029 C 
HETATM    2  C2  UNL     1     -33.552  16.504  -2.728  1.00 20.00     0.048 C 
HETATM    3  C3  UNL     1     -34.090  15.399  -4.915  1.00 20.00     0.170 C 
HETATM    4  C4  UNL     1     -35.180  17.442  -4.398  1.00 20.00     0.255 C 
HETATM    5  C5  UNL     1     -34.179  17.795  -3.280  1.00 20.00     0.152 C 
HETATM    6  O6  UNL     1     -34.556  16.653  -5.414  1.00 20.00    -0.367 OA
HETATM    7 CL7  UNL     1     -35.904  18.877  -5.183  1.00 20.00    -0.092 Cl
HETATM    8 CL8  UNL     1     -35.003  18.654  -1.935  1.00 20.00    -0.098 Cl
HETATM    9 CL9  UNL     1     -32.867  18.867  -3.897  1.00 20.00    -0.098 Cl
ENDROOT
TORSDOF 0
ENDMDL
MODEL 8
REMARK VINA RESULT:      -3.0     16.039     16.751
REMARK  0 active torsions:
REMARK  status: ('A' for Active; 'I' for Inactive)
ROOT
HETATM    1  C1  UNL     1     -21.621  18.840   8.410  1.00 20.00     0.029 C 
HETATM    2  C2  UNL     1     -21.810  19.263   9.866  1.00 20.00     0.048 C 
HETATM    3  C3  UNL     1     -21.622  17.323   8.286  1.00 20.00     0.170 C 
HETATM    4  C4  UNL     1     -22.913  17.037  10.256  1.00 20.00     0.255 C 
HETATM    5  C5  UNL     1     -23.008  18.554  10.518  1.00 20.00     0.152 C 
HETATM    6  O6  UNL     1     -22.806  16.766   8.857  1.00 20.00    -0.367 OA
HETATM    7 CL7  UNL     1     -24.309  16.116  10.890  1.00 20.00    -0.092 Cl
HETATM    8 CL8  UNL     1     -22.988  18.897  12.281  1.00 20.00    -0.098 Cl
HETATM    9 CL9  UNL     1     -24.534  19.236   9.841  1.00 20.00    -0.098 Cl
ENDROOT
TORSDOF 0
ENDMDL
MODEL 9
REMARK VINA RESULT:      -3.0     13.251     14.229
REMARK  0 active torsions:
REMARK  status: ('A' for Active; 'I' for Inactive)
ROOT
HETATM    1  C1  UNL     1     -34.423  14.316  -4.538  1.00 20.00     0.029 C 
HETATM    2  C2  UNL     1     -34.122  15.785  -4.834  1.00 20.00     0.048 C 
HETATM    3  C3  UNL     1     -35.896  14.012  -4.771  1.00 20.00     0.170 C 
HETATM    4  C4  UNL     1     -36.147  15.789  -6.323  1.00 20.00     0.255 C 
HETATM    5  C5  UNL     1     -34.672  16.220  -6.202  1.00 20.00     0.152 C 
HETATM    6  O6  UNL     1     -36.291  14.386  -6.091  1.00 20.00    -0.367 OA
HETATM    7 CL7  UNL     1     -36.868  16.160  -7.918  1.00 20.00    -0.092 Cl
HETATM    8 CL8  UNL     1     -34.517  18.004  -6.343  1.00 20.00    -0.098 Cl
HETATM    9 CL9  UNL     1     -33.668  15.475  -7.501  1.00 20.00    -0.098 Cl
ENDROOT
TORSDOF 0
ENDMDL
