MODEL 1
REMARK VINA RESULT:      -4.4      0.000      0.000
REMARK  3 active torsions:
REMARK  status: ('A' for Active; 'I' for Inactive)
REMARK    1  A    between atoms: C2_2  and  C5_5 
REMARK    2  A    between atoms: C2_2  and  O10_10 
REMARK    3  A    between atoms: C7_7  and  O10_10 
ROOT
HETATM    1  C1  UNL     1     -32.204   8.026   2.261  1.00 20.00     0.065 C 
HETATM    2  C3  UNL     1     -32.223   8.838   4.656  1.00 20.00     0.036 A 
HETATM    3  C4  UNL     1     -32.237   7.711   3.659  1.00 20.00     0.107 A 
HETATM    4  C5  UNL     1     -33.483   8.041   4.447  1.00 20.00     0.104 A 
HETATM    5  N8  UNL     1     -32.178   8.281   1.129  1.00 20.00    -0.197 NA
ENDROOT
BRANCH   4   6
HETATM    6  C2  UNL     1     -33.930   7.118   5.497  1.00 20.00     0.264 C 
HETATM    7  O9  UNL     1     -33.465   7.090   6.629  1.00 20.00    -0.265 OA
BRANCH   6   8
HETATM    8  O10 UNL     1     -34.922   6.320   5.010  1.00 20.00    -0.322 OA
BRANCH   8   9
HETATM    9  C7  UNL     1     -34.705   4.912   5.152  1.00 20.00     0.174 C 
HETATM   10  C6  UNL     1     -33.886   4.418   3.978  1.00 20.00     0.034 C 
ENDBRANCH   8   9
ENDBRANCH   6   8
ENDBRANCH   4   6
TORSDOF 3
ENDMDL
MODEL 2
REMARK VINA RESULT:      -3.9     12.030     12.580
REMARK  3 active torsions:
REMARK  status: ('A' for Active; 'I' for Inactive)
REMARK    1  A    between atoms: C2_2  and  C5_5 
REMARK    2  A    between atoms: C2_2  and  O10_10 
REMARK    3  A    between atoms: C7_7  and  O10_10 
ROOT
HETATM    1  C1  UNL     1     -29.151  18.586   3.336  1.00 20.00     0.065 C 
HETATM    2  C3  UNL     1     -31.561  19.100   2.767  1.00 20.00     0.036 A 
HETATM    3  C4  UNL     1     -30.317  18.279   2.561  1.00 20.00     0.107 A 
HETATM    4  C5  UNL     1     -30.762  19.259   1.501  1.00 20.00     0.104 A 
HETATM    5  N8  UNL     1     -28.207  18.835   3.963  1.00 20.00    -0.197 NA
ENDROOT
BRANCH   4   6
HETATM    6  C2  UNL     1     -31.310  18.747   0.239  1.00 20.00     0.264 C 
HETATM    7  O9  UNL     1     -30.659  18.619  -0.789  1.00 20.00    -0.265 OA
BRANCH   6   8
HETATM    8  O10 UNL     1     -32.630  18.448   0.404  1.00 20.00    -0.322 OA
BRANCH   8   9
HETATM    9  C7  UNL     1     -33.449  18.618  -0.758  1.00 20.00     0.174 C 
HETATM   10  C6  UNL     1     -33.679  17.267  -1.401  1.00 20.00     0.034 C 
ENDBRANCH   8   9
ENDBRANCH   6   8
ENDBRANCH   4   6
TORSDOF 3
ENDMDL
MODEL 3
REMARK VINA RESULT:      -3.8      2.375      3.724
REMARK  3 active torsions:
REMARK  status: ('A' for Active; 'I' for Inactive)
REMARK    1  A    between atoms: C2_2  and  C5_5 
REMARK    2  A    between atoms: C2_2  and  O10_10 
REMARK    3  A    between atoms: C7_7  and  O10_10 
ROOT
HETATM    1  C1  UNL     1     -34.287   4.845   4.664  1.00 20.00     0.065 C 
HETATM    2  C3  UNL     1     -34.561   6.480   6.573  1.00 20.00     0.036 A 
HETATM    3  C4  UNL     1     -34.540   6.187   5.097  1.00 20.00     0.107 A 
HETATM    4  C5  UNL     1     -33.413   6.968   5.730  1.00 20.00     0.104 A 
HETATM    5  N8  UNL     1     -34.082   3.757   4.312  1.00 20.00    -0.197 NA
ENDROOT
BRANCH   4   6
HETATM    6  C2  UNL     1     -33.291   8.404   5.448  1.00 20.00     0.264 C 
HETATM    7  O9  UNL     1     -34.051   9.256   5.888  1.00 20.00    -0.265 OA
BRANCH   6   8
HETATM    8  O10 UNL     1     -32.218   8.618   4.633  1.00 20.00    -0.322 OA
BRANCH   8   9
HETATM    9  C7  UNL     1     -32.515   8.698   3.235  1.00 20.00     0.174 C 
HETATM   10  C6  UNL     1     -32.140   7.388   2.575  1.00 20.00     0.034 C 
ENDBRANCH   8   9
ENDBRANCH   6   8
ENDBRANCH   4   6
TORSDOF 3
ENDMDL
MODEL 4
REMARK VINA RESULT:      -3.7      1.292      1.709
REMARK  3 active torsions:
REMARK  status: ('A' for Active; 'I' for Inactive)
REMARK    1  A    between atoms: C2_2  and  C5_5 
REMARK    2  A    between atoms: C2_2  and  O10_10 
REMARK    3  A    between atoms: C7_7  and  O10_10 
ROOT
HETATM    1  C1  UNL     1     -32.725   8.460   3.735  1.00 20.00     0.065 C 
HETATM    2  C3  UNL     1     -33.805   8.114   5.995  1.00 20.00     0.036 A 
HETATM    3  C4  UNL     1     -32.970   7.599   4.855  1.00 20.00     0.107 A 
HETATM    4  C5  UNL     1     -34.368   7.069   5.069  1.00 20.00     0.104 A 
HETATM    5  N8  UNL     1     -32.527   9.157   2.828  1.00 20.00    -0.197 NA
ENDROOT
BRANCH   4   6
HETATM    6  C2  UNL     1     -34.545   5.697   5.560  1.00 20.00     0.264 C 
HETATM    7  O9  UNL     1     -34.458   5.372   6.736  1.00 20.00    -0.265 OA
BRANCH   6   8
HETATM    8  O10 UNL     1     -34.814   4.869   4.509  1.00 20.00    -0.322 OA
BRANCH   8   9
HETATM    9  C7  UNL     1     -33.690   4.155   3.987  1.00 20.00     0.174 C 
HETATM   10  C6  UNL     1     -33.219   4.834   2.718  1.00 20.00     0.034 C 
ENDBRANCH   8   9
ENDBRANCH   6   8
ENDBRANCH   4   6
TORSDOF 3
ENDMDL
MODEL 5
REMARK VINA RESULT:      -3.7      2.509      3.809
REMARK  3 active torsions:
REMARK  status: ('A' for Active; 'I' for Inactive)
REMARK    1  A    between atoms: C2_2  and  C5_5 
REMARK    2  A    between atoms: C2_2  and  O10_10 
REMARK    3  A    between atoms: C7_7  and  O10_10 
ROOT
HETATM    1  C1  UNL     1     -34.448   5.387   4.785  1.00 20.00     0.065 C 
HETATM    2  C3  UNL     1     -33.891   7.312   6.327  1.00 20.00     0.036 A 
HETATM    3  C4  UNL     1     -34.304   6.800   4.974  1.00 20.00     0.107 A 
HETATM    4  C5  UNL     1     -32.918   7.366   5.180  1.00 20.00     0.104 A 
HETATM    5  N8  UNL     1     -34.565   4.242   4.632  1.00 20.00    -0.197 NA
ENDROOT
BRANCH   4   6
HETATM    6  C2  UNL     1     -32.581   8.665   4.586  1.00 20.00     0.264 C 
HETATM    7  O9  UNL     1     -32.114   9.606   5.214  1.00 20.00    -0.265 OA
BRANCH   6   8
HETATM    8  O10 UNL     1     -32.869   8.646   3.253  1.00 20.00    -0.322 OA
BRANCH   8   9
HETATM    9  C7  UNL     1     -32.092   7.734   2.470  1.00 20.00     0.174 C 
HETATM   10  C6  UNL     1     -32.053   8.224   1.038  1.00 20.00     0.034 C 
ENDBRANCH   8   9
ENDBRANCH   6   8
ENDBRANCH   4   6
TORSDOF 3
ENDMDL
MODEL 6
REMARK VINA RESULT:      -3.7     11.727     12.819
REMARK  3 active torsions:
REMARK  status: ('A' for Active; 'I' for Inactive)
REMARK    1  A    between atoms: C2_2  and  C5_5 
REMARK    2  A    between atoms: C2_2  and  O10_10 
REMARK    3  A    between atoms: C7_7  and  O10_10 
ROOT
HETATM    1  C1  UNL     1     -35.659  14.738  -6.232  1.00 20.00     0.065 C 
HETATM    2  C3  UNL     1     -34.164  14.400  -4.221  1.00 20.00     0.036 A 
HETATM    3  C4  UNL     1     -35.237  15.176  -4.934  1.00 20.00     0.107 A 
HETATM    4  C5  UNL     1     -33.854  15.762  -4.782  1.00 20.00     0.104 A 
HETATM    5  N8  UNL     1     -36.001  14.382  -7.284  1.00 20.00    -0.197 NA
ENDROOT
BRANCH   4   6
HETATM    6  C2  UNL     1     -33.651  16.887  -3.861  1.00 20.00     0.264 C 
HETATM    7  O9  UNL     1     -33.812  18.061  -4.166  1.00 20.00    -0.265 OA
BRANCH   6   8
HETATM    8  O10 UNL     1     -33.264  16.413  -2.642  1.00 20.00    -0.322 OA
BRANCH   8   9
HETATM    9  C7  UNL     1     -33.599  17.244  -1.525  1.00 20.00     0.174 C 
HETATM   10  C6  UNL     1     -32.373  18.027  -1.107  1.00 20.00     0.034 C 
ENDBRANCH   8   9
ENDBRANCH   6   8
ENDBRANCH   4   6
TORSDOF 3
ENDMDL
MODEL 7
REMARK VINA RESULT:      -3.6     12.336     13.141
REMARK  3 active torsions:
REMARK  status: ('A' for Active; 'I' for Inactive)
REMARK    1  A    between atoms: C2_2  and  C5_5 
REMARK    2  A    between atoms: C2_2  and  O10_10 
REMARK    3  A    between atoms: C7_7  and  O10_10 
ROOT
HETATM    1  C1  UNL     1     -31.284  18.605  -0.209  1.00 20.00     0.065 C 
HETATM    2  C3  UNL     1     -33.615  17.873  -0.860  1.00 20.00     0.036 A 
HETATM    3  C4  UNL     1     -32.149  17.994  -1.175  1.00 20.00     0.107 A 
HETATM    4  C5  UNL     1     -33.153  18.860  -1.898  1.00 20.00     0.104 A 
HETATM    5  N8  UNL     1     -30.583  19.099   0.574  1.00 20.00    -0.197 NA
ENDROOT
BRANCH   4   6
HETATM    6  C2  UNL     1     -33.435  18.597  -3.315  1.00 20.00     0.264 C 
HETATM    7  O9  UNL     1     -32.843  19.130  -4.243  1.00 20.00    -0.265 OA
BRANCH   6   8
HETATM    8  O10 UNL     1     -34.443  17.683  -3.415  1.00 20.00    -0.322 OA
BRANCH   8   9
HETATM    9  C7  UNL     1     -34.246  16.656  -4.392  1.00 20.00     0.174 C 
HETATM   10  C6  UNL     1     -33.396  15.558  -3.789  1.00 20.00     0.034 C 
ENDBRANCH   8   9
ENDBRANCH   6   8
ENDBRANCH   4   6
TORSDOF 3
ENDMDL
MODEL 8
REMARK VINA RESULT:      -3.6     11.616     12.549
REMARK  3 active torsions:
REMARK  status: ('A' for Active; 'I' for Inactive)
REMARK    1  A    between atoms: C2_2  and  C5_5 
REMARK    2  A    between atoms: C2_2  and  O10_10 
REMARK    3  A    between atoms: C7_7  and  O10_10 
ROOT
HETATM    1  C1  UNL     1     -33.672  15.252  -3.815  1.00 20.00     0.065 C 
HETATM    2  C3  UNL     1     -34.221  17.718  -3.702  1.00 20.00     0.036 A 
HETATM    3  C4  UNL     1     -33.227  16.595  -3.585  1.00 20.00     0.107 A 
HETATM    4  C5  UNL     1     -33.706  17.315  -2.347  1.00 20.00     0.104 A 
HETATM    5  N8  UNL     1     -34.033  14.164  -4.001  1.00 20.00    -0.197 NA
ENDROOT
BRANCH   4   6
HETATM    6  C2  UNL     1     -32.783  18.208  -1.636  1.00 20.00     0.264 C 
HETATM    7  O9  UNL     1     -32.111  19.074  -2.180  1.00 20.00    -0.265 OA
BRANCH   6   8
HETATM    8  O10 UNL     1     -32.799  17.914  -0.304  1.00 20.00    -0.322 OA
BRANCH   8   9
HETATM    9  C7  UNL     1     -32.236  18.913   0.552  1.00 20.00     0.174 C 
HETATM   10  C6  UNL     1     -30.908  18.416   1.083  1.00 20.00     0.034 C 
ENDBRANCH   8   9
ENDBRANCH   6   8
ENDBRANCH   4   6
TORSDOF 3
ENDMDL
MODEL 9
REMARK VINA RESULT:      -3.6     12.219     12.717
REMARK  3 active torsions:
REMARK  status: ('A' for Active; 'I' for Inactive)
REMARK    1  A    between atoms: C2_2  and  C5_5 
REMARK    2  A    between atoms: C2_2  and  O10_10 
REMARK    3  A    between atoms: C7_7  and  O10_10 
ROOT
HETATM    1  C1  UNL     1     -31.964  18.234  -1.108  1.00 20.00     0.065 C 
HETATM    2  C3  UNL     1     -34.215  18.069  -2.247  1.00 20.00     0.036 A 
HETATM    3  C4  UNL     1     -32.981  17.411  -1.692  1.00 20.00     0.107 A 
HETATM    4  C5  UNL     1     -33.197  17.478  -3.186  1.00 20.00     0.104 A 
HETATM    5  N8  UNL     1     -31.140  18.901  -0.634  1.00 20.00    -0.197 NA
ENDROOT
BRANCH   4   6
HETATM    6  C2  UNL     1     -33.526  16.248  -3.917  1.00 20.00     0.264 C 
HETATM    7  O9  UNL     1     -32.790  15.272  -3.983  1.00 20.00    -0.265 OA
BRANCH   6   8
HETATM    8  O10 UNL     1     -34.755  16.375  -4.493  1.00 20.00    -0.322 OA
BRANCH   8   9
HETATM    9  C7  UNL     1     -34.917  15.706  -5.748  1.00 20.00     0.174 C 
HETATM   10  C6  UNL     1     -35.892  14.560  -5.574  1.00 20.00     0.034 C 
ENDBRANCH   8   9
ENDBRANCH   6   8
ENDBRANCH   4   6
TORSDOF 3
ENDMDL
