MODEL 1
REMARK VINA RESULT:      -3.2      0.000      0.000
REMARK  0 active torsions:
REMARK  status: ('A' for Active; 'I' for Inactive)
ROOT
HETATM    1  C1  UNL     1     -24.530  18.813   9.481  1.00 20.00     0.197 C 
HETATM    2  C2  UNL     1     -23.123  18.415   9.131  1.00 20.00     0.197 C 
HETATM    3  C3  UNL     1     -23.619  17.669  11.214  1.00 20.00     0.156 C 
HETATM    4  C4  UNL     1     -24.379  16.419  11.641  1.00 20.00     0.078 C 
HETATM    5  C5  UNL     1     -22.693  18.159  12.320  1.00 20.00     0.078 C 
HETATM    6  O6  UNL     1     -24.557  18.713  10.905  1.00 20.00    -0.354 OA
HETATM    7  O7  UNL     1     -22.841  17.357  10.047  1.00 20.00    -0.354 OA
ENDROOT
TORSDOF 0
ENDMDL
MODEL 2
REMARK VINA RESULT:      -3.2      0.130      2.009
REMARK  0 active torsions:
REMARK  status: ('A' for Active; 'I' for Inactive)
ROOT
HETATM    1  C1  UNL     1     -23.128  18.601   9.143  1.00 20.00     0.197 C 
HETATM    2  C2  UNL     1     -24.565  18.905   9.463  1.00 20.00     0.197 C 
HETATM    3  C3  UNL     1     -23.640  17.749  11.181  1.00 20.00     0.156 C 
HETATM    4  C4  UNL     1     -22.777  18.249  12.332  1.00 20.00     0.078 C 
HETATM    5  C5  UNL     1     -24.338  16.443  11.539  1.00 20.00     0.078 C 
HETATM    6  O6  UNL     1     -22.813  17.527  10.028  1.00 20.00    -0.354 OA
HETATM    7  O7  UNL     1     -24.629  18.749  10.880  1.00 20.00    -0.354 OA
ENDROOT
TORSDOF 0
ENDMDL
MODEL 3
REMARK VINA RESULT:      -3.1     16.012     16.913
REMARK  0 active torsions:
REMARK  status: ('A' for Active; 'I' for Inactive)
ROOT
HETATM    1  C1  UNL     1     -33.122   7.467   5.418  1.00 20.00     0.197 C 
HETATM    2  C2  UNL     1     -34.121   7.213   6.514  1.00 20.00     0.197 C 
HETATM    3  C3  UNL     1     -34.550   5.830   4.769  1.00 20.00     0.156 C 
HETATM    4  C4  UNL     1     -33.896   4.504   4.399  1.00 20.00     0.078 C 
HETATM    5  C5  UNL     1     -35.949   5.942   4.177  1.00 20.00     0.078 C 
HETATM    6  O6  UNL     1     -33.750   6.911   4.264  1.00 20.00    -0.354 OA
HETATM    7  O7  UNL     1     -34.632   5.918   6.201  1.00 20.00    -0.354 OA
ENDROOT
TORSDOF 0
ENDMDL
MODEL 4
REMARK VINA RESULT:      -3.1     16.000     16.864
REMARK  0 active torsions:
REMARK  status: ('A' for Active; 'I' for Inactive)
ROOT
HETATM    1  C1  UNL     1     -34.066   7.210   6.513  1.00 20.00     0.197 C 
HETATM    2  C2  UNL     1     -33.072   7.436   5.407  1.00 20.00     0.197 C 
HETATM    3  C3  UNL     1     -34.544   5.831   4.777  1.00 20.00     0.156 C 
HETATM    4  C4  UNL     1     -35.946   5.975   4.199  1.00 20.00     0.078 C 
HETATM    5  C5  UNL     1     -33.926   4.490   4.405  1.00 20.00     0.078 C 
HETATM    6  O6  UNL     1     -34.609   5.926   6.209  1.00 20.00    -0.354 OA
HETATM    7  O7  UNL     1     -33.723   6.892   4.260  1.00 20.00    -0.354 OA
ENDROOT
TORSDOF 0
ENDMDL
MODEL 5
REMARK VINA RESULT:      -3.1      1.368      2.518
REMARK  0 active torsions:
REMARK  status: ('A' for Active; 'I' for Inactive)
ROOT
HETATM    1  C1  UNL     1     -25.341  18.158  12.209  1.00 20.00     0.197 C 
HETATM    2  C2  UNL     1     -25.081  16.689  12.017  1.00 20.00     0.197 C 
HETATM    3  C3  UNL     1     -23.227  17.862  11.444  1.00 20.00     0.156 C 
HETATM    4  C4  UNL     1     -22.128  18.433  12.332  1.00 20.00     0.078 C 
HETATM    5  C5  UNL     1     -22.732  17.644  10.020  1.00 20.00     0.078 C 
HETATM    6  O6  UNL     1     -24.334  18.778  11.411  1.00 20.00    -0.354 OA
HETATM    7  O7  UNL     1     -23.656  16.606  11.995  1.00 20.00    -0.354 OA
ENDROOT
TORSDOF 0
ENDMDL
MODEL 6
REMARK VINA RESULT:      -3.1      1.106      2.769
REMARK  0 active torsions:
REMARK  status: ('A' for Active; 'I' for Inactive)
ROOT
HETATM    1  C1  UNL     1     -22.738  18.067  12.118  1.00 20.00     0.197 C 
HETATM    2  C2  UNL     1     -24.025  17.307  11.948  1.00 20.00     0.197 C 
HETATM    3  C3  UNL     1     -23.276  17.981   9.917  1.00 20.00     0.156 C 
HETATM    4  C4  UNL     1     -22.223  17.350   9.013  1.00 20.00     0.078 C 
HETATM    5  C5  UNL     1     -24.243  18.846   9.120  1.00 20.00     0.078 C 
HETATM    6  O6  UNL     1     -22.627  18.803  10.900  1.00 20.00    -0.354 OA
HETATM    7  O7  UNL     1     -24.007  16.931  10.571  1.00 20.00    -0.354 OA
ENDROOT
TORSDOF 0
ENDMDL
MODEL 7
REMARK VINA RESULT:      -3.1     17.416     18.148
REMARK  0 active torsions:
REMARK  status: ('A' for Active; 'I' for Inactive)
ROOT
HETATM    1  C1  UNL     1     -39.728  12.077   4.658  1.00 20.00     0.197 C 
HETATM    2  C2  UNL     1     -38.843  12.031   5.873  1.00 20.00     0.197 C 
HETATM    3  C3  UNL     1     -40.793  13.062   6.400  1.00 20.00     0.156 C 
HETATM    4  C4  UNL     1     -42.142  12.455   6.765  1.00 20.00     0.078 C 
HETATM    5  C5  UNL     1     -40.656  14.477   6.946  1.00 20.00     0.078 C 
HETATM    6  O6  UNL     1     -40.665  13.107   4.970  1.00 20.00    -0.354 OA
HETATM    7  O7  UNL     1     -39.754  12.237   6.952  1.00 20.00    -0.354 OA
ENDROOT
TORSDOF 0
ENDMDL
MODEL 8
REMARK VINA RESULT:      -3.1     17.426     18.221
REMARK  0 active torsions:
REMARK  status: ('A' for Active; 'I' for Inactive)
ROOT
HETATM    1  C1  UNL     1     -38.863  12.034   5.906  1.00 20.00     0.197 C 
HETATM    2  C2  UNL     1     -39.735  12.083   4.681  1.00 20.00     0.197 C 
HETATM    3  C3  UNL     1     -40.813  13.074   6.413  1.00 20.00     0.156 C 
HETATM    4  C4  UNL     1     -40.673  14.490   6.959  1.00 20.00     0.078 C 
HETATM    5  C5  UNL     1     -42.169  12.476   6.765  1.00 20.00     0.078 C 
HETATM    6  O6  UNL     1     -39.784  12.244   6.975  1.00 20.00    -0.354 OA
HETATM    7  O7  UNL     1     -40.671  13.118   4.983  1.00 20.00    -0.354 OA
ENDROOT
TORSDOF 0
ENDMDL
MODEL 9
REMARK VINA RESULT:      -3.0     15.856     16.617
REMARK  0 active torsions:
REMARK  status: ('A' for Active; 'I' for Inactive)
ROOT
HETATM    1  C1  UNL     1     -33.308   8.072   4.420  1.00 20.00     0.197 C 
HETATM    2  C2  UNL     1     -32.559   6.971   3.721  1.00 20.00     0.197 C 
HETATM    3  C3  UNL     1     -34.376   6.102   4.763  1.00 20.00     0.156 C 
HETATM    4  C4  UNL     1     -35.828   6.060   4.304  1.00 20.00     0.078 C 
HETATM    5  C5  UNL     1     -34.083   5.003   5.776  1.00 20.00     0.078 C 
HETATM    6  O6  UNL     1     -34.107   7.374   5.374  1.00 20.00    -0.354 OA
HETATM    7  O7  UNL     1     -33.527   5.928   3.616  1.00 20.00    -0.354 OA
ENDROOT
TORSDOF 0
ENDMDL
