MODEL 1
REMARK VINA RESULT:      -4.4      0.000      0.000
REMARK  0 active torsions:
REMARK  status: ('A' for Active; 'I' for Inactive)
ROOT
HETATM    1  C1  UNL     1     -34.229   5.377   6.378  1.00 20.00     0.006 C 
HETATM    2  C2  UNL     1     -35.169   5.186   5.185  1.00 20.00     0.006 C 
HETATM    3  C3  UNL     1     -33.700   6.805   6.275  1.00 20.00     0.068 C 
HETATM    4  C4  UNL     1     -35.150   6.502   4.414  1.00 20.00     0.068 C 
HETATM    5  C5  UNL     1     -31.963   7.636   3.607  1.00 20.00     0.197 C 
HETATM    6  C6  UNL     1     -32.964   8.750   3.466  1.00 20.00     0.197 C 
HETATM    7  C7  UNL     1     -33.821   7.142   4.794  1.00 20.00     0.164 C 
HETATM    8  O8  UNL     1     -32.755   6.536   4.050  1.00 20.00    -0.353 OA
HETATM    9  O9  UNL     1     -33.832   8.552   4.582  1.00 20.00    -0.353 OA
ENDROOT
TORSDOF 0
ENDMDL
MODEL 2
REMARK VINA RESULT:      -4.0     15.641     16.494
REMARK  0 active torsions:
REMARK  status: ('A' for Active; 'I' for Inactive)
ROOT
HETATM    1  C1  UNL     1     -22.139  18.425   8.038  1.00 20.00     0.006 C 
HETATM    2  C2  UNL     1     -23.419  19.262   8.098  1.00 20.00     0.006 C 
HETATM    3  C3  UNL     1     -22.322  17.297   9.049  1.00 20.00     0.068 C 
HETATM    4  C4  UNL     1     -24.306  18.607   9.152  1.00 20.00     0.068 C 
HETATM    5  C5  UNL     1     -22.739  18.095  12.214  1.00 20.00     0.197 C 
HETATM    6  C6  UNL     1     -23.988  17.262  12.122  1.00 20.00     0.197 C 
HETATM    7  C7  UNL     1     -23.331  17.853  10.047  1.00 20.00     0.164 C 
HETATM    8  O8  UNL     1     -22.695  18.762  10.954  1.00 20.00    -0.353 OA
HETATM    9  O9  UNL     1     -23.977  16.806  10.770  1.00 20.00    -0.353 OA
ENDROOT
TORSDOF 0
ENDMDL
MODEL 3
REMARK VINA RESULT:      -3.7     15.215     16.219
REMARK  0 active torsions:
REMARK  status: ('A' for Active; 'I' for Inactive)
ROOT
HETATM    1  C1  UNL     1     -25.440  18.688  11.881  1.00 20.00     0.006 C 
HETATM    2  C2  UNL     1     -25.160  17.244  12.306  1.00 20.00     0.006 C 
HETATM    3  C3  UNL     1     -24.739  18.879  10.539  1.00 20.00     0.068 C 
HETATM    4  C4  UNL     1     -24.293  16.639  11.206  1.00 20.00     0.068 C 
HETATM    5  C5  UNL     1     -21.471  18.513  10.422  1.00 20.00     0.197 C 
HETATM    6  C6  UNL     1     -21.755  17.517   9.332  1.00 20.00     0.197 C 
HETATM    7  C7  UNL     1     -23.624  17.840  10.551  1.00 20.00     0.164 C 
HETATM    8  O8  UNL     1     -22.525  18.289  11.356  1.00 20.00    -0.353 OA
HETATM    9  O9  UNL     1     -23.178  17.542   9.229  1.00 20.00    -0.353 OA
ENDROOT
TORSDOF 0
ENDMDL
MODEL 4
REMARK VINA RESULT:      -3.6      8.906      9.742
REMARK  0 active torsions:
REMARK  status: ('A' for Active; 'I' for Inactive)
ROOT
HETATM    1  C1  UNL     1     -43.000  13.593   6.487  1.00 20.00     0.006 C 
HETATM    2  C2  UNL     1     -42.139  14.856   6.577  1.00 20.00     0.006 C 
HETATM    3  C3  UNL     1     -42.052  12.417   6.705  1.00 20.00     0.068 C 
HETATM    4  C4  UNL     1     -40.712  14.379   6.829  1.00 20.00     0.068 C 
HETATM    5  C5  UNL     1     -39.585  11.988   4.570  1.00 20.00     0.197 C 
HETATM    6  C6  UNL     1     -38.704  12.011   5.789  1.00 20.00     0.197 C 
HETATM    7  C7  UNL     1     -40.689  12.956   6.287  1.00 20.00     0.164 C 
HETATM    8  O8  UNL     1     -40.571  12.978   4.859  1.00 20.00    -0.353 OA
HETATM    9  O9  UNL     1     -39.631  12.189   6.859  1.00 20.00    -0.353 OA
ENDROOT
TORSDOF 0
ENDMDL
MODEL 5
REMARK VINA RESULT:      -3.6     12.186     12.970
REMARK  0 active torsions:
REMARK  status: ('A' for Active; 'I' for Inactive)
ROOT
HETATM    1  C1  UNL     1     -32.251  18.477   0.673  1.00 20.00     0.006 C 
HETATM    2  C2  UNL     1     -33.699  18.969   0.617  1.00 20.00     0.006 C 
HETATM    3  C3  UNL     1     -31.767  18.419  -0.773  1.00 20.00     0.068 C 
HETATM    4  C4  UNL     1     -34.023  19.170  -0.860  1.00 20.00     0.068 C 
HETATM    5  C5  UNL     1     -33.328  16.410  -2.859  1.00 20.00     0.197 C 
HETATM    6  C6  UNL     1     -33.496  17.640  -3.708  1.00 20.00     0.197 C 
HETATM    7  C7  UNL     1     -33.044  18.255  -1.587  1.00 20.00     0.164 C 
HETATM    8  O8  UNL     1     -33.507  16.900  -1.532  1.00 20.00    -0.353 OA
HETATM    9  O9  UNL     1     -32.852  18.657  -2.942  1.00 20.00    -0.353 OA
ENDROOT
TORSDOF 0
ENDMDL
MODEL 6
REMARK VINA RESULT:      -3.5      1.410      3.371
REMARK  0 active torsions:
REMARK  status: ('A' for Active; 'I' for Inactive)
ROOT
HETATM    1  C1  UNL     1     -31.815   7.977   3.901  1.00 20.00     0.006 C 
HETATM    2  C2  UNL     1     -32.584   9.019   4.716  1.00 20.00     0.006 C 
HETATM    3  C3  UNL     1     -32.776   6.811   3.689  1.00 20.00     0.068 C 
HETATM    4  C4  UNL     1     -33.967   8.425   4.969  1.00 20.00     0.068 C 
HETATM    5  C5  UNL     1     -33.917   5.230   6.339  1.00 20.00     0.197 C 
HETATM    6  C6  UNL     1     -35.276   5.532   5.770  1.00 20.00     0.197 C 
HETATM    7  C7  UNL     1     -33.757   6.921   4.850  1.00 20.00     0.164 C 
HETATM    8  O8  UNL     1     -33.171   6.412   6.055  1.00 20.00    -0.353 OA
HETATM    9  O9  UNL     1     -34.976   6.237   4.566  1.00 20.00    -0.353 OA
ENDROOT
TORSDOF 0
ENDMDL
MODEL 7
REMARK VINA RESULT:      -3.5      8.643     10.016
REMARK  0 active torsions:
REMARK  status: ('A' for Active; 'I' for Inactive)
ROOT
HETATM    1  C1  UNL     1     -40.803   8.284   0.280  1.00 20.00     0.006 C 
HETATM    2  C2  UNL     1     -41.958   8.300  -0.725  1.00 20.00     0.006 C 
HETATM    3  C3  UNL     1     -40.771   6.876   0.867  1.00 20.00     0.068 C 
HETATM    4  C4  UNL     1     -42.574   6.904  -0.685  1.00 20.00     0.068 C 
HETATM    5  C5  UNL     1     -43.417   5.808   2.505  1.00 20.00     0.197 C 
HETATM    6  C6  UNL     1     -43.376   4.648   1.549  1.00 20.00     0.197 C 
HETATM    7  C7  UNL     1     -42.195   6.365   0.688  1.00 20.00     0.164 C 
HETATM    8  O8  UNL     1     -43.059   6.921   1.688  1.00 20.00    -0.353 OA
HETATM    9  O9  UNL     1     -42.245   4.940   0.729  1.00 20.00    -0.353 OA
ENDROOT
TORSDOF 0
ENDMDL
MODEL 8
REMARK VINA RESULT:      -3.5      8.978     10.369
REMARK  0 active torsions:
REMARK  status: ('A' for Active; 'I' for Inactive)
ROOT
HETATM    1  C1  UNL     1     -42.311   8.560  -0.422  1.00 20.00     0.006 C 
HETATM    2  C2  UNL     1     -40.901   8.000  -0.218  1.00 20.00     0.006 C 
HETATM    3  C3  UNL     1     -43.242   7.674   0.401  1.00 20.00     0.068 C 
HETATM    4  C4  UNL     1     -41.052   6.795   0.707  1.00 20.00     0.068 C 
HETATM    5  C5  UNL     1     -43.417   4.475  -0.349  1.00 20.00     0.197 C 
HETATM    6  C6  UNL     1     -43.080   4.254   1.100  1.00 20.00     0.197 C 
HETATM    7  C7  UNL     1     -42.496   6.350   0.511  1.00 20.00     0.164 C 
HETATM    8  O8  UNL     1     -42.617   5.601  -0.705  1.00 20.00    -0.353 OA
HETATM    9  O9  UNL     1     -42.966   5.579   1.616  1.00 20.00    -0.353 OA
ENDROOT
TORSDOF 0
ENDMDL
MODEL 9
REMARK VINA RESULT:      -3.5     12.156     13.153
REMARK  0 active torsions:
REMARK  status: ('A' for Active; 'I' for Inactive)
ROOT
HETATM    1  C1  UNL     1     -33.496  17.078  -3.738  1.00 20.00     0.006 C 
HETATM    2  C2  UNL     1     -34.162  18.456  -3.736  1.00 20.00     0.006 C 
HETATM    3  C3  UNL     1     -33.316  16.691  -2.272  1.00 20.00     0.068 C 
HETATM    4  C4  UNL     1     -34.339  18.840  -2.269  1.00 20.00     0.068 C 
HETATM    5  C5  UNL     1     -31.433  18.609  -0.374  1.00 20.00     0.197 C 
HETATM    6  C6  UNL     1     -32.637  18.675   0.524  1.00 20.00     0.197 C 
HETATM    7  C7  UNL     1     -33.280  18.026  -1.537  1.00 20.00     0.164 C 
HETATM    8  O8  UNL     1     -31.997  18.648  -1.684  1.00 20.00    -0.353 OA
HETATM    9  O9  UNL     1     -33.596  17.866  -0.155  1.00 20.00    -0.353 OA
ENDROOT
TORSDOF 0
ENDMDL
