MODEL 1
REMARK VINA RESULT:      -4.8      0.000      0.000
REMARK  0 active torsions:
REMARK  status: ('A' for Active; 'I' for Inactive)
ROOT
HETATM    1  C1  UNL     1     -33.529   6.962   6.699  1.00 20.00    -0.028 C 
HETATM    2  C2  UNL     1     -34.266   5.907   6.338  1.00 20.00    -0.023 C 
HETATM    3  C3  UNL     1     -33.329   5.464   3.336  1.00 20.00     0.259 C 
HETATM    4  C4  UNL     1     -33.530   8.027   5.650  1.00 20.00     0.060 C 
HETATM    5  C5  UNL     1     -34.598   5.007   3.992  1.00 20.00     0.122 C 
HETATM    6  C6  UNL     1     -34.895   6.102   4.991  1.00 20.00     0.047 C 
HETATM    7  C7  UNL     1     -34.146   7.310   4.448  1.00 20.00     0.143 C 
HETATM    8  O8  UNL     1     -32.615   4.774   2.625  1.00 20.00    -0.265 OA
HETATM    9  O9  UNL     1     -33.102   6.780   3.614  1.00 20.00    -0.315 OA
ENDROOT
TORSDOF 0
ENDMDL
MODEL 2
REMARK VINA RESULT:      -4.7      1.884      2.840
REMARK  0 active torsions:
REMARK  status: ('A' for Active; 'I' for Inactive)
ROOT
HETATM    1  C1  UNL     1     -34.153   4.582   5.188  1.00 20.00    -0.028 C 
HETATM    2  C2  UNL     1     -34.451   5.428   4.198  1.00 20.00    -0.023 C 
HETATM    3  C3  UNL     1     -32.841   8.026   5.062  1.00 20.00     0.259 C 
HETATM    4  C4  UNL     1     -34.261   5.234   6.529  1.00 20.00     0.060 C 
HETATM    5  C5  UNL     1     -34.020   7.926   4.140  1.00 20.00     0.122 C 
HETATM    6  C6  UNL     1     -34.826   6.785   4.717  1.00 20.00     0.047 C 
HETATM    7  C7  UNL     1     -34.379   6.716   6.170  1.00 20.00     0.143 C 
HETATM    8  O8  UNL     1     -31.826   8.667   4.841  1.00 20.00    -0.265 OA
HETATM    9  O9  UNL     1     -33.079   7.328   6.210  1.00 20.00    -0.315 OA
ENDROOT
TORSDOF 0
ENDMDL
MODEL 3
REMARK VINA RESULT:      -4.5      1.274      1.719
REMARK  0 active torsions:
REMARK  status: ('A' for Active; 'I' for Inactive)
ROOT
HETATM    1  C1  UNL     1     -32.794   8.052   5.415  1.00 20.00    -0.028 C 
HETATM    2  C2  UNL     1     -33.252   7.256   6.386  1.00 20.00    -0.023 C 
HETATM    3  C3  UNL     1     -34.178   4.702   4.742  1.00 20.00     0.259 C 
HETATM    4  C4  UNL     1     -33.723   8.094   4.245  1.00 20.00     0.060 C 
HETATM    5  C5  UNL     1     -34.616   5.138   6.108  1.00 20.00     0.122 C 
HETATM    6  C6  UNL     1     -34.575   6.647   6.029  1.00 20.00     0.047 C 
HETATM    7  C7  UNL     1     -34.683   6.941   4.540  1.00 20.00     0.143 C 
HETATM    8  O8  UNL     1     -33.854   3.565   4.435  1.00 20.00    -0.265 OA
HETATM    9  O9  UNL     1     -34.230   5.752   3.872  1.00 20.00    -0.315 OA
ENDROOT
TORSDOF 0
ENDMDL
MODEL 4
REMARK VINA RESULT:      -4.3     16.302     16.984
REMARK  0 active torsions:
REMARK  status: ('A' for Active; 'I' for Inactive)
ROOT
HETATM    1  C1  UNL     1     -24.236  17.884  11.180  1.00 20.00    -0.028 C 
HETATM    2  C2  UNL     1     -24.497  18.510  10.028  1.00 20.00    -0.023 C 
HETATM    3  C3  UNL     1     -22.008  17.653   8.252  1.00 20.00     0.259 C 
HETATM    4  C4  UNL     1     -22.810  18.049  11.593  1.00 20.00     0.060 C 
HETATM    5  C5  UNL     1     -22.915  18.834   8.074  1.00 20.00     0.122 C 
HETATM    6  C6  UNL     1     -23.286  19.212   9.490  1.00 20.00     0.047 C 
HETATM    7  C7  UNL     1     -22.163  18.628  10.334  1.00 20.00     0.143 C 
HETATM    8  O8  UNL     1     -21.655  16.895   7.361  1.00 20.00    -0.265 OA
HETATM    9  O9  UNL     1     -21.596  17.566   9.549  1.00 20.00    -0.315 OA
ENDROOT
TORSDOF 0
ENDMDL
MODEL 5
REMARK VINA RESULT:      -4.3      1.836      2.945
REMARK  0 active torsions:
REMARK  status: ('A' for Active; 'I' for Inactive)
ROOT
HETATM    1  C1  UNL     1     -31.694   7.944   3.913  1.00 20.00    -0.028 C 
HETATM    2  C2  UNL     1     -32.308   8.433   4.996  1.00 20.00    -0.023 C 
HETATM    3  C3  UNL     1     -34.087   5.962   5.899  1.00 20.00     0.259 C 
HETATM    4  C4  UNL     1     -32.644   7.217   3.017  1.00 20.00     0.060 C 
HETATM    5  C5  UNL     1     -34.274   7.413   6.229  1.00 20.00     0.122 C 
HETATM    6  C6  UNL     1     -33.775   8.125   4.992  1.00 20.00     0.047 C 
HETATM    7  C7  UNL     1     -33.889   7.079   3.893  1.00 20.00     0.143 C 
HETATM    8  O8  UNL     1     -34.151   5.044   6.701  1.00 20.00    -0.265 OA
HETATM    9  O9  UNL     1     -33.872   5.806   4.561  1.00 20.00    -0.315 OA
ENDROOT
TORSDOF 0
ENDMDL
MODEL 6
REMARK VINA RESULT:      -4.0     12.168     13.031
REMARK  0 active torsions:
REMARK  status: ('A' for Active; 'I' for Inactive)
ROOT
HETATM    1  C1  UNL     1     -34.051  17.162  -3.614  1.00 20.00    -0.028 C 
HETATM    2  C2  UNL     1     -34.753  17.008  -4.741  1.00 20.00    -0.023 C 
HETATM    3  C3  UNL     1     -35.414  13.903  -4.670  1.00 20.00     0.259 C 
HETATM    4  C4  UNL     1     -33.028  16.086  -3.445  1.00 20.00     0.060 C 
HETATM    5  C5  UNL     1     -35.397  14.823  -5.854  1.00 20.00     0.122 C 
HETATM    6  C6  UNL     1     -34.300  15.809  -5.520  1.00 20.00     0.047 C 
HETATM    7  C7  UNL     1     -33.433  15.070  -4.513  1.00 20.00     0.143 C 
HETATM    8  O8  UNL     1     -36.295  13.095  -4.419  1.00 20.00    -0.265 OA
HETATM    9  O9  UNL     1     -34.281  14.066  -3.929  1.00 20.00    -0.315 OA
ENDROOT
TORSDOF 0
ENDMDL
MODEL 7
REMARK VINA RESULT:      -4.0     15.912     16.889
REMARK  0 active torsions:
REMARK  status: ('A' for Active; 'I' for Inactive)
ROOT
HETATM    1  C1  UNL     1     -22.163  18.217   8.538  1.00 20.00    -0.028 C 
HETATM    2  C2  UNL     1     -21.648  18.170   9.770  1.00 20.00    -0.023 C 
HETATM    3  C3  UNL     1     -24.052  16.921  11.427  1.00 20.00     0.259 C 
HETATM    4  C4  UNL     1     -23.557  18.758   8.539  1.00 20.00     0.060 C 
HETATM    5  C5  UNL     1     -22.895  17.731  11.933  1.00 20.00     0.122 C 
HETATM    6  C6  UNL     1     -22.610  18.687  10.797  1.00 20.00     0.047 C 
HETATM    7  C7  UNL     1     -23.919  18.744  10.024  1.00 20.00     0.143 C 
HETATM    8  O8  UNL     1     -24.460  15.886  11.930  1.00 20.00    -0.265 OA
HETATM    9  O9  UNL     1     -24.614  17.527  10.342  1.00 20.00    -0.315 OA
ENDROOT
TORSDOF 0
ENDMDL
MODEL 8
REMARK VINA RESULT:      -4.0     15.485     16.650
REMARK  0 active torsions:
REMARK  status: ('A' for Active; 'I' for Inactive)
ROOT
HETATM    1  C1  UNL     1     -25.687  18.233  12.332  1.00 20.00    -0.028 C 
HETATM    2  C2  UNL     1     -24.557  18.947  12.332  1.00 20.00    -0.023 C 
HETATM    3  C3  UNL     1     -22.950  17.610   9.940  1.00 20.00     0.259 C 
HETATM    4  C4  UNL     1     -25.419  16.768  12.212  1.00 20.00     0.060 C 
HETATM    5  C5  UNL     1     -22.414  18.414  11.087  1.00 20.00     0.122 C 
HETATM    6  C6  UNL     1     -23.344  18.070  12.227  1.00 20.00     0.047 C 
HETATM    7  C7  UNL     1     -23.940  16.729  11.826  1.00 20.00     0.143 C 
HETATM    8  O8  UNL     1     -22.637  17.756   8.769  1.00 20.00    -0.265 OA
HETATM    9  O9  UNL     1     -23.815  16.658  10.396  1.00 20.00    -0.315 OA
ENDROOT
TORSDOF 0
ENDMDL
MODEL 9
REMARK VINA RESULT:      -3.9      9.424     10.032
REMARK  0 active torsions:
REMARK  status: ('A' for Active; 'I' for Inactive)
ROOT
HETATM    1  C1  UNL     1     -40.841   8.038  -0.075  1.00 20.00    -0.028 C 
HETATM    2  C2  UNL     1     -40.856   6.918   0.654  1.00 20.00    -0.023 C 
HETATM    3  C3  UNL     1     -43.073   5.205  -0.840  1.00 20.00     0.259 C 
HETATM    4  C4  UNL     1     -42.223   8.525  -0.374  1.00 20.00     0.060 C 
HETATM    5  C5  UNL     1     -42.579   5.062   0.568  1.00 20.00     0.122 C 
HETATM    6  C6  UNL     1     -42.253   6.480   0.976  1.00 20.00     0.047 C 
HETATM    7  C7  UNL     1     -43.091   7.336   0.037  1.00 20.00     0.143 C 
HETATM    8  O8  UNL     1     -43.234   4.285  -1.628  1.00 20.00    -0.265 OA
HETATM    9  O9  UNL     1     -43.358   6.511  -1.110  1.00 20.00    -0.315 OA
ENDROOT
TORSDOF 0
ENDMDL
