MODEL 1
REMARK VINA RESULT:      -3.2      0.000      0.000
REMARK  1 active torsions:
REMARK  status: ('A' for Active; 'I' for Inactive)
REMARK    1  A    between atoms: C9_9  and  C10_10 
ROOT
HETATM    1  C1  UNL     1     -34.315  18.909  -3.939  1.00 20.00     0.015 C 
HETATM    2  C2  UNL     1     -33.025  16.801  -3.325  1.00 20.00     0.015 C 
HETATM    3  C5  UNL     1     -35.020  18.999  -2.590  1.00 20.00     0.074 C 
HETATM    4  C6  UNL     1     -33.622  16.714  -1.926  1.00 20.00     0.074 C 
HETATM    5  C9  UNL     1     -33.922  17.487  -4.366  1.00 20.00    -0.009 C 
HETATM    6  S11 UNL     1     -33.992  18.354  -1.241  1.00 20.00    -0.169 SA
ENDROOT
BRANCH   5   7
HETATM    7  C10 UNL     1     -35.149  16.637  -4.707  1.00 20.00    -0.009 C 
HETATM    8  C3  UNL     1     -36.054  17.327  -5.738  1.00 20.00     0.015 C 
HETATM    9  C7  UNL     1     -35.464  17.427  -7.140  1.00 20.00     0.074 C 
HETATM   10  S12 UNL     1     -35.094  15.793  -7.839  1.00 20.00    -0.169 SA
HETATM   11  C8  UNL     1     -34.058  15.140  -6.500  1.00 20.00     0.074 C 
HETATM   12  C4  UNL     1     -34.757  15.218  -5.148  1.00 20.00     0.015 C 
ENDBRANCH   5   7
TORSDOF 1
ENDMDL
MODEL 2
REMARK VINA RESULT:      -3.2      0.075      4.439
REMARK  1 active torsions:
REMARK  status: ('A' for Active; 'I' for Inactive)
REMARK    1  A    between atoms: C9_9  and  C10_10 
ROOT
HETATM    1  C1  UNL     1     -36.103  17.305  -5.740  1.00 20.00     0.015 C 
HETATM    2  C2  UNL     1     -34.734  15.250  -5.118  1.00 20.00     0.015 C 
HETATM    3  C5  UNL     1     -35.515  17.403  -7.143  1.00 20.00     0.074 C 
HETATM    4  C6  UNL     1     -34.032  15.176  -6.468  1.00 20.00     0.074 C 
HETATM    5  C9  UNL     1     -35.176  16.660  -4.698  1.00 20.00    -0.009 C 
HETATM    6  S11 UNL     1     -35.089  15.774  -7.818  1.00 20.00    -0.169 SA
ENDROOT
BRANCH   5   7
HETATM    7  C10 UNL     1     -33.979  17.556  -4.369  1.00 20.00    -0.009 C 
HETATM    8  C3  UNL     1     -34.420  18.961  -3.932  1.00 20.00     0.015 C 
HETATM    9  C7  UNL     1     -35.114  19.019  -2.576  1.00 20.00     0.074 C 
HETATM   10  S12 UNL     1     -34.045  18.411  -1.241  1.00 20.00    -0.169 SA
HETATM   11  C8  UNL     1     -33.619  16.789  -1.934  1.00 20.00     0.074 C 
HETATM   12  C4  UNL     1     -33.043  16.904  -3.340  1.00 20.00     0.015 C 
ENDBRANCH   5   7
TORSDOF 1
ENDMDL
MODEL 3
REMARK VINA RESULT:      -2.7     25.321     26.802
REMARK  1 active torsions:
REMARK  status: ('A' for Active; 'I' for Inactive)
REMARK    1  A    between atoms: C9_9  and  C10_10 
ROOT
HETATM    1  C1  UNL     1     -28.181  -3.427  10.081  1.00 20.00     0.015 C 
HETATM    2  C2  UNL     1     -27.802  -1.207  11.270  1.00 20.00     0.015 C 
HETATM    3  C5  UNL     1     -29.273  -3.878  11.043  1.00 20.00     0.074 C 
HETATM    4  C6  UNL     1     -28.862  -1.473  12.332  1.00 20.00     0.074 C 
HETATM    5  C9  UNL     1     -27.145  -2.468  10.687  1.00 20.00    -0.009 C 
HETATM    6  S11 UNL     1     -30.230  -2.479  11.691  1.00 20.00    -0.169 SA
ENDROOT
BRANCH   5   7
HETATM    7  C10 UNL     1     -26.252  -3.170  11.714  1.00 20.00    -0.009 C 
HETATM    8  C3  UNL     1     -25.582  -4.421  11.127  1.00 20.00     0.015 C 
HETATM    9  C7  UNL     1     -24.519  -4.141  10.071  1.00 20.00     0.074 C 
HETATM   10  S12 UNL     1     -23.162  -3.129  10.726  1.00 20.00    -0.169 SA
HETATM   11  C8  UNL     1     -24.133  -1.741  11.377  1.00 20.00     0.074 C 
HETATM   12  C4  UNL     1     -25.226  -2.207  12.331  1.00 20.00     0.015 C 
ENDBRANCH   5   7
TORSDOF 1
ENDMDL
MODEL 4
REMARK VINA RESULT:      -2.7     25.387     26.871
REMARK  1 active torsions:
REMARK  status: ('A' for Active; 'I' for Inactive)
REMARK    1  A    between atoms: C9_9  and  C10_10 
ROOT
HETATM    1  C1  UNL     1     -25.427  -4.472  11.138  1.00 20.00     0.015 C 
HETATM    2  C2  UNL     1     -25.026  -2.254  12.322  1.00 20.00     0.015 C 
HETATM    3  C5  UNL     1     -24.364  -4.219  10.075  1.00 20.00     0.074 C 
HETATM    4  C6  UNL     1     -23.929  -1.815  11.359  1.00 20.00     0.074 C 
HETATM    5  C9  UNL     1     -26.071  -3.203  11.718  1.00 20.00    -0.009 C 
HETATM    6  S11 UNL     1     -22.986  -3.225  10.714  1.00 20.00    -0.169 SA
ENDROOT
BRANCH   5   7
HETATM    7  C10 UNL     1     -26.957  -2.495  10.690  1.00 20.00    -0.009 C 
HETATM    8  C3  UNL     1     -27.997  -3.446  10.079  1.00 20.00     0.015 C 
HETATM    9  C7  UNL     1     -29.094  -3.894  11.039  1.00 20.00     0.074 C 
HETATM   10  S12 UNL     1     -30.044  -2.489  11.685  1.00 20.00    -0.169 SA
HETATM   11  C8  UNL     1     -28.674  -1.492  12.332  1.00 20.00     0.074 C 
HETATM   12  C4  UNL     1     -27.609  -1.231  11.273  1.00 20.00     0.015 C 
ENDBRANCH   5   7
TORSDOF 1
ENDMDL
MODEL 5
REMARK VINA RESULT:      -2.6     12.811     14.337
REMARK  1 active torsions:
REMARK  status: ('A' for Active; 'I' for Inactive)
REMARK    1  A    between atoms: C9_9  and  C10_10 
ROOT
HETATM    1  C1  UNL     1     -41.202  16.890   8.642  1.00 20.00     0.015 C 
HETATM    2  C2  UNL     1     -40.181  14.566   8.846  1.00 20.00     0.015 C 
HETATM    3  C5  UNL     1     -41.868  16.834  10.012  1.00 20.00     0.074 C 
HETATM    4  C6  UNL     1     -40.761  14.315  10.232  1.00 20.00     0.074 C 
HETATM    5  C9  UNL     1     -41.001  15.524   7.968  1.00 20.00    -0.009 C 
HETATM    6  S11 UNL     1     -40.909  15.847  11.195  1.00 20.00    -0.169 SA
ENDROOT
BRANCH   5   7
HETATM    7  C10 UNL     1     -42.331  14.902   7.537  1.00 20.00    -0.009 C 
HETATM    8  C3  UNL     1     -43.167  15.872   6.689  1.00 20.00     0.015 C 
HETATM    9  C7  UNL     1     -42.602  16.159   5.302  1.00 20.00     0.074 C 
HETATM   10  S12 UNL     1     -42.455  14.650   4.305  1.00 20.00    -0.169 SA
HETATM   11  C8  UNL     1     -41.476  13.644   5.455  1.00 20.00     0.074 C 
HETATM   12  C4  UNL     1     -42.128  13.553   6.830  1.00 20.00     0.015 C 
ENDBRANCH   5   7
TORSDOF 1
ENDMDL
MODEL 6
REMARK VINA RESULT:      -2.6     12.844     15.031
REMARK  1 active torsions:
REMARK  status: ('A' for Active; 'I' for Inactive)
REMARK    1  A    between atoms: C9_9  and  C10_10 
ROOT
HETATM    1  C1  UNL     1     -43.167  15.747   6.756  1.00 20.00     0.015 C 
HETATM    2  C2  UNL     1     -42.035  13.468   6.858  1.00 20.00     0.015 C 
HETATM    3  C5  UNL     1     -42.624  16.073   5.369  1.00 20.00     0.074 C 
HETATM    4  C6  UNL     1     -41.397  13.604   5.481  1.00 20.00     0.074 C 
HETATM    5  C9  UNL     1     -42.287  14.798   7.584  1.00 20.00    -0.009 C 
HETATM    6  S11 UNL     1     -42.423  14.585   4.350  1.00 20.00    -0.169 SA
ENDROOT
BRANCH   5   7
HETATM    7  C10 UNL     1     -40.979  15.467   8.016  1.00 20.00    -0.009 C 
HETATM    8  C3  UNL     1     -41.223  16.850   8.639  1.00 20.00     0.015 C 
HETATM    9  C7  UNL     1     -41.913  16.825   9.999  1.00 20.00     0.074 C 
HETATM   10  S12 UNL     1     -40.951  15.903  11.230  1.00 20.00    -0.169 SA
HETATM   11  C8  UNL     1     -40.750  14.343  10.325  1.00 20.00     0.074 C 
HETATM   12  C4  UNL     1     -40.152  14.560   8.940  1.00 20.00     0.015 C 
ENDBRANCH   5   7
TORSDOF 1
ENDMDL
MODEL 7
REMARK VINA RESULT:      -2.5      2.545      3.783
REMARK  1 active torsions:
REMARK  status: ('A' for Active; 'I' for Inactive)
REMARK    1  A    between atoms: C9_9  and  C10_10 
ROOT
HETATM    1  C1  UNL     1     -34.607  17.155  -5.503  1.00 20.00     0.015 C 
HETATM    2  C2  UNL     1     -35.882  15.040  -6.124  1.00 20.00     0.015 C 
HETATM    3  C5  UNL     1     -33.998  16.546  -4.245  1.00 20.00     0.074 C 
HETATM    4  C6  UNL     1     -35.380  14.254  -4.918  1.00 20.00     0.074 C 
HETATM    5  C9  UNL     1     -35.963  16.559  -5.913  1.00 20.00    -0.009 C 
HETATM    6  S11 UNL     1     -33.710  14.764  -4.423  1.00 20.00    -0.169 SA
ENDROOT
BRANCH   5   7
HETATM    7  C10 UNL     1     -37.072  16.940  -4.930  1.00 20.00    -0.009 C 
HETATM    8  C3  UNL     1     -37.138  18.457  -4.701  1.00 20.00     0.015 C 
HETATM    9  C7  UNL     1     -37.626  19.263  -5.900  1.00 20.00     0.074 C 
HETATM   10  S12 UNL     1     -39.300  18.777  -6.408  1.00 20.00    -0.169 SA
HETATM   11  C8  UNL     1     -39.030  16.994  -6.606  1.00 20.00     0.074 C 
HETATM   12  C4  UNL     1     -38.433  16.365  -5.353  1.00 20.00     0.015 C 
ENDBRANCH   5   7
TORSDOF 1
ENDMDL
MODEL 8
REMARK VINA RESULT:      -2.4     19.587     21.123
REMARK  1 active torsions:
REMARK  status: ('A' for Active; 'I' for Inactive)
REMARK    1  A    between atoms: C9_9  and  C10_10 
ROOT
HETATM    1  C1  UNL     1     -40.348  -4.733  -3.547  1.00 20.00     0.015 C 
HETATM    2  C2  UNL     1     -41.297  -3.119  -1.820  1.00 20.00     0.015 C 
HETATM    3  C5  UNL     1     -38.953  -4.737  -2.933  1.00 20.00     0.074 C 
HETATM    4  C6  UNL     1     -39.982  -2.988  -1.062  1.00 20.00     0.074 C 
HETATM    5  C9  UNL     1     -41.149  -3.442  -3.315  1.00 20.00    -0.009 C 
HETATM    6  S11 UNL     1     -39.001  -4.514  -1.133  1.00 20.00    -0.169 SA
ENDROOT
BRANCH   5   7
HETATM    7  C10 UNL     1     -40.565  -2.262  -4.096  1.00 20.00    -0.009 C 
HETATM    8  C3  UNL     1     -40.420  -2.583  -5.592  1.00 20.00     0.015 C 
HETATM    9  C7  UNL     1     -41.738  -2.714  -6.348  1.00 20.00     0.074 C 
HETATM   10  S12 UNL     1     -42.716  -1.187  -6.274  1.00 20.00    -0.169 SA
HETATM   11  C8  UNL     1     -42.761  -0.965  -4.474  1.00 20.00     0.074 C 
HETATM   12  C4  UNL     1     -41.365  -0.971  -3.863  1.00 20.00     0.015 C 
ENDBRANCH   5   7
TORSDOF 1
ENDMDL
MODEL 9
REMARK VINA RESULT:      -2.4     19.555     21.313
REMARK  1 active torsions:
REMARK  status: ('A' for Active; 'I' for Inactive)
REMARK    1  A    between atoms: C9_9  and  C10_10 
ROOT
HETATM    1  C1  UNL     1     -40.420  -2.493  -5.638  1.00 20.00     0.015 C 
HETATM    2  C2  UNL     1     -41.313  -0.974  -3.799  1.00 20.00     0.015 C 
HETATM    3  C5  UNL     1     -41.758  -2.578  -6.364  1.00 20.00     0.074 C 
HETATM    4  C6  UNL     1     -42.725  -0.933  -4.370  1.00 20.00     0.074 C 
HETATM    5  C9  UNL     1     -40.524  -2.252  -4.124  1.00 20.00    -0.009 C 
HETATM    6  S11 UNL     1     -42.730  -1.057  -6.181  1.00 20.00    -0.169 SA
ENDROOT
BRANCH   5   7
HETATM    7  C10 UNL     1     -41.090  -3.471  -3.392  1.00 20.00    -0.009 C 
HETATM    8  C3  UNL     1     -40.263  -4.737  -3.666  1.00 20.00     0.015 C 
HETATM    9  C7  UNL     1     -38.871  -4.737  -3.044  1.00 20.00     0.074 C 
HETATM   10  S12 UNL     1     -38.935  -4.584  -1.237  1.00 20.00    -0.169 SA
HETATM   11  C8  UNL     1     -39.945  -3.081  -1.115  1.00 20.00     0.074 C 
HETATM   12  C4  UNL     1     -41.253  -3.208  -1.886  1.00 20.00     0.015 C 
ENDBRANCH   5   7
TORSDOF 1
ENDMDL
