MODEL 1
REMARK VINA RESULT:      -5.5      0.000      0.000
REMARK  0 active torsions:
REMARK  status: ('A' for Active; 'I' for Inactive)
ROOT
HETATM    1  C1  UNL     1     -34.631   4.986   6.190  1.00 20.00     0.000 C 
HETATM    2  C2  UNL     1     -34.525   6.329   6.725  1.00 20.00     0.017 C 
HETATM    3  C3  UNL     1     -34.433   4.752   4.879  1.00 20.00     0.010 C 
HETATM    4  C4  UNL     1     -34.014   7.302   5.953  1.00 20.00     0.092 C 
HETATM    5  C5  UNL     1     -32.180   7.087   2.847  1.00 20.00     0.072 C 
HETATM    6  C6  UNL     1     -32.658   7.761   3.910  1.00 20.00     0.015 C 
HETATM    7  C7  UNL     1     -34.154   5.882   3.929  1.00 20.00     0.178 C 
HETATM    8  C8  UNL     1     -32.163   9.107   4.324  1.00 20.00     0.069 C 
HETATM    9  N9  UNL     1     -33.639   7.078   4.639  1.00 20.00    -0.343 N 
HETATM   10  S10 UNL     1     -32.884   5.499   2.665  1.00 20.00    -0.110 SA
ENDROOT
TORSDOF 0
ENDMDL
MODEL 2
REMARK VINA RESULT:      -4.7      1.593      3.511
REMARK  0 active torsions:
REMARK  status: ('A' for Active; 'I' for Inactive)
ROOT
HETATM    1  C1  UNL     1     -32.575   8.830   5.247  1.00 20.00     0.000 C 
HETATM    2  C2  UNL     1     -32.072   8.576   3.912  1.00 20.00     0.017 C 
HETATM    3  C3  UNL     1     -33.587   8.099   5.750  1.00 20.00     0.010 C 
HETATM    4  C4  UNL     1     -32.469   7.469   3.264  1.00 20.00     0.092 C 
HETATM    5  C5  UNL     1     -34.157   4.525   4.503  1.00 20.00     0.072 C 
HETATM    6  C6  UNL     1     -33.505   5.218   3.551  1.00 20.00     0.015 C 
HETATM    7  C7  UNL     1     -34.259   7.041   4.920  1.00 20.00     0.178 C 
HETATM    8  C8  UNL     1     -32.902   4.588   2.339  1.00 20.00     0.069 C 
HETATM    9  N9  UNL     1     -33.391   6.590   3.805  1.00 20.00    -0.343 N 
HETATM   10  S10 UNL     1     -34.670   5.515   5.847  1.00 20.00    -0.110 SA
ENDROOT
TORSDOF 0
ENDMDL
MODEL 3
REMARK VINA RESULT:      -4.3      1.577      2.459
REMARK  0 active torsions:
REMARK  status: ('A' for Active; 'I' for Inactive)
ROOT
HETATM    1  C1  UNL     1     -34.986   5.388   5.755  1.00 20.00     0.000 C 
HETATM    2  C2  UNL     1     -34.518   4.821   4.506  1.00 20.00     0.017 C 
HETATM    3  C3  UNL     1     -34.375   6.460   6.293  1.00 20.00     0.010 C 
HETATM    4  C4  UNL     1     -33.616   5.499   3.778  1.00 20.00     0.092 C 
HETATM    5  C5  UNL     1     -32.526   8.934   4.031  1.00 20.00     0.072 C 
HETATM    6  C6  UNL     1     -32.579   7.738   3.416  1.00 20.00     0.015 C 
HETATM    7  C7  UNL     1     -33.159   7.060   5.645  1.00 20.00     0.178 C 
HETATM    8  C8  UNL     1     -32.195   7.527   1.988  1.00 20.00     0.069 C 
HETATM    9  N9  UNL     1     -33.071   6.696   4.210  1.00 20.00    -0.343 N 
HETATM   10  S10 UNL     1     -33.125   8.891   5.671  1.00 20.00    -0.110 SA
ENDROOT
TORSDOF 0
ENDMDL
MODEL 4
REMARK VINA RESULT:      -4.1      1.665      3.789
REMARK  0 active torsions:
REMARK  status: ('A' for Active; 'I' for Inactive)
ROOT
HETATM    1  C1  UNL     1     -32.140   6.491   2.334  1.00 20.00     0.000 C 
HETATM    2  C2  UNL     1     -32.952   5.321   2.604  1.00 20.00     0.017 C 
HETATM    3  C3  UNL     1     -32.342   7.638   3.009  1.00 20.00     0.010 C 
HETATM    4  C4  UNL     1     -33.757   5.319   3.680  1.00 20.00     0.092 C 
HETATM    5  C5  UNL     1     -33.841   7.537   6.530  1.00 20.00     0.072 C 
HETATM    6  C6  UNL     1     -34.215   6.427   5.867  1.00 20.00     0.015 C 
HETATM    7  C7  UNL     1     -33.452   7.753   4.016  1.00 20.00     0.178 C 
HETATM    8  C8  UNL     1     -34.885   5.263   6.519  1.00 20.00     0.069 C 
HETATM    9  N9  UNL     1     -33.883   6.422   4.507  1.00 20.00    -0.343 N 
HETATM   10  S10 UNL     1     -32.996   8.689   5.524  1.00 20.00    -0.110 SA
ENDROOT
TORSDOF 0
ENDMDL
MODEL 5
REMARK VINA RESULT:      -3.8      0.918      3.352
REMARK  0 active torsions:
REMARK  status: ('A' for Active; 'I' for Inactive)
ROOT
HETATM    1  C1  UNL     1     -32.386   8.895   2.957  1.00 20.00     0.000 C 
HETATM    2  C2  UNL     1     -32.715   9.173   4.341  1.00 20.00     0.017 C 
HETATM    3  C3  UNL     1     -32.299   7.627   2.514  1.00 20.00     0.010 C 
HETATM    4  C4  UNL     1     -33.149   8.171   5.124  1.00 20.00     0.092 C 
HETATM    5  C5  UNL     1     -34.304   4.863   4.245  1.00 20.00     0.072 C 
HETATM    6  C6  UNL     1     -34.108   5.869   5.117  1.00 20.00     0.015 C 
HETATM    7  C7  UNL     1     -32.483   6.468   3.453  1.00 20.00     0.178 C 
HETATM    8  C8  UNL     1     -34.794   5.958   6.441  1.00 20.00     0.069 C 
HETATM    9  N9  UNL     1     -33.235   6.866   4.669  1.00 20.00    -0.343 N 
HETATM   10  S10 UNL     1     -33.439   5.076   2.743  1.00 20.00    -0.110 SA
ENDROOT
TORSDOF 0
ENDMDL
MODEL 6
REMARK VINA RESULT:      -3.6     12.786     13.656
REMARK  0 active torsions:
REMARK  status: ('A' for Active; 'I' for Inactive)
ROOT
HETATM    1  C1  UNL     1     -34.445  18.418  -1.388  1.00 20.00     0.000 C 
HETATM    2  C2  UNL     1     -33.444  17.370  -1.415  1.00 20.00     0.017 C 
HETATM    3  C3  UNL     1     -35.064  18.805  -2.518  1.00 20.00     0.010 C 
HETATM    4  C4  UNL     1     -33.296  16.637  -2.531  1.00 20.00     0.092 C 
HETATM    5  C5  UNL     1     -35.439  16.341  -5.424  1.00 20.00     0.072 C 
HETATM    6  C6  UNL     1     -34.385  15.971  -4.673  1.00 20.00     0.015 C 
HETATM    7  C7  UNL     1     -34.693  18.204  -3.845  1.00 20.00     0.178 C 
HETATM    8  C8  UNL     1     -33.673  14.669  -4.838  1.00 20.00     0.069 C 
HETATM    9  N9  UNL     1     -34.027  16.888  -3.679  1.00 20.00    -0.343 N 
HETATM   10  S10 UNL     1     -36.124  17.873  -4.941  1.00 20.00    -0.110 SA
ENDROOT
TORSDOF 0
ENDMDL
MODEL 7
REMARK VINA RESULT:      -3.6     16.044     16.551
REMARK  0 active torsions:
REMARK  status: ('A' for Active; 'I' for Inactive)
ROOT
HETATM    1  C1  UNL     1     -23.920  18.611  12.326  1.00 20.00     0.000 C 
HETATM    2  C2  UNL     1     -25.113  18.885  11.550  1.00 20.00     0.017 C 
HETATM    3  C3  UNL     1     -22.836  18.062  11.747  1.00 20.00     0.010 C 
HETATM    4  C4  UNL     1     -25.057  18.795  10.211  1.00 20.00     0.092 C 
HETATM    5  C5  UNL     1     -22.200  18.590   8.009  1.00 20.00     0.072 C 
HETATM    6  C6  UNL     1     -23.516  18.733   8.250  1.00 20.00     0.015 C 
HETATM    7  C7  UNL     1     -22.854  17.666  10.297  1.00 20.00     0.178 C 
HETATM    8  C8  UNL     1     -24.486  19.261   7.245  1.00 20.00     0.069 C 
HETATM    9  N9  UNL     1     -23.911  18.389   9.548  1.00 20.00    -0.343 N 
HETATM   10  S10 UNL     1     -21.300  18.040   9.401  1.00 20.00    -0.110 SA
ENDROOT
TORSDOF 0
ENDMDL
MODEL 8
REMARK VINA RESULT:      -3.6     12.844     13.934
REMARK  0 active torsions:
REMARK  status: ('A' for Active; 'I' for Inactive)
ROOT
HETATM    1  C1  UNL     1     -34.054  15.070  -5.940  1.00 20.00     0.000 C 
HETATM    2  C2  UNL     1     -33.706  14.615  -4.608  1.00 20.00     0.017 C 
HETATM    3  C3  UNL     1     -34.489  16.328  -6.144  1.00 20.00     0.010 C 
HETATM    4  C4  UNL     1     -33.607  15.515  -3.616  1.00 20.00     0.092 C 
HETATM    5  C5  UNL     1     -33.429  19.121  -3.750  1.00 20.00     0.072 C 
HETATM    6  C6  UNL     1     -33.355  17.942  -3.103  1.00 20.00     0.015 C 
HETATM    7  C7  UNL     1     -34.679  17.273  -4.991  1.00 20.00     0.178 C 
HETATM    8  C8  UNL     1     -32.718  17.776  -1.762  1.00 20.00     0.069 C 
HETATM    9  N9  UNL     1     -33.887  16.857  -3.808  1.00 20.00    -0.343 N 
HETATM   10  S10 UNL     1     -34.143  18.991  -5.338  1.00 20.00    -0.110 SA
ENDROOT
TORSDOF 0
ENDMDL
MODEL 9
REMARK VINA RESULT:      -3.5     12.605     13.757
REMARK  0 active torsions:
REMARK  status: ('A' for Active; 'I' for Inactive)
ROOT
HETATM    1  C1  UNL     1     -33.932  14.765  -4.740  1.00 20.00     0.000 C 
HETATM    2  C2  UNL     1     -34.906  15.475  -5.545  1.00 20.00     0.017 C 
HETATM    3  C3  UNL     1     -33.238  15.404  -3.780  1.00 20.00     0.010 C 
HETATM    4  C4  UNL     1     -35.272  16.716  -5.183  1.00 20.00     0.092 C 
HETATM    5  C5  UNL     1     -34.736  18.491  -2.083  1.00 20.00     0.072 C 
HETATM    6  C6  UNL     1     -35.293  18.351  -3.300  1.00 20.00     0.015 C 
HETATM    7  C7  UNL     1     -33.413  16.879  -3.556  1.00 20.00     0.178 C 
HETATM    8  C8  UNL     1     -36.475  19.139  -3.762  1.00 20.00     0.069 C 
HETATM    9  N9  UNL     1     -34.705  17.364  -4.100  1.00 20.00    -0.343 N 
HETATM   10  S10 UNL     1     -33.430  17.370  -1.790  1.00 20.00    -0.110 SA
ENDROOT
TORSDOF 0
ENDMDL
