MODEL 1
REMARK VINA RESULT:      -3.5      0.000      0.000
REMARK  0 active torsions:
REMARK  status: ('A' for Active; 'I' for Inactive)
ROOT
HETATM    1  C1  UNL     1     -33.424   7.658   5.718  1.00 20.00     0.038 A 
HETATM    2  C2  UNL     1     -33.309   6.778   3.481  1.00 20.00     0.058 A 
HETATM    3  C3  UNL     1     -32.706   8.753   5.265  1.00 20.00     0.119 A 
HETATM    4  C4  UNL     1     -33.727   6.656   4.802  1.00 20.00     0.015 A 
HETATM    5  C5  UNL     1     -32.596   7.912   3.129  1.00 20.00     0.104 A 
HETATM    6  N6  UNL     1     -32.283   8.908   3.990  1.00 20.00    -0.254 NA
HETATM    7 BR7  UNL     1     -34.705   5.136   5.352  1.00 20.00    -0.051 Br
HETATM    8 BR8  UNL     1     -32.016   8.101   1.331  1.00 20.00    -0.029 Br
ENDROOT
TORSDOF 0
ENDMDL
MODEL 2
REMARK VINA RESULT:      -3.4     15.015     15.215
REMARK  0 active torsions:
REMARK  status: ('A' for Active; 'I' for Inactive)
ROOT
HETATM    1  C1  UNL     1     -25.257  17.129  12.096  1.00 20.00     0.038 A 
HETATM    2  C2  UNL     1     -24.948  18.877  10.473  1.00 20.00     0.058 A 
HETATM    3  C3  UNL     1     -24.155  16.496  11.544  1.00 20.00     0.119 A 
HETATM    4  C4  UNL     1     -25.654  18.342  11.544  1.00 20.00     0.015 A 
HETATM    5  C5  UNL     1     -23.860  18.166   9.993  1.00 20.00     0.104 A 
HETATM    6  N6  UNL     1     -23.443  16.985  10.503  1.00 20.00    -0.254 NA
HETATM    7 BR7  UNL     1     -27.147  19.259  12.250  1.00 20.00    -0.051 Br
HETATM    8 BR8  UNL     1     -22.879  18.877   8.531  1.00 20.00    -0.029 Br
ENDROOT
TORSDOF 0
ENDMDL
MODEL 3
REMARK VINA RESULT:      -3.3      1.003      3.307
REMARK  0 active torsions:
REMARK  status: ('A' for Active; 'I' for Inactive)
ROOT
HETATM    1  C1  UNL     1     -32.337   8.855   4.098  1.00 20.00     0.038 A 
HETATM    2  C2  UNL     1     -33.306   6.741   3.482  1.00 20.00     0.058 A 
HETATM    3  C3  UNL     1     -32.794   8.627   5.386  1.00 20.00     0.119 A 
HETATM    4  C4  UNL     1     -32.603   7.889   3.134  1.00 20.00     0.015 A 
HETATM    5  C5  UNL     1     -33.720   6.608   4.798  1.00 20.00     0.104 A 
HETATM    6  N6  UNL     1     -33.480   7.525   5.763  1.00 20.00    -0.254 NA
HETATM    7 BR7  UNL     1     -32.007   8.136   1.358  1.00 20.00    -0.051 Br
HETATM    8 BR8  UNL     1     -34.681   5.048   5.297  1.00 20.00    -0.029 Br
ENDROOT
TORSDOF 0
ENDMDL
MODEL 4
REMARK VINA RESULT:      -3.3     15.778     16.289
REMARK  0 active torsions:
REMARK  status: ('A' for Active; 'I' for Inactive)
ROOT
HETATM    1  C1  UNL     1     -23.410  18.810  12.324  1.00 20.00     0.038 A 
HETATM    2  C2  UNL     1     -23.946  18.576   9.991  1.00 20.00     0.058 A 
HETATM    3  C3  UNL     1     -22.083  18.602  11.985  1.00 20.00     0.119 A 
HETATM    4  C4  UNL     1     -24.353  18.794  11.302  1.00 20.00     0.015 A 
HETATM    5  C5  UNL     1     -22.595  18.379   9.755  1.00 20.00     0.104 A 
HETATM    6  N6  UNL     1     -21.649  18.387  10.722  1.00 20.00    -0.254 NA
HETATM    7 BR7  UNL     1     -26.180  19.072  11.696  1.00 20.00    -0.051 Br
HETATM    8 BR8  UNL     1     -22.015  18.080   7.972  1.00 20.00    -0.029 Br
ENDROOT
TORSDOF 0
ENDMDL
MODEL 5
REMARK VINA RESULT:      -3.3     12.072     12.271
REMARK  0 active torsions:
REMARK  status: ('A' for Active; 'I' for Inactive)
ROOT
HETATM    1  C1  UNL     1     -33.013  18.835  -0.483  1.00 20.00     0.038 A 
HETATM    2  C2  UNL     1     -32.283  19.066   1.798  1.00 20.00     0.058 A 
HETATM    3  C3  UNL     1     -31.682  18.673  -0.834  1.00 20.00     0.119 A 
HETATM    4  C4  UNL     1     -33.310  19.036   0.861  1.00 20.00     0.015 A 
HETATM    5  C5  UNL     1     -30.986  18.893   1.345  1.00 20.00     0.104 A 
HETATM    6  N6  UNL     1     -30.657  18.696   0.047  1.00 20.00    -0.254 NA
HETATM    7 BR7  UNL     1     -35.104  19.263   1.409  1.00 20.00    -0.051 Br
HETATM    8 BR8  UNL     1     -29.567  18.931   2.606  1.00 20.00    -0.029 Br
ENDROOT
TORSDOF 0
ENDMDL
MODEL 6
REMARK VINA RESULT:      -3.2     11.649     12.647
REMARK  0 active torsions:
REMARK  status: ('A' for Active; 'I' for Inactive)
ROOT
HETATM    1  C1  UNL     1     -33.127  19.147  -2.927  1.00 20.00     0.038 A 
HETATM    2  C2  UNL     1     -33.107  16.802  -2.389  1.00 20.00     0.058 A 
HETATM    3  C3  UNL     1     -33.623  18.801  -4.173  1.00 20.00     0.119 A 
HETATM    4  C4  UNL     1     -32.866  18.122  -2.024  1.00 20.00     0.015 A 
HETATM    5  C5  UNL     1     -33.604  16.561  -3.660  1.00 20.00     0.104 A 
HETATM    6  N6  UNL     1     -33.871  17.531  -4.565  1.00 20.00    -0.254 NA
HETATM    7 BR7  UNL     1     -32.189  18.524  -0.307  1.00 20.00    -0.051 Br
HETATM    8 BR8  UNL     1     -33.941  14.767  -4.181  1.00 20.00    -0.029 Br
ENDROOT
TORSDOF 0
ENDMDL
MODEL 7
REMARK VINA RESULT:      -3.2      2.815      3.228
REMARK  0 active torsions:
REMARK  status: ('A' for Active; 'I' for Inactive)
ROOT
HETATM    1  C1  UNL     1     -34.376   6.453   6.175  1.00 20.00     0.038 A 
HETATM    2  C2  UNL     1     -33.276   6.681   4.047  1.00 20.00     0.058 A 
HETATM    3  C3  UNL     1     -34.699   5.157   5.808  1.00 20.00     0.119 A 
HETATM    4  C4  UNL     1     -33.651   7.223   5.272  1.00 20.00     0.015 A 
HETATM    5  C5  UNL     1     -33.649   5.374   3.776  1.00 20.00     0.104 A 
HETATM    6  N6  UNL     1     -34.354   4.595   4.628  1.00 20.00    -0.254 NA
HETATM    7 BR7  UNL     1     -33.175   8.998   5.710  1.00 20.00    -0.051 Br
HETATM    8 BR8  UNL     1     -33.149   4.612   2.110  1.00 20.00    -0.029 Br
ENDROOT
TORSDOF 0
ENDMDL
MODEL 8
REMARK VINA RESULT:      -3.2     11.589     12.563
REMARK  0 active torsions:
REMARK  status: ('A' for Active; 'I' for Inactive)
ROOT
HETATM    1  C1  UNL     1     -34.051  17.568  -4.422  1.00 20.00     0.038 A 
HETATM    2  C2  UNL     1     -33.452  16.756  -2.238  1.00 20.00     0.058 A 
HETATM    3  C3  UNL     1     -34.213  18.821  -3.852  1.00 20.00     0.119 A 
HETATM    4  C4  UNL     1     -33.664  16.522  -3.592  1.00 20.00     0.015 A 
HETATM    5  C5  UNL     1     -33.641  18.045  -1.766  1.00 20.00     0.104 A 
HETATM    6  N6  UNL     1     -34.016  19.088  -2.541  1.00 20.00    -0.254 NA
HETATM    7 BR7  UNL     1     -33.424  14.788  -4.304  1.00 20.00    -0.051 Br
HETATM    8 BR8  UNL     1     -33.357  18.390   0.080  1.00 20.00    -0.029 Br
ENDROOT
TORSDOF 0
ENDMDL
MODEL 9
REMARK VINA RESULT:      -3.2     11.718     12.115
REMARK  0 active torsions:
REMARK  status: ('A' for Active; 'I' for Inactive)
ROOT
HETATM    1  C1  UNL     1     -31.697  18.210  -0.945  1.00 20.00     0.038 A 
HETATM    2  C2  UNL     1     -34.036  18.080  -0.398  1.00 20.00     0.058 A 
HETATM    3  C3  UNL     1     -31.522  18.945   0.215  1.00 20.00     0.119 A 
HETATM    4  C4  UNL     1     -32.982  17.773  -1.251  1.00 20.00     0.015 A 
HETATM    5  C5  UNL     1     -33.756  18.821   0.739  1.00 20.00     0.104 A 
HETATM    6  N6  UNL     1     -32.521  19.263   1.069  1.00 20.00    -0.254 NA
HETATM    7 BR7  UNL     1     -33.291  16.765  -2.818  1.00 20.00    -0.051 Br
HETATM    8 BR8  UNL     1     -35.180  19.253   1.919  1.00 20.00    -0.029 Br
ENDROOT
TORSDOF 0
ENDMDL
