MODEL 1
REMARK VINA RESULT:      -3.8      0.000      0.000
REMARK  0 active torsions:
REMARK  status: ('A' for Active; 'I' for Inactive)
ROOT
HETATM    1  C1  UNL     1     -32.327   7.550   3.389  1.00 20.00     0.089 A 
HETATM    2  C2  UNL     1     -33.385   8.285   5.505  1.00 20.00     0.089 A 
HETATM    3  C3  UNL     1     -33.179   6.609   3.912  1.00 20.00     0.109 A 
HETATM    4  C4  UNL     1     -33.804   7.041   5.105  1.00 20.00     0.109 A 
HETATM    5  C5  UNL     1     -34.062   4.518   4.242  1.00 20.00     0.202 C 
HETATM    6  C6  UNL     1     -35.196   5.219   4.995  1.00 20.00     0.202 C 
HETATM    7  O7  UNL     1     -33.401   5.409   3.327  1.00 20.00    -0.346 OA
HETATM    8  O8  UNL     1     -34.707   6.307   5.799  1.00 20.00    -0.346 OA
HETATM    9  S9  UNL     1     -32.258   8.947   4.389  1.00 20.00    -0.108 SA
ENDROOT
TORSDOF 0
ENDMDL
MODEL 2
REMARK VINA RESULT:      -3.8      0.068      2.061
REMARK  0 active torsions:
REMARK  status: ('A' for Active; 'I' for Inactive)
ROOT
HETATM    1  C1  UNL     1     -33.361   8.313   5.421  1.00 20.00     0.089 A 
HETATM    2  C2  UNL     1     -32.337   7.514   3.311  1.00 20.00     0.089 A 
HETATM    3  C3  UNL     1     -33.789   7.058   5.064  1.00 20.00     0.109 A 
HETATM    4  C4  UNL     1     -33.183   6.591   3.874  1.00 20.00     0.109 A 
HETATM    5  C5  UNL     1     -35.186   5.239   5.028  1.00 20.00     0.202 C 
HETATM    6  C6  UNL     1     -34.067   4.513   4.278  1.00 20.00     0.202 C 
HETATM    7  O7  UNL     1     -34.682   6.348   5.793  1.00 20.00    -0.346 OA
HETATM    8  O8  UNL     1     -33.417   5.375   3.327  1.00 20.00    -0.346 OA
HETATM    9  S9  UNL     1     -32.249   8.939   4.269  1.00 20.00    -0.108 SA
ENDROOT
TORSDOF 0
ENDMDL
MODEL 3
REMARK VINA RESULT:      -3.7      2.120      3.152
REMARK  0 active torsions:
REMARK  status: ('A' for Active; 'I' for Inactive)
ROOT
HETATM    1  C1  UNL     1     -33.907   5.374   4.107  1.00 20.00     0.089 A 
HETATM    2  C2  UNL     1     -34.413   6.644   6.174  1.00 20.00     0.089 A 
HETATM    3  C3  UNL     1     -33.362   6.635   4.103  1.00 20.00     0.109 A 
HETATM    4  C4  UNL     1     -33.628   7.349   5.295  1.00 20.00     0.109 A 
HETATM    5  C5  UNL     1     -32.478   8.545   3.193  1.00 20.00     0.202 C 
HETATM    6  C6  UNL     1     -32.132   8.955   4.627  1.00 20.00     0.202 C 
HETATM    7  O7  UNL     1     -32.635   7.121   3.070  1.00 20.00    -0.346 OA
HETATM    8  O8  UNL     1     -33.178   8.601   5.548  1.00 20.00    -0.346 OA
HETATM    9  S9  UNL     1     -34.786   5.084   5.556  1.00 20.00    -0.108 SA
ENDROOT
TORSDOF 0
ENDMDL
MODEL 4
REMARK VINA RESULT:      -3.7      2.121      3.704
REMARK  0 active torsions:
REMARK  status: ('A' for Active; 'I' for Inactive)
ROOT
HETATM    1  C1  UNL     1     -34.407   6.620   6.154  1.00 20.00     0.089 A 
HETATM    2  C2  UNL     1     -33.880   5.381   4.074  1.00 20.00     0.089 A 
HETATM    3  C3  UNL     1     -33.625   7.343   5.289  1.00 20.00     0.109 A 
HETATM    4  C4  UNL     1     -33.348   6.647   4.089  1.00 20.00     0.109 A 
HETATM    5  C5  UNL     1     -32.142   8.972   4.648  1.00 20.00     0.202 C 
HETATM    6  C6  UNL     1     -32.477   8.578   3.207  1.00 20.00     0.202 C 
HETATM    7  O7  UNL     1     -33.189   8.596   5.559  1.00 20.00    -0.346 OA
HETATM    8  O8  UNL     1     -32.620   7.154   3.065  1.00 20.00    -0.346 OA
HETATM    9  S9  UNL     1     -34.762   5.064   5.515  1.00 20.00    -0.108 SA
ENDROOT
TORSDOF 0
ENDMDL
MODEL 5
REMARK VINA RESULT:      -3.4     16.312     16.962
REMARK  0 active torsions:
REMARK  status: ('A' for Active; 'I' for Inactive)
ROOT
HETATM    1  C1  UNL     1     -23.226  18.889   8.337  1.00 20.00     0.089 A 
HETATM    2  C2  UNL     1     -21.293  18.131   9.689  1.00 20.00     0.089 A 
HETATM    3  C3  UNL     1     -23.545  18.694   9.658  1.00 20.00     0.109 A 
HETATM    4  C4  UNL     1     -22.434  18.289  10.435  1.00 20.00     0.109 A 
HETATM    5  C5  UNL     1     -24.908  18.305  11.462  1.00 20.00     0.202 C 
HETATM    6  C6  UNL     1     -23.686  18.609  12.332  1.00 20.00     0.202 C 
HETATM    7  O7  UNL     1     -24.789  18.891  10.154  1.00 20.00    -0.346 OA
HETATM    8  O8  UNL     1     -22.483  18.058  11.769  1.00 20.00    -0.346 OA
HETATM    9  S9  UNL     1     -21.572  18.528   8.040  1.00 20.00    -0.108 SA
ENDROOT
TORSDOF 0
ENDMDL
MODEL 6
REMARK VINA RESULT:      -3.4     16.288     16.794
REMARK  0 active torsions:
REMARK  status: ('A' for Active; 'I' for Inactive)
ROOT
HETATM    1  C1  UNL     1     -25.045  18.851  10.712  1.00 20.00     0.089 A 
HETATM    2  C2  UNL     1     -22.980  18.093  11.852  1.00 20.00     0.089 A 
HETATM    3  C3  UNL     1     -24.001  18.649   9.843  1.00 20.00     0.109 A 
HETATM    4  C4  UNL     1     -22.831  18.189  10.490  1.00 20.00     0.109 A 
HETATM    5  C5  UNL     1     -22.798  18.885   7.904  1.00 20.00     0.202 C 
HETATM    6  C6  UNL     1     -21.900  17.765   8.436  1.00 20.00     0.202 C 
HETATM    7  O7  UNL     1     -24.103  18.854   8.508  1.00 20.00    -0.346 OA
HETATM    8  O8  UNL     1     -21.675  17.891   9.851  1.00 20.00    -0.346 OA
HETATM    9  S9  UNL     1     -24.573  18.521  12.332  1.00 20.00    -0.108 SA
ENDROOT
TORSDOF 0
ENDMDL
MODEL 7
REMARK VINA RESULT:      -3.3     12.713     13.251
REMARK  0 active torsions:
REMARK  status: ('A' for Active; 'I' for Inactive)
ROOT
HETATM    1  C1  UNL     1     -32.543  18.540  -2.038  1.00 20.00     0.089 A 
HETATM    2  C2  UNL     1     -34.358  18.712  -0.359  1.00 20.00     0.089 A 
HETATM    3  C3  UNL     1     -32.071  18.680  -0.757  1.00 20.00     0.109 A 
HETATM    4  C4  UNL     1     -33.106  18.750   0.204  1.00 20.00     0.109 A 
HETATM    5  C5  UNL     1     -30.555  19.201   0.885  1.00 20.00     0.202 C 
HETATM    6  C6  UNL     1     -31.535  18.549   1.864  1.00 20.00     0.202 C 
HETATM    7  O7  UNL     1     -30.751  18.726  -0.458  1.00 20.00    -0.346 OA
HETATM    8  O8  UNL     1     -32.900  18.862   1.538  1.00 20.00    -0.346 OA
HETATM    9  S9  UNL     1     -34.262  18.542  -2.067  1.00 20.00    -0.108 SA
ENDROOT
TORSDOF 0
ENDMDL
MODEL 8
REMARK VINA RESULT:      -3.3     12.740     13.340
REMARK  0 active torsions:
REMARK  status: ('A' for Active; 'I' for Inactive)
ROOT
HETATM    1  C1  UNL     1     -34.315  18.616  -0.206  1.00 20.00     0.089 A 
HETATM    2  C2  UNL     1     -32.541  18.427  -1.926  1.00 20.00     0.089 A 
HETATM    3  C3  UNL     1     -33.051  18.712   0.321  1.00 20.00     0.109 A 
HETATM    4  C4  UNL     1     -32.039  18.633  -0.665  1.00 20.00     0.109 A 
HETATM    5  C5  UNL     1     -31.433  18.624   1.944  1.00 20.00     0.202 C 
HETATM    6  C6  UNL     1     -30.498  19.263   0.914  1.00 20.00     0.202 C 
HETATM    7  O7  UNL     1     -32.814  18.885   1.643  1.00 20.00    -0.346 OA
HETATM    8  O8  UNL     1     -30.714  18.729  -0.404  1.00 20.00    -0.346 OA
HETATM    9  S9  UNL     1     -34.259  18.379  -1.908  1.00 20.00    -0.108 SA
ENDROOT
TORSDOF 0
ENDMDL
MODEL 9
REMARK VINA RESULT:      -3.3     12.859     13.236
REMARK  0 active torsions:
REMARK  status: ('A' for Active; 'I' for Inactive)
ROOT
HETATM    1  C1  UNL     1     -32.068  19.168   3.125  1.00 20.00     0.089 A 
HETATM    2  C2  UNL     1     -29.836  19.116   2.052  1.00 20.00     0.089 A 
HETATM    3  C3  UNL     1     -32.138  19.074   1.757  1.00 20.00     0.109 A 
HETATM    4  C4  UNL     1     -30.863  19.016   1.147  1.00 20.00     0.109 A 
HETATM    5  C5  UNL     1     -33.089  19.259  -0.322  1.00 20.00     0.202 C 
HETATM    6  C6  UNL     1     -31.876  18.485  -0.843  1.00 20.00     0.202 C 
HETATM    7  O7  UNL     1     -33.309  19.024   1.080  1.00 20.00    -0.346 OA
HETATM    8  O8  UNL     1     -30.663  18.895  -0.187  1.00 20.00    -0.346 OA
HETATM    9  S9  UNL     1     -30.435  19.232   3.659  1.00 20.00    -0.108 SA
ENDROOT
TORSDOF 0
ENDMDL
