MODEL 1
REMARK VINA RESULT:      -4.3      0.000      0.000
REMARK  2 active torsions:
REMARK  status: ('A' for Active; 'I' for Inactive)
REMARK    1  A    between atoms: C5_5  and  C6_6 
REMARK    2  A    between atoms: C6_6  and  N8_8 
ROOT
HETATM    1  C1  UNL     1     -34.602   5.160   6.343  1.00 20.00     0.135 A 
HETATM    2  C2  UNL     1     -34.180   6.468   6.398  1.00 20.00     0.111 A 
HETATM    3  C3  UNL     1     -34.397   5.777   4.316  1.00 20.00     0.209 A 
HETATM    4  N7  UNL     1     -34.734   4.736   5.044  1.00 20.00    -0.255 NA
HETATM    5  N8  UNL     1     -34.053   6.850   5.092  1.00 20.00    -0.350 N 
ENDROOT
BRANCH   5   6
HETATM    6  C6  UNL     1     -33.631   8.162   4.613  1.00 20.00     0.129 C 
BRANCH   6   7
HETATM    7  C5  UNL     1     -32.181   8.156   4.132  1.00 20.00     0.016 C 
HETATM    8  C4  UNL     1     -32.085   7.761   2.667  1.00 20.00     0.006 C 
ENDBRANCH   6   7
ENDBRANCH   5   6
TORSDOF 2
ENDMDL
MODEL 2
REMARK VINA RESULT:      -3.9      0.898      1.434
REMARK  2 active torsions:
REMARK  status: ('A' for Active; 'I' for Inactive)
REMARK    1  A    between atoms: C5_5  and  C6_6 
REMARK    2  A    between atoms: C6_6  and  N8_8 
ROOT
HETATM    1  C1  UNL     1     -34.745   5.048   5.083  1.00 20.00     0.135 A 
HETATM    2  C2  UNL     1     -34.095   5.956   4.281  1.00 20.00     0.111 A 
HETATM    3  C3  UNL     1     -34.184   6.647   6.371  1.00 20.00     0.209 A 
HETATM    4  N7  UNL     1     -34.797   5.484   6.383  1.00 20.00    -0.255 NA
HETATM    5  N8  UNL     1     -33.742   6.975   5.120  1.00 20.00    -0.350 N 
ENDROOT
BRANCH   5   6
HETATM    6  C6  UNL     1     -33.023   8.189   4.749  1.00 20.00     0.129 C 
BRANCH   6   7
HETATM    7  C5  UNL     1     -32.181   7.995   3.489  1.00 20.00     0.016 C 
HETATM    8  C4  UNL     1     -32.621   8.934   2.379  1.00 20.00     0.006 C 
ENDBRANCH   6   7
ENDBRANCH   5   6
TORSDOF 2
ENDMDL
MODEL 3
REMARK VINA RESULT:      -3.9      1.299      3.583
REMARK  2 active torsions:
REMARK  status: ('A' for Active; 'I' for Inactive)
REMARK    1  A    between atoms: C5_5  and  C6_6 
REMARK    2  A    between atoms: C6_6  and  N8_8 
ROOT
HETATM    1  C1  UNL     1     -32.352   8.722   4.758  1.00 20.00     0.135 A 
HETATM    2  C2  UNL     1     -33.561   8.184   5.134  1.00 20.00     0.111 A 
HETATM    3  C3  UNL     1     -32.640   7.031   3.497  1.00 20.00     0.209 A 
HETATM    4  N7  UNL     1     -31.784   8.000   3.738  1.00 20.00    -0.255 NA
HETATM    5  N8  UNL     1     -33.731   7.102   4.317  1.00 20.00    -0.350 N 
ENDROOT
BRANCH   5   6
HETATM    6  C6  UNL     1     -34.869   6.188   4.322  1.00 20.00     0.129 C 
BRANCH   6   7
HETATM    7  C5  UNL     1     -34.574   4.910   5.104  1.00 20.00     0.016 C 
HETATM    8  C4  UNL     1     -34.457   5.187   6.593  1.00 20.00     0.006 C 
ENDBRANCH   6   7
ENDBRANCH   5   6
TORSDOF 2
ENDMDL
MODEL 4
REMARK VINA RESULT:      -3.9      1.236      3.782
REMARK  2 active torsions:
REMARK  status: ('A' for Active; 'I' for Inactive)
REMARK    1  A    between atoms: C5_5  and  C6_6 
REMARK    2  A    between atoms: C6_6  and  N8_8 
ROOT
HETATM    1  C1  UNL     1     -31.840   8.041   3.770  1.00 20.00     0.135 A 
HETATM    2  C2  UNL     1     -32.675   6.996   3.449  1.00 20.00     0.111 A 
HETATM    3  C3  UNL     1     -33.487   8.196   5.110  1.00 20.00     0.209 A 
HETATM    4  N7  UNL     1     -32.351   8.783   4.805  1.00 20.00    -0.255 NA
HETATM    5  N8  UNL     1     -33.726   7.109   4.316  1.00 20.00    -0.350 N 
ENDROOT
BRANCH   5   6
HETATM    6  C6  UNL     1     -34.890   6.232   4.381  1.00 20.00     0.129 C 
BRANCH   6   7
HETATM    7  C5  UNL     1     -34.584   4.928   5.116  1.00 20.00     0.016 C 
HETATM    8  C4  UNL     1     -34.450   5.156   6.613  1.00 20.00     0.006 C 
ENDBRANCH   6   7
ENDBRANCH   5   6
TORSDOF 2
ENDMDL
MODEL 5
REMARK VINA RESULT:      -3.6      1.157      1.739
REMARK  2 active torsions:
REMARK  status: ('A' for Active; 'I' for Inactive)
REMARK    1  A    between atoms: C5_5  and  C6_6 
REMARK    2  A    between atoms: C6_6  and  N8_8 
ROOT
HETATM    1  C1  UNL     1     -34.851   5.463   6.106  1.00 20.00     0.135 A 
HETATM    2  C2  UNL     1     -34.455   5.108   4.837  1.00 20.00     0.111 A 
HETATM    3  C3  UNL     1     -33.666   7.086   5.404  1.00 20.00     0.209 A 
HETATM    4  N7  UNL     1     -34.357   6.695   6.452  1.00 20.00    -0.255 NA
HETATM    5  N8  UNL     1     -33.697   6.158   4.401  1.00 20.00    -0.350 N 
ENDROOT
BRANCH   5   6
HETATM    6  C6  UNL     1     -33.039   6.267   3.103  1.00 20.00     0.129 C 
BRANCH   6   7
HETATM    7  C5  UNL     1     -32.163   7.515   3.008  1.00 20.00     0.016 C 
HETATM    8  C4  UNL     1     -32.179   8.097   1.604  1.00 20.00     0.006 C 
ENDBRANCH   6   7
ENDBRANCH   5   6
TORSDOF 2
ENDMDL
MODEL 6
REMARK VINA RESULT:      -3.5      1.427      3.701
REMARK  2 active torsions:
REMARK  status: ('A' for Active; 'I' for Inactive)
REMARK    1  A    between atoms: C5_5  and  C6_6 
REMARK    2  A    between atoms: C6_6  and  N8_8 
ROOT
HETATM    1  C1  UNL     1     -32.275   7.835   3.335  1.00 20.00     0.135 A 
HETATM    2  C2  UNL     1     -32.984   6.887   4.035  1.00 20.00     0.111 A 
HETATM    3  C3  UNL     1     -32.790   8.758   5.183  1.00 20.00     0.209 A 
HETATM    4  N7  UNL     1     -32.157   8.998   4.056  1.00 20.00    -0.255 NA
HETATM    5  N8  UNL     1     -33.306   7.493   5.217  1.00 20.00    -0.350 N 
ENDROOT
BRANCH   5   6
HETATM    6  C6  UNL     1     -34.065   6.899   6.313  1.00 20.00     0.129 C 
BRANCH   6   7
HETATM    7  C5  UNL     1     -34.541   5.487   5.981  1.00 20.00     0.016 C 
HETATM    8  C4  UNL     1     -35.459   5.483   4.770  1.00 20.00     0.006 C 
ENDBRANCH   6   7
ENDBRANCH   5   6
TORSDOF 2
ENDMDL
MODEL 7
REMARK VINA RESULT:      -3.5     12.446     13.640
REMARK  2 active torsions:
REMARK  status: ('A' for Active; 'I' for Inactive)
REMARK    1  A    between atoms: C5_5  and  C6_6 
REMARK    2  A    between atoms: C6_6  and  N8_8 
ROOT
HETATM    1  C1  UNL     1     -35.271  15.453  -7.420  1.00 20.00     0.135 A 
HETATM    2  C2  UNL     1     -34.216  15.429  -6.538  1.00 20.00     0.111 A 
HETATM    3  C3  UNL     1     -36.011  14.488  -5.672  1.00 20.00     0.209 A 
HETATM    4  N7  UNL     1     -36.386  14.866  -6.874  1.00 20.00    -0.255 NA
HETATM    5  N8  UNL     1     -34.706  14.809  -5.423  1.00 20.00    -0.350 N 
ENDROOT
BRANCH   5   6
HETATM    6  C6  UNL     1     -33.970  14.535  -4.193  1.00 20.00     0.129 C 
BRANCH   6   7
HETATM    7  C5  UNL     1     -32.994  15.659  -3.848  1.00 20.00     0.016 C 
HETATM    8  C4  UNL     1     -33.482  16.471  -2.661  1.00 20.00     0.006 C 
ENDBRANCH   6   7
ENDBRANCH   5   6
TORSDOF 2
ENDMDL
MODEL 8
REMARK VINA RESULT:      -3.4      1.354      3.457
REMARK  2 active torsions:
REMARK  status: ('A' for Active; 'I' for Inactive)
REMARK    1  A    between atoms: C5_5  and  C6_6 
REMARK    2  A    between atoms: C6_6  and  N8_8 
ROOT
HETATM    1  C1  UNL     1     -31.994   7.511   2.600  1.00 20.00     0.135 A 
HETATM    2  C2  UNL     1     -32.458   8.227   3.679  1.00 20.00     0.111 A 
HETATM    3  C3  UNL     1     -33.316   6.197   3.630  1.00 20.00     0.209 A 
HETATM    4  N7  UNL     1     -32.532   6.249   2.576  1.00 20.00    -0.255 NA
HETATM    5  N8  UNL     1     -33.304   7.373   4.328  1.00 20.00    -0.350 N 
ENDROOT
BRANCH   5   6
HETATM    6  C6  UNL     1     -34.056   7.661   5.545  1.00 20.00     0.129 C 
BRANCH   6   7
HETATM    7  C5  UNL     1     -33.852   6.587   6.612  1.00 20.00     0.016 C 
HETATM    8  C4  UNL     1     -34.776   5.402   6.389  1.00 20.00     0.006 C 
ENDBRANCH   6   7
ENDBRANCH   5   6
TORSDOF 2
ENDMDL
MODEL 9
REMARK VINA RESULT:      -3.3     12.599     12.996
REMARK  2 active torsions:
REMARK  status: ('A' for Active; 'I' for Inactive)
REMARK    1  A    between atoms: C5_5  and  C6_6 
REMARK    2  A    between atoms: C6_6  and  N8_8 
ROOT
HETATM    1  C1  UNL     1     -31.833  18.729   1.623  1.00 20.00     0.135 A 
HETATM    2  C2  UNL     1     -32.914  18.583   0.784  1.00 20.00     0.111 A 
HETATM    3  C3  UNL     1     -31.014  18.516  -0.331  1.00 20.00     0.209 A 
HETATM    4  N7  UNL     1     -30.654  18.687   0.922  1.00 20.00    -0.255 NA
HETATM    5  N8  UNL     1     -32.373  18.448  -0.463  1.00 20.00    -0.350 N 
ENDROOT
BRANCH   5   6
HETATM    6  C6  UNL     1     -33.111  18.263  -1.709  1.00 20.00     0.129 C 
BRANCH   6   7
HETATM    7  C5  UNL     1     -33.571  16.819  -1.892  1.00 20.00     0.016 C 
HETATM    8  C4  UNL     1     -33.249  16.308  -3.287  1.00 20.00     0.006 C 
ENDBRANCH   6   7
ENDBRANCH   5   6
TORSDOF 2
ENDMDL
