MODEL 1
REMARK VINA RESULT:      -4.6      0.000      0.000
REMARK  0 active torsions:
REMARK  status: ('A' for Active; 'I' for Inactive)
ROOT
HETATM    1  C1  UNL     1     -32.662   8.443   4.257  1.00 20.00    -0.007 C 
HETATM    2  C2  UNL     1     -32.768   7.415   3.407  1.00 20.00     0.008 C 
HETATM    3  C3  UNL     1     -33.408   8.517   5.554  1.00 20.00     0.035 C 
HETATM    4  C4  UNL     1     -33.635   6.218   3.650  1.00 20.00     0.058 C 
HETATM    5  C5  UNL     1     -33.344   6.201   6.685  1.00 20.00     0.172 C 
HETATM    6  C6  UNL     1     -35.010   5.117   5.459  1.00 20.00     0.172 C 
HETATM    7  C7  UNL     1     -34.160   7.244   5.933  1.00 20.00     0.019 C 
HETATM    8  C8  UNL     1     -34.684   6.429   4.761  1.00 20.00     0.021 C 
HETATM    9  O9  UNL     1     -34.015   4.944   6.484  1.00 20.00    -0.390 OA
HETATM   10 CL10 UNL     1     -31.866   7.402   1.932  1.00 20.00    -0.089 Cl
ENDROOT
TORSDOF 0
ENDMDL
MODEL 2
REMARK VINA RESULT:      -3.9      2.732      3.848
REMARK  0 active torsions:
REMARK  status: ('A' for Active; 'I' for Inactive)
ROOT
HETATM    1  C1  UNL     1     -33.763   7.429   5.616  1.00 20.00    -0.007 C 
HETATM    2  C2  UNL     1     -34.016   6.456   4.733  1.00 20.00     0.008 C 
HETATM    3  C3  UNL     1     -32.797   8.545   5.356  1.00 20.00     0.035 C 
HETATM    4  C4  UNL     1     -33.374   6.367   3.383  1.00 20.00     0.058 C 
HETATM    5  C5  UNL     1     -33.114   9.372   2.934  1.00 20.00     0.172 C 
HETATM    6  C6  UNL     1     -31.942   7.705   1.792  1.00 20.00     0.172 C 
HETATM    7  C7  UNL     1     -32.256   8.602   3.929  1.00 20.00     0.019 C 
HETATM    8  C8  UNL     1     -32.122   7.256   3.235  1.00 20.00     0.021 C 
HETATM    9  O9  UNL     1     -32.751   8.884   1.630  1.00 20.00    -0.390 OA
HETATM   10 CL10 UNL     1     -35.153   5.207   5.108  1.00 20.00    -0.089 Cl
ENDROOT
TORSDOF 0
ENDMDL
MODEL 3
REMARK VINA RESULT:      -3.7     12.891     14.101
REMARK  0 active torsions:
REMARK  status: ('A' for Active; 'I' for Inactive)
ROOT
HETATM    1  C1  UNL     1     -33.288  15.887  -3.475  1.00 20.00    -0.007 C 
HETATM    2  C2  UNL     1     -33.634  17.146  -3.769  1.00 20.00     0.008 C 
HETATM    3  C3  UNL     1     -33.869  14.691  -4.165  1.00 20.00     0.035 C 
HETATM    4  C4  UNL     1     -34.633  17.511  -4.823  1.00 20.00     0.058 C 
HETATM    5  C5  UNL     1     -34.019  15.181  -6.692  1.00 20.00     0.172 C 
HETATM    6  C6  UNL     1     -35.949  16.497  -6.725  1.00 20.00     0.172 C 
HETATM    7  C7  UNL     1     -34.753  15.015  -5.368  1.00 20.00     0.019 C 
HETATM    8  C8  UNL     1     -35.514  16.328  -5.277  1.00 20.00     0.021 C 
HETATM    9  O9  UNL     1     -34.883  15.965  -7.533  1.00 20.00    -0.390 OA
HETATM   10 CL10 UNL     1     -32.909  18.473  -2.930  1.00 20.00    -0.089 Cl
ENDROOT
TORSDOF 0
ENDMDL
MODEL 4
REMARK VINA RESULT:      -3.7     12.430     13.251
REMARK  0 active torsions:
REMARK  status: ('A' for Active; 'I' for Inactive)
ROOT
HETATM    1  C1  UNL     1     -32.805  18.500   1.390  1.00 20.00    -0.007 C 
HETATM    2  C2  UNL     1     -31.618  18.736   0.819  1.00 20.00     0.008 C 
HETATM    3  C3  UNL     1     -34.089  18.429   0.621  1.00 20.00     0.035 C 
HETATM    4  C4  UNL     1     -31.429  18.951  -0.651  1.00 20.00     0.058 C 
HETATM    5  C5  UNL     1     -33.683  17.108  -1.556  1.00 20.00     0.172 C 
HETATM    6  C6  UNL     1     -32.667  18.771  -2.844  1.00 20.00     0.172 C 
HETATM    7  C7  UNL     1     -33.927  18.459  -0.897  1.00 20.00     0.019 C 
HETATM    8  C8  UNL     1     -32.739  19.261  -1.405  1.00 20.00     0.021 C 
HETATM    9  O9  UNL     1     -33.054  17.385  -2.820  1.00 20.00    -0.390 OA
HETATM   10 CL10 UNL     1     -30.181  18.794   1.778  1.00 20.00    -0.089 Cl
ENDROOT
TORSDOF 0
ENDMDL
MODEL 5
REMARK VINA RESULT:      -3.6      1.567      2.008
REMARK  0 active torsions:
REMARK  status: ('A' for Active; 'I' for Inactive)
ROOT
HETATM    1  C1  UNL     1     -33.610   7.946   6.364  1.00 20.00    -0.007 C 
HETATM    2  C2  UNL     1     -33.088   7.984   5.133  1.00 20.00     0.008 C 
HETATM    3  C3  UNL     1     -34.580   6.896   6.814  1.00 20.00     0.035 C 
HETATM    4  C4  UNL     1     -33.402   6.985   4.062  1.00 20.00     0.058 C 
HETATM    5  C5  UNL     1     -33.797   4.605   5.928  1.00 20.00     0.172 C 
HETATM    6  C6  UNL     1     -34.546   4.760   3.720  1.00 20.00     0.172 C 
HETATM    7  C7  UNL     1     -34.791   5.755   5.823  1.00 20.00     0.019 C 
HETATM    8  C8  UNL     1     -34.657   6.137   4.358  1.00 20.00     0.021 C 
HETATM    9  O9  UNL     1     -33.818   3.939   4.653  1.00 20.00    -0.390 OA
HETATM   10 CL10 UNL     1     -31.967   9.226   4.695  1.00 20.00    -0.089 Cl
ENDROOT
TORSDOF 0
ENDMDL
MODEL 6
REMARK VINA RESULT:      -3.6     12.448     13.666
REMARK  0 active torsions:
REMARK  status: ('A' for Active; 'I' for Inactive)
ROOT
HETATM    1  C1  UNL     1     -33.085  19.190  -1.889  1.00 20.00    -0.007 C 
HETATM    2  C2  UNL     1     -33.403  18.062  -1.242  1.00 20.00     0.008 C 
HETATM    3  C3  UNL     1     -32.908  19.263  -3.376  1.00 20.00     0.035 C 
HETATM    4  C4  UNL     1     -33.628  16.746  -1.921  1.00 20.00     0.058 C 
HETATM    5  C5  UNL     1     -34.776  17.890  -4.504  1.00 20.00     0.172 C 
HETATM    6  C6  UNL     1     -33.911  15.739  -4.219  1.00 20.00     0.172 C 
HETATM    7  C7  UNL     1     -33.304  17.996  -4.130  1.00 20.00     0.019 C 
HETATM    8  C8  UNL     1     -33.092  16.697  -3.367  1.00 20.00     0.021 C 
HETATM    9  O9  UNL     1     -35.040  16.490  -4.703  1.00 20.00    -0.390 OA
HETATM   10 CL10 UNL     1     -33.597  18.064   0.476  1.00 20.00    -0.089 Cl
ENDROOT
TORSDOF 0
ENDMDL
MODEL 7
REMARK VINA RESULT:      -3.4     12.815     13.981
REMARK  0 active torsions:
REMARK  status: ('A' for Active; 'I' for Inactive)
ROOT
HETATM    1  C1  UNL     1     -33.863  18.058  -4.267  1.00 20.00    -0.007 C 
HETATM    2  C2  UNL     1     -33.725  16.929  -3.562  1.00 20.00     0.008 C 
HETATM    3  C3  UNL     1     -34.476  18.103  -5.634  1.00 20.00     0.035 C 
HETATM    4  C4  UNL     1     -34.169  15.583  -4.046  1.00 20.00     0.058 C 
HETATM    5  C5  UNL     1     -36.554  16.577  -5.665  1.00 20.00     0.172 C 
HETATM    6  C6  UNL     1     -35.512  14.498  -5.887  1.00 20.00     0.172 C 
HETATM    7  C7  UNL     1     -35.108  16.792  -6.095  1.00 20.00     0.019 C 
HETATM    8  C8  UNL     1     -34.444  15.532  -5.563  1.00 20.00     0.021 C 
HETATM    9  O9  UNL     1     -36.780  15.158  -5.718  1.00 20.00    -0.390 OA
HETATM   10 CL10 UNL     1     -33.013  16.963  -1.986  1.00 20.00    -0.089 Cl
ENDROOT
TORSDOF 0
ENDMDL
MODEL 8
REMARK VINA RESULT:      -3.4      1.321      2.362
REMARK  0 active torsions:
REMARK  status: ('A' for Active; 'I' for Inactive)
ROOT
HETATM    1  C1  UNL     1     -32.650   6.992   2.404  1.00 20.00    -0.007 C 
HETATM    2  C2  UNL     1     -32.900   8.133   3.057  1.00 20.00     0.008 C 
HETATM    3  C3  UNL     1     -32.793   5.638   3.029  1.00 20.00     0.035 C 
HETATM    4  C4  UNL     1     -33.356   8.195   4.482  1.00 20.00     0.058 C 
HETATM    5  C5  UNL     1     -34.951   5.596   4.439  1.00 20.00     0.172 C 
HETATM    6  C6  UNL     1     -34.198   6.714   6.346  1.00 20.00     0.172 C 
HETATM    7  C7  UNL     1     -33.429   5.639   4.417  1.00 20.00     0.019 C 
HETATM    8  C8  UNL     1     -33.149   6.876   5.256  1.00 20.00     0.021 C 
HETATM    9  O9  UNL     1     -35.349   6.121   5.718  1.00 20.00    -0.390 OA
HETATM   10 CL10 UNL     1     -32.718   9.657   2.260  1.00 20.00    -0.089 Cl
ENDROOT
TORSDOF 0
ENDMDL
MODEL 9
REMARK VINA RESULT:      -3.4     10.042     10.795
REMARK  0 active torsions:
REMARK  status: ('A' for Active; 'I' for Inactive)
ROOT
HETATM    1  C1  UNL     1     -41.456  13.692   4.843  1.00 20.00    -0.007 C 
HETATM    2  C2  UNL     1     -40.458  12.994   5.399  1.00 20.00     0.008 C 
HETATM    3  C3  UNL     1     -42.325  14.640   5.612  1.00 20.00     0.035 C 
HETATM    4  C4  UNL     1     -40.087  13.081   6.848  1.00 20.00     0.058 C 
HETATM    5  C5  UNL     1     -40.844  16.011   7.216  1.00 20.00     0.172 C 
HETATM    6  C6  UNL     1     -40.552  14.443   8.923  1.00 20.00     0.172 C 
HETATM    7  C7  UNL     1     -41.873  14.901   7.047  1.00 20.00     0.019 C 
HETATM    8  C8  UNL     1     -41.173  13.735   7.727  1.00 20.00     0.021 C 
HETATM    9  O9  UNL     1     -40.182  15.757   8.468  1.00 20.00    -0.390 OA
HETATM   10 CL10 UNL     1     -39.495  11.926   4.440  1.00 20.00    -0.089 Cl
ENDROOT
TORSDOF 0
ENDMDL
