MODEL 1
REMARK VINA RESULT:      -4.8      0.000      0.000
REMARK  0 active torsions:
REMARK  status: ('A' for Active; 'I' for Inactive)
ROOT
HETATM    1  C1  UNL     1     -33.385   5.842   3.736  1.00 20.00     0.226 C 
HETATM    2  C2  UNL     1     -33.896   7.300   5.552  1.00 20.00     0.043 C 
HETATM    3  C3  UNL     1     -33.272   8.103   4.415  1.00 20.00     0.081 C 
HETATM    4  C4  UNL     1     -34.387   6.005   4.873  1.00 20.00     0.035 C 
HETATM    5  C5  UNL     1     -32.171   9.038   4.880  1.00 20.00     0.032 C 
HETATM    6  C6  UNL     1     -35.790   6.175   4.282  1.00 20.00     0.025 C 
HETATM    7  C7  UNL     1     -34.346   4.814   5.826  1.00 20.00     0.025 C 
HETATM    8  N8  UNL     1     -32.789   7.081   3.522  1.00 20.00    -0.356 N 
HETATM    9  O9  UNL     1     -33.182   4.816   3.103  1.00 20.00    -0.273 OA
HETATM   10  H22 UNL     1     -32.085   7.248   2.810  1.00 20.00     0.162 HD
ENDROOT
TORSDOF 0
ENDMDL
MODEL 2
REMARK VINA RESULT:      -4.1     15.585     16.399
REMARK  0 active torsions:
REMARK  status: ('A' for Active; 'I' for Inactive)
ROOT
HETATM    1  C1  UNL     1     -25.136  18.403  11.382  1.00 20.00     0.226 C 
HETATM    2  C2  UNL     1     -23.453  17.615   9.887  1.00 20.00     0.043 C 
HETATM    3  C3  UNL     1     -23.878  19.023   9.479  1.00 20.00     0.081 C 
HETATM    4  C4  UNL     1     -23.912  17.494  11.355  1.00 20.00     0.035 C 
HETATM    5  C5  UNL     1     -24.158  19.153   7.993  1.00 20.00     0.032 C 
HETATM    6  C6  UNL     1     -22.860  18.045  12.322  1.00 20.00     0.025 C 
HETATM    7  C7  UNL     1     -24.278  16.059  11.719  1.00 20.00     0.025 C 
HETATM    8  N8  UNL     1     -25.048  19.256  10.285  1.00 20.00    -0.356 N 
HETATM    9  O9  UNL     1     -26.007  18.405  12.239  1.00 20.00    -0.273 OA
HETATM   10  H22 UNL     1     -25.740  19.969  10.074  1.00 20.00     0.162 HD
ENDROOT
TORSDOF 0
ENDMDL
MODEL 3
REMARK VINA RESULT:      -4.0      9.356     10.064
REMARK  0 active torsions:
REMARK  status: ('A' for Active; 'I' for Inactive)
ROOT
HETATM    1  C1  UNL     1     -40.224  13.314   7.271  1.00 20.00     0.226 C 
HETATM    2  C2  UNL     1     -40.929  13.046   5.009  1.00 20.00     0.043 C 
HETATM    3  C3  UNL     1     -39.904  11.969   5.354  1.00 20.00     0.081 C 
HETATM    4  C4  UNL     1     -41.442  13.530   6.380  1.00 20.00     0.035 C 
HETATM    5  C5  UNL     1     -38.816  11.823   4.305  1.00 20.00     0.032 C 
HETATM    6  C6  UNL     1     -42.594  12.659   6.891  1.00 20.00     0.025 C 
HETATM    7  C7  UNL     1     -41.853  14.999   6.346  1.00 20.00     0.025 C 
HETATM    8  N8  UNL     1     -39.389  12.406   6.626  1.00 20.00    -0.356 N 
HETATM    9  O9  UNL     1     -40.043  13.819   8.370  1.00 20.00    -0.273 OA
HETATM   10  H22 UNL     1     -38.507  12.085   7.013  1.00 20.00     0.162 HD
ENDROOT
TORSDOF 0
ENDMDL
MODEL 4
REMARK VINA RESULT:      -3.9     11.854     12.815
REMARK  0 active torsions:
REMARK  status: ('A' for Active; 'I' for Inactive)
ROOT
HETATM    1  C1  UNL     1     -34.955  14.314  -4.448  1.00 20.00     0.226 C 
HETATM    2  C2  UNL     1     -34.518  16.650  -4.642  1.00 20.00     0.043 C 
HETATM    3  C3  UNL     1     -33.504  16.019  -3.693  1.00 20.00     0.081 C 
HETATM    4  C4  UNL     1     -35.070  15.457  -5.450  1.00 20.00     0.035 C 
HETATM    5  C5  UNL     1     -33.332  16.798  -2.402  1.00 20.00     0.032 C 
HETATM    6  C6  UNL     1     -34.191  15.145  -6.666  1.00 20.00     0.025 C 
HETATM    7  C7  UNL     1     -36.517  15.681  -5.876  1.00 20.00     0.025 C 
HETATM    8  N8  UNL     1     -34.039  14.700  -3.474  1.00 20.00    -0.356 N 
HETATM    9  O9  UNL     1     -35.534  13.240  -4.519  1.00 20.00    -0.273 OA
HETATM   10  H22 UNL     1     -33.775  14.112  -2.689  1.00 20.00     0.162 HD
ENDROOT
TORSDOF 0
ENDMDL
MODEL 5
REMARK VINA RESULT:      -3.7      1.864      2.306
REMARK  0 active torsions:
REMARK  status: ('A' for Active; 'I' for Inactive)
ROOT
HETATM    1  C1  UNL     1     -34.253   6.283   6.010  1.00 20.00     0.226 C 
HETATM    2  C2  UNL     1     -33.798   7.299   3.901  1.00 20.00     0.043 C 
HETATM    3  C3  UNL     1     -32.680   7.640   4.882  1.00 20.00     0.081 C 
HETATM    4  C4  UNL     1     -34.475   6.059   4.519  1.00 20.00     0.035 C 
HETATM    5  C5  UNL     1     -32.323   9.115   4.890  1.00 20.00     0.032 C 
HETATM    6  C6  UNL     1     -33.771   4.764   4.098  1.00 20.00     0.025 C 
HETATM    7  C7  UNL     1     -35.962   5.996   4.181  1.00 20.00     0.025 C 
HETATM    8  N8  UNL     1     -33.209   7.193   6.145  1.00 20.00    -0.356 N 
HETATM    9  O9  UNL     1     -34.858   5.727   6.915  1.00 20.00    -0.273 OA
HETATM   10  H22 UNL     1     -32.855   7.510   7.043  1.00 20.00     0.162 HD
ENDROOT
TORSDOF 0
ENDMDL
MODEL 6
REMARK VINA RESULT:      -3.7     12.723     13.436
REMARK  0 active torsions:
REMARK  status: ('A' for Active; 'I' for Inactive)
ROOT
HETATM    1  C1  UNL     1     -34.891  18.243  -2.517  1.00 20.00     0.226 C 
HETATM    2  C2  UNL     1     -33.139  16.640  -2.303  1.00 20.00     0.043 C 
HETATM    3  C3  UNL     1     -33.677  16.619  -3.731  1.00 20.00     0.081 C 
HETATM    4  C4  UNL     1     -33.596  18.005  -1.749  1.00 20.00     0.035 C 
HETATM    5  C5  UNL     1     -33.959  15.217  -4.241  1.00 20.00     0.032 C 
HETATM    6  C6  UNL     1     -32.599  19.116  -2.095  1.00 20.00     0.025 C 
HETATM    7  C7  UNL     1     -33.842  17.953  -0.245  1.00 20.00     0.025 C 
HETATM    8  N8  UNL     1     -34.868  17.424  -3.641  1.00 20.00    -0.356 N 
HETATM    9  O9  UNL     1     -35.765  19.043  -2.215  1.00 20.00    -0.273 OA
HETATM   10  H22 UNL     1     -35.616  17.395  -4.328  1.00 20.00     0.162 HD
ENDROOT
TORSDOF 0
ENDMDL
MODEL 7
REMARK VINA RESULT:      -3.5     12.326     13.232
REMARK  0 active torsions:
REMARK  status: ('A' for Active; 'I' for Inactive)
ROOT
HETATM    1  C1  UNL     1     -36.096  14.353  -4.922  1.00 20.00     0.226 C 
HETATM    2  C2  UNL     1     -34.545  16.080  -5.468  1.00 20.00     0.043 C 
HETATM    3  C3  UNL     1     -33.784  14.831  -5.032  1.00 20.00     0.081 C 
HETATM    4  C4  UNL     1     -35.944  15.554  -5.848  1.00 20.00     0.035 C 
HETATM    5  C5  UNL     1     -32.691  15.122  -4.020  1.00 20.00     0.032 C 
HETATM    6  C6  UNL     1     -35.989  15.071  -7.302  1.00 20.00     0.025 C 
HETATM    7  C7  UNL     1     -37.030  16.594  -5.593  1.00 20.00     0.025 C 
HETATM    8  N8  UNL     1     -34.822  13.988  -4.497  1.00 20.00    -0.356 N 
HETATM    9  O9  UNL     1     -37.146  13.792  -4.644  1.00 20.00    -0.273 OA
HETATM   10  H22 UNL     1     -34.642  13.207  -3.873  1.00 20.00     0.162 HD
ENDROOT
TORSDOF 0
ENDMDL
MODEL 8
REMARK VINA RESULT:      -3.5     12.589     13.217
REMARK  0 active torsions:
REMARK  status: ('A' for Active; 'I' for Inactive)
ROOT
HETATM    1  C1  UNL     1     -35.147  16.606  -4.901  1.00 20.00     0.226 C 
HETATM    2  C2  UNL     1     -33.228  15.512  -4.004  1.00 20.00     0.043 C 
HETATM    3  C3  UNL     1     -33.853  16.402  -2.934  1.00 20.00     0.081 C 
HETATM    4  C4  UNL     1     -34.359  15.307  -5.031  1.00 20.00     0.035 C 
HETATM    5  C5  UNL     1     -32.838  17.271  -2.214  1.00 20.00     0.032 C 
HETATM    6  C6  UNL     1     -35.266  14.133  -4.646  1.00 20.00     0.025 C 
HETATM    7  C7  UNL     1     -33.817  15.125  -6.445  1.00 20.00     0.025 C 
HETATM    8  N8  UNL     1     -34.814  17.177  -3.676  1.00 20.00    -0.356 N 
HETATM    9  O9  UNL     1     -35.955  17.037  -5.711  1.00 20.00    -0.273 OA
HETATM   10  H22 UNL     1     -35.208  18.050  -3.340  1.00 20.00     0.162 HD
ENDROOT
TORSDOF 0
ENDMDL
MODEL 9
REMARK VINA RESULT:      -3.4     12.678     13.420
REMARK  0 active torsions:
REMARK  status: ('A' for Active; 'I' for Inactive)
ROOT
HETATM    1  C1  UNL     1     -34.502  18.643  -1.437  1.00 20.00     0.226 C 
HETATM    2  C2  UNL     1     -32.161  18.429  -1.033  1.00 20.00     0.043 C 
HETATM    3  C3  UNL     1     -32.920  18.292   0.284  1.00 20.00     0.081 C 
HETATM    4  C4  UNL     1     -33.227  18.148  -2.112  1.00 20.00     0.035 C 
HETATM    5  C5  UNL     1     -32.332  19.136   1.400  1.00 20.00     0.032 C 
HETATM    6  C6  UNL     1     -33.362  16.649  -2.396  1.00 20.00     0.025 C 
HETATM    7  C7  UNL     1     -32.946  18.916  -3.401  1.00 20.00     0.025 C 
HETATM    8  N8  UNL     1     -34.257  18.695  -0.068  1.00 20.00    -0.356 N 
HETATM    9  O9  UNL     1     -35.555  18.902  -2.000  1.00 20.00    -0.273 OA
HETATM   10  H22 UNL     1     -34.950  18.988   0.614  1.00 20.00     0.162 HD
ENDROOT
TORSDOF 0
ENDMDL
