MODEL 1
REMARK VINA RESULT:      -4.4      0.000      0.000
REMARK  4 active torsions:
REMARK  status: ('A' for Active; 'I' for Inactive)
REMARK    1  A    between atoms: C1_1  and  C5_5 
REMARK    2  A    between atoms: C1_1  and  O9_9 
REMARK    3  A    between atoms: C5_5  and  C6_6 
REMARK    4  A    between atoms: C7_7  and  O9_9 
ROOT
HETATM    1  C1  UNL     1     -33.033   8.004   5.048  1.00 20.00     0.259 C 
HETATM    2  O8  UNL     1     -32.276   8.961   5.125  1.00 20.00    -0.265 OA
ENDROOT
BRANCH   1   3
HETATM    3  C5  UNL     1     -33.649   7.283   6.226  1.00 20.00     0.111 C 
BRANCH   3   4
HETATM    4  C6  UNL     1     -34.764   6.333   5.796  1.00 20.00     0.005 C 
HETATM    5  C2  UNL     1     -34.416   4.887   6.107  1.00 20.00     0.005 C 
ENDBRANCH   3   4
ENDBRANCH   1   3
BRANCH   1   6
HETATM    6  O9  UNL     1     -33.461   7.412   3.894  1.00 20.00    -0.317 OA
BRANCH   6   7
HETATM    7  C7  UNL     1     -32.433   6.844   3.075  1.00 20.00     0.123 C 
HETATM    8  C3  UNL     1     -32.845   5.441   2.656  1.00 20.00     0.040 C 
HETATM    9  C4  UNL     1     -32.194   7.746   1.874  1.00 20.00     0.040 C 
ENDBRANCH   6   7
ENDBRANCH   1   6
TORSDOF 4
ENDMDL
MODEL 2
REMARK VINA RESULT:      -4.3      1.375      2.663
REMARK  4 active torsions:
REMARK  status: ('A' for Active; 'I' for Inactive)
REMARK    1  A    between atoms: C1_1  and  C5_5 
REMARK    2  A    between atoms: C1_1  and  O9_9 
REMARK    3  A    between atoms: C5_5  and  C6_6 
REMARK    4  A    between atoms: C7_7  and  O9_9 
ROOT
HETATM    1  C1  UNL     1     -33.376   5.391   3.335  1.00 20.00     0.259 C 
HETATM    2  O8  UNL     1     -32.723   4.815   2.476  1.00 20.00    -0.265 OA
ENDROOT
BRANCH   1   3
HETATM    3  C5  UNL     1     -34.176   4.712   4.423  1.00 20.00     0.111 C 
BRANCH   3   4
HETATM    4  C6  UNL     1     -35.059   5.697   5.184  1.00 20.00     0.005 C 
HETATM    5  C2  UNL     1     -34.460   6.054   6.535  1.00 20.00     0.005 C 
ENDBRANCH   3   4
ENDBRANCH   1   3
BRANCH   1   6
HETATM    6  O9  UNL     1     -33.503   6.744   3.472  1.00 20.00    -0.317 OA
BRANCH   6   7
HETATM    7  C7  UNL     1     -32.280   7.486   3.420  1.00 20.00     0.123 C 
HETATM    8  C3  UNL     1     -32.144   8.133   2.050  1.00 20.00     0.040 C 
HETATM    9  C4  UNL     1     -32.274   8.518   4.537  1.00 20.00     0.040 C 
ENDBRANCH   6   7
ENDBRANCH   1   6
TORSDOF 4
ENDMDL
MODEL 3
REMARK VINA RESULT:      -4.0      1.484      2.540
REMARK  4 active torsions:
REMARK  status: ('A' for Active; 'I' for Inactive)
REMARK    1  A    between atoms: C1_1  and  C5_5 
REMARK    2  A    between atoms: C1_1  and  O9_9 
REMARK    3  A    between atoms: C5_5  and  C6_6 
REMARK    4  A    between atoms: C7_7  and  O9_9 
ROOT
HETATM    1  C1  UNL     1     -34.334   6.854   5.449  1.00 20.00     0.259 C 
HETATM    2  O8  UNL     1     -34.131   6.868   6.654  1.00 20.00    -0.265 OA
ENDROOT
BRANCH   1   3
HETATM    3  C5  UNL     1     -35.058   5.757   4.700  1.00 20.00     0.111 C 
BRANCH   3   4
HETATM    4  C6  UNL     1     -34.150   4.564   4.414  1.00 20.00     0.005 C 
HETATM    5  C2  UNL     1     -33.456   4.701   3.069  1.00 20.00     0.005 C 
ENDBRANCH   3   4
ENDBRANCH   1   3
BRANCH   1   6
HETATM    6  O9  UNL     1     -33.949   7.817   4.560  1.00 20.00    -0.317 OA
BRANCH   6   7
HETATM    7  C7  UNL     1     -32.536   7.965   4.386  1.00 20.00     0.123 C 
HETATM    8  C3  UNL     1     -32.205   7.895   2.903  1.00 20.00     0.040 C 
HETATM    9  C4  UNL     1     -32.091   9.281   5.004  1.00 20.00     0.040 C 
ENDBRANCH   6   7
ENDBRANCH   1   6
TORSDOF 4
ENDMDL
MODEL 4
REMARK VINA RESULT:      -3.9      1.364      4.004
REMARK  4 active torsions:
REMARK  status: ('A' for Active; 'I' for Inactive)
REMARK    1  A    between atoms: C1_1  and  C5_5 
REMARK    2  A    between atoms: C1_1  and  O9_9 
REMARK    3  A    between atoms: C5_5  and  C6_6 
REMARK    4  A    between atoms: C7_7  and  O9_9 
ROOT
HETATM    1  C1  UNL     1     -32.482   8.013   3.949  1.00 20.00     0.259 C 
HETATM    2  O8  UNL     1     -32.236   8.966   4.676  1.00 20.00    -0.265 OA
ENDROOT
BRANCH   1   3
HETATM    3  C5  UNL     1     -32.288   7.988   2.450  1.00 20.00     0.111 C 
BRANCH   3   4
HETATM    4  C6  UNL     1     -32.790   9.268   1.786  1.00 20.00     0.005 C 
HETATM    5  C2  UNL     1     -32.693   9.185   0.271  1.00 20.00     0.005 C 
ENDBRANCH   3   4
ENDBRANCH   1   3
BRANCH   1   6
HETATM    6  O9  UNL     1     -32.974   6.805   4.352  1.00 20.00    -0.317 OA
BRANCH   6   7
HETATM    7  C7  UNL     1     -34.264   6.840   4.973  1.00 20.00     0.123 C 
HETATM    8  C3  UNL     1     -35.081   5.648   4.498  1.00 20.00     0.040 C 
HETATM    9  C4  UNL     1     -34.091   6.844   6.484  1.00 20.00     0.040 C 
ENDBRANCH   6   7
ENDBRANCH   1   6
TORSDOF 4
ENDMDL
MODEL 5
REMARK VINA RESULT:      -3.8      1.196      3.642
REMARK  4 active torsions:
REMARK  status: ('A' for Active; 'I' for Inactive)
REMARK    1  A    between atoms: C1_1  and  C5_5 
REMARK    2  A    between atoms: C1_1  and  O9_9 
REMARK    3  A    between atoms: C5_5  and  C6_6 
REMARK    4  A    between atoms: C7_7  and  O9_9 
ROOT
HETATM    1  C1  UNL     1     -33.262   8.162   5.115  1.00 20.00     0.259 C 
HETATM    2  O8  UNL     1     -33.917   8.990   5.734  1.00 20.00    -0.265 OA
ENDROOT
BRANCH   1   3
HETATM    3  C5  UNL     1     -32.233   8.481   4.055  1.00 20.00     0.111 C 
BRANCH   3   4
HETATM    4  C6  UNL     1     -32.166   7.400   2.979  1.00 20.00     0.005 C 
HETATM    5  C2  UNL     1     -32.215   7.999   1.583  1.00 20.00     0.005 C 
ENDBRANCH   3   4
ENDBRANCH   1   3
BRANCH   1   6
HETATM    6  O9  UNL     1     -33.338   6.807   5.265  1.00 20.00    -0.317 OA
BRANCH   6   7
HETATM    7  C7  UNL     1     -34.630   6.296   5.608  1.00 20.00     0.123 C 
HETATM    8  C3  UNL     1     -35.350   5.863   4.340  1.00 20.00     0.040 C 
HETATM    9  C4  UNL     1     -34.469   5.145   6.589  1.00 20.00     0.040 C 
ENDBRANCH   6   7
ENDBRANCH   1   6
TORSDOF 4
ENDMDL
MODEL 6
REMARK VINA RESULT:      -3.7      1.533      3.792
REMARK  4 active torsions:
REMARK  status: ('A' for Active; 'I' for Inactive)
REMARK    1  A    between atoms: C1_1  and  C5_5 
REMARK    2  A    between atoms: C1_1  and  O9_9 
REMARK    3  A    between atoms: C5_5  and  C6_6 
REMARK    4  A    between atoms: C7_7  and  O9_9 
ROOT
HETATM    1  C1  UNL     1     -32.862   6.133   3.259  1.00 20.00     0.259 C 
HETATM    2  O8  UNL     1     -32.896   5.101   2.605  1.00 20.00    -0.265 OA
ENDROOT
BRANCH   1   3
HETATM    3  C5  UNL     1     -32.133   7.396   2.858  1.00 20.00     0.111 C 
BRANCH   3   4
HETATM    4  C6  UNL     1     -32.772   8.643   3.463  1.00 20.00     0.005 C 
HETATM    5  C2  UNL     1     -32.156   8.987   4.809  1.00 20.00     0.005 C 
ENDBRANCH   3   4
ENDBRANCH   1   3
BRANCH   1   6
HETATM    6  O9  UNL     1     -33.470   6.338   4.465  1.00 20.00    -0.317 OA
BRANCH   6   7
HETATM    7  C7  UNL     1     -34.531   5.432   4.782  1.00 20.00     0.123 C 
HETATM    8  C3  UNL     1     -34.583   5.229   6.289  1.00 20.00     0.040 C 
HETATM    9  C4  UNL     1     -35.840   5.984   4.239  1.00 20.00     0.040 C 
ENDBRANCH   6   7
ENDBRANCH   1   6
TORSDOF 4
ENDMDL
MODEL 7
REMARK VINA RESULT:      -3.7      1.571      2.631
REMARK  4 active torsions:
REMARK  status: ('A' for Active; 'I' for Inactive)
REMARK    1  A    between atoms: C1_1  and  C5_5 
REMARK    2  A    between atoms: C1_1  and  O9_9 
REMARK    3  A    between atoms: C5_5  and  C6_6 
REMARK    4  A    between atoms: C7_7  and  O9_9 
ROOT
HETATM    1  C1  UNL     1     -34.354   5.108   4.724  1.00 20.00     0.259 C 
HETATM    2  O8  UNL     1     -34.187   3.897   4.751  1.00 20.00    -0.265 OA
ENDROOT
BRANCH   1   3
HETATM    3  C5  UNL     1     -34.868   5.943   5.876  1.00 20.00     0.111 C 
BRANCH   3   4
HETATM    4  C6  UNL     1     -33.789   6.865   6.439  1.00 20.00     0.005 C 
HETATM    5  C2  UNL     1     -33.865   8.252   5.823  1.00 20.00     0.005 C 
ENDBRANCH   3   4
ENDBRANCH   1   3
BRANCH   1   6
HETATM    6  O9  UNL     1     -34.112   5.927   3.658  1.00 20.00    -0.317 OA
BRANCH   6   7
HETATM    7  C7  UNL     1     -32.805   5.822   3.084  1.00 20.00     0.123 C 
HETATM    8  C3  UNL     1     -32.870   4.938   1.848  1.00 20.00     0.040 C 
HETATM    9  C4  UNL     1     -32.287   7.214   2.759  1.00 20.00     0.040 C 
ENDBRANCH   6   7
ENDBRANCH   1   6
TORSDOF 4
ENDMDL
MODEL 8
REMARK VINA RESULT:      -3.6      1.403      4.171
REMARK  4 active torsions:
REMARK  status: ('A' for Active; 'I' for Inactive)
REMARK    1  A    between atoms: C1_1  and  C5_5 
REMARK    2  A    between atoms: C1_1  and  O9_9 
REMARK    3  A    between atoms: C5_5  and  C6_6 
REMARK    4  A    between atoms: C7_7  and  O9_9 
ROOT
HETATM    1  C1  UNL     1     -33.033   6.266   3.267  1.00 20.00     0.259 C 
HETATM    2  O8  UNL     1     -32.983   5.164   2.738  1.00 20.00    -0.265 OA
ENDROOT
BRANCH   1   3
HETATM    3  C5  UNL     1     -32.035   7.382   3.052  1.00 20.00     0.111 C 
BRANCH   3   4
HETATM    4  C6  UNL     1     -32.698   8.757   3.088  1.00 20.00     0.005 C 
HETATM    5  C2  UNL     1     -32.820   9.352   1.695  1.00 20.00     0.005 C 
ENDBRANCH   3   4
ENDBRANCH   1   3
BRANCH   1   6
HETATM    6  O9  UNL     1     -33.990   6.691   4.143  1.00 20.00    -0.317 OA
BRANCH   6   7
HETATM    7  C7  UNL     1     -33.840   6.233   5.491  1.00 20.00     0.123 C 
HETATM    8  C3  UNL     1     -33.981   7.414   6.439  1.00 20.00     0.040 C 
HETATM    9  C4  UNL     1     -34.873   5.153   5.771  1.00 20.00     0.040 C 
ENDBRANCH   6   7
ENDBRANCH   1   6
TORSDOF 4
ENDMDL
MODEL 9
REMARK VINA RESULT:      -3.5      9.420     10.625
REMARK  4 active torsions:
REMARK  status: ('A' for Active; 'I' for Inactive)
REMARK    1  A    between atoms: C1_1  and  C5_5 
REMARK    2  A    between atoms: C1_1  and  O9_9 
REMARK    3  A    between atoms: C5_5  and  C6_6 
REMARK    4  A    between atoms: C7_7  and  O9_9 
ROOT
HETATM    1  C1  UNL     1     -41.155  12.749   6.801  1.00 20.00     0.259 C 
HETATM    2  O8  UNL     1     -42.229  12.242   7.094  1.00 20.00    -0.265 OA
ENDROOT
BRANCH   1   3
HETATM    3  C5  UNL     1     -40.559  12.785   5.412  1.00 20.00     0.111 C 
BRANCH   3   4
HETATM    4  C6  UNL     1     -39.219  12.056   5.346  1.00 20.00     0.005 C 
HETATM    5  C2  UNL     1     -38.875  11.649   3.922  1.00 20.00     0.005 C 
ENDBRANCH   3   4
ENDBRANCH   1   3
BRANCH   1   6
HETATM    6  O9  UNL     1     -40.301  13.373   7.665  1.00 20.00    -0.317 OA
BRANCH   6   7
HETATM    7  C7  UNL     1     -40.848  14.491   8.372  1.00 20.00     0.123 C 
HETATM    8  C3  UNL     1     -40.404  14.429   9.826  1.00 20.00     0.040 C 
HETATM    9  C4  UNL     1     -40.401  15.778   7.697  1.00 20.00     0.040 C 
ENDBRANCH   6   7
ENDBRANCH   1   6
TORSDOF 4
ENDMDL
