MODEL 1
REMARK VINA RESULT:      -5.1      0.000      0.000
REMARK  1 active torsions:
REMARK  status: ('A' for Active; 'I' for Inactive)
REMARK    1  A    between atoms: C3_3  and  O11_11 
ROOT
HETATM    1  C1  UNL     1     -33.202   5.869   3.366  1.00 20.00    -0.019 A 
HETATM    2  C2  UNL     1     -32.681   7.157   3.423  1.00 20.00    -0.029 A 
HETATM    3  C3  UNL     1     -33.923   5.367   4.442  1.00 20.00     0.096 A 
HETATM    4  C4  UNL     1     -32.908   7.897   4.572  1.00 20.00     0.037 A 
HETATM    5  C5  UNL     1     -34.095   6.187   5.546  1.00 20.00     0.064 A 
HETATM    6  C6  UNL     1     -32.989   5.022   2.152  1.00 20.00     0.052 C 
HETATM    7  C7  UNL     1     -31.902   7.722   2.284  1.00 20.00     0.051 C 
HETATM    8  C8  UNL     1     -32.375   9.286   4.692  1.00 20.00     0.071 C 
HETATM    9  C9  UNL     1     -34.862   5.699   6.731  1.00 20.00     0.073 C 
HETATM   10  N10 UNL     1     -33.604   7.443   5.639  1.00 20.00    -0.255 NA
ENDROOT
BRANCH   3  11
HETATM   11  O11 UNL     1     -34.443   4.112   4.414  1.00 20.00    -0.358 OA
HETATM   12  H24 UNL     1     -34.515   3.755   5.314  1.00 20.00     0.217 HD
ENDBRANCH   3  11
TORSDOF 1
ENDMDL
MODEL 2
REMARK VINA RESULT:      -4.8      1.173      2.919
REMARK  1 active torsions:
REMARK  status: ('A' for Active; 'I' for Inactive)
REMARK    1  A    between atoms: C3_3  and  O11_11 
ROOT
HETATM    1  C1  UNL     1     -34.064   6.239   5.236  1.00 20.00    -0.019 A 
HETATM    2  C2  UNL     1     -33.559   7.522   5.056  1.00 20.00    -0.029 A 
HETATM    3  C3  UNL     1     -33.834   5.264   4.272  1.00 20.00     0.096 A 
HETATM    4  C4  UNL     1     -32.835   7.777   3.902  1.00 20.00     0.037 A 
HETATM    5  C5  UNL     1     -33.098   5.619   3.153  1.00 20.00     0.064 A 
HETATM    6  C6  UNL     1     -34.854   5.903   6.461  1.00 20.00     0.052 C 
HETATM    7  C7  UNL     1     -33.790   8.588   6.072  1.00 20.00     0.051 C 
HETATM    8  C8  UNL     1     -32.267   9.135   3.653  1.00 20.00     0.071 C 
HETATM    9  C9  UNL     1     -32.820   4.612   2.086  1.00 20.00     0.073 C 
HETATM   10  N10 UNL     1     -32.591   6.855   2.943  1.00 20.00    -0.255 NA
ENDROOT
BRANCH   3  11
HETATM   11  O11 UNL     1     -34.316   4.002   4.422  1.00 20.00    -0.358 OA
HETATM   12  H24 UNL     1     -34.150   3.682   5.324  1.00 20.00     0.217 HD
ENDBRANCH   3  11
TORSDOF 1
ENDMDL
MODEL 3
REMARK VINA RESULT:      -4.8      1.838      3.783
REMARK  1 active torsions:
REMARK  status: ('A' for Active; 'I' for Inactive)
REMARK    1  A    between atoms: C3_3  and  O11_11 
ROOT
HETATM    1  C1  UNL     1     -32.923   7.674   4.320  1.00 20.00    -0.019 A 
HETATM    2  C2  UNL     1     -33.673   7.115   5.350  1.00 20.00    -0.029 A 
HETATM    3  C3  UNL     1     -32.682   6.940   3.165  1.00 20.00     0.096 A 
HETATM    4  C4  UNL     1     -34.156   5.829   5.175  1.00 20.00     0.037 A 
HETATM    5  C5  UNL     1     -33.209   5.661   3.087  1.00 20.00     0.064 A 
HETATM    6  C6  UNL     1     -32.375   9.059   4.451  1.00 20.00     0.052 C 
HETATM    7  C7  UNL     1     -33.949   7.879   6.601  1.00 20.00     0.051 C 
HETATM    8  C8  UNL     1     -34.969   5.176   6.244  1.00 20.00     0.071 C 
HETATM    9  C9  UNL     1     -32.980   4.828   1.869  1.00 20.00     0.073 C 
HETATM   10  N10 UNL     1     -33.942   5.084   4.067  1.00 20.00    -0.255 NA
ENDROOT
BRANCH   3  11
HETATM   11  O11 UNL     1     -31.951   7.461   2.144  1.00 20.00    -0.358 OA
HETATM   12  H24 UNL     1     -32.375   8.264   1.801  1.00 20.00     0.217 HD
ENDBRANCH   3  11
TORSDOF 1
ENDMDL
MODEL 4
REMARK VINA RESULT:      -4.7      1.606      2.905
REMARK  1 active torsions:
REMARK  status: ('A' for Active; 'I' for Inactive)
REMARK    1  A    between atoms: C3_3  and  O11_11 
ROOT
HETATM    1  C1  UNL     1     -33.008   7.695   4.521  1.00 20.00    -0.019 A 
HETATM    2  C2  UNL     1     -32.746   6.996   3.348  1.00 20.00    -0.029 A 
HETATM    3  C3  UNL     1     -33.758   7.099   5.528  1.00 20.00     0.096 A 
HETATM    4  C4  UNL     1     -33.253   5.712   3.232  1.00 20.00     0.037 A 
HETATM    5  C5  UNL     1     -34.220   5.810   5.315  1.00 20.00     0.064 A 
HETATM    6  C6  UNL     1     -32.487   9.085   4.704  1.00 20.00     0.052 C 
HETATM    7  C7  UNL     1     -31.945   7.611   2.250  1.00 20.00     0.051 C 
HETATM    8  C8  UNL     1     -33.005   4.912   1.996  1.00 20.00     0.071 C 
HETATM    9  C9  UNL     1     -35.030   5.121   6.363  1.00 20.00     0.073 C 
HETATM   10  N10 UNL     1     -33.986   5.099   4.188  1.00 20.00    -0.255 NA
ENDROOT
BRANCH   3  11
HETATM   11  O11 UNL     1     -34.029   7.759   6.684  1.00 20.00    -0.358 OA
HETATM   12  H24 UNL     1     -33.883   7.177   7.448  1.00 20.00     0.217 HD
ENDBRANCH   3  11
TORSDOF 1
ENDMDL
MODEL 5
REMARK VINA RESULT:      -4.4      9.995     11.009
REMARK  1 active torsions:
REMARK  status: ('A' for Active; 'I' for Inactive)
REMARK    1  A    between atoms: C3_3  and  O11_11 
ROOT
HETATM    1  C1  UNL     1     -40.653  13.881   7.137  1.00 20.00    -0.019 A 
HETATM    2  C2  UNL     1     -41.645  14.525   6.406  1.00 20.00    -0.029 A 
HETATM    3  C3  UNL     1     -39.860  12.917   6.526  1.00 20.00     0.096 A 
HETATM    4  C4  UNL     1     -41.802  14.172   5.076  1.00 20.00     0.037 A 
HETATM    5  C5  UNL     1     -40.097  12.634   5.190  1.00 20.00     0.064 A 
HETATM    6  C6  UNL     1     -40.436  14.219   8.578  1.00 20.00     0.052 C 
HETATM    7  C7  UNL     1     -42.511  15.563   7.035  1.00 20.00     0.051 C 
HETATM    8  C8  UNL     1     -42.850  14.829   4.239  1.00 20.00     0.071 C 
HETATM    9  C9  UNL     1     -39.275  11.607   4.483  1.00 20.00     0.073 C 
HETATM   10  N10 UNL     1     -41.052  13.239   4.447  1.00 20.00    -0.255 NA
ENDROOT
BRANCH   3  11
HETATM   11  O11 UNL     1     -38.884  12.271   7.217  1.00 20.00    -0.358 OA
HETATM   12  H24 UNL     1     -38.042  12.318   6.736  1.00 20.00     0.217 HD
ENDBRANCH   3  11
TORSDOF 1
ENDMDL
MODEL 6
REMARK VINA RESULT:      -4.4      1.615      3.277
REMARK  1 active torsions:
REMARK  status: ('A' for Active; 'I' for Inactive)
REMARK    1  A    between atoms: C3_3  and  O11_11 
ROOT
HETATM    1  C1  UNL     1     -33.123   6.036   3.302  1.00 20.00    -0.019 A 
HETATM    2  C2  UNL     1     -33.806   5.733   4.474  1.00 20.00    -0.029 A 
HETATM    3  C3  UNL     1     -32.595   7.309   3.119  1.00 20.00     0.096 A 
HETATM    4  C4  UNL     1     -33.933   6.730   5.427  1.00 20.00     0.037 A 
HETATM    5  C5  UNL     1     -32.776   8.237   4.133  1.00 20.00     0.064 A 
HETATM    6  C6  UNL     1     -32.954   5.001   2.236  1.00 20.00     0.052 C 
HETATM    7  C7  UNL     1     -34.383   4.376   4.697  1.00 20.00     0.051 C 
HETATM    8  C8  UNL     1     -34.655   6.464   6.707  1.00 20.00     0.071 C 
HETATM    9  C9  UNL     1     -32.230   9.620   3.990  1.00 20.00     0.073 C 
HETATM   10  N10 UNL     1     -33.434   7.979   5.286  1.00 20.00    -0.255 NA
ENDROOT
BRANCH   3  11
HETATM   11  O11 UNL     1     -31.924   7.634   1.983  1.00 20.00    -0.358 OA
HETATM   12  H24 UNL     1     -32.539   7.703   1.235  1.00 20.00     0.217 HD
ENDBRANCH   3  11
TORSDOF 1
ENDMDL
MODEL 7
REMARK VINA RESULT:      -4.2      1.374      3.161
REMARK  1 active torsions:
REMARK  status: ('A' for Active; 'I' for Inactive)
REMARK    1  A    between atoms: C3_3  and  O11_11 
ROOT
HETATM    1  C1  UNL     1     -33.692   5.700   4.265  1.00 20.00    -0.019 A 
HETATM    2  C2  UNL     1     -33.906   6.660   5.248  1.00 20.00    -0.029 A 
HETATM    3  C3  UNL     1     -33.043   6.050   3.087  1.00 20.00     0.096 A 
HETATM    4  C4  UNL     1     -33.453   7.947   5.006  1.00 20.00     0.037 A 
HETATM    5  C5  UNL     1     -32.629   7.364   2.941  1.00 20.00     0.064 A 
HETATM    6  C6  UNL     1     -34.158   4.293   4.469  1.00 20.00     0.052 C 
HETATM    7  C7  UNL     1     -34.600   6.314   6.522  1.00 20.00     0.051 C 
HETATM    8  C8  UNL     1     -33.653   9.021   6.024  1.00 20.00     0.071 C 
HETATM    9  C9  UNL     1     -31.926   7.796   1.696  1.00 20.00     0.073 C 
HETATM   10  N10 UNL     1     -32.819   8.325   3.874  1.00 20.00    -0.255 NA
ENDROOT
BRANCH   3  11
HETATM   11  O11 UNL     1     -32.821   5.132   2.110  1.00 20.00    -0.358 OA
HETATM   12  H24 UNL     1     -32.292   4.394   2.453  1.00 20.00     0.217 HD
ENDBRANCH   3  11
TORSDOF 1
ENDMDL
MODEL 8
REMARK VINA RESULT:      -4.1      2.195      4.340
REMARK  1 active torsions:
REMARK  status: ('A' for Active; 'I' for Inactive)
REMARK    1  A    between atoms: C3_3  and  O11_11 
ROOT
HETATM    1  C1  UNL     1     -33.458   7.841   5.081  1.00 20.00    -0.019 A 
HETATM    2  C2  UNL     1     -33.889   6.522   5.170  1.00 20.00    -0.029 A 
HETATM    3  C3  UNL     1     -32.794   8.276   3.940  1.00 20.00     0.096 A 
HETATM    4  C4  UNL     1     -33.633   5.684   4.097  1.00 20.00     0.037 A 
HETATM    5  C5  UNL     1     -32.587   7.360   2.922  1.00 20.00     0.064 A 
HETATM    6  C6  UNL     1     -33.706   8.793   6.208  1.00 20.00     0.052 C 
HETATM    7  C7  UNL     1     -34.603   6.026   6.381  1.00 20.00     0.051 C 
HETATM    8  C8  UNL     1     -34.071   4.257   4.133  1.00 20.00     0.071 C 
HETATM    9  C9  UNL     1     -31.879   7.773   1.674  1.00 20.00     0.073 C 
HETATM   10  N10 UNL     1     -32.990   6.070   2.972  1.00 20.00    -0.255 NA
ENDROOT
BRANCH   3  11
HETATM   11  O11 UNL     1     -32.362   9.560   3.827  1.00 20.00    -0.358 OA
HETATM   12  H24 UNL     1     -31.773   9.784   4.566  1.00 20.00     0.217 HD
ENDBRANCH   3  11
TORSDOF 1
ENDMDL
MODEL 9
REMARK VINA RESULT:      -4.0      1.943      3.907
REMARK  1 active torsions:
REMARK  status: ('A' for Active; 'I' for Inactive)
REMARK    1  A    between atoms: C3_3  and  O11_11 
ROOT
HETATM    1  C1  UNL     1     -34.003   6.615   5.308  1.00 20.00    -0.019 A 
HETATM    2  C2  UNL     1     -33.766   5.612   4.374  1.00 20.00    -0.029 A 
HETATM    3  C3  UNL     1     -33.533   7.902   5.076  1.00 20.00     0.096 A 
HETATM    4  C4  UNL     1     -33.058   5.947   3.231  1.00 20.00     0.037 A 
HETATM    5  C5  UNL     1     -32.835   8.134   3.901  1.00 20.00     0.064 A 
HETATM    6  C6  UNL     1     -34.762   6.314   6.562  1.00 20.00     0.052 C 
HETATM    7  C7  UNL     1     -34.258   4.222   4.597  1.00 20.00     0.051 C 
HETATM    8  C8  UNL     1     -32.772   4.914   2.191  1.00 20.00     0.071 C 
HETATM    9  C9  UNL     1     -32.307   9.498   3.600  1.00 20.00     0.073 C 
HETATM   10  N10 UNL     1     -32.584   7.186   2.970  1.00 20.00    -0.255 NA
ENDROOT
BRANCH   3  11
HETATM   11  O11 UNL     1     -33.750   8.900   5.972  1.00 20.00    -0.358 OA
HETATM   12  H24 UNL     1     -33.773   9.760   5.521  1.00 20.00     0.217 HD
ENDBRANCH   3  11
TORSDOF 1
ENDMDL
