MODEL 1
REMARK VINA RESULT:      -2.6      0.000      0.000
REMARK  1 active torsions:
REMARK  status: ('A' for Active; 'I' for Inactive)
REMARK    1  A    between atoms: C3_3  and  N6_6 
ROOT
HETATM    1  C1  UNL     1     -32.979  15.957  -3.904  1.00 20.00     0.123 C 
HETATM    2  C2  UNL     1     -34.341  17.862  -5.081  1.00 20.00     0.123 C 
HETATM    3  C3  UNL     1     -33.581  17.378  -3.826  1.00 20.00     0.242 C 
HETATM    4  S7  UNL     1     -34.191  14.604  -4.087  1.00 20.00    -0.084 SA
HETATM    5  S8  UNL     1     -35.834  16.903  -5.511  1.00 20.00    -0.084 SA
HETATM    6  S9  UNL     1     -34.980  15.089  -5.910  1.00 20.00    -0.025 SA
ENDROOT
BRANCH   3   7
HETATM    7  N6  UNL     1     -34.414  17.524  -2.627  1.00 20.00     0.086 N 
HETATM    8  C4  UNL     1     -34.989  18.865  -2.575  1.00 20.00     0.310 C 
HETATM    9  C5  UNL     1     -33.623  17.254  -1.430  1.00 20.00     0.310 C 
ENDBRANCH   3   7
TORSDOF 1
ENDMDL
MODEL 2
REMARK VINA RESULT:      -2.6      2.672      3.708
REMARK  1 active torsions:
REMARK  status: ('A' for Active; 'I' for Inactive)
REMARK    1  A    between atoms: C3_3  and  N6_6 
ROOT
HETATM    1  C1  UNL     1     -34.887  15.163  -5.035  1.00 20.00     0.123 C 
HETATM    2  C2  UNL     1     -35.316  17.730  -4.730  1.00 20.00     0.123 C 
HETATM    3  C3  UNL     1     -35.263  16.515  -5.682  1.00 20.00     0.242 C 
HETATM    4  S7  UNL     1     -33.212  15.079  -4.316  1.00 20.00    -0.084 SA
HETATM    5  S8  UNL     1     -33.729  18.179  -3.945  1.00 20.00    -0.084 SA
HETATM    6  S9  UNL     1     -33.394  16.488  -2.846  1.00 20.00    -0.025 SA
ENDROOT
BRANCH   3   7
HETATM    7  N6  UNL     1     -34.402  16.796  -6.835  1.00 20.00     0.086 N 
HETATM    8  C4  UNL     1     -34.842  18.017  -7.505  1.00 20.00     0.310 C 
HETATM    9  C5  UNL     1     -34.414  15.666  -7.759  1.00 20.00     0.310 C 
ENDBRANCH   3   7
TORSDOF 1
ENDMDL
MODEL 3
REMARK VINA RESULT:      -2.5      2.222      3.283
REMARK  1 active torsions:
REMARK  status: ('A' for Active; 'I' for Inactive)
REMARK    1  A    between atoms: C3_3  and  N6_6 
ROOT
HETATM    1  C1  UNL     1     -35.402  17.638  -4.960  1.00 20.00     0.123 C 
HETATM    2  C2  UNL     1     -35.258  15.349  -6.227  1.00 20.00     0.123 C 
HETATM    3  C3  UNL     1     -35.036  16.138  -4.918  1.00 20.00     0.242 C 
HETATM    4  S7  UNL     1     -34.417  18.651  -6.116  1.00 20.00    -0.084 SA
HETATM    5  S8  UNL     1     -34.244  15.888  -7.647  1.00 20.00    -0.084 SA
HETATM    6  S9  UNL     1     -34.962  17.787  -7.886  1.00 20.00    -0.025 SA
ENDROOT
BRANCH   3   7
HETATM    7  N6  UNL     1     -33.667  15.951  -4.425  1.00 20.00     0.086 N 
HETATM    8  C4  UNL     1     -33.366  14.528  -4.305  1.00 20.00     0.310 C 
HETATM    9  C5  UNL     1     -33.498  16.626  -3.142  1.00 20.00     0.310 C 
ENDBRANCH   3   7
TORSDOF 1
ENDMDL
MODEL 4
REMARK VINA RESULT:      -2.4      1.705      2.513
REMARK  1 active torsions:
REMARK  status: ('A' for Active; 'I' for Inactive)
REMARK    1  A    between atoms: C3_3  and  N6_6 
ROOT
HETATM    1  C1  UNL     1     -33.605  17.907  -4.136  1.00 20.00     0.123 C 
HETATM    2  C2  UNL     1     -34.906  16.674  -6.048  1.00 20.00     0.123 C 
HETATM    3  C3  UNL     1     -34.845  17.857  -5.057  1.00 20.00     0.242 C 
HETATM    4  S7  UNL     1     -33.435  16.508  -2.977  1.00 20.00    -0.084 SA
HETATM    5  S8  UNL     1     -35.004  15.018  -5.286  1.00 20.00    -0.084 SA
HETATM    6  S9  UNL     1     -33.207  14.976  -4.312  1.00 20.00    -0.025 SA
ENDROOT
BRANCH   3   7
HETATM    7  N6  UNL     1     -36.080  17.938  -4.269  1.00 20.00     0.086 N 
HETATM    8  C4  UNL     1     -37.238  18.002  -5.155  1.00 20.00     0.310 C 
HETATM    9  C5  UNL     1     -36.038  19.101  -3.387  1.00 20.00     0.310 C 
ENDBRANCH   3   7
TORSDOF 1
ENDMDL
MODEL 5
REMARK VINA RESULT:      -2.4      1.650      2.753
REMARK  1 active torsions:
REMARK  status: ('A' for Active; 'I' for Inactive)
REMARK    1  A    between atoms: C3_3  and  N6_6 
ROOT
HETATM    1  C1  UNL     1     -34.805  16.930  -5.823  1.00 20.00     0.123 C 
HETATM    2  C2  UNL     1     -34.556  18.763  -3.967  1.00 20.00     0.123 C 
HETATM    3  C3  UNL     1     -34.048  17.438  -4.576  1.00 20.00     0.242 C 
HETATM    4  S7  UNL     1     -36.560  16.507  -5.555  1.00 20.00    -0.084 SA
HETATM    5  S8  UNL     1     -36.261  18.722  -3.314  1.00 20.00    -0.084 SA
HETATM    6  S9  UNL     1     -37.286  18.348  -5.043  1.00 20.00    -0.025 SA
ENDROOT
BRANCH   3   7
HETATM    7  N6  UNL     1     -33.975  16.390  -3.551  1.00 20.00     0.086 N 
HETATM    8  C4  UNL     1     -33.220  16.869  -2.396  1.00 20.00     0.310 C 
HETATM    9  C5  UNL     1     -33.363  15.187  -4.106  1.00 20.00     0.310 C 
ENDBRANCH   3   7
TORSDOF 1
ENDMDL
MODEL 6
REMARK VINA RESULT:      -2.4      2.597      3.948
REMARK  1 active torsions:
REMARK  status: ('A' for Active; 'I' for Inactive)
REMARK    1  A    between atoms: C3_3  and  N6_6 
ROOT
HETATM    1  C1  UNL     1     -35.004  18.621  -4.494  1.00 20.00     0.123 C 
HETATM    2  C2  UNL     1     -32.978  17.832  -3.030  1.00 20.00     0.123 C 
HETATM    3  C3  UNL     1     -33.863  17.602  -4.275  1.00 20.00     0.242 C 
HETATM    4  S7  UNL     1     -36.283  18.654  -3.192  1.00 20.00    -0.084 SA
HETATM    5  S8  UNL     1     -33.837  17.704  -1.424  1.00 20.00    -0.084 SA
HETATM    6  S9  UNL     1     -35.147  19.262  -1.605  1.00 20.00    -0.025 SA
ENDROOT
BRANCH   3   7
HETATM    7  N6  UNL     1     -34.382  16.230  -4.296  1.00 20.00     0.086 N 
HETATM    8  C4  UNL     1     -33.284  15.275  -4.166  1.00 20.00     0.310 C 
HETATM    9  C5  UNL     1     -35.129  15.994  -5.527  1.00 20.00     0.310 C 
ENDBRANCH   3   7
TORSDOF 1
ENDMDL
MODEL 7
REMARK VINA RESULT:      -2.4     17.332     18.129
REMARK  1 active torsions:
REMARK  status: ('A' for Active; 'I' for Inactive)
REMARK    1  A    between atoms: C3_3  and  N6_6 
ROOT
HETATM    1  C1  UNL     1     -22.372  17.649   9.472  1.00 20.00     0.123 C 
HETATM    2  C2  UNL     1     -24.399  17.710  11.132  1.00 20.00     0.123 C 
HETATM    3  C3  UNL     1     -23.889  17.858   9.682  1.00 20.00     0.242 C 
HETATM    4  S7  UNL     1     -21.293  18.854  10.317  1.00 20.00    -0.084 SA
HETATM    5  S8  UNL     1     -23.739  18.927  12.322  1.00 20.00    -0.084 SA
HETATM    6  S9  UNL     1     -21.757  18.431  12.263  1.00 20.00    -0.025 SA
ENDROOT
BRANCH   3   7
HETATM    7  N6  UNL     1     -24.321  19.137   9.108  1.00 20.00     0.086 N 
HETATM    8  C4  UNL     1     -25.777  19.241   9.151  1.00 20.00     0.310 C 
HETATM    9  C5  UNL     1     -23.833  19.263   7.738  1.00 20.00     0.310 C 
ENDBRANCH   3   7
TORSDOF 1
ENDMDL
MODEL 8
REMARK VINA RESULT:      -2.3     24.695     25.622
REMARK  1 active torsions:
REMARK  status: ('A' for Active; 'I' for Inactive)
REMARK    1  A    between atoms: C3_3  and  N6_6 
ROOT
HETATM    1  C1  UNL     1     -25.826  -3.523  10.475  1.00 20.00     0.123 C 
HETATM    2  C2  UNL     1     -27.867  -1.952   9.988  1.00 20.00     0.123 C 
HETATM    3  C3  UNL     1     -26.405  -2.090  10.469  1.00 20.00     0.242 C 
HETATM    4  S7  UNL     1     -26.649  -4.694  11.608  1.00 20.00    -0.084 SA
HETATM    5  S8  UNL     1     -29.113  -2.799  11.019  1.00 20.00    -0.084 SA
HETATM    6  S9  UNL     1     -28.513  -4.737  10.769  1.00 20.00    -0.025 SA
ENDROOT
BRANCH   3   7
HETATM    7  N6  UNL     1     -26.227  -1.453  11.778  1.00 20.00     0.086 N 
HETATM    8  C4  UNL     1     -26.742  -0.087  11.746  1.00 20.00     0.310 C 
HETATM    9  C5  UNL     1     -24.817  -1.466  12.156  1.00 20.00     0.310 C 
ENDBRANCH   3   7
TORSDOF 1
ENDMDL
MODEL 9
REMARK VINA RESULT:      -2.3      2.767      4.037
REMARK  1 active torsions:
REMARK  status: ('A' for Active; 'I' for Inactive)
REMARK    1  A    between atoms: C3_3  and  N6_6 
ROOT
HETATM    1  C1  UNL     1     -34.447  17.340  -6.132  1.00 20.00     0.123 C 
HETATM    2  C2  UNL     1     -33.492  15.438  -4.603  1.00 20.00     0.123 C 
HETATM    3  C3  UNL     1     -34.527  15.869  -5.666  1.00 20.00     0.242 C 
HETATM    4  S7  UNL     1     -34.774  18.588  -4.841  1.00 20.00    -0.084 SA
HETATM    5  S8  UNL     1     -33.620  16.292  -2.995  1.00 20.00    -0.084 SA
HETATM    6  S9  UNL     1     -33.208  18.206  -3.583  1.00 20.00    -0.025 SA
ENDROOT
BRANCH   3   7
HETATM    7  N6  UNL     1     -35.888  15.535  -5.231  1.00 20.00     0.086 N 
HETATM    8  C4  UNL     1     -36.026  14.090  -5.077  1.00 20.00     0.310 C 
HETATM    9  C5  UNL     1     -36.862  16.049  -6.190  1.00 20.00     0.310 C 
ENDBRANCH   3   7
TORSDOF 1
ENDMDL
